data_PCOD8046308
_publ_section_title
;
Structure prediction by ZEFSAII (Michael W. Deem and Ramdas Pophale) SiO2 
 PCOD8046308
Probable space group: P 21
;
_chemical_formula_sum "Si O2"
_cell_formula_units_Z 16
_cell_length_a 12.167222
_cell_length_b 8.795148
_cell_length_c 14.942623
_cell_angle_alpha 90.000000
_cell_angle_beta 152.352653
_cell_angle_gamma 90.000000
_cell_volume 742.003235
_symmetry_space_group_name_H-M "P 21"
_symmetry_group_IT_number 4
_symmetry_cell_setting 'monoclinic'
loop_
_space_group_symop_operation_xyz
x,y,z
-x,1/2+y,-z
loop_
_atom_site_type_symbol
_atom_site_label
_atom_site_fract_x
_atom_site_fract_y
_atom_site_fract_z
Si Si1 0.326267 0.550180 0.585130
Si Si2 0.073368 0.297204 0.480449
Si Si3 0.253303 0.887272 0.324123
Si Si4 0.788095 0.393056 0.915026
Si Si5 0.535668 0.131387 0.834821
Si Si6 0.217272 0.862464 0.567406
Si Si7 0.945328 0.057316 0.249143
Si Si8 0.258194 0.523688 0.339139
O O1 0.129813 0.475267 0.507732
O O2 0.591171 0.510591 0.809278
O O3 0.297039 0.729518 0.559187
O O4 0.280184 0.471662 0.457008
O O5 0.302107 0.224761 0.694675
O O6 0.038990 0.216198 0.358927
O O7 0.842070 0.294327 0.377254
O O8 0.186458 0.913332 0.172665
O O9 0.239786 0.705979 0.325742
O O10 0.075654 0.987922 0.256154
O O11 0.506742 0.955596 0.537399
O O12 0.704271 0.223231 0.885974
O O13 0.035930 0.438168 0.136616
O O14 0.441372 0.974721 0.724046
O O15 0.675461 0.088302 0.026282
O O16 0.977628 0.937406 0.353889
#
# Coordination Sequence:
#
# PCOD8046308 Si02
#       8
#     2   2   2   2   2   2   2   2
#     4  10  21  41  62  95 128 170 219 272 330 386
#     4  10  23  44  68  92 131 174 220 281 335 393
#     4  11  27  40  67  97 129 179 225 271 334 397
#     4  10  25  41  64  96 136 175 219 268 330 399
#     4  10  24  42  69  97 133 178 218 275 337 401
#     4  11  23  42  68  98 131 169 225 279 336 397
#     4  11  24  43  66  97 132 175 222 274 336 401
#     4  11  25  43  64  94 134 174 222 274 328 402
#
# _framework density 21.563247
#
# number of rings (size 3 to 8) (size 9 to 14) (size 15 to 20)
#    0.000    1.500    1.250    2.250   12.250    2.000 
#    0.000    3.750    0.000    0.000    0.000    0.000 
#    0.000    0.000    0.000    0.000    0.000    0.000 
#
# Total GULP energy -198250.449295 kJ/mol
# GULP energy per Si atom -12390.653081 kJ/mol
# Density = 2.151417 g / cm^3
# Si number density = 21.563247 Si / 1000 Ang^3
#
#
#
# Elastic Constant Matrix: (Units=GPa)
#
#
# Indices 1 2 3 4 5 6 
#
# 1 79.9602 31.4145 30.7702 0.0000 0.5688 0.0000
# 2 31.4145 131.3543 51.3789 0.0000 1.5641 0.0000
# 3 30.7702 51.3789 151.7940 0.0000 -5.0813 0.0000
# 4 0.0000 0.0000 0.0000 26.5456 0.0000 0.3027
# 5 0.5688 1.5641 -5.0813 0.0000 22.5965 0.0000
# 6 0.0000 0.0000 0.0000 0.3027 0.0000 31.7014
#
#
#
# Elastic Compliance Matrix: (Units=1/GPa)
#
#
# Indices 1 2 3 4 5 6 
#
# 1 0.014325 -0.002621 -0.002038 0.000000 -0.000637 0.000000
# 2 -0.002621 0.009292 -0.002653 0.000000 -0.001174 0.000000
# 3 -0.002038 -0.002653 0.007967 0.000000 0.002026 0.000000
# 4 0.000000 0.000000 0.000000 0.037675 0.000000 -0.000360
# 5 -0.000637 -0.001174 0.002026 0.000000 0.044808 0.000000
# 6 0.000000 0.000000 0.000000 -0.000360 0.000000 0.031548
#
#
# Mechanical properties :
#
#
# Convention : Reuss Voigt Hill
#
# Bulk Modulus (GPa) = 58.96556 65.58176 62.27366
# Shear Modulus (GPa) = 30.14034 32.80503 31.47268
#
# Velocity S-wave (km/s) = 3.74272 3.90467 3.82455
# Velocity P-wave (km/s) = 6.78838 7.12799 6.96026
#
# Compressibility (1/GPa) = 0.01695905
#
# Stress axis : x y z
#
# Youngs Moduli (GPa) = 69.80911 107.62473 125.52133
#
# Poissons Ratio (x) = 0.28210 0.25580
# Poissons Ratio (y) = 0.18298 0.33300
# Poissons Ratio (z) = 0.14226 0.28552
#
# Static dielectric constant tensor:
#      x y z
#    x 3.696010 0.000000 -0.087450 
#    y 0.000000 3.970410 0.000000 
#    z -0.087450 0.000000 3.941420 
# 
# 
# High freq. dielectric constant tensor:
#      x y z
#    x 1.835950 0.000000 -0.006610 
#    y 0.000000 1.861450 0.000000 
#    z -0.006610 0.000000 1.844480 
# 
# From -- ./inp_files/12541.got.cif
#   From: 2010.03.12/outbox.cif.g09.slc.cpg/sg4_7_cif.got.tgz:12541.got - 2010.03.31 09:31:35.
