data_PCOD8046325
_publ_section_title
;
Structure prediction by ZEFSAII (Michael W. Deem and Ramdas Pophale) SiO2 
 PCOD8046325
Probable space group: P 21
;
_chemical_formula_sum "Si O2"
_cell_formula_units_Z 14
_cell_length_a 8.790979
_cell_length_b 9.487482
_cell_length_c 8.237551
_cell_angle_alpha 90.000000
_cell_angle_beta 118.122821
_cell_angle_gamma 90.000000
_cell_volume 605.933503
_symmetry_space_group_name_H-M "P 21"
_symmetry_group_IT_number 4
_symmetry_cell_setting 'monoclinic'
loop_
_space_group_symop_operation_xyz
x,y,z
-x,1/2+y,-z
loop_
_atom_site_type_symbol
_atom_site_label
_atom_site_fract_x
_atom_site_fract_y
_atom_site_fract_z
Si Si1 0.228902 0.231290 0.809445
Si Si2 0.030392 0.497487 0.246152
Si Si3 0.588752 0.042830 0.519153
Si Si4 0.246985 0.778606 0.892227
Si Si5 0.526277 0.765309 0.795536
Si Si6 0.510010 0.280961 0.703842
Si Si7 0.196489 0.480708 0.004024
O O1 0.316684 0.268575 0.680947
O O2 0.093810 0.106214 0.725567
O O3 0.382642 0.183425 0.007942
O O4 0.129754 0.365883 0.839051
O O5 0.212644 0.513616 0.428526
O O6 0.053299 0.526310 0.063985
O O7 0.945566 0.342377 0.216638
O O8 0.492720 0.155010 0.356835
O O9 0.575768 0.124184 0.685976
O O10 0.491044 0.892116 0.448850
O O11 0.339888 0.815092 0.768299
O O12 0.356472 0.844476 0.097090
O O13 0.245663 0.611364 0.916992
O O14 0.644427 0.904433 0.811505
#
# Coordination Sequence:
#
# PCOD8046325 Si02
#       7
#     2   2   2   2   2   2   2
#     4   9  23  44  72  95 129 182 233 270 332 420
#     4  12  24  38  66 101 136 168 221 285 347 384
#     4  12  25  44  65 105 139 172 223 296 349 391
#     4  11  23  43  71  94 130 184 234 271 329 423
#     4   9  23  41  74  92 130 178 231 272 332 411
#     4  11  25  45  69  95 135 185 233 275 336 421
#     4  10  21  41  67 100 123 175 227 279 317 400
#
# _framework density 23.104849000000002
#
# number of rings (size 3 to 8) (size 9 to 14) (size 15 to 20)
#    0.857    0.571    1.429    3.429    4.000    1.143 
#    2.571    0.000    0.000    0.000    0.000    0.000 
#    0.000    0.000    0.000    0.000    0.000    0.000 
#
# Total GULP energy -173484.744288 kJ/mol
# GULP energy per Si atom -12391.767449 kJ/mol
# Density = 2.305226 g / cm^3
# Si number density = 23.104849 Si / 1000 Ang^3
#
#
#
# Elastic Constant Matrix: (Units=GPa)
#
#
# Indices 1 2 3 4 5 6 
#
# 1 89.3843 39.8606 -1.0646 0.0000 -2.5353 0.0000
# 2 39.8606 141.5124 24.6803 0.0000 11.5795 0.0000
# 3 -1.0646 24.6803 18.6709 0.0000 5.1770 0.0000
# 4 0.0000 0.0000 0.0000 29.6017 0.0000 2.8697
# 5 -2.5353 11.5795 5.1770 0.0000 27.9204 0.0000
# 6 0.0000 0.0000 0.0000 2.8697 0.0000 45.2062
#
#
#
# Elastic Compliance Matrix: (Units=1/GPa)
#
#
# Indices 1 2 3 4 5 6 
#
# 1 0.013687 -0.005279 0.007175 0.000000 0.002102 0.000000
# 2 -0.005279 0.011291 -0.014543 0.000000 -0.002466 0.000000
# 3 0.007175 -0.014543 0.075206 0.000000 -0.007262 0.000000
# 4 0.000000 0.000000 0.000000 0.033991 0.000000 -0.002158
# 5 0.002102 -0.002466 -0.007262 0.000000 0.038376 0.000000
# 6 0.000000 0.000000 0.000000 -0.002158 0.000000 0.022258
#
#
# Mechanical properties :
#
#
# Convention : Reuss Voigt Hill
#
# Bulk Modulus (GPa) = 13.35268 41.83557 27.59413
# Shear Modulus (GPa) = 20.40269 32.95175 26.67722
#
# Velocity S-wave (km/s) = 2.97484 3.78058 3.40165
# Velocity P-wave (km/s) = 4.19419 6.09944 5.23424
#
# Compressibility (1/GPa) = 0.07489131
#
# Stress axis : x y z
#
# Youngs Moduli (GPa) = 73.06374 88.56220 13.29681
#
# Poissons Ratio (x) = 0.46748 -0.09541
# Poissons Ratio (y) = 0.38567 0.19338
# Poissons Ratio (z) = -0.52425 1.28797
#
# Static dielectric constant tensor:
#      x y z
#    x 3.975990 0.000000 -0.065440 
#    y 0.000000 4.037770 0.000000 
#    z -0.065440 0.000000 3.952770 
# 
# 
# High freq. dielectric constant tensor:
#      x y z
#    x 1.897880 0.000000 -0.012800 
#    y 0.000000 1.923180 0.000000 
#    z -0.012800 0.000000 1.898690 
# 
# From -- ./inp_files/5469.got.cif
#   From: 2010.03.12/outbox.cif.g09.slc.cpg/sg4_3_cif.got.tgz:5469.got - 2010.03.31 09:31:35.
