data_PCOD8046579
_publ_section_title
;
Structure prediction by ZEFSAII (Michael W. Deem and Ramdas Pophale) SiO2 
 PCOD8046579
Probable space group: P 21
;
_chemical_formula_sum "Si O2"
_cell_formula_units_Z 14
_cell_length_a 5.075238
_cell_length_b 11.920682
_cell_length_c 11.150580
_cell_angle_alpha 90.000000
_cell_angle_beta 85.621435
_cell_angle_gamma 90.000000
_cell_volume 672.644478
_symmetry_space_group_name_H-M "P 21"
_symmetry_group_IT_number 4
_symmetry_cell_setting 'monoclinic'
loop_
_space_group_symop_operation_xyz
x,y,z
-x,1/2+y,-z
loop_
_atom_site_type_symbol
_atom_site_label
_atom_site_fract_x
_atom_site_fract_y
_atom_site_fract_z
Si Si1 0.759097 0.500000 0.653551
Si Si2 0.210232 0.606714 0.185735
Si Si3 0.819438 0.256381 0.034162
Si Si4 0.684468 0.906729 0.977299
Si Si5 0.080353 0.133706 0.575158
Si Si6 0.580364 0.249308 0.627864
Si Si7 0.743091 0.057380 0.204239
O O1 0.842972 0.534979 0.517214
O O2 0.633817 0.377549 0.653542
O O3 0.518438 0.577958 0.706613
O O4 0.011618 0.504869 0.731703
O O5 0.344659 0.493264 0.132455
O O6 0.431840 0.681521 0.245393
O O7 0.975395 0.580932 0.290422
O O8 0.093195 0.679065 0.080320
O O9 0.531482 0.309611 0.024801
O O10 0.024948 0.355718 0.043184
O O11 0.823447 0.178856 0.151842
O O12 0.656189 0.971611 0.103270
O O13 0.304131 0.230236 0.571173
O O14 0.817695 0.198164 0.537849
#
# Coordination Sequence:
#
# PCOD8046579 Si02
#       7
#     2   2   2   2   2   2   2
#     4  12  23  45  65  93 130 169 220 259 335 383
#     4   9  24  41  67  91 131 160 225 254 322 392
#     4  11  24  40  64  97 129 167 209 267 328 377
#     4  11  23  40  66  95 127 169 211 264 323 383
#     4  10  24  42  63  96 120 169 216 268 305 388
#     4  10  22  41  66  91 121 172 210 259 320 380
#     4  11  24  41  65  97 130 168 213 271 317 397
#
# _framework density 20.813372000000001
#
# number of rings (size 3 to 8) (size 9 to 14) (size 15 to 20)
#    0.857    0.571    0.000    5.143    6.000    2.286 
#    7.714    0.000    0.000    0.000    0.000    0.000 
#    0.000    0.000    0.000    0.000    0.000    0.000 
#
# Total GULP energy -173564.463776 kJ/mol
# GULP energy per Si atom -12397.461698 kJ/mol
# Density = 2.076600 g / cm^3
# Si number density = 20.813372 Si / 1000 Ang^3
#
#
#
# Elastic Constant Matrix: (Units=GPa)
#
#
# Indices 1 2 3 4 5 6 
#
# 1 105.9106 11.6402 37.1664 0.0000 -7.8421 0.0000
# 2 11.6402 80.8804 50.1508 0.0000 -5.0862 0.0000
# 3 37.1664 50.1508 109.7882 0.0000 -18.1890 0.0000
# 4 0.0000 0.0000 0.0000 27.3063 0.0000 1.8156
# 5 -7.8421 -5.0862 -18.1890 0.0000 30.5430 0.0000
# 6 0.0000 0.0000 0.0000 1.8156 0.0000 33.8758
#
#
#
# Elastic Compliance Matrix: (Units=1/GPa)
#
#
# Indices 1 2 3 4 5 6 
#
# 1 0.010780 0.000962 -0.003998 0.000000 0.000547 0.000000
# 2 0.000962 0.017449 -0.008625 0.000000 -0.001984 0.000000
# 3 -0.003998 -0.008625 0.015525 0.000000 0.006783 0.000000
# 4 0.000000 0.000000 0.000000 0.036753 0.000000 -0.001970
# 5 0.000547 -0.001984 0.006783 0.000000 0.036590 0.000000
# 6 0.000000 0.000000 0.000000 -0.001970 0.000000 0.029625
#
#
# Mechanical properties :
#
#
# Convention : Reuss Voigt Hill
#
# Bulk Modulus (GPa) = 48.94240 54.94377 51.94309
# Shear Modulus (GPa) = 28.27190 31.51980 29.89585
#
# Velocity S-wave (km/s) = 3.68958 3.89575 3.79407
# Velocity P-wave (km/s) = 6.45884 6.83312 6.64861
#
# Compressibility (1/GPa) = 0.02043218
#
# Stress axis : x y z
#
# Youngs Moduli (GPa) = 92.76691 57.31107 64.41053
#
# Poissons Ratio (x) = -0.05514 0.25752
# Poissons Ratio (y) = -0.08925 0.55553
# Poissons Ratio (z) = 0.37089 0.49429
#
# Static dielectric constant tensor:
#      x y z
#    x 3.727840 0.000000 -0.136330 
#    y 0.000000 3.604010 0.000000 
#    z -0.136330 0.000000 3.780190 
# 
# 
# High freq. dielectric constant tensor:
#      x y z
#    x 1.821950 0.000000 -0.009150 
#    y 0.000000 1.809780 0.000000 
#    z -0.009150 0.000000 1.808250 
# 
# From -- ./inp_files/10419.got.cif
#   From: 2010.03.12/outbox.cif.g09.slc.cpg/sg4_6_cif.got.tgz:10419.got - 2010.03.31 09:31:35.
