data_PCOD8046212
_publ_section_title
;
Structure prediction by ZEFSAII (Michael W. Deem and Ramdas Pophale) SiO2 
 PCOD8046212
Probable space group: P 21
;
_chemical_formula_sum "Si O2"
_cell_formula_units_Z 16
_cell_length_a 10.219107
_cell_length_b 12.023075
_cell_length_c 7.473261
_cell_angle_alpha 90.000000
_cell_angle_beta 45.786711
_cell_angle_gamma 90.000000
_cell_volume 658.120898
_symmetry_space_group_name_H-M "P 21"
_symmetry_group_IT_number 4
_symmetry_cell_setting 'monoclinic'
loop_
_space_group_symop_operation_xyz
x,y,z
-x,1/2+y,-z
loop_
_atom_site_type_symbol
_atom_site_label
_atom_site_fract_x
_atom_site_fract_y
_atom_site_fract_z
Si Si1 0.727711 0.287940 0.818225
Si Si2 0.997246 0.635075 0.878514
Si Si3 0.617823 0.158313 0.595044
Si Si4 0.313765 0.216358 0.610240
Si Si5 0.601366 0.096729 0.137726
Si Si6 0.410699 0.437011 0.172392
Si Si7 0.899486 0.813685 0.721985
Si Si8 0.186557 0.441102 0.829751
O O1 0.600255 0.235431 0.785344
O O2 0.914941 0.337674 0.564556
O O3 0.758285 0.184190 0.925843
O O4 0.605473 0.381336 0.033771
O O5 0.196978 0.693855 0.686144
O O6 0.024298 0.500266 0.867899
O O7 0.895938 0.683451 0.794511
O O8 0.888471 0.669413 0.161419
O O9 0.435288 0.187192 0.665726
O O10 0.641370 0.026331 0.623789
O O11 0.410058 0.163229 0.346890
O O12 0.293430 0.350190 0.605729
O O13 0.669882 0.039868 0.257039
O O14 0.557110 0.001570 0.042043
O O15 0.255181 0.344414 0.275574
O O16 0.891226 0.887557 0.912349
#
# Coordination Sequence:
#
# PCOD8046212 Si02
#       8
#     2   2   2   2   2   2   2   2
#     4  10  21  39  64  90 124 174 211 263 333 389
#     4  10  21  39  64  94 130 171 220 266 327 395
#     4  10  21  41  63  92 130 167 218 273 320 397
#     4  11  23  41  66  93 133 170 216 279 330 386
#     4  10  22  40  64  97 129 167 223 274 323 399
#     4  10  22  41  64  92 128 169 215 269 328 387
#     4   9  21  41  61  88 130 173 210 275 319 389
#     4  10  21  42  64  94 134 171 219 273 328 394
#
# _framework density 24.311643
#
# number of rings (size 3 to 8) (size 9 to 14) (size 15 to 20)
#    0.000    2.000    1.250    2.250    3.500    1.000 
#    4.500    6.250    0.000    0.000    0.000    0.000 
#    0.000    0.000    0.000    0.000    0.000    0.000 
#
# Total GULP energy -198254.426452 kJ/mol
# GULP energy per Si atom -12390.901653 kJ/mol
# Density = 2.425631 g / cm^3
# Si number density = 24.311643 Si / 1000 Ang^3
#
#
#
# Elastic Constant Matrix: (Units=GPa)
#
#
# Indices 1 2 3 4 5 6 
#
# 1 67.4794 42.5374 5.2286 0.0000 -3.2606 0.0000
# 2 42.5374 131.6229 35.3039 0.0000 -16.6331 0.0000
# 3 5.2286 35.3039 102.5780 0.0000 -30.7167 0.0000
# 4 0.0000 0.0000 0.0000 36.9629 0.0000 -5.0057
# 5 -3.2606 -16.6331 -30.7167 0.0000 25.1795 0.0000
# 6 0.0000 0.0000 0.0000 -5.0057 0.0000 46.0646
#
#
#
# Elastic Compliance Matrix: (Units=1/GPa)
#
#
# Indices 1 2 3 4 5 6 
#
# 1 0.018757 -0.006418 0.001120 0.000000 -0.000445 0.000000
# 2 -0.006418 0.010731 -0.002351 0.000000 0.003389 0.000000
# 3 0.001120 -0.002351 0.015880 0.000000 0.017964 0.000000
# 4 0.000000 0.000000 0.000000 0.027458 0.000000 0.002984
# 5 -0.000445 0.003389 0.017964 0.000000 0.063811 0.000000
# 6 0.000000 0.000000 0.000000 0.002984 0.000000 0.022033
#
#
# Mechanical properties :
#
#
# Convention : Reuss Voigt Hill
#
# Bulk Modulus (GPa) = 33.25779 51.98002 42.61891
# Shear Modulus (GPa) = 27.17507 36.21542 31.69525
#
# Velocity S-wave (km/s) = 3.34695 3.86376 3.61460
# Velocity P-wave (km/s) = 5.35216 6.42900 5.91513
#
# Compressibility (1/GPa) = 0.03006814
#
# Stress axis : x y z
#
# Youngs Moduli (GPa) = 53.31319 93.19116 62.97180
#
# Poissons Ratio (x) = 0.59814 -0.07051
# Poissons Ratio (y) = 0.34219 0.14805
# Poissons Ratio (z) = -0.05969 0.21910
#
# Static dielectric constant tensor:
#      x y z
#    x 4.206590 0.000000 0.115520 
#    y 0.000000 4.634980 0.000000 
#    z 0.115520 0.000000 4.500230 
# 
# 
# High freq. dielectric constant tensor:
#      x y z
#    x 1.936280 0.000000 0.014040 
#    y 0.000000 1.970540 0.000000 
#    z 0.014040 0.000000 1.989040 
# 
# From -- ./inp_files/8311.got.cif
#   From: 2010.03.12/outbox.cif.g09.slc.cpg/sg4_5_cif.got.tgz:8311.got - 2010.03.31 09:31:35.
