data_PCOD8046092
_publ_section_title
;
Structure prediction by ZEFSAII (Michael W. Deem and Ramdas Pophale) SiO2 
 PCOD8046092
Probable space group: P 21
;
_chemical_formula_sum "Si O2"
_cell_formula_units_Z 16
_cell_length_a 11.809655
_cell_length_b 9.028025
_cell_length_c 11.707996
_cell_angle_alpha 90.000000
_cell_angle_beta 38.871216
_cell_angle_gamma 90.000000
_cell_volume 783.386518
_symmetry_space_group_name_H-M "P 21"
_symmetry_group_IT_number 4
_symmetry_cell_setting 'monoclinic'
loop_
_space_group_symop_operation_xyz
x,y,z
-x,1/2+y,-z
loop_
_atom_site_type_symbol
_atom_site_label
_atom_site_fract_x
_atom_site_fract_y
_atom_site_fract_z
Si Si1 0.023692 0.254470 0.738206
Si Si2 0.160655 0.282381 0.110622
Si Si3 0.103137 0.568777 0.768517
Si Si4 0.383805 0.087391 0.109858
Si Si5 0.641279 0.598284 0.613797
Si Si6 0.275819 0.755396 0.201697
Si Si7 0.759583 0.065113 0.090697
Si Si8 0.215208 0.788853 0.508669
O O1 0.035707 0.425836 0.755614
O O2 0.227069 0.194455 0.568217
O O3 0.919298 0.234020 0.701137
O O4 0.915383 0.172430 0.923435
O O5 0.300121 0.194252 0.080006
O O6 0.074853 0.173560 0.081134
O O7 0.994902 0.342604 0.319217
O O8 0.260469 0.416660 0.969183
O O9 0.189106 0.524289 0.820585
O O10 0.249047 0.656523 0.573758
O O11 0.298770 0.117611 0.301268
O O12 0.357608 0.914844 0.101152
O O13 0.596468 0.125404 0.947795
O O14 0.433903 0.647585 0.757908
O O15 0.657247 0.427062 0.562256
O O16 0.257125 0.728771 0.350476
#
# Coordination Sequence:
#
# PCOD8046092 Si02
#       8
#     2   2   2   2   2   2   2   2
#     4  12  23  43  65 102 134 176 223 286 334 396
#     4  10  20  43  65  92 133 177 220 278 332 393
#     4  10  24  43  68  96 134 182 229 275 340 399
#     4  11  22  39  64 105 135 173 224 273 342 401
#     4  11  24  40  67  98 134 175 221 275 338 402
#     4  11  22  39  66  99 145 169 225 279 339 408
#     4  12  24  45  68  97 134 184 230 273 335 410
#     4   9  21  42  63  95 129 184 212 273 342 391
#
# _framework density 20.424143999999998
#
# number of rings (size 3 to 8) (size 9 to 14) (size 15 to 20)
#    0.750    0.500    3.750    3.000    0.000    2.000 
#    0.000    1.250    0.000    0.000    0.000    0.000 
#    0.000    0.000    0.000    0.000    0.000    0.000 
#
# Total GULP energy -198376.799310 kJ/mol
# GULP energy per Si atom -12398.549957 kJ/mol
# Density = 2.037766 g / cm^3
# Si number density = 20.424144 Si / 1000 Ang^3
#
#
#
# Elastic Constant Matrix: (Units=GPa)
#
#
# Indices 1 2 3 4 5 6 
#
# 1 73.6645 28.8202 27.9043 0.0000 -1.2237 0.0000
# 2 28.8202 82.6927 45.5372 0.0000 7.8349 0.0000
# 3 27.9043 45.5372 115.1602 0.0000 -10.2833 0.0000
# 4 0.0000 0.0000 0.0000 27.2389 0.0000 -2.4114
# 5 -1.2237 7.8349 -10.2833 0.0000 32.6649 0.0000
# 6 0.0000 0.0000 0.0000 -2.4114 0.0000 30.6178
#
#
#
# Elastic Compliance Matrix: (Units=1/GPa)
#
#
# Indices 1 2 3 4 5 6 
#
# 1 0.016161 -0.004645 -0.001981 0.000000 0.001096 0.000000
# 2 -0.004645 0.017940 -0.006552 0.000000 -0.006540 0.000000
# 3 -0.001981 -0.006552 0.012232 0.000000 0.005348 0.000000
# 4 0.000000 0.000000 0.000000 0.036970 0.000000 0.002912
# 5 0.001096 -0.006540 0.005348 0.000000 0.033907 0.000000
# 6 0.000000 0.000000 0.000000 0.002912 0.000000 0.032890
#
#
# Mechanical properties :
#
#
# Convention : Reuss Voigt Hill
#
# Bulk Modulus (GPa) = 50.06134 52.89342 51.47738
# Shear Modulus (GPa) = 27.30509 29.38806 28.34658
#
# Velocity S-wave (km/s) = 3.66033 3.79738 3.72949
# Velocity P-wave (km/s) = 6.51369 6.72165 6.61849
#
# Compressibility (1/GPa) = 0.01997549
#
# Stress axis : x y z
#
# Youngs Moduli (GPa) = 61.87667 55.74230 81.75225
#
# Poissons Ratio (x) = 0.25894 0.16197
# Poissons Ratio (y) = 0.28744 0.53565
# Poissons Ratio (z) = 0.12259 0.36523
#
# Static dielectric constant tensor:
#      x y z
#    x 3.474520 0.000000 -0.034740 
#    y 0.000000 3.630960 0.000000 
#    z -0.034740 0.000000 3.680150 
# 
# 
# High freq. dielectric constant tensor:
#      x y z
#    x 1.789540 0.000000 -0.001790 
#    y 0.000000 1.797860 0.000000 
#    z -0.001790 0.000000 1.795940 
# 
# From -- ./inp_files/12096.got.cif
#   From: 2010.03.12/outbox.cif.g09.slc.cpg/sg4_7_cif.got.tgz:12096.got - 2010.03.31 09:31:35.
