data_PCOD8046784
_publ_section_title
;
Structure prediction by ZEFSAII (Michael W. Deem and Ramdas Pophale) SiO2 
 PCOD8046784
Probable space group: P 21
;
_chemical_formula_sum "Si O2"
_cell_formula_units_Z 16
_cell_length_a 14.921169
_cell_length_b 7.245193
_cell_length_c 6.780469
_cell_angle_alpha 90.000000
_cell_angle_beta 83.053586
_cell_angle_gamma 90.000000
_cell_volume 727.633913
_symmetry_space_group_name_H-M "P 21"
_symmetry_group_IT_number 4
_symmetry_cell_setting 'monoclinic'
loop_
_space_group_symop_operation_xyz
x,y,z
-x,1/2+y,-z
loop_
_atom_site_type_symbol
_atom_site_label
_atom_site_fract_x
_atom_site_fract_y
_atom_site_fract_z
Si Si1 0.907914 0.618080 0.109020
Si Si2 0.340963 0.644358 0.503696
Si Si3 0.794706 0.517483 0.785555
Si Si4 0.598988 0.363728 0.858231
Si Si5 0.249921 0.425834 0.186726
Si Si6 0.829149 0.334116 0.388271
Si Si7 0.892053 0.044169 0.065151
Si Si8 0.406289 0.523626 0.885356
O O1 0.868467 0.531553 0.317092
O O2 0.883529 0.831115 0.127213
O O3 0.855492 0.491372 0.962350
O O4 0.014019 0.589900 0.062215
O O5 0.412228 0.747519 0.343272
O O6 0.275641 0.519347 0.386068
O O7 0.276593 0.795242 0.629528
O O8 0.389779 0.517307 0.653612
O O9 0.687656 0.488845 0.836371
O O10 0.801772 0.738000 0.739662
O O11 0.836512 0.367519 0.622472
O O12 0.509528 0.481935 0.907724
O O13 0.610624 0.231297 0.041006
O O14 0.186488 0.569334 0.078550
O O15 0.338456 0.388910 0.024191
O O16 0.883898 0.167388 0.267089
#
# Coordination Sequence:
#
# PCOD8046784 Si02
#       8
#     2   2   2   2   2   2   2   2
#     4  11  24  44  66  97 133 176 223 273 333 401
#     4  10  23  40  66  94 130 172 219 271 331 392
#     4  10  24  43  63  99 131 169 224 275 329 399
#     4  10  23  38  63  93 130 170 221 270 325 402
#     4  10  23  42  67  97 133 171 225 275 328 399
#     4  11  23  42  65  94 130 175 214 276 333 385
#     4  11  23  44  68  96 133 175 222 275 333 399
#     4  11  21  41  64  94 130 178 210 273 336 385
#
# _framework density 21.989077000000002
#
# number of rings (size 3 to 8) (size 9 to 14) (size 15 to 20)
#    0.000    1.500    2.500    1.500    5.250    3.000 
#    4.500    3.750    0.000    0.000    0.000    0.000 
#    0.000    0.000    0.000    0.000    0.000    0.000 
#
# Total GULP energy -198246.832211 kJ/mol
# GULP energy per Si atom -12390.427013 kJ/mol
# Density = 2.193903 g / cm^3
# Si number density = 21.989077 Si / 1000 Ang^3
#
#
#
# Elastic Constant Matrix: (Units=GPa)
#
#
# Indices 1 2 3 4 5 6 
#
# 1 105.2036 1.0353 45.2589 0.0000 6.7729 0.0000
# 2 1.0353 62.2430 34.3692 0.0000 4.0234 0.0000
# 3 45.2589 34.3692 86.8132 0.0000 -3.1697 0.0000
# 4 0.0000 0.0000 0.0000 37.4447 0.0000 -4.7751
# 5 6.7729 4.0234 -3.1697 0.0000 19.3457 0.0000
# 6 0.0000 0.0000 0.0000 -4.7751 0.0000 34.5246
#
#
#
# Elastic Compliance Matrix: (Units=1/GPa)
#
#
# Indices 1 2 3 4 5 6 
#
# 1 0.014264 0.005802 -0.010020 0.000000 -0.007842 0.000000
# 2 0.005802 0.023552 -0.012678 0.000000 -0.009007 0.000000
# 3 -0.010020 -0.012678 0.022118 0.000000 0.009769 0.000000
# 4 0.000000 0.000000 0.000000 0.027186 0.000000 0.003760
# 5 -0.007842 -0.009007 0.009769 0.000000 0.057910 0.000000
# 6 0.000000 0.000000 0.000000 0.003760 0.000000 0.029485
#
#
# Mechanical properties :
#
#
# Convention : Reuss Voigt Hill
#
# Bulk Modulus (GPa) = 38.25040 46.17630 42.21335
# Shear Modulus (GPa) = 23.03931 29.83610 26.43771
#
# Velocity S-wave (km/s) = 3.24043 3.68755 3.47120
# Velocity P-wave (km/s) = 5.60655 6.25907 5.94178
#
# Compressibility (1/GPa) = 0.02614352
#
# Stress axis : x y z
#
# Youngs Moduli (GPa) = 70.10860 42.45866 45.21110
#
# Poissons Ratio (x) = -0.24636 0.45300
# Poissons Ratio (y) = -0.40679 0.57319
# Poissons Ratio (z) = 0.70246 0.53830
#
# Static dielectric constant tensor:
#      x y z
#    x 3.938190 0.000000 -0.073590 
#    y 0.000000 3.941430 0.000000 
#    z -0.073590 0.000000 3.971960 
# 
# 
# High freq. dielectric constant tensor:
#      x y z
#    x 1.861960 0.000000 -0.006810 
#    y 0.000000 1.867430 0.000000 
#    z -0.006810 0.000000 1.863450 
# 
# From -- ./inp_files/3564.got.cif
#   From: 2010.03.12/outbox.cif.g09.slc.cpg/sg4_2_cif.got.tgz:3564.got - 2010.03.31 09:31:35.
