data_PCOD8046598
_publ_section_title
;
Structure prediction by ZEFSAII (Michael W. Deem and Ramdas Pophale) SiO2 
 PCOD8046598
Probable space group: P 21
;
_chemical_formula_sum "Si O2"
_cell_formula_units_Z 16
_cell_length_a 11.333281
_cell_length_b 8.862471
_cell_length_c 11.262813
_cell_angle_alpha 90.000000
_cell_angle_beta 140.402563
_cell_angle_gamma 90.000000
_cell_volume 721.044847
_symmetry_space_group_name_H-M "P 21"
_symmetry_group_IT_number 4
_symmetry_cell_setting 'monoclinic'
loop_
_space_group_symop_operation_xyz
x,y,z
-x,1/2+y,-z
loop_
_atom_site_type_symbol
_atom_site_label
_atom_site_fract_x
_atom_site_fract_y
_atom_site_fract_z
Si Si1 0.816945 0.343640 0.824474
Si Si2 0.737524 0.412400 0.503320
Si Si3 0.438348 0.297632 0.112973
Si Si4 0.784365 0.872894 0.420790
Si Si5 0.584937 0.722063 0.469780
Si Si6 0.390248 0.554183 0.901165
Si Si7 0.997427 0.585168 0.539433
Si Si8 0.804260 0.688493 0.871669
O O1 0.827089 0.342224 0.689967
O O2 0.628668 0.260513 0.716535
O O3 0.818784 0.508272 0.884797
O O4 0.995277 0.253147 0.010073
O O5 0.614408 0.288600 0.338196
O O6 0.609663 0.553559 0.441472
O O7 0.904467 0.458027 0.548463
O O8 0.459578 0.179451 0.020330
O O9 0.256201 0.254295 0.047150
O O10 0.436458 0.469140 0.060283
O O11 0.715743 0.839148 0.499427
O O12 0.864029 0.724838 0.416429
O O13 0.944905 0.003422 0.541120
O O14 0.613700 0.927504 0.206696
O O15 0.649183 0.739052 0.655484
O O16 0.187433 0.632800 0.755187
#
# Coordination Sequence:
#
# PCOD8046598 Si02
#       8
#     2   2   2   2   2   2   2   2
#     4  11  24  46  69 107 144 183 243 287 350 429
#     4  10  22  41  74  92 145 187 227 292 351 418
#     4  12  24  46  67 103 141 187 237 289 358 417
#     4   9  20  41  63  98 133 177 231 283 353 418
#     4  10  22  45  71 103 139 188 235 292 358 418
#     4  10  25  40  67  98 140 176 235 287 350 421
#     4   9  19  40  62  96 125 179 227 279 346 408
#     4  11  26  45  71 107 139 191 237 295 356 417
#
# _framework density 22.190021000000002
#
# number of rings (size 3 to 8) (size 9 to 14) (size 15 to 20)
#    0.750    1.000    1.250    2.250    5.250    0.000 
#    4.500    1.250    0.000    0.000    0.000    0.000 
#    0.000    0.000    0.000    0.000    0.000    0.000 
#
# Total GULP energy -198304.626930 kJ/mol
# GULP energy per Si atom -12394.039183 kJ/mol
# Density = 2.213952 g / cm^3
# Si number density = 22.190021 Si / 1000 Ang^3
#
#
#
# Elastic Constant Matrix: (Units=GPa)
#
#
# Indices 1 2 3 4 5 6 
#
# 1 113.6881 34.6316 25.2245 0.0000 18.6811 0.0000
# 2 34.6316 54.9599 24.0495 0.0000 2.0375 0.0000
# 3 25.2245 24.0495 63.5858 0.0000 5.2229 0.0000
# 4 0.0000 0.0000 0.0000 41.3956 0.0000 1.0465
# 5 18.6811 2.0375 5.2229 0.0000 30.0179 0.0000
# 6 0.0000 0.0000 0.0000 1.0465 0.0000 36.2678
#
#
#
# Elastic Compliance Matrix: (Units=1/GPa)
#
#
# Indices 1 2 3 4 5 6 
#
# 1 0.012396 -0.006772 -0.001786 0.000000 -0.006944 0.000000
# 2 -0.006772 0.025504 -0.007267 0.000000 0.003748 0.000000
# 3 -0.001786 -0.007267 0.019328 0.000000 -0.001758 0.000000
# 4 0.000000 0.000000 0.000000 0.024175 0.000000 -0.000698
# 5 -0.006944 0.003748 -0.001758 0.000000 0.037687 0.000000
# 6 0.000000 0.000000 0.000000 -0.000698 0.000000 0.027593
#
#
# Mechanical properties :
#
#
# Convention : Reuss Voigt Hill
#
# Bulk Modulus (GPa) = 39.09707 44.44945 41.77326
# Shear Modulus (GPa) = 26.75817 31.42481 29.09149
#
# Velocity S-wave (km/s) = 3.47632 3.76728 3.62472
# Velocity P-wave (km/s) = 5.81124 6.24484 6.03194
#
# Compressibility (1/GPa) = 0.02557736
#
# Stress axis : x y z
#
# Youngs Moduli (GPa) = 80.66944 39.21012 51.73769
#
# Poissons Ratio (x) = 0.26554 0.09239
# Poissons Ratio (y) = 0.54632 0.37599
# Poissons Ratio (z) = 0.14406 0.28495
#
# Static dielectric constant tensor:
#      x y z
#    x 3.991880 0.000000 0.038230 
#    y 0.000000 3.868460 0.000000 
#    z 0.038230 0.000000 3.707650 
# 
# 
# High freq. dielectric constant tensor:
#      x y z
#    x 1.879290 0.000000 0.008720 
#    y 0.000000 1.870830 0.000000 
#    z 0.008720 0.000000 1.852650 
# 
# From -- ./inp_files/12153.got.cif
#   From: 2010.03.12/outbox.cif.g09.slc.cpg/sg4_7_cif.got.tgz:12153.got - 2010.03.31 09:31:35.
