data_PCOD8046560
_publ_section_title
;
Structure prediction by ZEFSAII (Michael W. Deem and Ramdas Pophale) SiO2 
 PCOD8046560
Probable space group: P 21
;
_chemical_formula_sum "Si O2"
_cell_formula_units_Z 14
_cell_length_a 11.341986
_cell_length_b 8.305707
_cell_length_c 6.903442
_cell_angle_alpha 90.000000
_cell_angle_beta 97.082492
_cell_angle_gamma 90.000000
_cell_volume 645.364203
_symmetry_space_group_name_H-M "P 21"
_symmetry_group_IT_number 4
_symmetry_cell_setting 'monoclinic'
loop_
_space_group_symop_operation_xyz
x,y,z
-x,1/2+y,-z
loop_
_atom_site_type_symbol
_atom_site_label
_atom_site_fract_x
_atom_site_fract_y
_atom_site_fract_z
Si Si1 0.640826 0.598380 0.652275
Si Si2 0.693736 0.053935 0.799149
Si Si3 0.824911 0.849027 0.545588
Si Si4 0.537741 0.379653 0.313744
Si Si5 0.963239 0.289289 0.144427
Si Si6 0.286726 0.883051 0.999798
Si Si7 0.874570 0.929922 0.126953
O O1 0.755080 0.687320 0.588263
O O2 0.610102 0.445630 0.512515
O O3 0.527349 0.715582 0.638009
O O4 0.674159 0.542359 0.876663
O O5 0.714954 0.239986 0.843430
O O6 0.751749 0.006227 0.603603
O O7 0.554598 0.015138 0.775064
O O8 0.756833 0.941929 0.972553
O O9 0.834674 0.851910 0.318413
O O10 0.956630 0.850769 0.662091
O O11 0.624742 0.340968 0.155225
O O12 0.933056 0.103531 0.170040
O O13 0.845035 0.399844 0.116001
O O14 0.031907 0.310302 0.954996
#
# Coordination Sequence:
#
# PCOD8046560 Si02
#       7
#     2   2   2   2   2   2   2
#     4  11  25  41  64  96 124 162 215 254 308 382
#     4   9  22  41  61  90 121 161 213 253 305 375
#     4  10  23  42  65  91 126 165 207 261 312 364
#     4  11  24  41  64  92 127 165 205 259 312 367
#     4  10  23  40  62  94 123 162 214 255 306 376
#     4  11  23  40  63  90 126 165 205 259 314 364
#     4  10  22  41  63  87 125 164 205 261 313 362
#
# _framework density 21.693179000000001
#
# number of rings (size 3 to 8) (size 9 to 14) (size 15 to 20)
#    0.000    1.714    0.000    2.571    0.000   20.571 
#    0.000    0.000    0.000    0.000    0.000    0.000 
#    0.000    0.000    0.000    0.000    0.000    0.000 
#
# Total GULP energy -173667.106671 kJ/mol
# GULP energy per Si atom -12404.793334 kJ/mol
# Density = 2.164380 g / cm^3
# Si number density = 21.693179 Si / 1000 Ang^3
#
#
#
# Elastic Constant Matrix: (Units=GPa)
#
#
# Indices 1 2 3 4 5 6 
#
# 1 118.1534 18.9795 43.4208 0.0000 5.1541 0.0000
# 2 18.9795 69.5549 14.6284 0.0000 -1.1449 0.0000
# 3 43.4208 14.6284 93.9636 0.0000 -13.0766 0.0000
# 4 0.0000 0.0000 0.0000 33.4337 0.0000 4.2174
# 5 5.1541 -1.1449 -13.0766 0.0000 34.5674 0.0000
# 6 0.0000 0.0000 0.0000 4.2174 0.0000 31.9082
#
#
#
# Elastic Compliance Matrix: (Units=1/GPa)
#
#
# Indices 1 2 3 4 5 6 
#
# 1 0.010852 -0.001923 -0.005224 0.000000 -0.003658 0.000000
# 2 -0.001923 0.015210 -0.001446 0.000000 0.000244 0.000000
# 3 -0.005224 -0.001446 0.014127 0.000000 0.006075 0.000000
# 4 0.000000 0.000000 0.000000 0.030417 0.000000 -0.004020
# 5 -0.003658 0.000244 0.006075 0.000000 0.031781 0.000000
# 6 0.000000 0.000000 0.000000 -0.004020 0.000000 0.031871
#
#
# Mechanical properties :
#
#
# Convention : Reuss Voigt Hill
#
# Bulk Modulus (GPa) = 43.47133 48.41434 45.94283
# Shear Modulus (GPa) = 31.42456 33.62474 32.52465
#
# Velocity S-wave (km/s) = 3.81017 3.94129 3.87628
# Velocity P-wave (km/s) = 6.28006 6.56338 6.42328
#
# Compressibility (1/GPa) = 0.02300367
#
# Stress axis : x y z
#
# Youngs Moduli (GPa) = 92.14925 65.74718 70.78545
#
# Poissons Ratio (x) = 0.12641 0.36982
# Poissons Ratio (y) = 0.17717 0.10232
# Poissons Ratio (z) = 0.48143 0.09504
#
# Static dielectric constant tensor:
#      x y z
#    x 4.061700 0.000000 0.158620 
#    y 0.000000 3.734950 0.000000 
#    z 0.158620 0.000000 3.838830 
# 
# 
# High freq. dielectric constant tensor:
#      x y z
#    x 1.864100 0.000000 0.008770 
#    y 0.000000 1.848780 0.000000 
#    z 0.008770 0.000000 1.852290 
# 
# From -- ./inp_files/2370.got.cif
#   From: 2010.03.12/outbox.cif.g09.slc.cpg/sg4_2_cif.got.tgz:2370.got - 2010.03.31 09:31:35.
