data_PCOD8046347
_publ_section_title
;
Structure prediction by ZEFSAII (Michael W. Deem and Ramdas Pophale) SiO2 
 PCOD8046347
Probable space group: P 21
;
_chemical_formula_sum "Si O2"
_cell_formula_units_Z 12
_cell_length_a 5.251192
_cell_length_b 6.995435
_cell_length_c 12.922253
_cell_angle_alpha 90.000000
_cell_angle_beta 78.070168
_cell_angle_gamma 90.000000
_cell_volume 464.438237
_symmetry_space_group_name_H-M "P 21"
_symmetry_group_IT_number 4
_symmetry_cell_setting 'monoclinic'
loop_
_space_group_symop_operation_xyz
x,y,z
-x,1/2+y,-z
loop_
_atom_site_type_symbol
_atom_site_label
_atom_site_fract_x
_atom_site_fract_y
_atom_site_fract_z
Si Si1 0.724681 0.764770 0.623404
Si Si2 0.630360 0.780557 0.069687
Si Si3 0.375759 0.839236 0.300934
Si Si4 0.187581 0.861060 0.946044
Si Si5 0.833205 0.822572 0.380087
Si Si6 0.824318 0.238938 0.277665
O O1 0.715623 0.534363 0.633917
O O2 0.821237 0.833142 0.503917
O O3 0.441633 0.851830 0.672243
O O4 0.932374 0.845850 0.689407
O O5 0.489733 0.883889 0.177884
O O6 0.709891 0.567892 0.095604
O O7 0.413748 0.765832 0.997222
O O8 0.900876 0.889760 0.021146
O O9 0.578318 0.716297 0.354463
O O10 0.102601 0.721755 0.320222
O O11 0.142585 0.731205 0.848727
O O12 0.800951 0.026628 0.325252
#
# Coordination Sequence:
#
# PCOD8046347 Si02
#       6
#     2   2   2   2   2   2
#     4  10  21  41  72 101 140 194 244 304 375 446
#     4  12  28  48  78 111 152 205 260 318 391 460
#     4  10  23  43  68 105 145 190 244 311 376 447
#     4  12  28  48  78 111 152 205 260 318 391 460
#     4  10  21  41  72 101 140 194 244 304 375 446
#     4  10  23  43  68 105 145 190 244 311 376 447
#
# _framework density 25.837665999999999
#
# number of rings (size 3 to 8) (size 9 to 14) (size 15 to 20)
#    0.000    1.333    0.000    4.000   14.000    0.000 
#   18.000    0.000    0.000    0.000    0.000    0.000 
#    0.000    0.000    0.000    0.000    0.000    0.000 
#
# Total GULP energy -148714.244690 kJ/mol
# GULP energy per Si atom -12392.853724 kJ/mol
# Density = 2.577886 g / cm^3
# Si number density = 25.837666 Si / 1000 Ang^3
#
#
#
# Elastic Constant Matrix: (Units=GPa)
#
#
# Indices 1 2 3 4 5 6 
#
# 1 305.3380 -5.0363 85.6928 0.0000 6.2922 0.0000
# 2 -5.0363 52.8315 18.9055 0.0000 2.4743 0.0000
# 3 85.6928 18.9055 184.6754 0.0000 5.6543 0.0000
# 4 0.0000 0.0000 0.0000 33.8535 0.0000 -0.4593
# 5 6.2922 2.4743 5.6543 0.0000 60.7699 0.0000
# 6 0.0000 0.0000 0.0000 -0.4593 0.0000 7.3914
#
#
#
# Elastic Compliance Matrix: (Units=1/GPa)
#
#
# Indices 1 2 3 4 5 6 
#
# 1 0.003824 0.001047 -0.001873 0.000000 -0.000264 0.000000
# 2 0.001047 0.019958 -0.002508 0.000000 -0.000688 0.000000
# 3 -0.001873 -0.002508 0.006550 0.000000 -0.000313 0.000000
# 4 0.000000 0.000000 0.000000 0.029564 0.000000 0.001837
# 5 -0.000264 -0.000688 -0.000313 0.000000 0.016540 0.000000
# 6 0.000000 0.000000 0.000000 0.001837 0.000000 0.135407
#
#
# Mechanical properties :
#
#
# Convention : Reuss Voigt Hill
#
# Bulk Modulus (GPa) = 42.25913 82.44097 62.35005
# Shear Modulus (GPa) = 22.08494 49.95514 36.02004
#
# Velocity S-wave (km/s) = 2.92680 4.40184 3.73780
# Velocity P-wave (km/s) = 5.27377 7.60339 6.54309
#
# Compressibility (1/GPa) = 0.02366353
#
# Stress axis : x y z
#
# Youngs Moduli (GPa) = 261.53933 50.10620 152.66031
#
# Poissons Ratio (x) = -0.05247 0.28598
# Poissons Ratio (y) = -0.27389 0.38287
# Poissons Ratio (z) = 0.48994 0.12566
#
# Static dielectric constant tensor:
#      x y z
#    x 7.048350 0.000000 0.198440 
#    y 0.000000 4.114690 0.000000 
#    z 0.198440 0.000000 4.409100 
# 
# 
# High freq. dielectric constant tensor:
#      x y z
#    x 2.082100 0.000000 0.002300 
#    y 0.000000 2.008560 0.000000 
#    z 0.002300 0.000000 2.025930 
# 
# From -- ./inp_files/10314.got.cif
#   From: 2010.03.12/outbox.cif.g09.slc.cpg/sg4_6_cif.got.tgz:10314.got - 2010.03.31 09:31:35.
