data_PCOD8046737
_publ_section_title
;
Structure prediction by ZEFSAII (Michael W. Deem and Ramdas Pophale) SiO2 
 PCOD8046737
Probable space group: P 21
;
_chemical_formula_sum "Si O2"
_cell_formula_units_Z 16
_cell_length_a 8.259489
_cell_length_b 10.939644
_cell_length_c 11.394110
_cell_angle_alpha 90.000000
_cell_angle_beta 138.393520
_cell_angle_gamma 90.000000
_cell_volume 683.615511
_symmetry_space_group_name_H-M "P 21"
_symmetry_group_IT_number 4
_symmetry_cell_setting 'monoclinic'
loop_
_space_group_symop_operation_xyz
x,y,z
-x,1/2+y,-z
loop_
_atom_site_type_symbol
_atom_site_label
_atom_site_fract_x
_atom_site_fract_y
_atom_site_fract_z
Si Si1 0.594893 0.271040 0.429224
Si Si2 0.939177 0.491833 0.551050
Si Si3 0.802381 0.777180 0.966627
Si Si4 0.355772 0.812541 0.281516
Si Si5 0.759797 0.007915 0.499775
Si Si6 0.327950 0.185328 0.727104
Si Si7 0.656751 0.903628 0.107082
Si Si8 0.210207 0.043447 0.885090
O O1 0.726734 0.397692 0.469808
O O2 0.590302 0.245246 0.565983
O O3 0.726373 0.150915 0.447333
O O4 0.321277 0.278479 0.228169
O O5 0.842004 0.626889 0.466071
O O6 0.093226 0.440410 0.523565
O O7 0.134808 0.508432 0.764282
O O8 0.634174 0.859851 0.961060
O O9 0.810085 0.640222 0.021601
O O10 0.069810 0.837514 0.107422
O O11 0.432199 0.727420 0.213307
O O12 0.501251 0.940785 0.372848
O O13 0.935200 0.998337 0.709633
O O14 0.218192 0.296662 0.744340
O O15 0.361030 0.084307 0.848202
O O16 0.393489 0.934630 0.023068
#
# Coordination Sequence:
#
# PCOD8046737 Si02
#       8
#     2   2   2   2   2   2   2   2
#     4  12  26  47  72 107 143 198 237 303 376 423
#     4  11  21  44  75  98 143 184 249 301 349 425
#     4  11  24  45  70 100 145 181 241 298 358 441
#     4  12  26  46  67 101 155 185 234 303 372 449
#     4  11  24  45  73 101 140 194 243 299 362 430
#     4  10  24  43  69 107 137 192 241 298 364 437
#     4  11  21  45  71 107 138 186 252 303 356 429
#     4  10  22  45  73 101 139 184 249 307 347 428
#
# _framework density 23.404969000000001
#
# number of rings (size 3 to 8) (size 9 to 14) (size 15 to 20)
#    0.000    1.000    3.750    3.750    1.750    1.000 
#   11.250    0.000    0.000    0.000    0.000    0.000 
#    0.000    0.000    0.000    0.000    0.000    0.000 
#
# Total GULP energy -198230.422049 kJ/mol
# GULP energy per Si atom -12389.401378 kJ/mol
# Density = 2.335170 g / cm^3
# Si number density = 23.404969 Si / 1000 Ang^3
#
#
#
# Elastic Constant Matrix: (Units=GPa)
#
#
# Indices 1 2 3 4 5 6 
#
# 1 82.2633 14.6043 13.6276 0.0000 9.5506 0.0000
# 2 14.6043 61.5885 19.0430 0.0000 18.4875 0.0000
# 3 13.6276 19.0430 143.2148 0.0000 25.5873 0.0000
# 4 0.0000 0.0000 0.0000 31.7181 0.0000 10.5354
# 5 9.5506 18.4875 25.5873 0.0000 43.1852 0.0000
# 6 0.0000 0.0000 0.0000 10.5354 0.0000 34.1840
#
#
#
# Elastic Compliance Matrix: (Units=1/GPa)
#
#
# Indices 1 2 3 4 5 6 
#
# 1 0.012858 -0.002422 -0.000647 0.000000 -0.001424 0.000000
# 2 -0.002422 0.019266 -0.001066 0.000000 -0.007080 0.000000
# 3 -0.000647 -0.001066 0.007917 0.000000 -0.004091 0.000000
# 4 0.000000 0.000000 0.000000 0.035123 0.000000 -0.010825
# 5 -0.001424 -0.007080 -0.004091 0.000000 0.028926 0.000000
# 6 0.000000 0.000000 0.000000 -0.010825 0.000000 0.032590
#
#
# Mechanical properties :
#
#
# Convention : Reuss Voigt Hill
#
# Bulk Modulus (GPa) = 31.47523 42.40183 36.93853
# Shear Modulus (GPa) = 32.14585 37.80358 34.97472
#
# Velocity S-wave (km/s) = 3.71005 4.02331 3.86985
# Velocity P-wave (km/s) = 5.64180 6.30386 5.98199
#
# Compressibility (1/GPa) = 0.03177102
#
# Stress axis : x y z
#
# Youngs Moduli (GPa) = 77.76961 51.90462 126.31328
#
# Poissons Ratio (x) = 0.12570 0.08175
# Poissons Ratio (y) = 0.18833 0.13469
# Poissons Ratio (z) = 0.05033 0.05535
#
# Static dielectric constant tensor:
#      x y z
#    x 4.058810 0.000000 -0.099820 
#    y 0.000000 4.223160 0.000000 
#    z -0.099820 0.000000 4.430520 
# 
# 
# High freq. dielectric constant tensor:
#      x y z
#    x 1.911040 0.000000 -0.000760 
#    y 0.000000 1.915570 0.000000 
#    z -0.000760 0.000000 1.935520 
# 
# From -- ./inp_files/8251.got.cif
#   From: 2010.03.12/outbox.cif.g09.slc.cpg/sg4_5_cif.got.tgz:8251.got - 2010.03.31 09:31:35.
