data_PCOD8046963
_publ_section_title
;
Structure prediction by ZEFSAII (Michael W. Deem and Ramdas Pophale) SiO2 
 PCOD8046963
Probable space group: P 21
;
_chemical_formula_sum "Si O2"
_cell_formula_units_Z 16
_cell_length_a 5.175125
_cell_length_b 8.291551
_cell_length_c 15.430050
_cell_angle_alpha 90.000000
_cell_angle_beta 92.430590
_cell_angle_gamma 90.000000
_cell_volume 661.504886
_symmetry_space_group_name_H-M "P 21"
_symmetry_group_IT_number 4
_symmetry_cell_setting 'monoclinic'
loop_
_space_group_symop_operation_xyz
x,y,z
-x,1/2+y,-z
loop_
_atom_site_type_symbol
_atom_site_label
_atom_site_fract_x
_atom_site_fract_y
_atom_site_fract_z
Si Si1 0.380041 0.673270 0.874027
Si Si2 0.768214 0.922650 0.846477
Si Si3 0.825930 0.143965 0.462689
Si Si4 0.603180 0.628319 0.269860
Si Si5 0.091184 0.680749 0.032507
Si Si6 0.332718 0.272117 0.548566
Si Si7 0.127306 0.799595 0.716845
Si Si8 0.615275 0.817713 0.107310
O O1 0.566534 0.822079 0.904142
O O2 0.346043 0.697755 0.770206
O O3 0.501550 0.497503 0.890252
O O4 0.113387 0.677305 0.927892
O O5 0.897099 0.794073 0.783383
O O6 0.650043 0.054384 0.778232
O O7 0.968518 0.012727 0.916062
O O8 0.566950 0.242920 0.484216
O O9 0.934188 0.211241 0.373216
O O10 0.073120 0.166243 0.529059
O O11 0.750962 0.957560 0.457291
O O12 0.544485 0.725031 0.357200
O O13 0.802485 0.486511 0.296188
O O14 0.715918 0.756873 0.202685
O O15 0.387222 0.709944 0.066313
O O16 0.872031 0.810552 0.051253
#
# Coordination Sequence:
#
# PCOD8046963 Si02
#       8
#     2   2   2   2   2   2   2   2
#     4  11  26  40  70  99 140 185 241 296 358 423
#     4  10  24  45  69 101 141 195 232 301 355 429
#     4  12  28  48  75 110 150 184 244 292 360 424
#     4  10  23  45  72  99 144 185 242 284 368 416
#     4  11  25  44  68  99 142 182 242 291 361 420
#     4  12  27  49  76 111 142 195 233 301 350 434
#     4  11  24  45  71 102 145 191 236 295 361 423
#     4  11  25  44  67 103 134 185 234 302 349 427
#
# _framework density 24.187273000000001
#
# number of rings (size 3 to 8) (size 9 to 14) (size 15 to 20)
#    0.000    1.000    1.250    3.750   12.250    0.000 
#    2.250    0.000    0.000    0.000    0.000    0.000 
#    0.000    0.000    0.000    0.000    0.000    0.000 
#
# Total GULP energy -198286.322153 kJ/mol
# GULP energy per Si atom -12392.895135 kJ/mol
# Density = 2.413222 g / cm^3
# Si number density = 24.187273 Si / 1000 Ang^3
#
#
#
# Elastic Constant Matrix: (Units=GPa)
#
#
# Indices 1 2 3 4 5 6 
#
# 1 88.7840 16.4956 24.7402 0.0000 -9.8707 0.0000
# 2 16.4956 120.2215 43.0612 0.0000 -0.8148 0.0000
# 3 24.7402 43.0612 128.3275 0.0000 -6.4167 0.0000
# 4 0.0000 0.0000 0.0000 43.2038 0.0000 -9.4314
# 5 -9.8707 -0.8148 -6.4167 0.0000 31.9949 0.0000
# 6 0.0000 0.0000 0.0000 -9.4314 0.0000 22.8861
#
#
#
# Elastic Compliance Matrix: (Units=1/GPa)
#
#
# Indices 1 2 3 4 5 6 
#
# 1 0.012351 -0.001000 -0.001875 0.000000 0.003409 0.000000
# 2 -0.001000 0.009540 -0.003042 0.000000 -0.000676 0.000000
# 3 -0.001875 -0.003042 0.009235 0.000000 0.001196 0.000000
# 4 0.000000 0.000000 0.000000 0.025434 0.000000 0.010482
# 5 0.003409 -0.000676 0.001196 0.000000 0.032529 0.000000
# 6 0.000000 0.000000 0.000000 0.010482 0.000000 0.048014
#
#
# Mechanical properties :
#
#
# Convention : Reuss Voigt Hill
#
# Bulk Modulus (GPa) = 51.83774 56.21410 54.02592
# Shear Modulus (GPa) = 32.18162 36.48603 34.33382
#
# Velocity S-wave (km/s) = 3.65158 3.88813 3.77171
# Velocity P-wave (km/s) = 6.26555 6.59154 6.43061
#
# Compressibility (1/GPa) = 0.01929096
#
# Stress axis : x y z
#
# Youngs Moduli (GPa) = 80.96803 104.81845 108.28668
#
# Poissons Ratio (x) = 0.10481 0.20305
# Poissons Ratio (y) = 0.08096 0.32944
# Poissons Ratio (z) = 0.15182 0.31889
#
# Static dielectric constant tensor:
#      x y z
#    x 4.145450 0.000000 -0.065590 
#    y 0.000000 4.370780 0.000000 
#    z -0.065590 0.000000 4.438210 
# 
# 
# High freq. dielectric constant tensor:
#      x y z
#    x 1.946880 0.000000 -0.000440 
#    y 0.000000 1.965420 0.000000 
#    z -0.000440 0.000000 1.972440 
# 
# From -- ./inp_files/4033.got.cif
#   From: 2010.03.12/outbox.cif.g09.slc.cpg/sg4_3_cif.got.tgz:4033.got - 2010.03.31 09:31:35.
