data_PCOD8046904
_publ_section_title
;
Structure prediction by ZEFSAII (Michael W. Deem and Ramdas Pophale) SiO2 
 PCOD8046904
Probable space group: P 21
;
_chemical_formula_sum "Si O2"
_cell_formula_units_Z 16
_cell_length_a 14.192342
_cell_length_b 9.764042
_cell_length_c 7.481079
_cell_angle_alpha 90.000000
_cell_angle_beta 35.218560
_cell_angle_gamma 90.000000
_cell_volume 597.854675
_symmetry_space_group_name_H-M "P 21"
_symmetry_group_IT_number 4
_symmetry_cell_setting 'monoclinic'
loop_
_space_group_symop_operation_xyz
x,y,z
-x,1/2+y,-z
loop_
_atom_site_type_symbol
_atom_site_label
_atom_site_fract_x
_atom_site_fract_y
_atom_site_fract_z
Si Si1 0.789839 0.000000 0.744457
Si Si2 0.837785 0.462016 0.782394
Si Si3 0.172262 0.928406 0.611131
Si Si4 0.627494 0.696903 0.701799
Si Si5 0.200916 0.409900 0.760396
Si Si6 0.671200 0.747596 0.099735
Si Si7 0.365037 0.718189 0.797894
Si Si8 0.655753 0.156787 0.613888
O O1 0.741806 0.089412 0.650783
O O2 0.756522 0.089710 0.978629
O O3 0.977740 0.960461 0.437992
O O4 0.682838 0.860932 0.924651
O O5 0.825918 0.402906 0.602418
O O6 0.772080 0.615024 0.890076
O O7 0.734468 0.359801 0.067586
O O8 0.256204 0.798131 0.573509
O O9 0.275109 0.061688 0.505783
O O10 0.988596 0.947359 0.964525
O O11 0.749324 0.827174 0.499988
O O12 0.485825 0.725685 0.778996
O O13 0.539339 0.677410 0.034978
O O14 0.239746 0.312229 0.866071
O O15 0.308855 0.549529 0.602471
O O16 0.479062 0.709534 0.439769
#
# Coordination Sequence:
#
# PCOD8046904 Si02
#       8
#     2   2   2   2   2   2   2   2
#     4  11  22  44  70 104 141 190 234 288 365 427
#     4  12  23  43  73 102 145 190 235 302 359 428
#     4  12  23  44  70 104 142 190 239 294 360 423
#     4  10  23  43  72  99 143 189 237 297 355 424
#     4  11  24  46  69 107 145 184 239 297 350 429
#     4  11  24  42  70 103 141 186 238 292 354 427
#     4  10  23  47  66 100 140 184 241 295 350 425
#     4  11  24  45  72 101 145 189 239 295 355 427
#
# _framework density 26.762356
#
# number of rings (size 3 to 8) (size 9 to 14) (size 15 to 20)
#    0.000    1.000    3.750    3.750    3.500    1.000 
#    0.000    2.500    0.000    0.000    0.000    0.000 
#    0.000    0.000    0.000    0.000    0.000    0.000 
#
# Total GULP energy -198510.352855 kJ/mol
# GULP energy per Si atom -12406.897053 kJ/mol
# Density = 2.670144 g / cm^3
# Si number density = 26.762356 Si / 1000 Ang^3
#
#
#
# Elastic Constant Matrix: (Units=GPa)
#
#
# Indices 1 2 3 4 5 6 
#
# 1 69.3070 21.0803 47.8319 0.0000 -11.1529 0.0000
# 2 21.0803 189.6334 79.7114 0.0000 -37.4674 0.0000
# 3 47.8319 79.7114 184.6758 0.0000 -13.7259 0.0000
# 4 0.0000 0.0000 0.0000 54.5614 0.0000 -17.9570
# 5 -11.1529 -37.4674 -13.7259 0.0000 50.5608 0.0000
# 6 0.0000 0.0000 0.0000 -17.9570 0.0000 32.6423
#
#
#
# Elastic Compliance Matrix: (Units=1/GPa)
#
#
# Indices 1 2 3 4 5 6 
#
# 1 0.017983 0.000586 -0.004678 0.000000 0.003131 0.000000
# 2 0.000586 0.007419 -0.002996 0.000000 0.004813 0.000000
# 3 -0.004678 -0.002996 0.007836 0.000000 -0.001125 0.000000
# 4 0.000000 0.000000 0.000000 0.022380 0.000000 0.012311
# 5 0.003131 0.004813 -0.001125 0.000000 0.023730 0.000000
# 6 0.000000 0.000000 0.000000 0.012311 0.000000 0.037408
#
#
# Mechanical properties :
#
#
# Convention : Reuss Voigt Hill
#
# Bulk Modulus (GPa) = 52.46240 82.31815 67.39028
# Shear Modulus (GPa) = 36.42064 47.21907 41.81986
#
# Velocity S-wave (km/s) = 3.69303 4.20501 3.95731
# Velocity P-wave (km/s) = 6.15063 7.37576 6.79088
#
# Compressibility (1/GPa) = 0.01906127
#
# Stress axis : x y z
#
# Youngs Moduli (GPa) = 55.60960 134.79629 127.61541
#
# Poissons Ratio (x) = -0.07897 0.59695
# Poissons Ratio (y) = -0.03258 0.38235
# Poissons Ratio (z) = 0.26013 0.40386
#
# Static dielectric constant tensor:
#      x y z
#    x 4.877960 0.000000 0.356160 
#    y 0.000000 5.229930 0.000000 
#    z 0.356160 0.000000 5.740340 
# 
# 
# High freq. dielectric constant tensor:
#      x y z
#    x 2.098650 0.000000 0.012670 
#    y 0.000000 2.095880 0.000000 
#    z 0.012670 0.000000 2.096350 
# 
# From -- ./inp_files/5511.got.cif
#   From: 2010.03.12/outbox.cif.g09.slc.cpg/sg4_3_cif.got.tgz:5511.got - 2010.03.31 09:31:35.
