data_PCOD8046045
_publ_section_title
;
Structure prediction by ZEFSAII (Michael W. Deem and Ramdas Pophale) SiO2 
 PCOD8046045
Probable space group: P 21
;
_chemical_formula_sum "Si O2"
_cell_formula_units_Z 16
_cell_length_a 5.423923
_cell_length_b 16.977131
_cell_length_c 8.305889
_cell_angle_alpha 90.000000
_cell_angle_beta 121.196333
_cell_angle_gamma 90.000000
_cell_volume 654.232132
_symmetry_space_group_name_H-M "P 21"
_symmetry_group_IT_number 4
_symmetry_cell_setting 'monoclinic'
loop_
_space_group_symop_operation_xyz
x,y,z
-x,1/2+y,-z
loop_
_atom_site_type_symbol
_atom_site_label
_atom_site_fract_x
_atom_site_fract_y
_atom_site_fract_z
Si Si1 0.328086 0.888860 0.603613
Si Si2 0.371255 0.683524 0.393232
Si Si3 0.695808 0.292557 0.903277
Si Si4 0.268438 0.252932 0.236007
Si Si5 0.354397 0.418566 0.623685
Si Si6 0.381296 0.053034 0.715456
Si Si7 0.819277 0.088552 0.378557
Si Si8 0.436971 0.157787 0.009457
O O1 0.455722 0.807795 0.719876
O O2 0.482018 0.895580 0.483224
O O3 0.979129 0.888417 0.486443
O O4 0.454088 0.960833 0.755977
O O5 0.218385 0.755014 0.243881
O O6 0.682610 0.717007 0.566807
O O7 0.370487 0.608873 0.271841
O O8 0.200879 0.657720 0.494664
O O9 0.532430 0.375599 0.827281
O O10 0.469886 0.232613 0.905943
O O11 0.972832 0.302573 0.114651
O O12 0.250557 0.180154 0.103315
O O13 0.384056 0.512574 0.655930
O O14 0.282406 0.087970 0.855343
O O15 0.141636 0.056660 0.493305
O O16 0.745413 0.124432 0.178461
#
# Coordination Sequence:
#
# PCOD8046045 Si02
#       8
#     2   2   2   2   2   2   2   2
#     4  11  25  46  73  99 138 186 228 279 345 408
#     4  10  20  40  66  94 134 176 224 288 328 416
#     4  11  24  41  67 100 138 178 231 275 349 400
#     4  11  24  41  67 100 138 178 231 275 349 400
#     4  11  25  46  73  99 138 186 228 279 345 408
#     4  10  21  42  66  92 133 176 230 276 344 394
#     4  10  21  42  66  92 133 176 230 276 344 394
#     4  10  24  40  64 104 126 182 222 292 330 412
#
# _framework density 24.456151999999999
#
# number of rings (size 3 to 8) (size 9 to 14) (size 15 to 20)
#    0.000    1.500    2.500    1.500    3.500    5.000 
#    4.500    1.250    0.000    0.000    0.000    0.000 
#    0.000    0.000    0.000    0.000    0.000    0.000 
#
# Total GULP energy -198226.896068 kJ/mol
# GULP energy per Si atom -12389.181004 kJ/mol
# Density = 2.440049 g / cm^3
# Si number density = 24.456152 Si / 1000 Ang^3
#
#
#
# Elastic Constant Matrix: (Units=GPa)
#
#
# Indices 1 2 3 4 5 6 
#
# 1 67.9137 -2.0173 8.7008 0.0000 1.2228 0.0000
# 2 -2.0173 77.1857 5.2648 0.0000 -14.1573 0.0000
# 3 8.7008 5.2648 92.2372 0.0000 -0.0742 0.0000
# 4 0.0000 0.0000 0.0000 41.8709 0.0000 1.9253
# 5 1.2228 -14.1573 -0.0742 0.0000 31.3896 0.0000
# 6 0.0000 0.0000 0.0000 1.9253 0.0000 15.3157
#
#
#
# Elastic Compliance Matrix: (Units=1/GPa)
#
#
# Indices 1 2 3 4 5 6 
#
# 1 0.014928 0.000415 -0.001432 0.000000 -0.000398 0.000000
# 2 0.000415 0.014195 -0.000844 0.000000 0.006384 0.000000
# 3 -0.001432 -0.000844 0.011025 0.000000 -0.000299 0.000000
# 4 0.000000 0.000000 0.000000 0.024022 0.000000 -0.003020
# 5 -0.000398 0.006384 -0.000299 0.000000 0.034752 0.000000
# 6 0.000000 0.000000 0.000000 -0.003020 0.000000 0.065672
#
#
# Mechanical properties :
#
#
# Convention : Reuss Voigt Hill
#
# Bulk Modulus (GPa) = 27.45416 29.02592 28.24004
# Shear Modulus (GPa) = 27.70737 32.74113 30.22425
#
# Velocity S-wave (km/s) = 3.36957 3.66289 3.51929
# Velocity P-wave (km/s) = 5.13701 5.45741 5.29963
#
# Compressibility (1/GPa) = 0.03642435
#
# Stress axis : x y z
#
# Youngs Moduli (GPa) = 66.99029 70.44648 90.70578
#
# Poissons Ratio (x) = -0.02923 0.12990
# Poissons Ratio (y) = -0.02779 0.07658
# Poissons Ratio (z) = 0.09594 0.05947
#
# Static dielectric constant tensor:
#      x y z
#    x 3.864210 0.000000 -0.023940 
#    y 0.000000 4.918390 0.000000 
#    z -0.023940 0.000000 4.759850 
# 
# 
# High freq. dielectric constant tensor:
#      x y z
#    x 1.937470 0.000000 -0.004760 
#    y 0.000000 1.982790 0.000000 
#    z -0.004760 0.000000 1.975170 
# 
# From -- ./inp_files/463.got.cif
#   From: 2010.03.12/outbox.cif.g09.slc.cpg/sg4_1_cif.got.tgz:463.got - 2010.03.31 09:31:35.
