data_PCOD8046526
_publ_section_title
;
Structure prediction by ZEFSAII (Michael W. Deem and Ramdas Pophale) SiO2 
 PCOD8046526
Probable space group: P 21
;
_chemical_formula_sum "Si O2"
_cell_formula_units_Z 16
_cell_length_a 8.765345
_cell_length_b 9.097555
_cell_length_c 9.854034
_cell_angle_alpha 90.000000
_cell_angle_beta 82.939079
_cell_angle_gamma 90.000000
_cell_volume 779.832845
_symmetry_space_group_name_H-M "P 21"
_symmetry_group_IT_number 4
_symmetry_cell_setting 'monoclinic'
loop_
_space_group_symop_operation_xyz
x,y,z
-x,1/2+y,-z
loop_
_atom_site_type_symbol
_atom_site_label
_atom_site_fract_x
_atom_site_fract_y
_atom_site_fract_z
Si Si1 0.658941 0.947000 0.388876
Si Si2 0.662195 0.949696 0.075878
Si Si3 0.456022 0.681655 0.103644
Si Si4 0.984509 0.838010 0.415430
Si Si5 0.134821 0.835968 0.117621
Si Si6 0.540262 0.624568 0.386212
Si Si7 0.987175 0.029841 0.930447
Si Si8 0.880162 0.517711 0.371516
O O1 0.673953 0.998793 0.231258
O O2 0.826366 0.928441 0.435375
O O3 0.565146 0.796259 0.408955
O O4 0.570026 0.070341 0.482422
O O5 0.607362 0.781263 0.070925
O O6 0.544097 0.058817 0.013161
O O7 0.825821 0.955462 0.985258
O O8 0.310305 0.788120 0.105912
O O9 0.457380 0.601623 0.249918
O O10 0.952658 0.664897 0.427114
O O11 0.078081 0.881095 0.271589
O O12 0.089206 0.882757 0.531081
O O13 0.027385 0.706346 0.067611
O O14 0.116705 0.978062 0.023126
O O15 0.699005 0.535029 0.367966
O O16 0.037106 0.975476 0.777114
#
# Coordination Sequence:
#
# PCOD8046526 Si02
#       8
#     2   2   2   2   2   2   2   2
#     4  10  22  42  63  89 126 163 206 257 308 366
#     4  10  22  42  61  94 122 166 204 261 310 364
#     4  10  24  40  64  91 126 164 206 254 312 372
#     4  10  22  41  63  90 123 165 208 255 303 366
#     4  10  22  40  64  91 124 162 209 254 309 366
#     4  10  24  42  63  90 126 166 203 257 311 366
#     4  10  22  42  63  90 123 162 209 260 308 359
#     4  10  24  41  63  93 124 164 209 256 309 365
#
# _framework density 20.517216000000001
#
# number of rings (size 3 to 8) (size 9 to 14) (size 15 to 20)
#    0.000    2.000    1.250    0.000   12.250    2.000 
#    4.500    0.000    0.000    0.000    0.000    0.000 
#    0.000    0.000    0.000    0.000    0.000    0.000 
#
# Total GULP energy -198465.442637 kJ/mol
# GULP energy per Si atom -12404.090165 kJ/mol
# Density = 2.047052 g / cm^3
# Si number density = 20.517216 Si / 1000 Ang^3
#
#
#
# Elastic Constant Matrix: (Units=GPa)
#
#
# Indices 1 2 3 4 5 6 
#
# 1 49.3619 4.5084 31.1550 0.0000 -0.9665 0.0000
# 2 4.5084 18.1673 21.8390 0.0000 -9.7783 0.0000
# 3 31.1550 21.8390 106.2964 0.0000 -13.9868 0.0000
# 4 0.0000 0.0000 0.0000 44.5288 0.0000 7.2953
# 5 -0.9665 -9.7783 -13.9868 0.0000 33.2753 0.0000
# 6 0.0000 0.0000 0.0000 7.2953 0.0000 33.4929
#
#
#
# Elastic Compliance Matrix: (Units=1/GPa)
#
#
# Indices 1 2 3 4 5 6 
#
# 1 0.025126 0.002488 -0.008133 0.000000 -0.001958 0.000000
# 2 0.002488 0.082458 -0.015320 0.000000 0.017864 0.000000
# 3 -0.008133 -0.015320 0.015154 0.000000 0.001631 0.000000
# 4 0.000000 0.000000 0.000000 0.023288 0.000000 -0.005073
# 5 -0.001958 0.017864 0.001631 0.000000 0.035931 0.000000
# 6 0.000000 0.000000 0.000000 -0.005073 0.000000 0.030962
#
#
# Mechanical properties :
#
#
# Convention : Reuss Voigt Hill
#
# Bulk Modulus (GPa) = 12.37507 32.09225 22.23366
# Shear Modulus (GPa) = 17.74401 30.01429 23.87915
#
# Velocity S-wave (km/s) = 2.94400 3.82892 3.41524
# Velocity P-wave (km/s) = 4.19533 5.93490 5.13925
#
# Compressibility (1/GPa) = 0.08080765
#
# Stress axis : x y z
#
# Youngs Moduli (GPa) = 39.79900 12.12738 65.99073
#
# Poissons Ratio (x) = -0.03017 0.53671
# Poissons Ratio (y) = -0.09902 1.01097
# Poissons Ratio (z) = 0.32369 0.18579
#
# Static dielectric constant tensor:
#      x y z
#    x 3.749590 0.000000 0.073900 
#    y 0.000000 3.588380 0.000000 
#    z 0.073900 0.000000 3.759690 
# 
# 
# High freq. dielectric constant tensor:
#      x y z
#    x 1.810890 0.000000 0.000750 
#    y 0.000000 1.791470 0.000000 
#    z 0.000750 0.000000 1.807950 
# 
# From -- ./inp_files/5596.got.cif
#   From: 2010.03.12/outbox.cif.g09.slc.cpg/sg4_3_cif.got.tgz:5596.got - 2010.03.31 09:31:35.
