data_PCOD8046779
_publ_section_title
;
Structure prediction by ZEFSAII (Michael W. Deem and Ramdas Pophale) SiO2 
 PCOD8046779
Probable space group: P 21
;
_chemical_formula_sum "Si O2"
_cell_formula_units_Z 16
_cell_length_a 22.820878
_cell_length_b 5.827872
_cell_length_c 25.275422
_cell_angle_alpha 90.000000
_cell_angle_beta 10.729661
_cell_angle_gamma 90.000000
_cell_volume 625.839204
_symmetry_space_group_name_H-M "P 21"
_symmetry_group_IT_number 4
_symmetry_cell_setting 'monoclinic'
loop_
_space_group_symop_operation_xyz
x,y,z
-x,1/2+y,-z
loop_
_atom_site_type_symbol
_atom_site_label
_atom_site_fract_x
_atom_site_fract_y
_atom_site_fract_z
Si Si1 0.792560 0.345560 0.409672
Si Si2 0.869642 0.359490 0.493313
Si Si3 0.554190 0.059511 0.373938
Si Si4 0.376244 0.067727 0.992255
Si Si5 0.274853 0.078018 0.922003
Si Si6 0.312827 0.695651 0.964647
Si Si7 0.938855 0.862497 0.129963
Si Si8 0.863404 0.007022 0.639595
O O1 0.591694 0.363882 0.533558
O O2 0.566016 0.253296 0.657257
O O3 0.968251 0.579970 0.267663
O O4 0.063077 0.160161 0.158910
O O5 0.087186 0.250518 0.253192
O O6 0.105538 0.489607 0.324493
O O7 0.676328 0.158811 0.693431
O O8 0.613779 0.532872 0.697776
O O9 0.278291 0.214887 0.640060
O O10 0.747312 0.952083 0.250304
O O11 0.773711 0.211012 0.143064
O O12 0.275140 0.837500 0.052241
O O13 0.499601 0.009318 0.942316
O O14 0.381087 0.830986 0.849111
O O15 0.083521 0.068798 0.036440
O O16 0.998365 0.262875 0.505445
#
# Coordination Sequence:
#
# PCOD8046779 Si02
#       8
#     2   2   2   2   2   2   2   2
#     4  12  28  49  78 113 155 208 261 326 393 481
#     4  11  27  50  81 117 159 212 269 333 407 487
#     4  12  24  46  75 111 151 198 256 328 392 466
#     4  11  27  50  81 117 159 212 269 333 407 487
#     4  12  28  49  78 113 155 208 261 326 393 481
#     4  12  28  54  78 118 162 214 264 332 404 482
#     4  12  24  46  75 111 151 198 256 328 392 466
#     4  10  22  50  84 122 164 216 276 354 418 498
#
# _framework density 25.565674999999999
#
# number of rings (size 3 to 8) (size 9 to 14) (size 15 to 20)
#    0.000    0.500    2.500    4.500    0.000   11.000 
#    0.000    0.000    0.000    0.000    0.000    0.000 
#    0.000    0.000    0.000    0.000    0.000    0.000 
#
# Total GULP energy -198366.605146 kJ/mol
# GULP energy per Si atom -12397.912822 kJ/mol
# Density = 2.550749 g / cm^3
# Si number density = 25.565675 Si / 1000 Ang^3
#
#
#
# Elastic Constant Matrix: (Units=GPa)
#
#
# Indices 1 2 3 4 5 6 
#
# 1 94.0231 38.5922 55.6980 0.0000 -17.6097 0.0000
# 2 38.5922 130.7611 59.0818 0.0000 -5.9871 0.0000
# 3 55.6980 59.0818 150.9065 0.0000 9.2020 0.0000
# 4 0.0000 0.0000 0.0000 45.2622 0.0000 0.2737
# 5 -17.6097 -5.9871 9.2020 0.0000 58.1655 0.0000
# 6 0.0000 0.0000 0.0000 0.2737 0.0000 56.8194
#
#
#
# Elastic Compliance Matrix: (Units=1/GPa)
#
#
# Indices 1 2 3 4 5 6 
#
# 1 0.015591 -0.001954 -0.005316 0.000000 0.005360 0.000000
# 2 -0.001954 0.009676 -0.003122 0.000000 0.000898 0.000000
# 3 -0.005316 -0.003122 0.010025 0.000000 -0.003517 0.000000
# 4 0.000000 0.000000 0.000000 0.022094 0.000000 -0.000106
# 5 0.005360 0.000898 -0.003517 0.000000 0.019464 0.000000
# 6 0.000000 0.000000 0.000000 -0.000106 0.000000 0.017600
#
#
# Mechanical properties :
#
#
# Convention : Reuss Voigt Hill
#
# Bulk Modulus (GPa) = 68.92676 75.82606 72.37641
# Shear Modulus (GPa) = 41.64214 46.87066 44.25640
#
# Velocity S-wave (km/s) = 4.04026 4.28640 4.16515
# Velocity P-wave (km/s) = 6.98456 7.36351 7.17654
#
# Compressibility (1/GPa) = 0.01450815
#
# Stress axis : x y z
#
# Youngs Moduli (GPa) = 64.14001 103.34984 99.74565
#
# Poissons Ratio (x) = 0.20194 0.53028
# Poissons Ratio (y) = 0.12533 0.31139
# Poissons Ratio (z) = 0.34099 0.32264
#
# Static dielectric constant tensor:
#      x y z
#    x 5.198250 0.000000 -0.472190 
#    y 0.000000 4.771210 0.000000 
#    z -0.472190 0.000000 4.744540 
# 
# 
# High freq. dielectric constant tensor:
#      x y z
#    x 2.046850 0.000000 -0.021170 
#    y 0.000000 2.027410 0.000000 
#    z -0.021170 0.000000 2.027360 
# 
# From -- ./inp_files/16453.got.cif
#   From: 2010.03.12/outbox.cif.g09.slc.cpg/sg4_9_cif.got.tgz:16453.got - 2010.03.31 09:31:35.
