data_PCOD8046867
_publ_section_title
;
Structure prediction by ZEFSAII (Michael W. Deem and Ramdas Pophale) SiO2 
 PCOD8046867
Probable space group: P 21
;
_chemical_formula_sum "Si O2"
_cell_formula_units_Z 16
_cell_length_a 11.045630
_cell_length_b 12.500274
_cell_length_c 9.511864
_cell_angle_alpha 90.000000
_cell_angle_beta 38.910196
_cell_angle_gamma 90.000000
_cell_volume 824.907997
_symmetry_space_group_name_H-M "P 21"
_symmetry_group_IT_number 4
_symmetry_cell_setting 'monoclinic'
loop_
_space_group_symop_operation_xyz
x,y,z
-x,1/2+y,-z
loop_
_atom_site_type_symbol
_atom_site_label
_atom_site_fract_x
_atom_site_fract_y
_atom_site_fract_z
Si Si1 0.962351 0.577740 0.860482
Si Si2 0.408973 0.103326 0.300355
Si Si3 0.757775 0.223686 0.853659
Si Si4 0.260143 0.757083 0.635224
Si Si5 0.939992 0.582595 0.555747
Si Si6 0.976277 0.333473 0.901253
Si Si7 0.319195 0.186953 0.680714
Si Si8 0.735708 0.389282 0.642309
O O1 0.907176 0.597420 0.749744
O O2 0.020621 0.456402 0.833949
O O3 0.149100 0.644556 0.737607
O O4 0.774485 0.609246 0.119432
O O5 0.230315 0.148461 0.369510
O O6 0.365820 0.115196 0.503562
O O7 0.432803 0.975584 0.244402
O O8 0.596117 0.170651 0.095287
O O9 0.913431 0.277241 0.814240
O O10 0.666850 0.311710 0.830473
O O11 0.854713 0.130019 0.674303
O O12 0.488170 0.738452 0.430023
O O13 0.201085 0.821616 0.549452
O O14 0.194220 0.824253 0.830372
O O15 0.923781 0.457339 0.524354
O O16 0.174466 0.282918 0.776272
#
# Coordination Sequence:
#
# PCOD8046867 Si02
#       8
#     2   2   2   2   2   2   2   2
#     4  11  24  41  67  95 126 168 220 267 316 379
#     4  10  23  43  63  94 127 171 208 259 320 382
#     4  12  21  44  67  90 132 165 214 264 316 379
#     4  11  24  43  63  95 133 166 214 268 314 390
#     4  10  23  43  65  94 127 164 213 262 317 379
#     4  11  22  42  66  93 125 174 213 263 323 373
#     4  11  24  43  65  92 132 170 215 264 317 392
#     4  10  23  43  64  97 128 164 217 263 315 384
#
# _framework density 19.396101999999999
#
# number of rings (size 3 to 8) (size 9 to 14) (size 15 to 20)
#    0.750    0.500    5.000    0.750    1.750    2.000 
#    9.000    0.000    0.000    0.000    0.000    0.000 
#    0.000    0.000    0.000    0.000    0.000    0.000 
#
# Total GULP energy -198387.677097 kJ/mol
# GULP energy per Si atom -12399.229819 kJ/mol
# Density = 1.935196 g / cm^3
# Si number density = 19.396102 Si / 1000 Ang^3
#
#
#
# Elastic Constant Matrix: (Units=GPa)
#
#
# Indices 1 2 3 4 5 6 
#
# 1 82.3452 26.1897 50.2973 0.0000 9.4607 0.0000
# 2 26.1897 94.1694 51.4204 0.0000 -0.7179 0.0000
# 3 50.2973 51.4204 128.5300 0.0000 12.7413 0.0000
# 4 0.0000 0.0000 0.0000 27.4868 0.0000 8.6267
# 5 9.4607 -0.7179 12.7413 0.0000 40.4267 0.0000
# 6 0.0000 0.0000 0.0000 8.6267 0.0000 31.8979
#
#
#
# Elastic Compliance Matrix: (Units=1/GPa)
#
#
# Indices 1 2 3 4 5 6 
#
# 1 0.016253 -0.001504 -0.005552 0.000000 -0.002080 0.000000
# 2 -0.001504 0.013888 -0.005189 0.000000 0.002234 0.000000
# 3 -0.005552 -0.005189 0.012293 0.000000 -0.002667 0.000000
# 4 0.000000 0.000000 0.000000 0.039756 0.000000 -0.010752
# 5 -0.002080 0.002234 -0.002667 0.000000 0.026103 0.000000
# 6 0.000000 0.000000 0.000000 -0.010752 0.000000 0.034258
#
#
# Mechanical properties :
#
#
# Convention : Reuss Voigt Hill
#
# Bulk Modulus (GPa) = 55.73077 62.31771 59.02424
# Shear Modulus (GPa) = 28.89803 31.77142 30.33472
#
# Velocity S-wave (km/s) = 3.86409 4.05165 3.95898
# Velocity P-wave (km/s) = 6.97880 7.35436 7.16904
#
# Compressibility (1/GPa) = 0.01794341
#
# Stress axis : x y z
#
# Youngs Moduli (GPa) = 61.52817 72.00527 81.34537
#
# Poissons Ratio (x) = 0.10832 0.45164
# Poissons Ratio (y) = 0.09256 0.42209
# Poissons Ratio (z) = 0.34161 0.37362
#
# Static dielectric constant tensor:
#      x y z
#    x 3.505120 0.000000 0.200360 
#    y 0.000000 3.528080 0.000000 
#    z 0.200360 0.000000 3.477960 
# 
# 
# High freq. dielectric constant tensor:
#      x y z
#    x 1.756750 0.000000 0.020720 
#    y 0.000000 1.757220 0.000000 
#    z 0.020720 0.000000 1.753720 
# 
# From -- ./inp_files/8318.got.cif
#   From: 2010.03.12/outbox.cif.g09.slc.cpg/sg4_5_cif.got.tgz:8318.got - 2010.03.31 09:31:35.
