data_PCOD8046939
_publ_section_title
;
Structure prediction by ZEFSAII (Michael W. Deem and Ramdas Pophale) SiO2 
 PCOD8046939
Probable space group: P 21
;
_chemical_formula_sum "Si O2"
_cell_formula_units_Z 16
_cell_length_a 13.239021
_cell_length_b 10.260585
_cell_length_c 5.321348
_cell_angle_alpha 90.000000
_cell_angle_beta 76.351845
_cell_angle_gamma 90.000000
_cell_volume 702.441282
_symmetry_space_group_name_H-M "P 21"
_symmetry_group_IT_number 4
_symmetry_cell_setting 'monoclinic'
loop_
_space_group_symop_operation_xyz
x,y,z
-x,1/2+y,-z
loop_
_atom_site_type_symbol
_atom_site_label
_atom_site_fract_x
_atom_site_fract_y
_atom_site_fract_z
Si Si1 0.134426 0.059440 0.905771
Si Si2 0.466142 0.099364 0.268978
Si Si3 0.231703 0.791041 0.895843
Si Si4 0.554376 0.335273 0.478391
Si Si5 0.238638 0.157002 0.332328
Si Si6 0.892563 0.043349 0.055193
Si Si7 0.367089 0.650484 0.196195
Si Si8 0.207947 0.450918 0.408823
O O1 0.186392 0.092912 0.608377
O O2 0.158774 0.914072 0.982308
O O3 0.171872 0.148323 0.116224
O O4 0.012353 0.072918 0.940442
O O5 0.480903 0.251124 0.338595
O O6 0.350900 0.087881 0.219260
O O7 0.479129 0.986776 0.477076
O O8 0.561345 0.063489 0.030337
O O9 0.324186 0.829723 0.657434
O O10 0.160359 0.677607 0.825809
O O11 0.279123 0.741420 0.127526
O O12 0.549256 0.249060 0.733225
O O13 0.255969 0.308192 0.372892
O O14 0.872784 0.950891 0.309110
O O15 0.845979 0.984783 0.825556
O O16 0.305055 0.548390 0.408845
#
# Coordination Sequence:
#
# PCOD8046939 Si02
#       8
#     2   2   2   2   2   2   2   2
#     4  12  27  47  72 105 142 186 234 295 357 422
#     4  11  27  40  72 101 141 191 234 294 355 426
#     4  10  23  44  71  96 142 177 242 290 351 423
#     4  11  23  46  66 101 138 186 241 286 359 421
#     4  12  28  46  69 107 147 180 235 298 352 417
#     4  11  25  47  74 104 134 192 230 292 356 426
#     4  10  24  43  70  98 137 189 233 288 356 421
#     4  11  25  47  72 104 143 179 237 291 352 424
#
# _framework density 22.777704
#
# number of rings (size 3 to 8) (size 9 to 14) (size 15 to 20)
#    0.000    1.000    2.500    2.250    8.750    1.000 
#    0.000    0.000    0.000    0.000    0.000    0.000 
#    0.000    0.000    0.000    0.000    0.000    0.000 
#
# Total GULP energy -198295.145734 kJ/mol
# GULP energy per Si atom -12393.446608 kJ/mol
# Density = 2.272586 g / cm^3
# Si number density = 22.777704 Si / 1000 Ang^3
#
#
#
# Elastic Constant Matrix: (Units=GPa)
#
#
# Indices 1 2 3 4 5 6 
#
# 1 103.0984 11.7731 31.0150 0.0000 -14.6729 0.0000
# 2 11.7731 76.2670 6.9515 0.0000 -12.8322 0.0000
# 3 31.0150 6.9515 96.0867 0.0000 2.2420 0.0000
# 4 0.0000 0.0000 0.0000 29.3681 0.0000 -6.1880
# 5 -14.6729 -12.8322 2.2420 0.0000 21.7729 0.0000
# 6 0.0000 0.0000 0.0000 -6.1880 0.0000 26.8425
#
#
#
# Elastic Compliance Matrix: (Units=1/GPa)
#
#
# Indices 1 2 3 4 5 6 
#
# 1 0.012170 -0.000057 -0.004124 0.000000 0.008592 0.000000
# 2 -0.000057 0.014708 -0.001250 0.000000 0.008759 0.000000
# 3 -0.004124 -0.001250 0.011940 0.000000 -0.004746 0.000000
# 4 0.000000 0.000000 0.000000 0.035789 0.000000 0.008250
# 5 0.008592 0.008759 -0.004746 0.000000 0.057370 0.000000
# 6 0.000000 0.000000 0.000000 0.008250 0.000000 0.039156
#
#
# Mechanical properties :
#
#
# Convention : Reuss Voigt Hill
#
# Bulk Modulus (GPa) = 35.77227 41.65903 38.71565
# Shear Modulus (GPa) = 26.13502 30.64421 28.38961
#
# Velocity S-wave (km/s) = 3.39100 3.67189 3.53424
# Velocity P-wave (km/s) = 5.57412 6.02546 5.80418
#
# Compressibility (1/GPa) = 0.02795462
#
# Stress axis : x y z
#
# Youngs Moduli (GPa) = 82.17204 67.98885 83.75395
#
# Poissons Ratio (x) = 0.00387 0.34544
# Poissons Ratio (y) = 0.00468 0.10470
# Poissons Ratio (z) = 0.33892 0.08499
#
# Static dielectric constant tensor:
#      x y z
#    x 4.024170 0.000000 -0.032720 
#    y 0.000000 4.179280 0.000000 
#    z -0.032720 0.000000 4.081620 
# 
# 
# High freq. dielectric constant tensor:
#      x y z
#    x 1.898490 0.000000 -0.005120 
#    y 0.000000 1.908530 0.000000 
#    z -0.005120 0.000000 1.897600 
# 
# From -- ./inp_files/2616.got.cif
#   From: 2010.03.12/outbox.cif.g09.slc.cpg/sg4_2_cif.got.tgz:2616.got - 2010.03.31 09:31:35.
