data_PCOD8046506
_publ_section_title
;
Structure prediction by ZEFSAII (Michael W. Deem and Ramdas Pophale) SiO2 
 PCOD8046506
Probable space group: P 21
;
_chemical_formula_sum "Si O2"
_cell_formula_units_Z 16
_cell_length_a 23.497543
_cell_length_b 5.804290
_cell_length_c 28.978566
_cell_angle_alpha 90.000000
_cell_angle_beta 10.523007
_cell_angle_gamma 90.000000
_cell_volume 721.807453
_symmetry_space_group_name_H-M "P 21"
_symmetry_group_IT_number 4
_symmetry_cell_setting 'monoclinic'
loop_
_space_group_symop_operation_xyz
x,y,z
-x,1/2+y,-z
loop_
_atom_site_type_symbol
_atom_site_label
_atom_site_fract_x
_atom_site_fract_y
_atom_site_fract_z
Si Si1 0.142522 0.494960 0.799804
Si Si2 0.651584 0.872474 0.942954
Si Si3 0.909985 0.204203 0.671903
Si Si4 0.879745 0.437686 0.576014
Si Si5 0.527171 0.259642 0.311157
Si Si6 0.716276 0.668048 0.393964
Si Si7 0.768269 0.059378 0.530111
Si Si8 0.244236 0.381729 0.934193
O O1 0.434336 0.507862 0.601349
O O2 0.256549 0.391078 0.660170
O O3 0.887510 0.337947 0.029288
O O4 0.999890 0.743541 0.902692
O O5 0.900986 0.671597 0.745581
O O6 0.800357 0.113830 0.809026
O O7 0.370526 0.820557 0.131612
O O8 0.491721 0.910586 0.120198
O O9 0.044505 0.977881 0.538083
O O10 0.182418 0.387775 0.465741
O O11 0.028690 0.191467 0.473577
O O12 0.352480 0.238733 0.498952
O O13 0.336062 0.443139 0.434123
O O14 0.533537 0.021106 0.278135
O O15 0.048012 0.536085 0.126535
O O16 0.486647 0.226839 0.770185
#
# Coordination Sequence:
#
# PCOD8046506 Si02
#       8
#     2   2   2   2   2   2   2   2
#     4  10  22  39  68 106 132 171 234 285 336 419
#     4  11  22  42  74 100 137 183 242 305 362 430
#     4  11  22  42  74 101 136 188 239 307 361 425
#     4  10  24  42  70 112 142 171 244 317 374 437
#     4  10  25  43  66 100 143 183 229 284 358 432
#     4  11  22  42  72 103 138 179 232 287 349 419
#     4  11  24  46  68 100 145 189 235 289 372 432
#     4  10  23  46  64  98 145 178 225 284 348 428
#
# _framework density 22.166575000000002
#
# number of rings (size 3 to 8) (size 9 to 14) (size 15 to 20)
#    0.000    1.500    2.500    1.500    5.250    2.000 
#    0.000   16.250    0.000    0.000    0.000    0.000 
#    0.000    0.000    0.000    0.000    0.000    0.000 
#
# Total GULP energy -198295.217939 kJ/mol
# GULP energy per Si atom -12393.451121 kJ/mol
# Density = 2.211612 g / cm^3
# Si number density = 22.166575 Si / 1000 Ang^3
#
#
#
# Elastic Constant Matrix: (Units=GPa)
#
#
# Indices 1 2 3 4 5 6 
#
# 1 75.9718 25.4573 56.5712 0.0000 6.4618 -0.0002
# 2 25.4573 87.1712 25.3515 0.0000 1.0296 0.0000
# 3 56.5712 25.3515 98.7373 0.0001 7.4882 -0.0001
# 4 0.0000 0.0000 0.0001 39.0691 -0.0001 -5.8638
# 5 6.4618 1.0296 7.4882 -0.0001 38.7605 0.0001
# 6 -0.0002 0.0000 -0.0001 -5.8638 0.0001 25.9899
#
#
#
# Elastic Compliance Matrix: (Units=1/GPa)
#
#
# Indices 1 2 3 4 5 6 
#
# 1 0.023843 -0.003247 -0.012719 0.000000 -0.001432 0.000000
# 2 -0.003247 0.012843 -0.001474 0.000000 0.000485 0.000000
# 3 -0.012719 -0.001474 0.017892 0.000000 -0.001297 0.000000
# 4 0.000000 0.000000 0.000000 0.026493 0.000000 0.005977
# 5 -0.001432 0.000485 -0.001297 0.000000 0.026276 0.000000
# 6 0.000000 0.000000 0.000000 0.005977 0.000000 0.039825
#
#
# Mechanical properties :
#
#
# Convention : Reuss Voigt Hill
#
# Bulk Modulus (GPa) = 50.76507 52.96006 51.86256
# Shear Modulus (GPa) = 26.50868 31.06392 28.78630
#
# Velocity S-wave (km/s) = 3.46191 3.74757 3.60757
# Velocity P-wave (km/s) = 6.23948 6.53218 6.38751
#
# Compressibility (1/GPa) = 0.01969858
#
# Stress axis : x y z
#
# Youngs Moduli (GPa) = 41.94021 77.86406 55.89165
#
# Poissons Ratio (x) = 0.25285 0.71087
# Poissons Ratio (y) = 0.13620 0.08237
# Poissons Ratio (z) = 0.53342 0.11475
#
# Static dielectric constant tensor:
#      x y z
#    x 3.763480 0.000000 0.141530 
#    y 0.000000 4.273180 0.000000 
#    z 0.141530 0.000000 4.379690 
# 
# 
# High freq. dielectric constant tensor:
#      x y z
#    x 1.842910 0.000000 0.003510 
#    y 0.000000 1.888300 0.000000 
#    z 0.003510 0.000000 1.887580 
# 
# From -- ./inp_files/15394.got.cif
#   From: 2010.03.12/outbox.cif.g09.slc.cpg/sg4_8_cif.got.tgz:15394.got - 2010.03.31 09:31:35.
