data_PCOD8046877
_publ_section_title
;
Structure prediction by ZEFSAII (Michael W. Deem and Ramdas Pophale) SiO2 
 PCOD8046877
Probable space group: P 21
;
_chemical_formula_sum "Si O2"
_cell_formula_units_Z 14
_cell_length_a 11.133983
_cell_length_b 9.036865
_cell_length_c 5.293255
_cell_angle_alpha 90.000000
_cell_angle_beta 86.692774
_cell_angle_gamma 90.000000
_cell_volume 531.700741
_symmetry_space_group_name_H-M "P 21"
_symmetry_group_IT_number 4
_symmetry_cell_setting 'monoclinic'
loop_
_space_group_symop_operation_xyz
x,y,z
-x,1/2+y,-z
loop_
_atom_site_type_symbol
_atom_site_label
_atom_site_fract_x
_atom_site_fract_y
_atom_site_fract_z
Si Si1 0.427635 0.840270 0.248269
Si Si2 0.055671 0.733917 0.878715
Si Si3 0.612299 0.836742 0.843813
Si Si4 0.417839 0.570542 0.545764
Si Si5 0.169290 0.212962 0.393359
Si Si6 0.153245 0.874762 0.362437
Si Si7 0.809957 0.948972 0.201055
O O1 0.455671 0.741733 0.496638
O O2 0.490731 0.000089 0.262831
O O3 0.286319 0.848645 0.230084
O O4 0.496666 0.764207 0.000706
O O5 0.127292 0.781710 0.616313
O O6 0.089375 0.560973 0.925066
O O7 0.912615 0.755776 0.842685
O O8 0.074511 0.830328 0.128340
O O9 0.564753 0.985154 0.719958
O O10 0.684529 0.722582 0.652028
O O11 0.725399 0.873403 0.007893
O O12 0.278124 0.557529 0.629295
O O13 0.129901 0.323929 0.624320
O O14 0.135157 0.043504 0.455607
#
# Coordination Sequence:
#
# PCOD8046877 Si02
#       7
#     2   2   2   2   2   2   2
#     4  11  25  42  72 102 149 187 251 305 379 445
#     4  12  28  50  78 108 155 195 256 313 384 447
#     4  10  25  42  73 100 144 196 242 307 376 450
#     4  10  23  43  66 103 142 192 243 304 376 450
#     4  11  28  46  77 108 151 195 261 309 388 449
#     4  12  30  49  77 117 148 199 256 323 370 459
#     4  10  23  48  71 102 145 202 249 303 387 450
#
# _framework density 26.330601000000001
#
# number of rings (size 3 to 8) (size 9 to 14) (size 15 to 20)
#    0.000    1.143    1.429    1.714   18.000    1.143 
#    0.000    0.000    0.000    0.000    0.000    0.000 
#    0.000    0.000    0.000    0.000    0.000    0.000 
#
# Total GULP energy -173496.341948 kJ/mol
# GULP energy per Si atom -12392.595853 kJ/mol
# Density = 2.627067 g / cm^3
# Si number density = 26.330601 Si / 1000 Ang^3
#
#
#
# Elastic Constant Matrix: (Units=GPa)
#
#
# Indices 1 2 3 4 5 6 
#
# 1 105.9688 12.9202 4.9441 0.0000 -20.2431 0.0000
# 2 12.9202 107.6398 6.4682 0.0000 -3.8040 0.0000
# 3 4.9441 6.4682 79.0516 0.0000 -4.4007 0.0000
# 4 0.0000 0.0000 0.0000 19.0270 0.0000 7.0970
# 5 -20.2431 -3.8040 -4.4007 0.0000 39.7078 0.0000
# 6 0.0000 0.0000 0.0000 7.0970 0.0000 40.8163
#
#
#
# Elastic Compliance Matrix: (Units=1/GPa)
#
#
# Indices 1 2 3 4 5 6 
#
# 1 0.010585 -0.001068 -0.000282 0.000000 0.005263 0.000000
# 2 -0.001068 0.009470 -0.000692 0.000000 0.000286 0.000000
# 3 -0.000282 -0.000692 0.012791 0.000000 0.001208 0.000000
# 4 0.000000 0.000000 0.000000 0.056202 0.000000 -0.009772
# 5 0.005263 0.000286 0.001208 0.000000 0.028028 0.000000
# 6 0.000000 0.000000 0.000000 -0.009772 0.000000 0.026199
#
#
# Mechanical properties :
#
#
# Convention : Reuss Voigt Hill
#
# Bulk Modulus (GPa) = 34.76572 37.92500 36.34536
# Shear Modulus (GPa) = 31.85780 37.79872 34.82826
#
# Velocity S-wave (km/s) = 3.48216 3.79297 3.64088
# Velocity P-wave (km/s) = 5.42212 5.79800 5.61321
#
# Compressibility (1/GPa) = 0.02876396
#
# Stress axis : x y z
#
# Youngs Moduli (GPa) = 94.46937 105.59545 78.17718
#
# Poissons Ratio (x) = 0.11274 0.02202
# Poissons Ratio (y) = 0.10086 0.05411
# Poissons Ratio (z) = 0.02661 0.07309
#
# Static dielectric constant tensor:
#      x y z
#    x 4.883900 0.000000 -0.143700 
#    y 0.000000 4.701350 0.000000 
#    z -0.143700 0.000000 4.666990 
# 
# 
# High freq. dielectric constant tensor:
#      x y z
#    x 2.076890 0.000000 -0.004600 
#    y 0.000000 2.055040 0.000000 
#    z -0.004600 0.000000 2.053050 
# 
# From -- ./inp_files/2437.got.cif
#   From: 2010.03.12/outbox.cif.g09.slc.cpg/sg4_2_cif.got.tgz:2437.got - 2010.03.31 09:31:35.
