data_PCOD8046115
_publ_section_title
;
Structure prediction by ZEFSAII (Michael W. Deem and Ramdas Pophale) SiO2 
 PCOD8046115
Probable space group: P 21
;
_chemical_formula_sum "Si O2"
_cell_formula_units_Z 16
_cell_length_a 17.171980
_cell_length_b 5.117690
_cell_length_c 16.889189
_cell_angle_alpha 90.000000
_cell_angle_beta 148.250760
_cell_angle_gamma 90.000000
_cell_volume 781.009238
_symmetry_space_group_name_H-M "P 21"
_symmetry_group_IT_number 4
_symmetry_cell_setting 'monoclinic'
loop_
_space_group_symop_operation_xyz
x,y,z
-x,1/2+y,-z
loop_
_atom_site_type_symbol
_atom_site_label
_atom_site_fract_x
_atom_site_fract_y
_atom_site_fract_z
Si Si1 0.546412 0.050620 0.417407
Si Si2 0.173352 0.198739 0.310779
Si Si3 0.678681 0.316169 0.671628
Si Si4 0.421255 0.645199 0.895201
Si Si5 0.062402 0.490370 0.088759
Si Si6 0.933791 0.179411 0.401884
Si Si7 0.844350 0.577109 0.533247
Si Si8 0.652148 0.087313 0.341364
O O1 0.564128 0.277765 0.499352
O O2 0.547265 0.152366 0.327316
O O3 0.680796 0.852087 0.538945
O O4 0.394656 0.910180 0.310033
O O5 0.045049 0.392382 0.165692
O O6 0.121164 0.045512 0.343409
O O7 0.199463 0.013493 0.257516
O O8 0.762303 0.052238 0.770368
O O9 0.244126 0.660753 0.756519
O O10 0.447564 0.599527 0.823935
O O11 0.503685 0.909967 0.991669
O O12 0.971921 0.757189 0.001475
O O13 0.991106 0.465374 0.476133
O O14 0.997153 0.129642 0.368890
O O15 0.780173 0.304918 0.445174
O O16 0.727101 0.804146 0.411953
#
# Coordination Sequence:
#
# PCOD8046115 Si02
#       8
#     2   2   2   2   2   2   2   2
#     4  10  21  34  61  98 128 155 216 270 323 373
#     4  10  21  36  63  90 126 157 210 277 319 355
#     4  11  19  36  62  93 121 168 205 274 318 375
#     4  12  25  43  69  97 141 176 206 270 350 409
#     4  11  23  40  59  81 117 172 221 249 313 388
#     4  12  22  42  71 101 123 170 228 265 313 399
#     4  11  21  39  66 100 120 158 219 283 311 370
#     4  11  22  40  65  94 130 170 211 266 333 387
#
# _framework density 20.486312000000002
#
# number of rings (size 3 to 8) (size 9 to 14) (size 15 to 20)
#    0.000    1.000    6.250    1.500    0.000    0.000 
#    0.000    1.250    5.500    0.000    0.000    0.000 
#    0.000    0.000    0.000    0.000    0.000    0.000 
#
# Total GULP energy -198249.041150 kJ/mol
# GULP energy per Si atom -12390.565072 kJ/mol
# Density = 2.043968 g / cm^3
# Si number density = 20.486312 Si / 1000 Ang^3
#
#
#
# Elastic Constant Matrix: (Units=GPa)
#
#
# Indices 1 2 3 4 5 6 
#
# 1 117.6722 4.4846 40.6188 0.0000 -7.8472 0.0000
# 2 4.4846 89.5479 32.3843 0.0000 -9.0941 0.0000
# 3 40.6188 32.3843 103.8547 0.0000 -10.6215 0.0000
# 4 0.0000 0.0000 0.0000 35.8016 0.0000 -4.4608
# 5 -7.8472 -9.0941 -10.6215 0.0000 22.3636 0.0000
# 6 0.0000 0.0000 0.0000 -4.4608 0.0000 19.8811
#
#
#
# Elastic Compliance Matrix: (Units=1/GPa)
#
#
# Indices 1 2 3 4 5 6 
#
# 1 0.009994 0.001179 -0.004066 0.000000 0.002055 0.000000
# 2 0.001179 0.012980 -0.004127 0.000000 0.003732 0.000000
# 3 -0.004066 -0.004127 0.012811 0.000000 0.002980 0.000000
# 4 0.000000 0.000000 0.000000 0.028735 0.000000 0.006447
# 5 0.002055 0.003732 0.002980 0.000000 0.048369 0.000000
# 6 0.000000 0.000000 0.000000 0.006447 0.000000 0.051746
#
#
# Mechanical properties :
#
#
# Convention : Reuss Voigt Hill
#
# Bulk Modulus (GPa) = 45.96463 51.78337 48.87400
# Shear Modulus (GPa) = 26.89416 31.18173 29.03794
#
# Velocity S-wave (km/s) = 3.62717 3.90561 3.76896
# Velocity P-wave (km/s) = 6.32671 6.75798 6.54590
#
# Compressibility (1/GPa) = 0.02175586
#
# Stress axis : x y z
#
# Youngs Moduli (GPa) = 100.06140 77.04443 78.06003
#
# Poissons Ratio (x) = -0.09081 0.31740
# Poissons Ratio (y) = -0.11794 0.32213
# Poissons Ratio (z) = 0.40686 0.31794
#
# Static dielectric constant tensor:
#      x y z
#    x 3.985100 0.000000 -0.236750 
#    y 0.000000 3.972460 0.000000 
#    z -0.236750 0.000000 3.724260 
# 
# 
# High freq. dielectric constant tensor:
#      x y z
#    x 1.791920 0.000000 -0.014930 
#    y 0.000000 1.821800 0.000000 
#    z -0.014930 0.000000 1.780190 
# 
# From -- ./inp_files/15308.got.cif
#   From: 2010.03.12/outbox.cif.g09.slc.cpg/sg4_8_cif.got.tgz:15308.got - 2010.03.31 09:31:35.
