data_PCOD8046105
_publ_section_title
;
Structure prediction by ZEFSAII (Michael W. Deem and Ramdas Pophale) SiO2 
 PCOD8046105
Probable space group: P 21
;
_chemical_formula_sum "Si O2"
_cell_formula_units_Z 14
_cell_length_a 6.976027
_cell_length_b 11.704592
_cell_length_c 8.238653
_cell_angle_alpha 90.000000
_cell_angle_beta 99.957829
_cell_angle_gamma 90.000000
_cell_volume 662.564777
_symmetry_space_group_name_H-M "P 21"
_symmetry_group_IT_number 4
_symmetry_cell_setting 'monoclinic'
loop_
_space_group_symop_operation_xyz
x,y,z
-x,1/2+y,-z
loop_
_atom_site_type_symbol
_atom_site_label
_atom_site_fract_x
_atom_site_fract_y
_atom_site_fract_z
Si Si1 0.905357 0.305200 0.866542
Si Si2 0.401818 0.633063 0.300932
Si Si3 0.229163 0.051540 0.160993
Si Si4 0.818176 0.625293 0.206608
Si Si5 0.126443 0.470654 0.398298
Si Si6 0.028283 0.748603 0.761961
Si Si7 0.641088 0.110007 0.347488
O O1 0.721063 0.224687 0.815362
O O2 0.850278 0.429385 0.789995
O O3 0.090385 0.252822 0.796292
O O4 0.950114 0.312606 0.064124
O O5 0.601496 0.626835 0.237371
O O6 0.285278 0.510792 0.283283
O O7 0.430546 0.669449 0.494376
O O8 0.460932 0.064469 0.215983
O O9 0.122014 0.144908 0.254179
O O10 0.173699 0.064448 0.965846
O O11 0.937912 0.551117 0.352806
O O12 0.221493 0.500250 0.588275
O O13 0.066236 0.338755 0.378023
O O14 0.239141 0.705049 0.734610
#
# Coordination Sequence:
#
# PCOD8046105 Si02
#       7
#     2   2   2   2   2   2   2
#     4  10  22  42  66  98 130 173 224 273 325 399
#     4   9  22  42  65  95 132 169 219 267 342 386
#     4  11  24  40  65 101 128 173 227 272 325 403
#     4  10  20  44  69  88 131 181 214 272 332 395
#     4   9  22  43  66  93 130 174 211 274 329 391
#     4  11  23  44  69  95 135 175 224 269 335 396
#     4  10  25  41  64 100 130 171 221 275 332 390
#
# _framework density 21.130009999999999
#
# number of rings (size 3 to 8) (size 9 to 14) (size 15 to 20)
#    0.857    1.143    1.429    0.857    2.000    4.571 
#    5.143    0.000    0.000    0.000    0.000    0.000 
#    0.000    0.000    0.000    0.000    0.000    0.000 
#
# Total GULP energy -173534.628613 kJ/mol
# GULP energy per Si atom -12395.330615 kJ/mol
# Density = 2.108192 g / cm^3
# Si number density = 21.130010 Si / 1000 Ang^3
#
#
#
# Elastic Constant Matrix: (Units=GPa)
#
#
# Indices 1 2 3 4 5 6 
#
# 1 115.2577 58.9926 -2.4230 0.0000 4.9280 0.0000
# 2 58.9926 138.6624 11.1842 0.0000 0.3083 0.0000
# 3 -2.4230 11.1842 24.7262 0.0000 11.3729 0.0000
# 4 0.0000 0.0000 0.0000 16.7779 0.0000 2.1062
# 5 4.9280 0.3083 11.3729 0.0000 38.6398 0.0000
# 6 0.0000 0.0000 0.0000 2.1062 0.0000 21.0049
#
#
#
# Elastic Compliance Matrix: (Units=1/GPa)
#
#
# Indices 1 2 3 4 5 6 
#
# 1 0.011633 -0.005336 0.004877 0.000000 -0.002876 0.000000
# 2 -0.005336 0.009972 -0.006141 0.000000 0.002409 0.000000
# 3 0.004877 -0.006141 0.050846 0.000000 -0.015538 0.000000
# 4 0.000000 0.000000 0.000000 0.060362 0.000000 -0.006053
# 5 -0.002876 0.002409 -0.015538 0.000000 0.030801 0.000000
# 6 0.000000 0.000000 0.000000 -0.006053 0.000000 0.048215
#
#
# Mechanical properties :
#
#
# Convention : Reuss Voigt Hill
#
# Bulk Modulus (GPa) = 16.87794 46.01709 31.44751
# Shear Modulus (GPa) = 20.42656 29.34402 24.88529
#
# Velocity S-wave (km/s) = 3.11257 3.73062 3.43552
# Velocity P-wave (km/s) = 4.57410 6.35469 5.53645
#
# Compressibility (1/GPa) = 0.05924894
#
# Stress axis : x y z
#
# Youngs Moduli (GPa) = 85.96342 100.28185 19.66740
#
# Poissons Ratio (x) = 0.53511 -0.09591
# Poissons Ratio (y) = 0.45870 0.12078
# Poissons Ratio (z) = -0.41920 0.61585
#
# Static dielectric constant tensor:
#      x y z
#    x 3.771120 0.000000 0.138380 
#    y 0.000000 3.649730 0.000000 
#    z 0.138380 0.000000 3.723260 
# 
# 
# High freq. dielectric constant tensor:
#      x y z
#    x 1.834480 0.000000 0.011300 
#    y 0.000000 1.815240 0.000000 
#    z 0.011300 0.000000 1.822780 
# 
# From -- ./inp_files/2797.got.cif
#   From: 2010.03.12/outbox.cif.g09.slc.cpg/sg4_2_cif.got.tgz:2797.got - 2010.03.31 09:31:35.
