data_PCOD8046186
_publ_section_title
;
Structure prediction by ZEFSAII (Michael W. Deem and Ramdas Pophale) SiO2 
 PCOD8046186
Probable space group: P 21
;
_chemical_formula_sum "Si O2"
_cell_formula_units_Z 16
_cell_length_a 23.692637
_cell_length_b 5.010578
_cell_length_c 17.075758
_cell_angle_alpha 90.000000
_cell_angle_beta 158.883006
_cell_angle_gamma 90.000000
_cell_volume 730.320593
_symmetry_space_group_name_H-M "P 21"
_symmetry_group_IT_number 4
_symmetry_cell_setting 'monoclinic'
loop_
_space_group_symop_operation_xyz
x,y,z
-x,1/2+y,-z
loop_
_atom_site_type_symbol
_atom_site_label
_atom_site_fract_x
_atom_site_fract_y
_atom_site_fract_z
Si Si1 0.452210 0.747980 0.224069
Si Si2 0.113349 0.779049 0.734211
Si Si3 0.079561 0.864687 0.199046
Si Si4 0.092922 0.778708 0.527161
Si Si5 0.584276 0.260300 0.315092
Si Si6 0.415942 0.788649 0.862361
Si Si7 0.446775 0.083524 0.471938
Si Si8 0.890418 0.368741 0.946756
O O1 0.462721 0.492512 0.180721
O O2 0.510624 0.660000 0.384752
O O3 0.559780 0.996886 0.336343
O O4 0.270067 0.833241 0.987465
O O5 0.155956 0.803901 0.697508
O O6 0.042683 0.493072 0.664382
O O7 0.981705 0.992409 0.586868
O O8 0.245865 0.895156 0.455562
O O9 0.109602 0.880658 0.146225
O O10 0.007889 0.586600 0.133620
O O11 0.954943 0.089924 0.063461
O O12 0.235592 0.823687 0.652727
O O13 0.563481 0.177153 0.198543
O O14 0.500532 0.575216 0.027208
O O15 0.433677 0.359535 0.406198
O O16 0.283599 0.928141 0.250008
#
# Coordination Sequence:
#
# PCOD8046186 Si02
#       8
#     2   2   2   2   2   2   2   2
#     4  12  25  44  70  97 132 172 239 275 328 412
#     4  10  21  40  66  91 127 179 213 262 323 385
#     4  10  21  38  67  94 122 171 214 281 322 400
#     4  10  21  40  64  94 132 167 217 261 323 403
#     4  12  24  42  70 100 132 175 228 283 332 397
#     4  12  25  43  67 101 140 175 218 277 345 392
#     4  12  26  45  67  96 136 177 224 285 343 405
#     4  10  21  40  65  91 127 164 221 268 342 396
#
# _framework density 21.908187999999999
#
# number of rings (size 3 to 8) (size 9 to 14) (size 15 to 20)
#    0.000    1.000    1.250    6.000    3.500    2.000 
#    6.750    0.000    0.000    0.000    0.000    0.000 
#    0.000    0.000    0.000    0.000    0.000    0.000 
#
# Total GULP energy -198467.070301 kJ/mol
# GULP energy per Si atom -12404.191894 kJ/mol
# Density = 2.185832 g / cm^3
# Si number density = 21.908188 Si / 1000 Ang^3
#
#
#
# Elastic Constant Matrix: (Units=GPa)
#
#
# Indices 1 2 3 4 5 6 
#
# 1 91.5006 38.0385 31.8901 0.0000 5.8706 0.0000
# 2 38.0385 96.3456 6.3008 0.0000 -7.9298 0.0000
# 3 31.8901 6.3008 98.3976 0.0000 4.2308 0.0000
# 4 0.0000 0.0000 0.0000 33.0212 0.0000 4.1977
# 5 5.8706 -7.9298 4.2308 0.0000 20.0963 0.0000
# 6 0.0000 0.0000 0.0000 4.1977 0.0000 32.9520
#
#
#
# Elastic Compliance Matrix: (Units=1/GPa)
#
#
# Indices 1 2 3 4 5 6 
#
# 1 0.015463 -0.006323 -0.004344 0.000000 -0.006097 0.000000
# 2 -0.006323 0.013388 0.000893 0.000000 0.006942 0.000000
# 3 -0.004344 0.000893 0.011548 0.000000 -0.000810 0.000000
# 4 0.000000 0.000000 0.000000 0.030782 0.000000 -0.003921
# 5 -0.006097 0.006942 -0.000810 0.000000 0.054451 0.000000
# 6 0.000000 0.000000 0.000000 -0.003921 0.000000 0.030847
#
#
# Mechanical properties :
#
#
# Convention : Reuss Voigt Hill
#
# Bulk Modulus (GPa) = 47.95625 48.74476 48.35050
# Shear Modulus (GPa) = 27.32581 31.21487 29.27034
#
# Velocity S-wave (km/s) = 3.53553 3.77875 3.65916
# Velocity P-wave (km/s) = 6.21319 6.42935 6.32219
#
# Compressibility (1/GPa) = 0.02085234
#
# Stress axis : x y z
#
# Youngs Moduli (GPa) = 64.67224 74.69117 86.59188
#
# Poissons Ratio (x) = 0.47224 0.37618
# Poissons Ratio (y) = 0.40889 -0.07735
# Poissons Ratio (z) = 0.28096 -0.06672
#
# Static dielectric constant tensor:
#      x y z
#    x 3.795650 0.000000 0.128480 
#    y 0.000000 4.154950 0.000000 
#    z 0.128480 0.000000 3.812200 
# 
# 
# High freq. dielectric constant tensor:
#      x y z
#    x 1.844890 0.000000 0.012180 
#    y 0.000000 1.880830 0.000000 
#    z 0.012180 0.000000 1.864350 
# 
# From -- ./inp_files/14415.got.cif
#   From: 2010.03.12/outbox.cif.g09.slc.cpg/sg4_8_cif.got.tgz:14415.got - 2010.03.31 09:31:35.
