data_PCOD8046794
_publ_section_title
;
Structure prediction by ZEFSAII (Michael W. Deem and Ramdas Pophale) SiO2 
 PCOD8046794
Probable space group: P 21
;
_chemical_formula_sum "Si O2"
_cell_formula_units_Z 14
_cell_length_a 10.838562
_cell_length_b 8.878700
_cell_length_c 7.689788
_cell_angle_alpha 90.000000
_cell_angle_beta 59.851671
_cell_angle_gamma 90.000000
_cell_volume 639.904230
_symmetry_space_group_name_H-M "P 21"
_symmetry_group_IT_number 4
_symmetry_cell_setting 'monoclinic'
loop_
_space_group_symop_operation_xyz
x,y,z
-x,1/2+y,-z
loop_
_atom_site_type_symbol
_atom_site_label
_atom_site_fract_x
_atom_site_fract_y
_atom_site_fract_z
Si Si1 0.174937 0.444220 0.417676
Si Si2 0.651635 0.201663 0.810238
Si Si3 0.094842 0.118911 0.925763
Si Si4 0.857952 0.449927 0.767353
Si Si5 0.271796 0.134495 0.459638
Si Si6 0.464512 0.478196 0.825304
Si Si7 0.152645 0.434331 0.021104
O O1 0.256742 0.603260 0.395765
O O2 0.275334 0.311815 0.418650
O O3 0.146732 0.425683 0.232900
O O4 0.026939 0.428221 0.624823
O O5 0.772385 0.291985 0.834144
O O6 0.537844 0.316807 0.811473
O O7 0.565424 0.077575 0.981731
O O8 0.191179 0.090093 0.690367
O O9 0.078123 0.290952 0.990154
O O10 0.933607 0.074785 0.992921
O O11 0.168898 0.028974 0.030020
O O12 0.799438 0.551425 0.653145
O O13 0.433595 0.076531 0.370164
O O14 0.315162 0.444773 0.836377
#
# Coordination Sequence:
#
# PCOD8046794 Si02
#       7
#     2   2   2   2   2   2   2
#     4  11  21  42  72 105 139 183 240 289 357 417
#     4  10  23  39  74 104 137 193 234 292 356 421
#     4  12  26  44  69 103 141 185 234 297 346 423
#     4  11  23  42  73 103 139 184 235 296 352 416
#     4  11  23  46  70  98 139 184 233 291 356 421
#     4  10  23  44  66 103 141 181 239 286 354 430
#     4  11  25  43  68 100 144 180 241 291 355 422
#
# _framework density 21.878274000000001
#
# number of rings (size 3 to 8) (size 9 to 14) (size 15 to 20)
#    0.000    1.143    2.857    3.429    8.000    0.000 
#    2.571    1.429    0.000    0.000    0.000    0.000 
#    0.000    0.000    0.000    0.000    0.000    0.000 
#
# Total GULP energy -173586.736379 kJ/mol
# GULP energy per Si atom -12399.052598 kJ/mol
# Density = 2.182848 g / cm^3
# Si number density = 21.878274 Si / 1000 Ang^3
#
#
#
# Elastic Constant Matrix: (Units=GPa)
#
#
# Indices 1 2 3 4 5 6 
#
# 1 104.1911 75.4820 67.7575 0.0000 -16.7486 0.0000
# 2 75.4820 147.9415 51.1259 0.0000 -19.8972 0.0000
# 3 67.7575 51.1259 99.6846 0.0000 -1.4191 0.0000
# 4 0.0000 0.0000 0.0000 29.3463 0.0000 -10.1986
# 5 -16.7486 -19.8972 -1.4191 0.0000 41.6971 0.0000
# 6 0.0000 0.0000 0.0000 -10.1986 0.0000 49.7477
#
#
#
# Elastic Compliance Matrix: (Units=1/GPa)
#
#
# Indices 1 2 3 4 5 6 
#
# 1 0.023677 -0.007019 -0.012412 0.000000 0.005739 0.000000
# 2 -0.007019 0.010938 -0.000805 0.000000 0.002373 0.000000
# 3 -0.012412 -0.000805 0.018814 0.000000 -0.004729 0.000000
# 4 0.000000 0.000000 0.000000 0.036690 0.000000 0.007522
# 5 0.005739 0.002373 -0.004729 0.000000 0.027259 0.000000
# 6 0.000000 0.000000 0.000000 0.007522 0.000000 0.021643
#
#
# Mechanical properties :
#
#
# Convention : Reuss Voigt Hill
#
# Bulk Modulus (GPa) = 77.18163 82.28311 79.73237
# Shear Modulus (GPa) = 27.20160 34.65501 30.92830
#
# Velocity S-wave (km/s) = 3.52989 3.98426 3.76394
# Velocity P-wave (km/s) = 7.20887 7.67182 7.44395
#
# Compressibility (1/GPa) = 0.01295645
#
# Stress axis : x y z
#
# Youngs Moduli (GPa) = 42.23468 91.42395 53.15213
#
# Poissons Ratio (x) = 0.64173 0.65973
# Poissons Ratio (y) = 0.29646 0.04279
# Poissons Ratio (z) = 0.52422 0.07359
#
# Static dielectric constant tensor:
#      x y z
#    x 3.994010 0.000000 -0.300090 
#    y 0.000000 4.247540 0.000000 
#    z -0.300090 0.000000 4.066140 
# 
# 
# High freq. dielectric constant tensor:
#      x y z
#    x 1.852240 0.000000 -0.017810 
#    y 0.000000 1.879340 0.000000 
#    z -0.017810 0.000000 1.856930 
# 
# From -- ./inp_files/7965.got.cif
#   From: 2010.03.12/outbox.cif.g09.slc.cpg/sg4_4_cif.got.tgz:7965.got - 2010.03.31 09:31:35.
