data_PCOD8046282
_publ_section_title
;
Structure prediction by ZEFSAII (Michael W. Deem and Ramdas Pophale) SiO2 
 PCOD8046282
Probable space group: P 21
;
_chemical_formula_sum "Si O2"
_cell_formula_units_Z 16
_cell_length_a 7.459206
_cell_length_b 13.256576
_cell_length_c 8.096214
_cell_angle_alpha 90.000000
_cell_angle_beta 123.192512
_cell_angle_gamma 90.000000
_cell_volume 669.955925
_symmetry_space_group_name_H-M "P 21"
_symmetry_group_IT_number 4
_symmetry_cell_setting 'monoclinic'
loop_
_space_group_symop_operation_xyz
x,y,z
-x,1/2+y,-z
loop_
_atom_site_type_symbol
_atom_site_label
_atom_site_fract_x
_atom_site_fract_y
_atom_site_fract_z
Si Si1 0.482443 0.723990 0.413662
Si Si2 0.066594 0.035854 0.256452
Si Si3 0.684081 0.573876 0.310198
Si Si4 0.390788 0.489665 0.895474
Si Si5 0.721544 0.774240 0.129247
Si Si6 0.942110 0.755889 0.709446
Si Si7 0.355276 0.694124 0.715436
Si Si8 0.889806 0.343279 0.893325
O O1 0.509184 0.609189 0.359529
O O2 0.709702 0.785658 0.520215
O O3 0.369419 0.725004 0.533363
O O4 0.323981 0.777386 0.205807
O O5 0.129789 0.020856 0.485167
O O6 0.113858 0.150160 0.221619
O O7 0.817221 0.014827 0.100284
O O8 0.185184 0.956469 0.195366
O O9 0.763282 0.680304 0.271425
O O10 0.593037 0.499718 0.124239
O O11 0.367918 0.374690 0.819751
O O12 0.394721 0.573334 0.752690
O O13 0.945277 0.798765 0.155706
O O14 0.542108 0.750777 0.904678
O O15 0.122478 0.730884 0.663612
O O16 0.015806 0.841842 0.873832
#
# Coordination Sequence:
#
# PCOD8046282 Si02
#       8
#     2   2   2   2   2   2   2   2
#     4  11  23  39  66  95 127 169 211 265 319 377
#     4   9  21  38  67  89 127 167 210 263 319 372
#     4  10  22  42  61  93 133 168 210 272 314 377
#     4   9  20  40  65  90 129 169 211 262 323 378
#     4  10  21  40  66  94 130 173 213 262 326 381
#     4  10  22  45  63  89 135 167 208 270 319 378
#     4  10  21  42  65  91 130 171 211 265 320 381
#     4  11  22  38  67  97 123 170 216 259 322 382
#
# _framework density 23.882166999999999
#
# number of rings (size 3 to 8) (size 9 to 14) (size 15 to 20)
#    0.000    2.000    1.250    2.250    7.000    0.000 
#    9.000    0.000    2.750    0.000    0.000    0.000 
#    0.000    0.000    0.000    0.000    0.000    0.000 
#
# Total GULP energy -198235.940377 kJ/mol
# GULP energy per Si atom -12389.746274 kJ/mol
# Density = 2.382781 g / cm^3
# Si number density = 23.882167 Si / 1000 Ang^3
#
#
#
# Elastic Constant Matrix: (Units=GPa)
#
#
# Indices 1 2 3 4 5 6 
#
# 1 87.4146 20.8126 28.8715 0.0000 3.5552 0.0000
# 2 20.8126 62.5550 -1.0419 0.0000 11.8227 0.0000
# 3 28.8715 -1.0419 85.3452 0.0000 12.8320 0.0000
# 4 0.0000 0.0000 0.0000 31.2382 0.0000 -6.3138
# 5 3.5552 11.8227 12.8320 0.0000 39.7222 0.0000
# 6 0.0000 0.0000 0.0000 -6.3138 0.0000 28.0798
#
#
#
# Elastic Compliance Matrix: (Units=1/GPa)
#
#
# Indices 1 2 3 4 5 6 
#
# 1 0.014321 -0.005221 -0.005202 0.000000 0.001952 0.000000
# 2 -0.005221 0.018926 0.002915 0.000000 -0.006107 0.000000
# 3 -0.005202 0.002915 0.014266 0.000000 -0.005011 0.000000
# 4 0.000000 0.000000 0.000000 0.033536 0.000000 0.007541
# 5 0.001952 -0.006107 -0.005011 0.000000 0.028437 0.000000
# 6 0.000000 0.000000 0.000000 0.007541 0.000000 0.037308
#
#
# Mechanical properties :
#
#
# Convention : Reuss Voigt Hill
#
# Bulk Modulus (GPa) = 30.77062 36.95545 33.86304
# Shear Modulus (GPa) = 28.96176 32.25288 30.60732
#
# Velocity S-wave (km/s) = 3.48615 3.67890 3.58382
# Velocity P-wave (km/s) = 5.39599 5.79253 5.59777
#
# Compressibility (1/GPa) = 0.03249853
#
# Stress axis : x y z
#
# Youngs Moduli (GPa) = 69.82535 52.83820 70.09729
#
# Poissons Ratio (x) = 0.27584 0.36465
# Poissons Ratio (y) = 0.36453 -0.20436
# Poissons Ratio (z) = 0.36324 -0.15404
#
# Static dielectric constant tensor:
#      x y z
#    x 4.196980 0.000000 0.224270 
#    y 0.000000 4.431540 0.000000 
#    z 0.224270 0.000000 4.287060 
# 
# 
# High freq. dielectric constant tensor:
#      x y z
#    x 1.939310 0.000000 0.016990 
#    y 0.000000 1.931250 0.000000 
#    z 0.016990 0.000000 1.951300 
# 
# From -- ./inp_files/6675.got.cif
#   From: 2010.03.12/outbox.cif.g09.slc.cpg/sg4_4_cif.got.tgz:6675.got - 2010.03.31 09:31:35.
