data_PCOD8046673
_publ_section_title
;
Structure prediction by ZEFSAII (Michael W. Deem and Ramdas Pophale) SiO2 
 PCOD8046673
Probable space group: P 21
;
_chemical_formula_sum "Si O2"
_cell_formula_units_Z 16
_cell_length_a 10.815038
_cell_length_b 12.035054
_cell_length_c 5.329297
_cell_angle_alpha 90.000000
_cell_angle_beta 77.350095
_cell_angle_gamma 90.000000
_cell_volume 676.821377
_symmetry_space_group_name_H-M "P 21"
_symmetry_group_IT_number 4
_symmetry_cell_setting 'monoclinic'
loop_
_space_group_symop_operation_xyz
x,y,z
-x,1/2+y,-z
loop_
_atom_site_type_symbol
_atom_site_label
_atom_site_fract_x
_atom_site_fract_y
_atom_site_fract_z
Si Si1 0.665839 0.198560 0.468022
Si Si2 0.663718 0.391886 0.845251
Si Si3 0.106372 0.449343 0.086443
Si Si4 0.130949 0.076137 0.733183
Si Si5 0.140373 0.840251 0.859540
Si Si6 0.258756 0.132609 0.191641
Si Si7 0.457724 0.294515 0.263167
Si Si8 0.264394 0.457833 0.510308
O O1 0.627499 0.301591 0.656741
O O2 0.801527 0.227546 0.278657
O O3 0.544700 0.195888 0.338105
O O4 0.679601 0.078967 0.589463
O O5 0.665720 0.520555 0.770393
O O6 0.802991 0.357773 0.887916
O O7 0.550143 0.383010 0.094696
O O8 0.021841 0.561623 0.164914
O O9 0.013489 0.343156 0.065835
O O10 0.178580 0.421201 0.311840
O O11 0.195629 0.466930 0.808114
O O12 0.163186 0.149676 0.473280
O O13 0.186757 0.949579 0.677093
O O14 0.185632 0.131838 0.960892
O O15 0.358191 0.232971 0.124253
O O16 0.376039 0.368203 0.496085
#
# Coordination Sequence:
#
# PCOD8046673 Si02
#       8
#     2   2   2   2   2   2   2   2
#     4  11  25  45  76  98 146 197 239 295 361 435
#     4  10  22  43  74  98 138 190 248 287 347 451
#     4  10  24  49  72 104 151 177 237 303 356 430
#     4   9  20  42  72  99 137 181 235 284 339 439
#     4   8  20  43  72 104 132 187 242 279 362 423
#     4  11  22  43  73 101 137 184 244 284 356 426
#     4  11  30  43  70 110 144 194 235 308 363 421
#     4  12  29  48  69 112 149 182 240 306 364 417
#
# _framework density 23.639917000000001
#
# number of rings (size 3 to 8) (size 9 to 14) (size 15 to 20)
#    0.750    1.000    1.250    0.750   12.250    0.000 
#    6.750    0.000    0.000    0.000    0.000    0.000 
#    0.000    0.000    0.000    0.000    0.000    0.000 
#
# Total GULP energy -198225.536225 kJ/mol
# GULP energy per Si atom -12389.096014 kJ/mol
# Density = 2.358611 g / cm^3
# Si number density = 23.639917 Si / 1000 Ang^3
#
#
#
# Elastic Constant Matrix: (Units=GPa)
#
#
# Indices 1 2 3 4 5 6 
#
# 1 109.5798 31.9455 35.8140 0.0000 -15.1835 0.0000
# 2 31.9455 70.0790 7.6698 0.0000 -6.6566 0.0000
# 3 35.8140 7.6698 102.7938 0.0000 -2.0971 0.0000
# 4 0.0000 0.0000 0.0000 22.6531 0.0000 7.2748
# 5 -15.1835 -6.6566 -2.0971 0.0000 22.9503 0.0000
# 6 0.0000 0.0000 0.0000 7.2748 0.0000 32.2927
#
#
#
# Elastic Compliance Matrix: (Units=1/GPa)
#
#
# Indices 1 2 3 4 5 6 
#
# 1 0.012720 -0.004732 -0.003942 0.000000 0.006682 0.000000
# 2 -0.004732 0.016540 0.000449 0.000000 0.001708 0.000000
# 3 -0.003942 0.000449 0.011038 0.000000 -0.001469 0.000000
# 4 0.000000 0.000000 0.000000 0.047587 0.000000 -0.010720
# 5 0.006682 0.001708 -0.001469 0.000000 0.048354 0.000000
# 6 0.000000 0.000000 0.000000 -0.010720 0.000000 0.033382
#
#
# Mechanical properties :
#
#
# Convention : Reuss Voigt Hill
#
# Bulk Modulus (GPa) = 41.93237 48.14569 45.03903
# Shear Modulus (GPa) = 25.77061 29.38078 27.57569
#
# Velocity S-wave (km/s) = 3.30530 3.52923 3.41909
# Velocity P-wave (km/s) = 5.68710 6.08422 5.88901
#
# Compressibility (1/GPa) = 0.02384792
#
# Stress axis : x y z
#
# Youngs Moduli (GPa) = 78.61865 60.46043 90.59453
#
# Poissons Ratio (x) = 0.28610 0.35714
# Poissons Ratio (y) = 0.37203 -0.04072
# Poissons Ratio (z) = 0.30993 -0.02717
#
# Static dielectric constant tensor:
#      x y z
#    x 4.190540 0.000000 0.002400 
#    y 0.000000 4.042670 0.000000 
#    z 0.002400 0.000000 4.047410 
# 
# 
# High freq. dielectric constant tensor:
#      x y z
#    x 1.938460 0.000000 0.001010 
#    y 0.000000 1.925060 0.000000 
#    z 0.001010 0.000000 1.924980 
# 
# From -- ./inp_files/3072.got.cif
#   From: 2010.03.12/outbox.cif.g09.slc.cpg/sg4_2_cif.got.tgz:3072.got - 2010.03.31 09:31:35.
