data_PCOD8046376
_publ_section_title
;
Structure prediction by ZEFSAII (Michael W. Deem and Ramdas Pophale) SiO2 
 PCOD8046376
Probable space group: P 21
;
_chemical_formula_sum "Si O2"
_cell_formula_units_Z 12
_cell_length_a 13.747994
_cell_length_b 7.562676
_cell_length_c 5.444868
_cell_angle_alpha 90.000000
_cell_angle_beta 73.077095
_cell_angle_gamma 90.000000
_cell_volume 541.597599
_symmetry_space_group_name_H-M "P 21"
_symmetry_group_IT_number 4
_symmetry_cell_setting 'monoclinic'
loop_
_space_group_symop_operation_xyz
x,y,z
-x,1/2+y,-z
loop_
_atom_site_type_symbol
_atom_site_label
_atom_site_fract_x
_atom_site_fract_y
_atom_site_fract_z
Si Si1 0.136105 0.029000 0.975251
Si Si2 0.950252 0.885197 0.812760
Si Si3 0.510045 0.257717 0.776478
Si Si4 0.436228 0.608542 0.752016
Si Si5 0.713538 0.321720 0.409920
Si Si6 0.119408 0.737339 0.367732
O O1 0.231128 0.001884 0.719325
O O2 0.127563 0.238608 0.024228
O O3 0.030137 0.949654 0.955829
O O4 0.161204 0.909015 0.192903
O O5 0.007275 0.786282 0.548086
O O6 0.886296 0.056105 0.779727
O O7 0.419906 0.400861 0.814642
O O8 0.499210 0.120971 0.554624
O O9 0.619515 0.359477 0.663424
O O10 0.502887 0.177378 0.053026
O O11 0.328793 0.708574 0.794352
O O12 0.799833 0.200969 0.474915
#
# Coordination Sequence:
#
# PCOD8046376 Si02
#       6
#     2   2   2   2   2   2
#     4  11  21  40  61  94 130 173 225 274 327 388
#     4  11  22  36  68  86 128 180 222 270 330 387
#     4  10  21  42  71  97 129 173 213 270 337 397
#     4  10  21  42  71  97 129 173 213 270 337 397
#     4   9  24  40  64  90 138 168 216 278 328 389
#     4  11  21  40  61  94 130 173 225 274 327 388
#
# _framework density 22.156669000000001
#
# number of rings (size 3 to 8) (size 9 to 14) (size 15 to 20)
#    1.000    0.667    3.333    2.000    0.000    0.000 
#    0.000    6.667    0.000    0.000    0.000    0.000 
#    0.000    0.000    0.000    0.000    0.000    0.000 
#
# Total GULP energy -148665.980432 kJ/mol
# GULP energy per Si atom -12388.831703 kJ/mol
# Density = 2.210624 g / cm^3
# Si number density = 22.156669 Si / 1000 Ang^3
#
#
#
# Elastic Constant Matrix: (Units=GPa)
#
#
# Indices 1 2 3 4 5 6 
#
# 1 30.7820 5.4521 10.6807 0.0000 14.6315 0.0000
# 2 5.4521 82.1512 8.0751 0.0000 19.9208 0.0000
# 3 10.6807 8.0751 84.0180 0.0000 28.8264 0.0000
# 4 0.0000 0.0000 0.0000 39.5679 0.0000 5.5669
# 5 14.6315 19.9208 28.8264 0.0000 39.5412 0.0000
# 6 0.0000 0.0000 0.0000 5.5669 0.0000 22.8168
#
#
#
# Elastic Compliance Matrix: (Units=1/GPa)
#
#
# Indices 1 2 3 4 5 6 
#
# 1 0.039500 0.001060 0.000100 0.000000 -0.015223 0.000000
# 2 0.001060 0.014023 0.001435 0.000000 -0.008503 0.000000
# 3 0.000100 0.001435 0.016019 0.000000 -0.012438 0.000000
# 4 0.000000 0.000000 0.000000 0.026171 0.000000 -0.006385
# 5 -0.015223 -0.008503 -0.012438 0.000000 0.044275 0.000000
# 6 0.000000 0.000000 0.000000 -0.006385 0.000000 0.045385
#
#
# Mechanical properties :
#
#
# Convention : Reuss Voigt Hill
#
# Bulk Modulus (GPa) = 13.38119 27.26301 20.32210
# Shear Modulus (GPa) = 24.37895 31.90138 28.14017
#
# Velocity S-wave (km/s) = 3.32067 3.79860 3.56765
# Velocity P-wave (km/s) = 4.55576 5.61876 5.11495
#
# Compressibility (1/GPa) = 0.07473180
#
# Stress axis : x y z
#
# Youngs Moduli (GPa) = 25.31641 71.31025 62.42542
#
# Poissons Ratio (x) = -0.07560 -0.00622
# Poissons Ratio (y) = -0.02684 -0.08957
# Poissons Ratio (z) = -0.00252 -0.10232
#
# Static dielectric constant tensor:
#      x y z
#    x 3.784470 0.000000 0.196720 
#    y 0.000000 3.748320 0.000000 
#    z 0.196720 0.000000 3.972840 
# 
# 
# High freq. dielectric constant tensor:
#      x y z
#    x 1.854050 0.000000 0.017890 
#    y 0.000000 1.856560 0.000000 
#    z 0.017890 0.000000 1.873240 
# 
# From -- ./inp_files/3386.got.cif
#   From: 2010.03.12/outbox.cif.g09.slc.cpg/sg4_2_cif.got.tgz:3386.got - 2010.03.31 09:31:35.
