data_PCOD8046502
_publ_section_title
;
Structure prediction by ZEFSAII (Michael W. Deem and Ramdas Pophale) SiO2 
 PCOD8046502
Probable space group: P 21
;
_chemical_formula_sum "Si O2"
_cell_formula_units_Z 12
_cell_length_a 18.670588
_cell_length_b 4.976107
_cell_length_c 4.957384
_cell_angle_alpha 90.000000
_cell_angle_beta 104.708104
_cell_angle_gamma 90.000000
_cell_volume 445.482713
_symmetry_space_group_name_H-M "P 21"
_symmetry_group_IT_number 4
_symmetry_cell_setting 'monoclinic'
loop_
_space_group_symop_operation_xyz
x,y,z
-x,1/2+y,-z
loop_
_atom_site_type_symbol
_atom_site_label
_atom_site_fract_x
_atom_site_fract_y
_atom_site_fract_z
Si Si1 0.266039 0.062340 0.435324
Si Si2 0.950938 0.354844 0.936870
Si Si3 0.421811 0.693825 0.238466
Si Si4 0.732671 0.057422 0.935020
Si Si5 0.852044 0.350621 0.342859
Si Si6 0.420177 0.195802 0.591399
O O1 0.256808 0.262652 0.175469
O O2 0.343514 0.121888 0.673044
O O3 0.261955 0.764186 0.309674
O O4 0.199424 0.092060 0.588104
O O5 0.908939 0.255966 0.628179
O O6 0.894836 0.450928 0.117410
O O7 0.002201 0.605231 0.906415
O O8 0.348797 0.604507 0.998250
O O9 0.419292 0.505510 0.502929
O O10 0.502473 0.638334 0.170893
O O11 0.417529 0.003878 0.322847
O O12 0.797308 0.104598 0.214261
#
# Coordination Sequence:
#
# PCOD8046502 Si02
#       6
#     2   2   2   2   2   2
#     4  10  22  39  66 105 144 191 247 299 362 428
#     4  12  30  52  78 110 144 188 236 300 380 460
#     4   8  14  28  53  87 133 185 238 293 349 413
#     4  10  22  39  66 105 144 191 247 299 362 428
#     4  12  26  50  78 110 148 190 242 306 368 452
#     4   8  14  28  53  87 133 185 238 293 349 413
#
# _framework density 26.937073000000002
#
# number of rings (size 3 to 8) (size 9 to 14) (size 15 to 20)
#    0.000    2.000    1.667    1.000    2.333    4.000 
#    0.000    0.000    0.000   20.000    0.000    0.000 
#    0.000    0.000    0.000    0.000    0.000    0.000 
#
# Total GULP energy -148658.737351 kJ/mol
# GULP energy per Si atom -12388.228113 kJ/mol
# Density = 2.687576 g / cm^3
# Si number density = 26.937073 Si / 1000 Ang^3
#
#
#
# Elastic Constant Matrix: (Units=GPa)
#
#
# Indices 1 2 3 4 5 6 
#
# 1 166.7413 21.7521 73.5583 0.0000 73.9891 0.0000
# 2 21.7521 96.2716 4.7625 0.0000 -4.3186 0.0000
# 3 73.5583 4.7625 58.9638 0.0000 -58.4323 0.0000
# 4 0.0000 0.0000 0.0000 25.7206 0.0000 2.6438
# 5 73.9891 -4.3186 -58.4323 0.0000 -86.8749 0.0000
# 6 0.0000 0.0000 0.0000 2.6438 0.0000 17.9555
#
#
#
# Elastic Compliance Matrix: (Units=1/GPa)
#
#
# Indices 1 2 3 4 5 6 
#
# 1 0.004520 -0.000764 -0.001035 0.000000 0.004583 0.000000
# 2 -0.000764 0.010558 -0.000639 0.000000 -0.000746 0.000000
# 3 -0.001035 -0.000639 0.010477 0.000000 -0.007896 0.000000
# 4 0.000000 0.000000 0.000000 0.039477 0.000000 -0.005813
# 5 0.004583 -0.000746 -0.007896 0.000000 -0.002259 0.000000
# 6 0.000000 0.000000 0.000000 -0.005813 0.000000 0.056549
#
#
# Mechanical properties :
#
#
# Convention : Reuss Voigt Hill
#
# Bulk Modulus (GPa) = 48.35820 58.01362 53.18591
# Shear Modulus (GPa) = 38.14165 6.15382 22.14774
#
# Velocity S-wave (km/s) = 3.76700 1.51310 2.87052
# Velocity P-wave (km/s) = 6.07549 4.96348 5.54742
#
# Compressibility (1/GPa) = 0.02067902
#
# Stress axis : x y z
#
# Youngs Moduli (GPa) = 221.25197 94.71391 95.44825
#
# Poissons Ratio (x) = 0.07240 0.09876
# Poissons Ratio (y) = 0.16913 0.06096
# Poissons Ratio (z) = 0.22893 0.06049
#
# Static dielectric constant tensor:
#      x y z
#    x 5.768660 0.000000 0.377900 
#    y 0.000000 4.658960 0.000000 
#    z 0.377900 0.000000 4.262950 
# 
# 
# High freq. dielectric constant tensor:
#      x y z
#    x 2.109040 0.000000 0.019210 
#    y 0.000000 2.081180 0.000000 
#    z 0.019210 0.000000 2.045110 
# 
# From -- ./inp_files/3911.got.cif
#   From: 2010.03.12/outbox.cif.g09.slc.cpg/sg4_2_cif.got.tgz:3911.got - 2010.03.31 09:31:35.
