data_PCOD8046098
_publ_section_title
;
Structure prediction by ZEFSAII (Michael W. Deem and Ramdas Pophale) SiO2 
 PCOD8046098
Probable space group: P 21
;
_chemical_formula_sum "Si O2"
_cell_formula_units_Z 16
_cell_length_a 11.655522
_cell_length_b 8.359042
_cell_length_c 15.189169
_cell_angle_alpha 90.000000
_cell_angle_beta 150.902139
_cell_angle_gamma 90.000000
_cell_volume 719.662684
_symmetry_space_group_name_H-M "P 21"
_symmetry_group_IT_number 4
_symmetry_cell_setting 'monoclinic'
loop_
_space_group_symop_operation_xyz
x,y,z
-x,1/2+y,-z
loop_
_atom_site_type_symbol
_atom_site_label
_atom_site_fract_x
_atom_site_fract_y
_atom_site_fract_z
Si Si1 0.335527 0.813570 0.295948
Si Si2 0.392133 0.828926 0.717158
Si Si3 0.061281 0.907532 0.349572
Si Si4 0.457855 0.201430 0.749281
Si Si5 0.716014 0.619884 0.644460
Si Si6 0.878824 0.699377 0.074701
Si Si7 0.874614 0.338794 0.120799
Si Si8 0.061343 0.722748 0.647510
O O1 0.420278 0.761327 0.257966
O O2 0.497386 0.737168 0.480999
O O3 0.067946 0.758394 0.130740
O O4 0.342058 0.007066 0.310740
O O5 0.211755 0.795031 0.516145
O O6 0.274339 0.776861 0.729483
O O7 0.474359 0.012233 0.773233
O O8 0.623276 0.721332 0.859847
O O9 0.893460 0.799808 0.176018
O O10 0.248197 0.007961 0.417292
O O11 0.909830 0.035709 0.305382
O O12 0.185176 0.254087 0.568709
O O13 0.602581 0.285148 0.925056
O O14 0.954748 0.721148 0.820764
O O15 0.925488 0.515230 0.122688
O O16 0.937495 0.333209 0.265583
#
# Coordination Sequence:
#
# PCOD8046098 Si02
#       8
#     2   2   2   2   2   2   2   2
#     4  11  21  42  70 100 138 182 224 282 348 414
#     4  11  23  44  70  98 135 179 235 285 343 407
#     4   9  21  45  67  95 136 175 232 284 337 413
#     4  11  24  45  70 102 137 178 233 285 344 413
#     4  10  20  43  69  97 140 181 219 283 346 409
#     4  11  26  39  65 104 136 184 224 274 355 405
#     4  11  24  43  63 102 143 175 231 284 338 419
#     4  10  23  43  70  94 133 184 226 291 345 392
#
# _framework density 22.232638000000001
#
# number of rings (size 3 to 8) (size 9 to 14) (size 15 to 20)
#    0.000    1.500    3.750    3.000    0.000   10.000 
#    6.750    0.000    0.000    0.000    0.000    0.000 
#    0.000    0.000    0.000    0.000    0.000    0.000 
#
# Total GULP energy -198435.443254 kJ/mol
# GULP energy per Si atom -12402.215203 kJ/mol
# Density = 2.218204 g / cm^3
# Si number density = 22.232638 Si / 1000 Ang^3
#
#
#
# Elastic Constant Matrix: (Units=GPa)
#
#
# Indices 1 2 3 4 5 6 
#
# 1 72.2585 35.4172 19.1419 0.0000 17.3925 0.0000
# 2 35.4172 104.8128 32.8377 0.0000 2.5020 0.0000
# 3 19.1419 32.8377 88.1531 0.0000 9.6915 0.0000
# 4 0.0000 0.0000 0.0000 28.4935 0.0000 -3.0455
# 5 17.3925 2.5020 9.6915 0.0000 30.9465 0.0000
# 6 0.0000 0.0000 0.0000 -3.0455 0.0000 37.0197
#
#
#
# Elastic Compliance Matrix: (Units=1/GPa)
#
#
# Indices 1 2 3 4 5 6 
#
# 1 0.019499 -0.006080 -0.000848 0.000000 -0.010202 0.000000
# 2 -0.006080 0.012702 -0.003805 0.000000 0.003582 0.000000
# 3 -0.000848 -0.003805 0.013318 0.000000 -0.003387 0.000000
# 4 0.000000 0.000000 0.000000 0.035407 0.000000 0.002913
# 5 -0.010202 0.003582 -0.003387 0.000000 0.038819 0.000000
# 6 0.000000 0.000000 0.000000 0.002913 0.000000 0.027252
#
#
# Mechanical properties :
#
#
# Convention : Reuss Voigt Hill
#
# Bulk Modulus (GPa) = 41.57397 48.89088 45.23242
# Shear Modulus (GPa) = 28.33176 31.14711 29.73944
#
# Velocity S-wave (km/s) = 3.57365 3.74701 3.66135
# Velocity P-wave (km/s) = 5.98064 6.38423 6.18573
#
# Compressibility (1/GPa) = 0.02405351
#
# Stress axis : x y z
#
# Youngs Moduli (GPa) = 51.28357 78.72836 75.08779
#
# Poissons Ratio (x) = 0.47866 0.06366
# Poissons Ratio (y) = 0.31180 0.28572
# Poissons Ratio (z) = 0.04348 0.29957
#
# Static dielectric constant tensor:
#      x y z
#    x 3.799450 0.000000 -0.002960 
#    y 0.000000 4.135020 0.000000 
#    z -0.002960 0.000000 4.272630 
# 
# 
# High freq. dielectric constant tensor:
#      x y z
#    x 1.858650 0.000000 0.002170 
#    y 0.000000 1.878070 0.000000 
#    z 0.002170 0.000000 1.883410 
# 
# From -- ./inp_files/13969.got.cif
#   From: 2010.03.12/outbox.cif.g09.slc.cpg/sg4_7_cif.got.tgz:13969.got - 2010.03.31 09:31:35.
