data_PCOD8046862
_publ_section_title
;
Structure prediction by ZEFSAII (Michael W. Deem and Ramdas Pophale) SiO2 
 PCOD8046862
Probable space group: P 21
;
_chemical_formula_sum "Si O2"
_cell_formula_units_Z 14
_cell_length_a 9.445513
_cell_length_b 7.917341
_cell_length_c 8.564882
_cell_angle_alpha 90.000000
_cell_angle_beta 80.696736
_cell_angle_gamma 90.000000
_cell_volume 632.085596
_symmetry_space_group_name_H-M "P 21"
_symmetry_group_IT_number 4
_symmetry_cell_setting 'monoclinic'
loop_
_space_group_symop_operation_xyz
x,y,z
-x,1/2+y,-z
loop_
_atom_site_type_symbol
_atom_site_label
_atom_site_fract_x
_atom_site_fract_y
_atom_site_fract_z
Si Si1 0.389164 0.588020 0.765472
Si Si2 0.297976 0.156808 0.283032
Si Si3 0.166318 0.984657 0.052584
Si Si4 0.965460 0.156827 0.847915
Si Si5 0.241395 0.274459 0.625034
Si Si6 0.399437 0.984910 0.771076
Si Si7 0.686706 0.986432 0.871295
O O1 0.557917 0.548886 0.709370
O O2 0.299464 0.457389 0.672098
O O3 0.372881 0.788367 0.722378
O O4 0.342360 0.553115 0.950315
O O5 0.173907 0.035931 0.235235
O O6 0.242186 0.267968 0.437787
O O7 0.324832 0.283515 0.131248
O O8 0.136013 0.789183 0.049934
O O9 0.320550 0.016262 0.948565
O O10 0.040798 0.072733 0.980944
O O11 0.078463 0.242068 0.710051
O O12 0.848798 0.034711 0.784966
O O13 0.337955 0.113816 0.655065
O O14 0.564135 0.042528 0.769072
#
# Coordination Sequence:
#
# PCOD8046862 Si02
#       7
#     2   2   2   2   2   2   2
#     4  11  23  43  71 101 130 179 230 294 329 395
#     4  11  26  42  70 101 141 180 227 283 349 424
#     4  11  21  42  66 102 129 179 238 282 345 396
#     4  11  24  41  71  98 140 180 225 298 338 418
#     4  11  27  46  64 103 147 179 221 283 356 422
#     4  10  23  42  72 101 134 175 238 284 339 404
#     4  11  22  44  70 104 127 178 237 288 336 397
#
# _framework density 22.148897000000002
#
# number of rings (size 3 to 8) (size 9 to 14) (size 15 to 20)
#    0.000    1.143    2.857    3.429    8.000    1.143 
#    2.571    0.000    0.000    0.000    0.000    0.000 
#    0.000    0.000    0.000    0.000    0.000    0.000 
#
# Total GULP energy -173433.194167 kJ/mol
# GULP energy per Si atom -12388.085298 kJ/mol
# Density = 2.209849 g / cm^3
# Si number density = 22.148897 Si / 1000 Ang^3
#
#
#
# Elastic Constant Matrix: (Units=GPa)
#
#
# Indices 1 2 3 4 5 6 
#
# 1 156.1877 44.2550 34.5276 0.0000 2.0242 0.0000
# 2 44.2550 106.0482 37.6787 0.0000 16.9824 0.0000
# 3 34.5276 37.6787 69.3996 0.0000 2.0939 0.0000
# 4 0.0000 0.0000 0.0000 26.6885 0.0000 5.4605
# 5 2.0242 16.9824 2.0939 0.0000 12.9865 0.0000
# 6 0.0000 0.0000 0.0000 5.4605 0.0000 53.8367
#
#
#
# Elastic Compliance Matrix: (Units=1/GPa)
#
#
# Indices 1 2 3 4 5 6 
#
# 1 0.007692 -0.002826 -0.002380 0.000000 0.002880 0.000000
# 2 -0.002826 0.016152 -0.006773 0.000000 -0.019590 0.000000
# 3 -0.002380 -0.006773 0.019085 0.000000 0.006150 0.000000
# 4 0.000000 0.000000 0.000000 0.038263 0.000000 -0.003881
# 5 0.002880 -0.019590 0.006150 0.000000 0.101180 0.000000
# 6 0.000000 0.000000 0.000000 -0.003881 0.000000 0.018968
#
#
# Mechanical properties :
#
#
# Convention : Reuss Voigt Hill
#
# Bulk Modulus (GPa) = 52.70624 62.72871 57.71747
# Shear Modulus (GPa) = 21.58702 33.04729 27.31715
#
# Velocity S-wave (km/s) = 3.12530 3.86690 3.51571
# Velocity P-wave (km/s) = 6.07217 6.95126 6.52654
#
# Compressibility (1/GPa) = 0.01897309
#
# Stress axis : x y z
#
# Youngs Moduli (GPa) = 130.00667 61.91107 52.39809
#
# Poissons Ratio (x) = 0.17494 0.12469
# Poissons Ratio (y) = 0.36735 0.35487
# Poissons Ratio (z) = 0.30937 0.41930
#
# Static dielectric constant tensor:
#      x y z
#    x 4.029350 0.000000 -0.072330 
#    y 0.000000 4.132080 0.000000 
#    z -0.072330 0.000000 3.656890 
# 
# 
# High freq. dielectric constant tensor:
#      x y z
#    x 1.881630 0.000000 -0.001690 
#    y 0.000000 1.881930 0.000000 
#    z -0.001690 0.000000 1.846640 
# 
# From -- ./inp_files/5557.got.cif
#   From: 2010.03.12/outbox.cif.g09.slc.cpg/sg4_3_cif.got.tgz:5557.got - 2010.03.31 09:31:35.
