data_PCOD8046840
_publ_section_title
;
Structure prediction by ZEFSAII (Michael W. Deem and Ramdas Pophale) SiO2 
 PCOD8046840
Probable space group: P 21
;
_chemical_formula_sum "Si O2"
_cell_formula_units_Z 16
_cell_length_a 9.043705
_cell_length_b 15.175924
_cell_length_c 6.760083
_cell_angle_alpha 90.000000
_cell_angle_beta 57.398375
_cell_angle_gamma 90.000000
_cell_volume 781.611700
_symmetry_space_group_name_H-M "P 21"
_symmetry_group_IT_number 4
_symmetry_cell_setting 'monoclinic'
loop_
_space_group_symop_operation_xyz
x,y,z
-x,1/2+y,-z
loop_
_atom_site_type_symbol
_atom_site_label
_atom_site_fract_x
_atom_site_fract_y
_atom_site_fract_z
Si Si1 0.455202 0.167900 0.057179
Si Si2 0.103294 0.367925 0.076948
Si Si3 0.508432 0.865897 0.041085
Si Si4 0.586963 0.016947 0.690966
Si Si5 0.956222 0.000754 0.235122
Si Si6 0.138549 0.173387 0.009731
Si Si7 0.832013 0.444470 0.560699
Si Si8 0.648209 0.589628 0.470724
O O1 0.254754 0.167392 0.125294
O O2 0.463489 0.135882 0.277066
O O3 0.530806 0.266473 0.998965
O O4 0.574175 0.102460 0.841031
O O5 0.049574 0.268758 0.054175
O O6 0.989247 0.388562 0.353049
O O7 0.309511 0.374385 0.972723
O O8 0.059427 0.432785 0.931294
O O9 0.351049 0.891493 0.302150
O O10 0.509730 0.930673 0.852502
O O11 0.789100 0.001907 0.496980
O O12 0.481302 0.029177 0.564523
O O13 0.990428 0.098037 0.122193
O O14 0.120850 0.970901 0.249003
O O15 0.264107 0.163590 0.729243
O O16 0.803654 0.530895 0.448832
#
# Coordination Sequence:
#
# PCOD8046840 Si02
#       8
#     2   2   2   2   2   2   2   2
#     4  10  23  44  67  96 128 179 222 266 335 385
#     4  11  26  44  66 102 133 175 221 273 334 384
#     4  11  24  46  68  97 136 173 221 277 323 393
#     4  11  24  41  66 100 132 170 223 271 329 395
#     4  12  24  43  66 101 134 173 220 273 329 396
#     4  10  23  42  66  96 133 170 224 273 325 394
#     4  12  23  44  70  91 133 177 215 271 329 391
#     4  11  21  44  69  87 131 179 214 272 330 386
#
# _framework density 20.470523
#
# number of rings (size 3 to 8) (size 9 to 14) (size 15 to 20)
#    0.000    1.000    5.000    1.500    3.500    0.000 
#    4.500    0.000    0.000    0.000    0.000    0.000 
#    0.000    0.000    0.000    0.000    0.000    0.000 
#
# Total GULP energy -198475.347326 kJ/mol
# GULP energy per Si atom -12404.709208 kJ/mol
# Density = 2.042393 g / cm^3
# Si number density = 20.470523 Si / 1000 Ang^3
#
#
#
# Elastic Constant Matrix: (Units=GPa)
#
#
# Indices 1 2 3 4 5 6 
#
# 1 78.5984 39.1623 41.0713 0.0000 4.3453 0.0000
# 2 39.1623 164.5360 58.8536 0.0000 7.8972 0.0000
# 3 41.0713 58.8536 115.2770 0.0000 1.5064 0.0000
# 4 0.0000 0.0000 0.0000 30.2091 0.0000 -1.2381
# 5 4.3453 7.8972 1.5064 0.0000 42.3015 0.0000
# 6 0.0000 0.0000 0.0000 -1.2381 0.0000 31.3843
#
#
#
# Elastic Compliance Matrix: (Units=1/GPa)
#
#
# Indices 1 2 3 4 5 6 
#
# 1 0.016310 -0.002148 -0.004700 0.000000 -0.001107 0.000000
# 2 -0.002148 0.007785 -0.003195 0.000000 -0.001119 0.000000
# 3 -0.004700 -0.003195 0.011972 0.000000 0.000653 0.000000
# 4 0.000000 0.000000 0.000000 0.033156 0.000000 0.001308
# 5 -0.001107 -0.001119 0.000653 0.000000 0.023939 0.000000
# 6 0.000000 0.000000 0.000000 0.001308 0.000000 0.031915
#
#
# Mechanical properties :
#
#
# Convention : Reuss Voigt Hill
#
# Bulk Modulus (GPa) = 62.57031 70.73177 66.65104
# Shear Modulus (GPa) = 33.22466 35.40060 34.31263
#
# Velocity S-wave (km/s) = 4.03308 4.16305 4.09858
# Velocity P-wave (km/s) = 7.23326 7.59842 7.41809
#
# Compressibility (1/GPa) = 0.01598202
#
# Stress axis : x y z
#
# Youngs Moduli (GPa) = 61.31110 128.44512 83.52870
#
# Poissons Ratio (x) = 0.27587 0.39259
# Poissons Ratio (y) = 0.13168 0.26687
# Poissons Ratio (z) = 0.28817 0.41037
#
# Static dielectric constant tensor:
#      x y z
#    x 3.627070 0.000000 0.008270 
#    y 0.000000 3.895110 0.000000 
#    z 0.008270 0.000000 3.704440 
# 
# 
# High freq. dielectric constant tensor:
#      x y z
#    x 1.791310 0.000000 0.000650 
#    y 0.000000 1.808600 0.000000 
#    z 0.000650 0.000000 1.810220 
# 
# From -- ./inp_files/1577.got.cif
#   From: 2010.03.12/outbox.cif.g09.slc.cpg/sg4_1_cif.got.tgz:1577.got - 2010.03.31 09:31:35.
