data_PCOD8046298
_publ_section_title
;
Structure prediction by ZEFSAII (Michael W. Deem and Ramdas Pophale) SiO2 
 PCOD8046298
Probable space group: P 21
;
_chemical_formula_sum "Si O2"
_cell_formula_units_Z 16
_cell_length_a 9.937251
_cell_length_b 11.790222
_cell_length_c 5.658526
_cell_angle_alpha 90.000000
_cell_angle_beta 118.357592
_cell_angle_gamma 90.000000
_cell_volume 583.410730
_symmetry_space_group_name_H-M "P 21"
_symmetry_group_IT_number 4
_symmetry_cell_setting 'monoclinic'
loop_
_space_group_symop_operation_xyz
x,y,z
-x,1/2+y,-z
loop_
_atom_site_type_symbol
_atom_site_label
_atom_site_fract_x
_atom_site_fract_y
_atom_site_fract_z
Si Si1 0.827300 0.381720 0.639521
Si Si2 0.582090 0.072628 0.688574
Si Si3 0.549784 0.563964 0.929790
Si Si4 0.494259 0.817897 0.662916
Si Si5 0.051073 0.336604 0.439781
Si Si6 0.589890 0.815594 0.238012
Si Si7 0.881355 0.539675 0.055758
Si Si8 0.107172 0.683763 0.010113
O O1 0.673736 0.349002 0.371266
O O2 0.818679 0.508429 0.738756
O O3 0.813312 0.300247 0.853164
O O4 0.988370 0.364787 0.646058
O O5 0.525703 0.122083 0.376535
O O6 0.761016 0.090553 0.896219
O O7 0.574218 0.936929 0.664071
O O8 0.491810 0.120179 0.847383
O O9 0.486244 0.436296 0.881782
O O10 0.734951 0.561276 0.095829
O O11 0.508605 0.758692 0.407548
O O12 0.573646 0.752810 0.957827
O O13 0.231706 0.330209 0.569288
O O14 0.993185 0.439871 0.231065
O O15 0.980270 0.213447 0.307301
O O16 0.983379 0.651435 0.109310
#
# Coordination Sequence:
#
# PCOD8046298 Si02
#       8
#     2   2   2   2   2   2   2   2
#     4  11  25  46  72 107 144 198 243 308 371 446
#     4  10  21  42  68 100 138 183 239 293 362 426
#     4  10  21  41  72 105 129 190 244 292 356 436
#     4  10  21  43  73  99 134 188 247 292 362 433
#     4  11  26  44  72 104 148 195 244 307 379 447
#     4  10  21  40  70 103 135 183 243 294 359 434
#     4  11  23  47  74 101 149 194 245 306 376 446
#     4  11  28  45  69 109 151 191 247 310 375 446
#
# _framework density 27.424934
#
# number of rings (size 3 to 8) (size 9 to 14) (size 15 to 20)
#    0.000    1.500    2.500    3.000   10.500    1.000 
#    2.250    0.000    0.000    0.000    0.000    0.000 
#    0.000    0.000    0.000    0.000    0.000    0.000 
#
# Total GULP energy -198286.229097 kJ/mol
# GULP energy per Si atom -12392.889319 kJ/mol
# Density = 2.736251 g / cm^3
# Si number density = 27.424934 Si / 1000 Ang^3
#
#
#
# Elastic Constant Matrix: (Units=GPa)
#
#
# Indices 1 2 3 4 5 6 
#
# 1 184.5441 21.3792 55.4919 0.0000 3.7655 0.0000
# 2 21.3792 64.0240 58.5356 0.0000 -17.1009 0.0000
# 3 55.4919 58.5356 161.4025 0.0000 -16.2441 0.0000
# 4 0.0000 0.0000 0.0000 45.2391 0.0000 -14.0543
# 5 3.7655 -17.1009 -16.2441 0.0000 52.1813 0.0000
# 6 0.0000 0.0000 0.0000 -14.0543 0.0000 33.4350
#
#
#
# Elastic Compliance Matrix: (Units=1/GPa)
#
#
# Indices 1 2 3 4 5 6 
#
# 1 0.006118 -0.000505 -0.002045 0.000000 -0.001244 0.000000
# 2 -0.000505 0.024850 -0.008275 0.000000 0.005604 0.000000
# 3 -0.002045 -0.008275 0.009954 0.000000 0.000534 0.000000
# 4 0.000000 0.000000 0.000000 0.025425 0.000000 0.010687
# 5 -0.001244 0.005604 0.000534 0.000000 0.021257 0.000000
# 6 0.000000 0.000000 0.000000 0.010687 0.000000 0.034401
#
#
# Mechanical properties :
#
#
# Convention : Reuss Voigt Hill
#
# Bulk Modulus (GPa) = 51.89053 75.64268 63.76661
# Shear Modulus (GPa) = 33.31600 44.47533 38.89567
#
# Velocity S-wave (km/s) = 3.48919 4.03142 3.77006
# Velocity P-wave (km/s) = 5.93250 7.02220 6.50023
#
# Compressibility (1/GPa) = 0.01927134
#
# Stress axis : x y z
#
# Youngs Moduli (GPa) = 163.46100 40.24136 100.46588
#
# Poissons Ratio (x) = 0.02032 0.20549
# Poissons Ratio (y) = 0.08255 0.83132
# Poissons Ratio (z) = 0.33433 0.33298
#
# Static dielectric constant tensor:
#      x y z
#    x 4.822640 0.000000 -0.136930 
#    y 0.000000 5.418150 0.000000 
#    z -0.136930 0.000000 5.866200 
# 
# 
# High freq. dielectric constant tensor:
#      x y z
#    x 2.101670 0.000000 -0.014460 
#    y 0.000000 2.151740 0.000000 
#    z -0.014460 0.000000 2.125780 
# 
# From -- ./inp_files/1727.got.cif
#   From: 2010.03.12/outbox.cif.g09.slc.cpg/sg4_1_cif.got.tgz:1727.got - 2010.03.31 09:31:35.
