data_PCOD8046006
_publ_section_title
;
Structure prediction by ZEFSAII (Michael W. Deem and Ramdas Pophale) SiO2 
 PCOD8046006
Probable space group: P 21
;
_chemical_formula_sum "Si O2"
_cell_formula_units_Z 16
_cell_length_a 9.540521
_cell_length_b 12.539480
_cell_length_c 8.739160
_cell_angle_alpha 90.000000
_cell_angle_beta 131.105200
_cell_angle_gamma 90.000000
_cell_volume 787.783200
_symmetry_space_group_name_H-M "P 21"
_symmetry_group_IT_number 4
_symmetry_cell_setting 'monoclinic'
loop_
_space_group_symop_operation_xyz
x,y,z
-x,1/2+y,-z
loop_
_atom_site_type_symbol
_atom_site_label
_atom_site_fract_x
_atom_site_fract_y
_atom_site_fract_z
Si Si1 0.816805 0.341190 0.196518
Si Si2 0.983597 0.383253 0.762865
Si Si3 0.869157 0.970769 0.417814
Si Si4 0.009312 0.732636 0.962064
Si Si5 0.479799 0.908066 0.249321
Si Si6 0.705353 0.559563 0.668131
Si Si7 0.603225 0.199871 0.627604
Si Si8 0.222785 0.706650 0.556931
O O1 0.713445 0.261469 0.239740
O O2 0.939977 0.427725 0.373377
O O3 0.949896 0.276350 0.177165
O O4 0.648364 0.397797 0.990646
O O5 0.130141 0.452459 0.767623
O O6 0.806442 0.460497 0.660195
O O7 0.939732 0.278632 0.632005
O O8 0.050413 0.335251 0.974810
O O9 0.694096 0.907735 0.357971
O O10 0.861049 0.093329 0.457407
O O11 0.847744 0.646140 0.837743
O O12 0.192828 0.671293 0.159249
O O13 0.452511 0.814759 0.351468
O O14 0.419980 0.018778 0.281936
O O15 0.558722 0.615175 0.444438
O O16 0.610922 0.201543 0.447373
#
# Coordination Sequence:
#
# PCOD8046006 Si02
#       8
#     2   2   2   2   2   2   2   2
#     4  10  22  41  61  90 131 159 210 268 311 373
#     4  10  23  42  63  96 129 163 222 257 312 395
#     4  11  23  41  65  90 127 173 204 264 330 366
#     4  10  22  40  63  96 125 166 212 267 308 384
#     4  11  23  40  63  94 122 163 219 259 309 390
#     4  12  21  40  69  89 124 173 207 257 324 370
#     4  10  22  41  64  92 128 166 214 261 311 386
#     4  10  20  39  62  89 128 163 204 267 313 370
#
# _framework density 20.310157
#
# number of rings (size 3 to 8) (size 9 to 14) (size 15 to 20)
#    0.000    1.500    5.000    1.500    3.500    2.000 
#    2.250    7.500    0.000    0.000    0.000    0.000 
#    0.000    0.000    0.000    0.000    0.000    0.000 
#
# Total GULP energy -198292.897003 kJ/mol
# GULP energy per Si atom -12393.306063 kJ/mol
# Density = 2.026393 g / cm^3
# Si number density = 20.310157 Si / 1000 Ang^3
#
#
#
# Elastic Constant Matrix: (Units=GPa)
#
#
# Indices 1 2 3 4 5 6 
#
# 1 88.1076 26.5990 26.3736 0.0000 -2.8329 0.0000
# 2 26.5990 91.2369 41.3983 0.0000 12.6901 0.0000
# 3 26.3736 41.3983 76.1784 0.0000 4.9338 0.0000
# 4 0.0000 0.0000 0.0000 32.1520 0.0000 5.9561
# 5 -2.8329 12.6901 4.9338 0.0000 29.3919 0.0000
# 6 0.0000 0.0000 0.0000 5.9561 0.0000 36.8895
#
#
#
# Elastic Compliance Matrix: (Units=1/GPa)
#
#
# Indices 1 2 3 4 5 6 
#
# 1 0.013273 -0.002811 -0.003265 0.000000 0.003041 0.000000
# 2 -0.002811 0.015911 -0.007290 0.000000 -0.005917 0.000000
# 3 -0.003265 -0.007290 0.018234 0.000000 -0.000228 0.000000
# 4 0.000000 0.000000 0.000000 0.032061 0.000000 -0.005176
# 5 0.003041 -0.005917 -0.000228 0.000000 0.036909 0.000000
# 6 0.000000 0.000000 0.000000 -0.005176 0.000000 0.027944
#
#
# Mechanical properties :
#
#
# Convention : Reuss Voigt Hill
#
# Bulk Modulus (GPa) = 48.34162 49.36274 48.85218
# Shear Modulus (GPa) = 28.09629 30.43015 29.26322
#
# Velocity S-wave (km/s) = 3.72339 3.87495 3.79993
# Velocity P-wave (km/s) = 6.50678 6.66165 6.58467
#
# Compressibility (1/GPa) = 0.02068611
#
# Stress axis : x y z
#
# Youngs Moduli (GPa) = 75.33814 62.84995 54.84336
#
# Poissons Ratio (x) = 0.17670 0.17904
# Poissons Ratio (y) = 0.21181 0.39981
# Poissons Ratio (z) = 0.24594 0.45818
#
# Static dielectric constant tensor:
#      x y z
#    x 4.016620 0.000000 -0.189440 
#    y 0.000000 3.829760 0.000000 
#    z -0.189440 0.000000 3.573300 
# 
# 
# High freq. dielectric constant tensor:
#      x y z
#    x 1.803140 0.000000 -0.011390 
#    y 0.000000 1.802890 0.000000 
#    z -0.011390 0.000000 1.773030 
# 
# From -- ./inp_files/6480.got.cif
#   From: 2010.03.12/outbox.cif.g09.slc.cpg/sg4_4_cif.got.tgz:6480.got - 2010.03.31 09:31:35.
