data_PCOD8046609
_publ_section_title
;
Structure prediction by ZEFSAII (Michael W. Deem and Ramdas Pophale) SiO2 
 PCOD8046609
Probable space group: P 21
;
_chemical_formula_sum "Si O2"
_cell_formula_units_Z 16
_cell_length_a 9.254558
_cell_length_b 7.620015
_cell_length_c 21.307414
_cell_angle_alpha 90.000000
_cell_angle_beta 29.126305
_cell_angle_gamma 90.000000
_cell_volume 731.368336
_symmetry_space_group_name_H-M "P 21"
_symmetry_group_IT_number 4
_symmetry_cell_setting 'monoclinic'
loop_
_space_group_symop_operation_xyz
x,y,z
-x,1/2+y,-z
loop_
_atom_site_type_symbol
_atom_site_label
_atom_site_fract_x
_atom_site_fract_y
_atom_site_fract_z
Si Si1 0.057675 0.987070 0.769031
Si Si2 0.612298 0.971866 0.744555
Si Si3 0.162331 0.729082 0.248585
Si Si4 0.627327 0.717827 0.261667
Si Si5 0.762153 0.888060 0.003107
Si Si6 0.583356 0.955137 0.489838
Si Si7 0.077810 0.758758 0.994711
Si Si8 0.763240 0.318005 0.484992
O O1 0.346979 0.884710 0.631874
O O2 0.154479 0.169341 0.764291
O O3 0.852500 0.055509 0.789827
O O4 0.882958 0.870353 0.886042
O O5 0.360402 0.885191 0.883901
O O6 0.886360 0.838800 0.637307
O O7 0.720716 0.159155 0.729456
O O8 0.480531 0.029492 0.727033
O O9 0.408352 0.865649 0.130503
O O10 0.846069 0.819374 0.377885
O O11 0.359789 0.821386 0.396713
O O12 0.815715 0.833923 0.140244
O O13 0.831751 0.070692 0.011816
O O14 0.924533 0.738894 0.983940
O O15 0.392743 0.972853 0.496882
O O16 0.710858 0.140465 0.464764
#
# Coordination Sequence:
#
# PCOD8046609 Si02
#       8
#     2   2   2   2   2   2   2   2
#     4  10  22  42  66  91 137 168 218 270 330 388
#     4  12  23  43  69  97 132 175 225 275 326 396
#     4  12  23  43  69  97 132 175 225 275 326 396
#     4  10  22  42  66  91 137 168 218 270 330 388
#     4  11  23  43  69 100 135 176 223 272 337 393
#     4  11  21  44  67  95 137 175 213 280 332 385
#     4  11  21  44  67  95 137 175 213 280 332 385
#     4  11  23  43  69 100 135 176 223 272 337 393
#
# _framework density 21.876799999999999
#
# number of rings (size 3 to 8) (size 9 to 14) (size 15 to 20)
#    0.000    1.000    7.500    0.750    0.000    4.000 
#    4.500    2.500    0.000    0.000    0.000    0.000 
#    0.000    0.000    0.000    0.000    0.000    0.000 
#
# Total GULP energy -198245.013172 kJ/mol
# GULP energy per Si atom -12390.313323 kJ/mol
# Density = 2.182701 g / cm^3
# Si number density = 21.876800 Si / 1000 Ang^3
#
#
#
# Elastic Constant Matrix: (Units=GPa)
#
#
# Indices 1 2 3 4 5 6 
#
# 1 66.6987 21.8243 62.4249 0.0000 4.7481 0.0000
# 2 21.8243 42.5169 48.8815 0.0000 4.8863 0.0000
# 3 62.4249 48.8815 211.0814 0.0000 11.8397 0.0000
# 4 0.0000 0.0000 0.0000 33.4121 0.0000 1.7794
# 5 4.7481 4.8863 11.8397 0.0000 39.6294 0.0000
# 6 0.0000 0.0000 0.0000 1.7794 0.0000 40.2742
#
#
#
# Elastic Compliance Matrix: (Units=1/GPa)
#
#
# Indices 1 2 3 4 5 6 
#
# 1 0.021513 -0.005053 -0.005169 0.000000 -0.000410 0.000000
# 2 -0.005053 0.033363 -0.006138 0.000000 -0.001675 0.000000
# 3 -0.005169 -0.006138 0.007740 0.000000 -0.000936 0.000000
# 4 0.000000 0.000000 0.000000 0.030000 0.000000 -0.001325
# 5 -0.000410 -0.001675 -0.000936 0.000000 0.025769 0.000000
# 6 0.000000 0.000000 0.000000 -0.001325 0.000000 0.024888
#
#
# Mechanical properties :
#
#
# Convention : Reuss Voigt Hill
#
# Bulk Modulus (GPa) = 33.44865 65.17315 49.31090
# Shear Modulus (GPa) = 26.88769 35.14088 31.01428
#
# Velocity S-wave (km/s) = 3.50958 4.01223 3.76929
# Velocity P-wave (km/s) = 5.63433 7.16377 6.44458
#
# Compressibility (1/GPa) = 0.02989657
#
# Stress axis : x y z
#
# Youngs Moduli (GPa) = 46.48295 29.97352 129.19694
#
# Poissons Ratio (x) = 0.15145 0.66784
# Poissons Ratio (y) = 0.23487 0.79298
# Poissons Ratio (z) = 0.24028 0.18397
#
# Static dielectric constant tensor:
#      x y z
#    x 4.143240 0.000000 0.069050 
#    y 0.000000 3.589670 0.000000 
#    z 0.069050 0.000000 4.350230 
# 
# 
# High freq. dielectric constant tensor:
#      x y z
#    x 1.868590 0.000000 -0.004320 
#    y 0.000000 1.822010 0.000000 
#    z -0.004320 0.000000 1.880500 
# 
# From -- ./inp_files/15617.got.cif
#   From: 2010.03.12/outbox.cif.g09.slc.cpg/sg4_8_cif.got.tgz:15617.got - 2010.03.31 09:31:35.
