data_PCOD8046513
_publ_section_title
;
Structure prediction by ZEFSAII (Michael W. Deem and Ramdas Pophale) SiO2 
 PCOD8046513
Probable space group: P 21
;
_chemical_formula_sum "Si O2"
_cell_formula_units_Z 16
_cell_length_a 8.797632
_cell_length_b 9.027004
_cell_length_c 9.235857
_cell_angle_alpha 90.000000
_cell_angle_beta 89.693763
_cell_angle_gamma 90.000000
_cell_volume 733.466737
_symmetry_space_group_name_H-M "P 21"
_symmetry_group_IT_number 4
_symmetry_cell_setting 'monoclinic'
loop_
_space_group_symop_operation_xyz
x,y,z
-x,1/2+y,-z
loop_
_atom_site_type_symbol
_atom_site_label
_atom_site_fract_x
_atom_site_fract_y
_atom_site_fract_z
Si Si1 0.193568 0.212200 0.923204
Si Si2 0.332979 0.162078 0.214150
Si Si3 0.573368 0.757451 0.323862
Si Si4 0.264458 0.832241 0.196840
Si Si5 0.432811 0.585892 0.572041
Si Si6 0.068028 0.329566 0.342912
Si Si7 0.063107 0.892809 0.949771
Si Si8 0.878355 0.154112 0.557458
O O1 0.272429 0.227423 0.766249
O O2 0.082890 0.069427 0.931493
O O3 0.328278 0.196963 0.042692
O O4 0.090042 0.357155 0.955964
O O5 0.503772 0.157546 0.278217
O O6 0.238606 0.287263 0.298089
O O7 0.257620 0.002654 0.247691
O O8 0.433060 0.764960 0.211355
O O9 0.547761 0.623923 0.438256
O O10 0.585208 0.909466 0.414406
O O11 0.144573 0.744515 0.295185
O O12 0.209591 0.822319 0.030079
O O13 0.272364 0.661313 0.539961
O O14 0.069429 0.492407 0.403613
O O15 0.954619 0.316411 0.206388
O O16 0.016528 0.221516 0.468842
#
# Coordination Sequence:
#
# PCOD8046513 Si02
#       8
#     2   2   2   2   2   2   2   2
#     4  10  22  40  63  90 123 161 201 251 304 357
#     4   9  20  40  60  85 118 152 200 254 300 357
#     4  10  22  40  63  90 123 161 201 251 304 357
#     4   9  20  40  60  85 118 152 200 254 300 357
#     4  10  22  40  62  89 120 158 203 252 302 360
#     4  11  23  38  59  88 121 159 201 249 303 360
#     4  10  22  40  62  89 120 158 203 252 302 360
#     4  11  23  38  59  88 121 159 201 249 303 360
#
# _framework density 21.814212999999999
#
# number of rings (size 3 to 8) (size 9 to 14) (size 15 to 20)
#    0.000    2.000    0.000    2.250    0.000   11.000 
#    0.000   20.000    0.000    0.000    0.000    0.000 
#    0.000    0.000    0.000    0.000    0.000    0.000 
#
# Total GULP energy -198387.860850 kJ/mol
# GULP energy per Si atom -12399.241303 kJ/mol
# Density = 2.176456 g / cm^3
# Si number density = 21.814213 Si / 1000 Ang^3
#
#
#
# Elastic Constant Matrix: (Units=GPa)
#
#
# Indices 1 2 3 4 5 6 
#
# 1 43.9546 17.7065 37.6513 0.0000 1.5327 0.0000
# 2 17.7065 99.2790 54.0275 0.0000 -11.4224 0.0000
# 3 37.6513 54.0275 86.7729 0.0000 -2.9107 0.0000
# 4 0.0000 0.0000 0.0000 29.5354 0.0000 1.2104
# 5 1.5327 -11.4224 -2.9107 0.0000 49.9835 0.0000
# 6 0.0000 0.0000 0.0000 1.2104 0.0000 26.1782
#
#
#
# Elastic Compliance Matrix: (Units=1/GPa)
#
#
# Indices 1 2 3 4 5 6 
#
# 1 0.036986 0.003014 -0.017975 0.000000 -0.001492 0.000000
# 2 0.003014 0.015922 -0.011124 0.000000 0.002898 0.000000
# 3 -0.017975 -0.011124 0.026235 0.000000 -0.000463 0.000000
# 4 0.000000 0.000000 0.000000 0.033922 0.000000 -0.001568
# 5 -0.001492 0.002898 -0.000463 0.000000 0.020688 0.000000
# 6 0.000000 0.000000 0.000000 -0.001568 0.000000 0.038272
#
#
# Mechanical properties :
#
#
# Convention : Reuss Voigt Hill
#
# Bulk Modulus (GPa) = 37.07536 49.86412 43.46974
# Shear Modulus (GPa) = 21.44204 29.18082 25.31143
#
# Velocity S-wave (km/s) = 3.13859 3.66142 3.41004
# Velocity P-wave (km/s) = 5.49246 6.38615 5.95609
#
# Compressibility (1/GPa) = 0.02697209
#
# Stress axis : x y z
#
# Youngs Moduli (GPa) = 27.03717 62.80462 38.11758
#
# Poissons Ratio (x) = -0.18928 0.68517
# Poissons Ratio (y) = -0.08149 0.42403
# Poissons Ratio (z) = 0.48600 0.69866
#
# Static dielectric constant tensor:
#      x y z
#    x 3.820770 0.000000 0.392580 
#    y 0.000000 3.871990 0.000000 
#    z 0.392580 0.000000 4.066120 
# 
# 
# High freq. dielectric constant tensor:
#      x y z
#    x 1.845510 0.000000 0.027070 
#    y 0.000000 1.854780 0.000000 
#    z 0.027070 0.000000 1.862640 
# 
# From -- ./inp_files/5662.got.cif
#   From: 2010.03.12/outbox.cif.g09.slc.cpg/sg4_3_cif.got.tgz:5662.got - 2010.03.31 09:31:35.
