data_PCOD8046696
_publ_section_title
;
Structure prediction by ZEFSAII (Michael W. Deem and Ramdas Pophale) SiO2 
 PCOD8046696
Probable space group: P 21
;
_chemical_formula_sum "Si O2"
_cell_formula_units_Z 14
_cell_length_a 11.877118
_cell_length_b 10.204523
_cell_length_c 8.638910
_cell_angle_alpha 90.000000
_cell_angle_beta 141.658076
_cell_angle_gamma 90.000000
_cell_volume 649.533693
_symmetry_space_group_name_H-M "P 21"
_symmetry_group_IT_number 4
_symmetry_cell_setting 'monoclinic'
loop_
_space_group_symop_operation_xyz
x,y,z
-x,1/2+y,-z
loop_
_atom_site_type_symbol
_atom_site_label
_atom_site_fract_x
_atom_site_fract_y
_atom_site_fract_z
Si Si1 0.261288 0.261810 0.883057
Si Si2 0.742638 0.807720 0.449774
Si Si3 0.428878 0.687006 0.979056
Si Si4 0.161146 0.546495 0.229019
Si Si5 0.587968 0.990737 0.780135
Si Si6 0.879067 0.260811 0.574152
Si Si7 0.824443 0.530410 0.668341
O O1 0.197453 0.346593 0.661283
O O2 0.076745 0.198725 0.749751
O O3 0.414985 0.159263 0.985760
O O4 0.353101 0.342055 0.122715
O O5 0.789896 0.917995 0.622021
O O6 0.838215 0.669587 0.596880
O O7 0.522337 0.785669 0.206145
O O8 0.250950 0.750626 0.714291
O O9 0.381218 0.555333 0.018015
O O10 0.285330 0.556899 0.211180
O O11 0.201031 0.676427 0.370790
O O12 0.950139 0.536815 0.955452
O O13 0.380552 0.998386 0.499708
O O14 0.897225 0.413999 0.636026
#
# Coordination Sequence:
#
# PCOD8046696 Si02
#       7
#     2   2   2   2   2   2   2
#     4  10  22  44  69  94 134 172 232 279 318 403
#     4   9  23  46  64  95 137 172 228 279 321 406
#     4   9  23  43  68  96 128 177 230 273 332 387
#     4  12  26  42  67 103 139 176 221 274 350 401
#     4  11  23  44  69  97 142 174 223 288 331 403
#     4  12  24  41  74 100 131 183 225 278 339 395
#     4  11  23  42  65  99 137 176 223 269 343 397
#
# _framework density 21.553923999999999
#
# number of rings (size 3 to 8) (size 9 to 14) (size 15 to 20)
#    0.857    0.571    2.857    1.714    2.000    4.571 
#    2.571    0.000    0.000    0.000    0.000    0.000 
#    0.000    0.000    0.000    0.000    0.000    0.000 
#
# Total GULP energy -173463.859043 kJ/mol
# GULP energy per Si atom -12390.275646 kJ/mol
# Density = 2.150487 g / cm^3
# Si number density = 21.553924 Si / 1000 Ang^3
#
#
#
# Elastic Constant Matrix: (Units=GPa)
#
#
# Indices 1 2 3 4 5 6 
#
# 1 110.6753 25.5307 17.6049 0.0000 8.3986 0.0000
# 2 25.5307 80.2111 30.6406 0.0000 -3.0988 0.0000
# 3 17.6049 30.6406 142.7088 0.0000 4.7713 0.0000
# 4 0.0000 0.0000 0.0000 32.7301 0.0000 -8.7973
# 5 8.3986 -3.0988 4.7713 0.0000 27.8416 0.0000
# 6 0.0000 0.0000 0.0000 -8.7973 0.0000 31.6683
#
#
#
# Elastic Compliance Matrix: (Units=1/GPa)
#
#
# Indices 1 2 3 4 5 6 
#
# 1 0.010090 -0.003166 -0.000454 0.000000 -0.003318 0.000000
# 2 -0.003166 0.014689 -0.002866 0.000000 0.003081 0.000000
# 3 -0.000454 -0.002866 0.007729 0.000000 -0.001507 0.000000
# 4 0.000000 0.000000 0.000000 0.033018 0.000000 0.009172
# 5 -0.003318 0.003081 -0.001507 0.000000 0.037520 0.000000
# 6 0.000000 0.000000 0.000000 0.009172 0.000000 0.034125
#
#
# Mechanical properties :
#
#
# Convention : Reuss Voigt Hill
#
# Bulk Modulus (GPa) = 51.19066 53.46083 52.32574
# Shear Modulus (GPa) = 31.91718 35.76928 33.84323
#
# Velocity S-wave (km/s) = 3.85230 4.07815 3.96683
# Velocity P-wave (km/s) = 6.60216 6.85800 6.73130
#
# Compressibility (1/GPa) = 0.01953482
#
# Stress axis : x y z
#
# Youngs Moduli (GPa) = 99.10929 68.07880 129.38210
#
# Poissons Ratio (x) = 0.21556 0.05873
# Poissons Ratio (y) = 0.31381 0.37084
# Poissons Ratio (z) = 0.04499 0.19513
#
# Static dielectric constant tensor:
#      x y z
#    x 3.738590 0.000000 0.027200 
#    y 0.000000 3.599510 0.000000 
#    z 0.027200 0.000000 4.083860 
# 
# 
# High freq. dielectric constant tensor:
#      x y z
#    x 1.830510 0.000000 0.001930 
#    y 0.000000 1.822010 0.000000 
#    z 0.001930 0.000000 1.867770 
# 
# From -- ./inp_files/8461.got.cif
#   From: 2010.03.12/outbox.cif.g09.slc.cpg/sg4_5_cif.got.tgz:8461.got - 2010.03.31 09:31:35.
