data_PCOD8046033
_publ_section_title
;
Structure prediction by ZEFSAII (Michael W. Deem and Ramdas Pophale) SiO2 
 PCOD8046033
Probable space group: P 21
;
_chemical_formula_sum "Si O2"
_cell_formula_units_Z 14
_cell_length_a 12.807741
_cell_length_b 10.039138
_cell_length_c 9.149289
_cell_angle_alpha 90.000000
_cell_angle_beta 146.194477
_cell_angle_gamma 90.000000
_cell_volume 654.522337
_symmetry_space_group_name_H-M "P 21"
_symmetry_group_IT_number 4
_symmetry_cell_setting 'monoclinic'
loop_
_space_group_symop_operation_xyz
x,y,z
-x,1/2+y,-z
loop_
_atom_site_type_symbol
_atom_site_label
_atom_site_fract_x
_atom_site_fract_y
_atom_site_fract_z
Si Si1 0.342631 0.443080 0.736816
Si Si2 0.186971 0.896771 0.205254
Si Si3 0.666936 0.435000 0.308913
Si Si4 0.229701 0.699706 0.747420
Si Si5 0.874213 0.685411 0.832462
Si Si6 0.471285 0.799910 0.287982
Si Si7 0.121590 0.184604 0.482295
O O1 0.283092 0.594917 0.683820
O O2 0.459710 0.431082 0.721034
O O3 0.170177 0.340785 0.534571
O O4 0.457388 0.398257 0.015137
O O5 0.315549 0.918867 0.497331
O O6 0.317288 0.834959 0.230471
O O7 0.113235 0.043651 0.065728
O O8 0.012678 0.801843 0.051611
O O9 0.803368 0.337551 0.376256
O O10 0.702915 0.585445 0.291680
O O11 0.030693 0.651948 0.574760
O O12 0.377652 0.705069 0.054785
O O13 0.654804 0.730662 0.572683
O O14 0.957613 0.650406 0.770153
#
# Coordination Sequence:
#
# PCOD8046033 Si02
#       7
#     2   2   2   2   2   2   2
#     4  10  21  39  65  90 122 166 211 261 316 381
#     4  11  23  44  64  94 135 170 219 262 326 381
#     4  10  22  39  58  94 124 160 211 263 307 380
#     4  11  20  39  66  92 123 163 209 264 317 373
#     4  10  23  42  66  93 128 174 216 267 312 392
#     4  10  23  43  68  91 131 174 207 267 326 379
#     4  10  20  40  63  88 125 165 209 258 322 368
#
# _framework density 21.389644000000001
#
# number of rings (size 3 to 8) (size 9 to 14) (size 15 to 20)
#    0.000    1.714    1.429    4.286    0.000    4.571 
#   12.857    0.000    0.000    0.000    0.000    0.000 
#    0.000    0.000    0.000    0.000    0.000    0.000 
#
# Total GULP energy -173453.768890 kJ/mol
# GULP energy per Si atom -12389.554921 kJ/mol
# Density = 2.134096 g / cm^3
# Si number density = 21.389644 Si / 1000 Ang^3
#
#
#
# Elastic Constant Matrix: (Units=GPa)
#
#
# Indices 1 2 3 4 5 6 
#
# 1 91.5020 28.6508 14.3485 0.0000 13.9815 0.0000
# 2 28.6508 115.7296 10.2835 0.0000 6.1422 0.0000
# 3 14.3485 10.2835 34.6185 0.0000 4.6221 0.0000
# 4 0.0000 0.0000 0.0000 28.5667 0.0000 -3.9469
# 5 13.9815 6.1422 4.6221 0.0000 24.8894 0.0000
# 6 0.0000 0.0000 0.0000 -3.9469 0.0000 33.1013
#
#
#
# Elastic Compliance Matrix: (Units=1/GPa)
#
#
# Indices 1 2 3 4 5 6 
#
# 1 0.013295 -0.002620 -0.003918 0.000000 -0.006094 0.000000
# 2 -0.002620 0.009466 -0.001652 0.000000 -0.000558 0.000000
# 3 -0.003918 -0.001652 0.031432 0.000000 -0.003228 0.000000
# 4 0.000000 0.000000 0.000000 0.035592 0.000000 0.004244
# 5 -0.006094 -0.000558 -0.003228 0.000000 0.044338 0.000000
# 6 0.000000 0.000000 0.000000 0.004244 0.000000 0.030716
#
#
# Mechanical properties :
#
#
# Convention : Reuss Voigt Hill
#
# Bulk Modulus (GPa) = 26.44596 38.71286 32.57941
# Shear Modulus (GPa) = 25.79675 29.88262 27.83968
#
# Velocity S-wave (km/s) = 3.47658 3.74178 3.61161
# Velocity P-wave (km/s) = 5.33912 6.06680 5.71455
#
# Compressibility (1/GPa) = 0.03781296
#
# Stress axis : x y z
#
# Youngs Moduli (GPa) = 75.21839 105.64419 31.81464
#
# Poissons Ratio (x) = 0.27675 0.12466
# Poissons Ratio (y) = 0.19705 0.05254
# Poissons Ratio (z) = 0.29474 0.17448
#
# Static dielectric constant tensor:
#      x y z
#    x 3.754350 0.000000 0.042720 
#    y 0.000000 4.131020 0.000000 
#    z 0.042720 0.000000 3.783550 
# 
# 
# High freq. dielectric constant tensor:
#      x y z
#    x 1.827950 0.000000 0.004730 
#    y 0.000000 1.846310 0.000000 
#    z 0.004730 0.000000 1.829270 
# 
# From -- ./inp_files/7478.got.cif
#   From: 2010.03.12/outbox.cif.g09.slc.cpg/sg4_4_cif.got.tgz:7478.got - 2010.03.31 09:31:35.
