data_PCOD8046171
_publ_section_title
;
Structure prediction by ZEFSAII (Michael W. Deem and Ramdas Pophale) SiO2 
 PCOD8046171
Probable space group: P 21
;
_chemical_formula_sum "Si O2"
_cell_formula_units_Z 14
_cell_length_a 26.938447
_cell_length_b 4.822234
_cell_length_c 9.070828
_cell_angle_alpha 90.000000
_cell_angle_beta 150.196036
_cell_angle_gamma 90.000000
_cell_volume 585.671192
_symmetry_space_group_name_H-M "P 21"
_symmetry_group_IT_number 4
_symmetry_cell_setting 'monoclinic'
loop_
_space_group_symop_operation_xyz
x,y,z
-x,1/2+y,-z
loop_
_atom_site_type_symbol
_atom_site_label
_atom_site_fract_x
_atom_site_fract_y
_atom_site_fract_z
Si Si1 0.223373 0.849640 0.191644
Si Si2 0.954003 0.645256 0.700202
Si Si3 0.632088 0.888902 0.822258
Si Si4 0.811654 0.846399 0.091490
Si Si5 0.424691 0.887319 0.150658
Si Si6 0.565667 0.307131 0.145138
Si Si7 0.087901 0.127275 0.090489
O O1 0.332643 0.726657 0.508523
O O2 0.159416 0.601628 0.945848
O O3 0.244919 0.106117 0.140993
O O4 0.170146 0.985169 0.197543
O O5 0.901391 0.681112 0.405278
O O6 0.049855 0.434437 0.940360
O O7 0.880592 0.595461 0.654030
O O8 0.987456 0.955714 0.818303
O O9 0.543258 0.931216 0.476473
O O10 0.637381 0.578138 0.897300
O O11 0.611349 0.077289 0.910582
O O12 0.736186 0.974174 0.016394
O O13 0.401749 0.954831 0.922767
O O14 0.496721 0.529173 0.053047
#
# Coordination Sequence:
#
# PCOD8046171 Si02
#       7
#     2   2   2   2   2   2   2
#     4  12  26  43  69 104 143 182 235 288 346 427
#     4  10  23  45  73  99 137 180 225 297 355 416
#     4  10  21  38  61  92 131 168 233 279 331 403
#     4  12  25  43  68 104 139 184 222 298 352 417
#     4  10  21  38  61  90 125 184 224 280 330 397
#     4  12  25  43  66  96 142 191 231 282 349 407
#     4  10  23  46  70 103 135 177 236 286 351 431
#
# _framework density 23.904195999999999
#
# number of rings (size 3 to 8) (size 9 to 14) (size 15 to 20)
#    0.000    1.143    0.000    6.000    2.000    4.571 
#    5.143    0.000    0.000    0.000    0.000    0.000 
#    0.000    0.000    0.000    0.000    0.000    0.000 
#
# Total GULP energy -173465.047864 kJ/mol
# GULP energy per Si atom -12390.360562 kJ/mol
# Density = 2.384979 g / cm^3
# Si number density = 23.904196 Si / 1000 Ang^3
#
#
#
# Elastic Constant Matrix: (Units=GPa)
#
#
# Indices 1 2 3 4 5 6 
#
# 1 102.5814 19.1416 40.0265 0.0000 -6.4835 0.0000
# 2 19.1416 101.5800 32.4076 0.0000 -5.9537 0.0000
# 3 40.0265 32.4076 86.2276 0.0000 -10.1234 0.0000
# 4 0.0000 0.0000 0.0000 31.0575 0.0000 -4.9189
# 5 -6.4835 -5.9537 -10.1234 0.0000 32.4351 0.0000
# 6 0.0000 0.0000 0.0000 -4.9189 0.0000 31.6472
#
#
#
# Elastic Compliance Matrix: (Units=1/GPa)
#
#
# Indices 1 2 3 4 5 6 
#
# 1 0.011944 -0.000532 -0.005269 0.000000 0.000645 0.000000
# 2 -0.000532 0.011228 -0.003886 0.000000 0.000742 0.000000
# 3 -0.005269 -0.003886 0.015878 0.000000 0.003189 0.000000
# 4 0.000000 0.000000 0.000000 0.033011 0.000000 0.005131
# 5 0.000645 0.000742 0.003189 0.000000 0.032091 0.000000
# 6 0.000000 0.000000 0.000000 0.005131 0.000000 0.032396
#
#
# Mechanical properties :
#
#
# Convention : Reuss Voigt Hill
#
# Bulk Modulus (GPa) = 50.82127 52.61559 51.71843
# Shear Modulus (GPa) = 30.77297 32.28218 31.52757
#
# Velocity S-wave (km/s) = 3.59185 3.67888 3.63563
# Velocity P-wave (km/s) = 6.20552 6.33280 6.26948
#
# Compressibility (1/GPa) = 0.01967680
#
# Stress axis : x y z
#
# Youngs Moduli (GPa) = 83.72227 89.06386 62.98099
#
# Poissons Ratio (x) = 0.04738 0.33183
# Poissons Ratio (y) = 0.04454 0.24473
# Poissons Ratio (z) = 0.44111 0.34609
#
# Static dielectric constant tensor:
#      x y z
#    x 4.321750 0.000000 -0.364370 
#    y 0.000000 4.370470 0.000000 
#    z -0.364370 0.000000 4.080020 
# 
# 
# High freq. dielectric constant tensor:
#      x y z
#    x 1.953810 0.000000 -0.015540 
#    y 0.000000 1.960880 0.000000 
#    z -0.015540 0.000000 1.922370 
# 
# From -- ./inp_files/10131.got.cif
#   From: 2010.03.12/outbox.cif.g09.slc.cpg/sg4_6_cif.got.tgz:10131.got - 2010.03.31 09:31:35.
