data_PCOD8046766
_publ_section_title
;
Structure prediction by ZEFSAII (Michael W. Deem and Ramdas Pophale) SiO2 
 PCOD8046766
Probable space group: P 21
;
_chemical_formula_sum "Si O2"
_cell_formula_units_Z 14
_cell_length_a 13.107184
_cell_length_b 11.614314
_cell_length_c 5.161626
_cell_angle_alpha 90.000000
_cell_angle_beta 130.319385
_cell_angle_gamma 90.000000
_cell_volume 599.101700
_symmetry_space_group_name_H-M "P 21"
_symmetry_group_IT_number 4
_symmetry_cell_setting 'monoclinic'
loop_
_space_group_symop_operation_xyz
x,y,z
-x,1/2+y,-z
loop_
_atom_site_type_symbol
_atom_site_label
_atom_site_fract_x
_atom_site_fract_y
_atom_site_fract_z
Si Si1 0.872124 0.198580 0.119282
Si Si2 0.394237 0.826975 0.324274
Si Si3 0.891866 0.051742 0.638417
Si Si4 0.614670 0.466027 0.200750
Si Si5 0.610789 0.665316 0.864899
Si Si6 0.816881 0.585021 0.822004
Si Si7 0.156834 0.291334 0.487823
O O1 0.829062 0.129953 0.308266
O O2 0.016012 0.260319 0.396992
O O3 0.759740 0.293694 0.872921
O O4 0.875251 0.109072 0.889642
O O5 0.490357 0.716634 0.500457
O O6 0.445626 0.915291 0.631705
O O7 0.406319 0.870869 0.052544
O O8 0.826923 0.925918 0.545717
O O9 0.048927 0.035984 0.831792
O O10 0.771332 0.502658 0.507067
O O11 0.547959 0.587388 0.995690
O O12 0.695514 0.575490 0.827848
O O13 0.715234 0.762479 0.126315
O O14 0.836530 0.717821 0.766334
#
# Coordination Sequence:
#
# PCOD8046766 Si02
#       7
#     2   2   2   2   2   2   2
#     4  11  25  44  63 104 134 174 233 283 333 412
#     4  12  27  44  71 100 138 183 226 284 346 405
#     4  11  24  42  71  99 140 174 228 290 343 394
#     4  11  25  45  70  97 134 187 222 273 346 411
#     4  11  25  46  71 102 140 174 240 278 335 423
#     4  10  22  47  68 105 132 184 232 276 341 425
#     4  10  24  40  72  95 136 180 227 282 340 404
#
# _framework density 23.368317999999999
#
# number of rings (size 3 to 8) (size 9 to 14) (size 15 to 20)
#    0.000    1.143    2.857    1.714    6.000    3.429 
#    0.000    0.000    0.000    0.000    0.000    0.000 
#    0.000    0.000    0.000    0.000    0.000    0.000 
#
# Total GULP energy -173555.213052 kJ/mol
# GULP energy per Si atom -12396.800932 kJ/mol
# Density = 2.331513 g / cm^3
# Si number density = 23.368318 Si / 1000 Ang^3
#
#
#
# Elastic Constant Matrix: (Units=GPa)
#
#
# Indices 1 2 3 4 5 6 
#
# 1 33.3554 -9.1281 18.5680 0.0000 -12.8501 0.0000
# 2 -9.1281 69.3774 35.2435 0.0000 -14.5473 0.0000
# 3 18.5680 35.2435 105.2836 0.0000 -13.8857 0.0000
# 4 0.0000 0.0000 0.0000 51.1342 0.0000 -4.4370
# 5 -12.8501 -14.5473 -13.8857 0.0000 36.1572 0.0000
# 6 0.0000 0.0000 0.0000 -4.4370 0.0000 31.7918
#
#
#
# Elastic Compliance Matrix: (Units=1/GPa)
#
#
# Indices 1 2 3 4 5 6 
#
# 1 0.048122 0.016130 -0.011350 0.000000 0.019233 0.000000
# 2 0.016130 0.023680 -0.009226 0.000000 0.011717 0.000000
# 3 -0.011350 -0.009226 0.014291 0.000000 -0.002258 0.000000
# 4 0.000000 0.000000 0.000000 0.019796 0.000000 0.002763
# 5 0.019233 0.011717 -0.002258 0.000000 0.038339 0.000000
# 6 0.000000 0.000000 0.000000 0.002763 0.000000 0.031840
#
#
# Mechanical properties :
#
#
# Convention : Reuss Voigt Hill
#
# Bulk Modulus (GPa) = 12.95326 33.04258 22.99792
# Shear Modulus (GPa) = 23.73114 34.70552 29.21833
#
# Velocity S-wave (km/s) = 3.19019 3.85795 3.53985
# Velocity P-wave (km/s) = 4.37320 5.83229 5.15463
#
# Compressibility (1/GPa) = 0.07720063
#
# Stress axis : x y z
#
# Youngs Moduli (GPa) = 20.78047 42.22996 69.97632
#
# Poissons Ratio (x) = -0.68117 0.79422
# Poissons Ratio (y) = -0.33519 0.64562
# Poissons Ratio (z) = 0.23585 0.38962
#
# Static dielectric constant tensor:
#      x y z
#    x 3.928430 0.000000 -0.081800 
#    y 0.000000 4.158480 0.000000 
#    z -0.081800 0.000000 4.388570 
# 
# 
# High freq. dielectric constant tensor:
#      x y z
#    x 1.896630 0.000000 -0.013510 
#    y 0.000000 1.930660 0.000000 
#    z -0.013510 0.000000 1.937040 
# 
# From -- ./inp_files/2694.got.cif
#   From: 2010.03.12/outbox.cif.g09.slc.cpg/sg4_2_cif.got.tgz:2694.got - 2010.03.31 09:31:35.
