data_PCOD8046250
_publ_section_title
;
Structure prediction by ZEFSAII (Michael W. Deem and Ramdas Pophale) SiO2 
 PCOD8046250
Probable space group: P 21
;
_chemical_formula_sum "Si O2"
_cell_formula_units_Z 16
_cell_length_a 14.723888
_cell_length_b 8.453447
_cell_length_c 17.817316
_cell_angle_alpha 90.000000
_cell_angle_beta 159.485075
_cell_angle_gamma 90.000000
_cell_volume 777.188518
_symmetry_space_group_name_H-M "P 21"
_symmetry_group_IT_number 4
_symmetry_cell_setting 'monoclinic'
loop_
_space_group_symop_operation_xyz
x,y,z
-x,1/2+y,-z
loop_
_atom_site_type_symbol
_atom_site_label
_atom_site_fract_x
_atom_site_fract_y
_atom_site_fract_z
Si Si1 0.537254 0.566340 0.344937
Si Si2 0.659714 0.634379 0.774035
Si Si3 0.247137 0.810112 0.376025
Si Si4 0.476921 0.707802 0.928725
Si Si5 0.821806 0.305977 0.848092
Si Si6 0.348936 0.305037 0.090989
Si Si7 0.079172 0.174216 0.474410
Si Si8 0.240790 0.389842 0.732832
O O1 0.659907 0.459702 0.504512
O O2 0.322568 0.670946 0.218364
O O3 0.397383 0.471917 0.169445
O O4 0.762506 0.672113 0.480997
O O5 0.413017 0.655809 0.528744
O O6 0.790358 0.465151 0.870596
O O7 0.568900 0.662961 0.789415
O O8 0.873512 0.768994 0.920346
O O9 0.296296 0.834275 0.325780
O O10 0.948309 0.782206 0.163071
O O11 0.479815 0.795484 0.850861
O O12 0.480198 0.516900 0.916578
O O13 0.204014 0.752690 0.758113
O O14 0.714725 0.768278 0.163511
O O15 0.234641 0.281173 0.654363
O O16 0.026056 0.991551 0.461818
#
# Coordination Sequence:
#
# PCOD8046250 Si02
#       8
#     2   2   2   2   2   2   2   2
#     4  11  23  39  67  92 124 168 211 258 323 383
#     4  10  22  39  60  90 120 162 208 256 321 375
#     4  10  21  40  61  91 119 168 202 259 320 381
#     4  10  24  42  65  95 132 173 215 273 322 391
#     4  11  22  39  63  88 127 157 212 262 313 380
#     4  10  22  41  64  89 129 164 205 259 326 371
#     4  10  24  41  65  96 130 176 220 267 326 392
#     4  10  24  39  67  89 135 170 223 264 331 377
#
# _framework density 20.587026999999999
#
# number of rings (size 3 to 8) (size 9 to 14) (size 15 to 20)
#    0.750    1.000    0.000    4.500    5.250    2.000 
#    2.250    0.000    0.000    0.000    0.000    0.000 
#    0.000    0.000    0.000    0.000    0.000    0.000 
#
# Total GULP energy -198321.770022 kJ/mol
# GULP energy per Si atom -12395.110626 kJ/mol
# Density = 2.054017 g / cm^3
# Si number density = 20.587027 Si / 1000 Ang^3
#
#
#
# Elastic Constant Matrix: (Units=GPa)
#
#
# Indices 1 2 3 4 5 6 
#
# 1 95.0996 16.5747 20.1828 0.0000 -2.0515 0.0000
# 2 16.5747 84.8585 26.9480 0.0000 -15.9738 0.0000
# 3 20.1828 26.9480 86.0491 0.0000 -8.6247 0.0000
# 4 0.0000 0.0000 0.0000 30.3847 0.0000 -3.8948
# 5 -2.0515 -15.9738 -8.6247 0.0000 27.4200 0.0000
# 6 0.0000 0.0000 0.0000 -3.8948 0.0000 35.9628
#
#
#
# Elastic Compliance Matrix: (Units=1/GPa)
#
#
# Indices 1 2 3 4 5 6 
#
# 1 0.011253 -0.001651 -0.002204 0.000000 -0.000813 0.000000
# 2 -0.001651 0.014572 -0.003446 0.000000 0.007281 0.000000
# 3 -0.002204 -0.003446 0.013423 0.000000 0.002049 0.000000
# 4 0.000000 0.000000 0.000000 0.033375 0.000000 0.003614
# 5 -0.000813 0.007281 0.002049 0.000000 0.041295 0.000000
# 6 0.000000 0.000000 0.000000 0.003614 0.000000 0.028198
#
#
# Mechanical properties :
#
#
# Convention : Reuss Voigt Hill
#
# Bulk Modulus (GPa) = 40.57582 43.71313 42.14448
# Shear Modulus (GPa) = 30.31515 32.24029 31.27772
#
# Velocity S-wave (km/s) = 3.84153 3.96163 3.90204
# Velocity P-wave (km/s) = 6.27922 6.49657 6.38882
#
# Compressibility (1/GPa) = 0.02464522
#
# Stress axis : x y z
#
# Youngs Moduli (GPa) = 88.86322 68.62488 74.49952
#
# Poissons Ratio (x) = 0.11331 0.16419
# Poissons Ratio (y) = 0.14673 0.25676
# Poissons Ratio (z) = 0.19584 0.23651
#
# Static dielectric constant tensor:
#      x y z
#    x 3.718670 0.000000 -0.023270 
#    y 0.000000 3.662190 0.000000 
#    z -0.023270 0.000000 3.669410 
# 
# 
# High freq. dielectric constant tensor:
#      x y z
#    x 1.805860 0.000000 -0.000740 
#    y 0.000000 1.796820 0.000000 
#    z -0.000740 0.000000 1.802190 
# 
# From -- ./inp_files/13276.got.cif
#   From: 2010.03.12/outbox.cif.g09.slc.cpg/sg4_7_cif.got.tgz:13276.got - 2010.03.31 09:31:35.
