data_PCOD8046498
_publ_section_title
;
Structure prediction by ZEFSAII (Michael W. Deem and Ramdas Pophale) SiO2 
 PCOD8046498
Probable space group: P 21
;
_chemical_formula_sum "Si O2"
_cell_formula_units_Z 16
_cell_length_a 17.164655
_cell_length_b 4.936213
_cell_length_c 9.199096
_cell_angle_alpha 90.000000
_cell_angle_beta 127.076770
_cell_angle_gamma 90.000000
_cell_volume 621.847121
_symmetry_space_group_name_H-M "P 21"
_symmetry_group_IT_number 4
_symmetry_cell_setting 'monoclinic'
loop_
_space_group_symop_operation_xyz
x,y,z
-x,1/2+y,-z
loop_
_atom_site_type_symbol
_atom_site_label
_atom_site_fract_x
_atom_site_fract_y
_atom_site_fract_z
Si Si1 0.538923 0.097130 0.123584
Si Si2 0.774738 0.116695 0.696166
Si Si3 0.615284 0.600273 0.848090
Si Si4 0.979692 0.276091 0.384296
Si Si5 0.283647 0.334512 0.790689
Si Si6 0.569946 0.039889 0.574467
Si Si7 0.153440 0.128586 0.400827
Si Si8 0.785170 0.199331 0.028552
O O1 0.502005 0.042490 0.252335
O O2 0.655979 0.041068 0.245216
O O3 0.517353 0.405320 0.055572
O O4 0.655980 0.089087 0.554256
O O5 0.810477 0.379602 0.652013
O O6 0.829441 0.882631 0.677843
O O7 0.817186 0.092312 0.907349
O O8 0.624174 0.880708 0.767847
O O9 0.642511 0.627147 0.049427
O O10 0.687454 0.368911 0.870809
O O11 0.874781 0.368127 0.199910
O O12 0.032351 0.549249 0.501628
O O13 0.040649 0.129156 0.323643
O O14 0.210333 0.151443 0.617553
O O15 0.232875 0.468981 0.873265
O O16 0.523529 0.336512 0.571636
#
# Coordination Sequence:
#
# PCOD8046498 Si02
#       8
#     2   2   2   2   2   2   2   2
#     4  10  22  39  65 103 142 182 248 317 376 450
#     4  12  29  52  73 114 160 211 260 326 408 493
#     4  11  24  46  75 112 148 206 274 318 396 479
#     4  12  27  49  83 122 153 201 268 342 408 480
#     4  11  24  46  77 106 152 204 259 334 390 472
#     4  12  27  49  76 112 160 218 274 330 401 492
#     4  12  28  50  77 117 159 199 266 339 414 465
#     4  12  25  49  82 108 158 211 271 326 405 493
#
# _framework density 25.729799
#
# number of rings (size 3 to 8) (size 9 to 14) (size 15 to 20)
#    0.000    0.500    3.750    3.750    3.500    1.000 
#   11.250    0.000    0.000    0.000    0.000    0.000 
#    0.000    0.000    0.000    0.000    0.000    0.000 
#
# Total GULP energy -198270.322157 kJ/mol
# GULP energy per Si atom -12391.895135 kJ/mol
# Density = 2.567124 g / cm^3
# Si number density = 25.729799 Si / 1000 Ang^3
#
#
#
# Elastic Constant Matrix: (Units=GPa)
#
#
# Indices 1 2 3 4 5 6 
#
# 1 137.4643 31.9178 39.6213 0.0000 -25.5679 0.0000
# 2 31.9178 106.5842 9.5844 0.0000 -27.0828 0.0000
# 3 39.6213 9.5844 87.4045 0.0000 1.6209 0.0000
# 4 0.0000 0.0000 0.0000 38.4375 0.0000 -13.7251
# 5 -25.5679 -27.0828 1.6209 0.0000 46.6290 0.0000
# 6 0.0000 0.0000 0.0000 -13.7251 0.0000 48.8483
#
#
#
# Elastic Compliance Matrix: (Units=1/GPa)
#
#
# Indices 1 2 3 4 5 6 
#
# 1 0.009709 -0.001321 -0.004344 0.000000 0.004708 0.000000
# 2 -0.001321 0.011342 -0.000754 0.000000 0.005890 0.000000
# 3 -0.004344 -0.000754 0.013554 0.000000 -0.003291 0.000000
# 4 0.000000 0.000000 0.000000 0.028918 0.000000 0.008125
# 5 0.004708 0.005890 -0.003291 0.000000 0.027562 0.000000
# 6 0.000000 0.000000 0.000000 0.008125 0.000000 0.022754
#
#
# Mechanical properties :
#
#
# Convention : Reuss Voigt Hill
#
# Bulk Modulus (GPa) = 45.93965 54.85555 50.39760
# Shear Modulus (GPa) = 37.33237 43.47158 40.40198
#
# Velocity S-wave (km/s) = 3.81325 4.11486 3.96693
# Velocity P-wave (km/s) = 6.10584 6.62890 6.37274
#
# Compressibility (1/GPa) = 0.02176769
#
# Stress axis : x y z
#
# Youngs Moduli (GPa) = 102.99951 88.16682 73.78008
#
# Poissons Ratio (x) = 0.11644 0.32047
# Poissons Ratio (y) = 0.13603 0.05565
# Poissons Ratio (z) = 0.44739 0.06650
#
# Static dielectric constant tensor:
#      x y z
#    x 5.133420 0.000000 -0.041630 
#    y 0.000000 4.397270 0.000000 
#    z -0.041630 0.000000 5.060610 
# 
# 
# High freq. dielectric constant tensor:
#      x y z
#    x 2.050030 0.000000 -0.007490 
#    y 0.000000 2.025540 0.000000 
#    z -0.007490 0.000000 2.046490 
# 
# From -- ./inp_files/9407.got.cif
#   From: 2010.03.12/outbox.cif.g09.slc.cpg/sg4_5_cif.got.tgz:9407.got - 2010.03.31 09:31:35.
