data_PCOD8046935
_publ_section_title
;
Structure prediction by ZEFSAII (Michael W. Deem and Ramdas Pophale) SiO2 
 PCOD8046935
Probable space group: P 21
;
_chemical_formula_sum "Si O2"
_cell_formula_units_Z 16
_cell_length_a 14.278887
_cell_length_b 9.338324
_cell_length_c 11.113770
_cell_angle_alpha 90.000000
_cell_angle_beta 149.647127
_cell_angle_gamma 90.000000
_cell_volume 748.849872
_symmetry_space_group_name_H-M "P 21"
_symmetry_group_IT_number 4
_symmetry_cell_setting 'monoclinic'
loop_
_space_group_symop_operation_xyz
x,y,z
-x,1/2+y,-z
loop_
_atom_site_type_symbol
_atom_site_label
_atom_site_fract_x
_atom_site_fract_y
_atom_site_fract_z
Si Si1 0.322824 0.213310 0.309633
Si Si2 0.378554 0.679633 0.981042
Si Si3 0.316528 0.879718 0.332242
Si Si4 0.005677 0.375570 0.843012
Si Si5 0.747582 0.778287 0.494370
Si Si6 0.859137 0.168629 0.047546
Si Si7 0.060424 0.790832 0.496302
Si Si8 0.171609 0.486806 0.599792
O O1 0.492953 0.294096 0.433329
O O2 0.310536 0.274619 0.431397
O O3 0.360643 0.043831 0.346822
O O4 0.130415 0.242990 0.026956
O O5 0.287605 0.652757 0.009924
O O6 0.356583 0.534610 0.877809
O O7 0.266477 0.806134 0.785198
O O8 0.592664 0.711645 0.235451
O O9 0.194855 0.877496 0.317592
O O10 0.198529 0.802097 0.098260
O O11 0.125755 0.518256 0.008032
O O12 0.962034 0.373577 0.653383
O O13 0.775854 0.941736 0.478797
O O14 0.934459 0.692577 0.674393
O O15 0.912870 0.849585 0.427155
O O16 0.026491 0.619982 0.436244
#
# Coordination Sequence:
#
# PCOD8046935 Si02
#       8
#     2   2   2   2   2   2   2   2
#     4  12  28  43  73 102 143 185 236 293 350 426
#     4  10  24  45  68 103 138 182 233 294 346 422
#     4  12  26  46  67 108 139 191 231 291 355 422
#     4  12  24  45  71 103 141 189 235 288 356 420
#     4  12  23  45  72 102 137 187 230 292 356 411
#     4  12  23  44  77  93 146 186 233 295 352 418
#     4  10  23  44  70 103 141 185 233 295 349 427
#     4  10  23  44  72 104 137 185 235 290 358 418
#
# _framework density 21.366098999999998
#
# number of rings (size 3 to 8) (size 9 to 14) (size 15 to 20)
#    0.750    0.000    6.250    0.750    1.750    3.000 
#    2.250    0.000    0.000    0.000    0.000    0.000 
#    0.000    0.000    0.000    0.000    0.000    0.000 
#
# Total GULP energy -198308.802641 kJ/mol
# GULP energy per Si atom -12394.300165 kJ/mol
# Density = 2.131747 g / cm^3
# Si number density = 21.366099 Si / 1000 Ang^3
#
#
#
# Elastic Constant Matrix: (Units=GPa)
#
#
# Indices 1 2 3 4 5 6 
#
# 1 84.6356 46.8574 17.1986 0.0000 -4.7667 0.0000
# 2 46.8574 114.3282 21.3214 0.0000 7.8603 0.0000
# 3 17.1986 21.3214 92.1182 0.0000 9.2732 0.0000
# 4 0.0000 0.0000 0.0000 33.8895 0.0000 -3.4528
# 5 -4.7667 7.8603 9.2732 0.0000 37.2298 0.0000
# 6 0.0000 0.0000 0.0000 -3.4528 0.0000 31.6689
#
#
#
# Elastic Compliance Matrix: (Units=1/GPa)
#
#
# Indices 1 2 3 4 5 6 
#
# 1 0.016000 -0.006474 -0.001880 0.000000 0.003884 0.000000
# 2 -0.006474 0.011837 -0.001227 0.000000 -0.003022 0.000000
# 3 -0.001880 -0.001227 0.011784 0.000000 -0.002917 0.000000
# 4 0.000000 0.000000 0.000000 0.029839 0.000000 0.003253
# 5 0.003884 -0.003022 -0.002917 0.000000 0.028722 0.000000
# 6 0.000000 0.000000 0.000000 0.003253 0.000000 0.031931
#
#
# Mechanical properties :
#
#
# Convention : Reuss Voigt Hill
#
# Bulk Modulus (GPa) = 48.87592 51.31523 50.09557
# Shear Modulus (GPa) = 32.03170 34.27128 33.15149
#
# Velocity S-wave (km/s) = 3.87613 4.00935 3.94330
# Velocity P-wave (km/s) = 6.55421 6.74555 6.65056
#
# Compressibility (1/GPa) = 0.02045997
#
# Stress axis : x y z
#
# Youngs Moduli (GPa) = 62.49828 84.48242 84.85989
#
# Poissons Ratio (x) = 0.54696 0.15952
# Poissons Ratio (y) = 0.40463 0.10410
# Poissons Ratio (z) = 0.11748 0.10363
#
# Static dielectric constant tensor:
#      x y z
#    x 3.811490 0.000000 -0.016940 
#    y 0.000000 3.955960 0.000000 
#    z -0.016940 0.000000 3.879690 
# 
# 
# High freq. dielectric constant tensor:
#      x y z
#    x 1.836930 0.000000 -0.000830 
#    y 0.000000 1.838110 0.000000 
#    z -0.000830 0.000000 1.836770 
# 
# From -- ./inp_files/12670.got.cif
#   From: 2010.03.12/outbox.cif.g09.slc.cpg/sg4_7_cif.got.tgz:12670.got - 2010.03.31 09:31:35.
