data_PCOD8046138
_publ_section_title
;
Structure prediction by ZEFSAII (Michael W. Deem and Ramdas Pophale) SiO2 
 PCOD8046138
Probable space group: P 21
;
_chemical_formula_sum "Si O2"
_cell_formula_units_Z 16
_cell_length_a 5.335979
_cell_length_b 9.250132
_cell_length_c 16.455365
_cell_angle_alpha 90.000000
_cell_angle_beta 60.783849
_cell_angle_gamma 90.000000
_cell_volume 708.886323
_symmetry_space_group_name_H-M "P 21"
_symmetry_group_IT_number 4
_symmetry_cell_setting 'monoclinic'
loop_
_space_group_symop_operation_xyz
x,y,z
-x,1/2+y,-z
loop_
_atom_site_type_symbol
_atom_site_label
_atom_site_fract_x
_atom_site_fract_y
_atom_site_fract_z
Si Si1 0.290792 0.974790 0.313125
Si Si2 0.379730 0.444944 0.575715
Si Si3 0.663036 0.660268 0.843301
Si Si4 0.308475 0.473474 0.129590
Si Si5 0.169534 0.971597 0.052503
Si Si6 0.083081 0.663217 0.037387
Si Si7 0.330276 0.113813 0.611214
Si Si8 0.340245 0.642198 0.277699
O O1 0.451621 0.004510 0.372298
O O2 0.360351 0.815454 0.267755
O O3 0.949059 0.997768 0.374724
O O4 0.413382 0.097404 0.232974
O O5 0.403435 0.272995 0.568499
O O6 0.536969 0.499189 0.470904
O O7 0.876762 0.542201 0.851351
O O8 0.388380 0.666555 0.944390
O O9 0.806195 0.820505 0.815081
O O10 0.463956 0.567279 0.176294
O O11 0.505994 0.426872 0.021511
O O12 0.068566 0.574610 0.124957
O O13 0.977029 0.826831 0.075771
O O14 0.129942 0.094980 0.992219
O O15 0.475584 0.085083 0.675622
O O16 0.989585 0.089032 0.666822
#
# Coordination Sequence:
#
# PCOD8046138 Si02
#       8
#     2   2   2   2   2   2   2   2
#     4  10  22  39  60  89 121 157 198 246 300 360
#     4  10  22  40  62  88 119 154 197 244 303 362
#     4  10  22  38  56  85 117 154 203 249 298 355
#     4  10  22  38  56  85 117 154 203 249 298 355
#     4  10  21  37  58  83 117 157 199 248 300 354
#     4  10  21  37  58  83 117 157 199 248 300 354
#     4  10  22  40  62  88 119 154 197 244 303 362
#     4  10  22  39  60  89 121 157 198 246 300 360
#
# _framework density 22.570616000000001
#
# number of rings (size 3 to 8) (size 9 to 14) (size 15 to 20)
#    0.000    2.000    0.000    2.250    3.500    5.000 
#    0.000    0.000    0.000    0.000    0.000    0.000 
#    0.000    0.000    0.000    0.000    0.000    0.000 
#
# Total GULP energy -198298.911901 kJ/mol
# GULP energy per Si atom -12393.681994 kJ/mol
# Density = 2.251924 g / cm^3
# Si number density = 22.570616 Si / 1000 Ang^3
#
#
#
# Elastic Constant Matrix: (Units=GPa)
#
#
# Indices 1 2 3 4 5 6 
#
# 1 95.5838 1.8147 20.2271 0.0000 17.4009 0.0000
# 2 1.8147 75.0224 15.8470 0.0000 0.9513 0.0000
# 3 20.2271 15.8470 76.9353 0.0000 14.7873 0.0000
# 4 0.0000 0.0000 0.0000 41.4400 0.0000 10.3013
# 5 17.4009 0.9513 14.7873 0.0000 27.3026 0.0000
# 6 0.0000 0.0000 0.0000 10.3013 0.0000 22.2132
#
#
#
# Elastic Compliance Matrix: (Units=1/GPa)
#
#
# Indices 1 2 3 4 5 6 
#
# 1 0.012080 0.000202 -0.001938 0.000000 -0.006656 0.000000
# 2 0.000202 0.013974 -0.003140 0.000000 0.001085 0.000000
# 3 -0.001938 -0.003140 0.015510 0.000000 -0.007056 0.000000
# 4 0.000000 0.000000 0.000000 0.027276 0.000000 -0.012649
# 5 -0.006656 0.001085 -0.007056 0.000000 0.044653 0.000000
# 6 0.000000 0.000000 0.000000 -0.012649 0.000000 0.050884
#
#
# Mechanical properties :
#
#
# Convention : Reuss Voigt Hill
#
# Bulk Modulus (GPa) = 31.43510 35.92436 33.67973
# Shear Modulus (GPa) = 27.06601 32.16801 29.61701
#
# Velocity S-wave (km/s) = 3.46666 3.77930 3.62635
# Velocity P-wave (km/s) = 5.47552 5.91567 5.69984
#
# Compressibility (1/GPa) = 0.03181158
#
# Stress axis : x y z
#
# Youngs Moduli (GPa) = 82.78064 71.56167 64.47283
#
# Poissons Ratio (x) = -0.01443 0.12496
# Poissons Ratio (y) = -0.01669 0.20244
# Poissons Ratio (z) = 0.16044 0.22470
#
# Static dielectric constant tensor:
#      x y z
#    x 4.061790 0.000000 0.146140 
#    y 0.000000 4.392290 0.000000 
#    z 0.146140 0.000000 3.897100 
# 
# 
# High freq. dielectric constant tensor:
#      x y z
#    x 1.885660 0.000000 0.013940 
#    y 0.000000 1.895740 0.000000 
#    z 0.013940 0.000000 1.881030 
# 
# From -- ./inp_files/3409.got.cif
#   From: 2010.03.12/outbox.cif.g09.slc.cpg/sg4_2_cif.got.tgz:3409.got - 2010.03.31 09:31:35.
