data_PCOD8046584
_publ_section_title
;
Structure prediction by ZEFSAII (Michael W. Deem and Ramdas Pophale) SiO2 
 PCOD8046584
Probable space group: P 21
;
_chemical_formula_sum "Si O2"
_cell_formula_units_Z 16
_cell_length_a 5.253377
_cell_length_b 12.083225
_cell_length_c 11.992755
_cell_angle_alpha 90.000000
_cell_angle_beta 85.885665
_cell_angle_gamma 90.000000
_cell_volume 759.311035
_symmetry_space_group_name_H-M "P 21"
_symmetry_group_IT_number 4
_symmetry_cell_setting 'monoclinic'
loop_
_space_group_symop_operation_xyz
x,y,z
-x,1/2+y,-z
loop_
_atom_site_type_symbol
_atom_site_label
_atom_site_fract_x
_atom_site_fract_y
_atom_site_fract_z
Si Si1 0.318256 0.576960 0.956700
Si Si2 0.647264 0.349112 0.435034
Si Si3 0.152509 0.090649 0.166725
Si Si4 0.115435 0.673604 0.179360
Si Si5 0.782711 0.593422 0.382618
Si Si6 0.534341 0.297660 0.675200
Si Si7 0.857597 0.712185 0.603266
Si Si8 0.863316 0.882222 0.157812
O O1 0.598802 0.617789 0.915126
O O2 0.290933 0.444185 0.937130
O O3 0.100553 0.638930 0.888371
O O4 0.275236 0.599272 0.089026
O O5 0.659643 0.472539 0.387047
O O6 0.672533 0.357846 0.568173
O O7 0.378199 0.295277 0.408843
O O8 0.885265 0.280039 0.381160
O O9 0.198873 0.140748 0.286164
O O10 0.112252 0.957603 0.180349
O O11 0.275088 0.771693 0.231066
O O12 0.990537 0.595098 0.276365
O O13 0.916082 0.754430 0.119757
O O14 0.559073 0.678130 0.363468
O O15 0.905268 0.629706 0.497187
O O16 0.308875 0.377679 0.724606
#
# Coordination Sequence:
#
# PCOD8046584 Si02
#       8
#     2   2   2   2   2   2   2   2
#     4  10  24  42  68  96 129 175 227 273 331 389
#     4  11  25  41  64 104 133 180 218 272 350 393
#     4  10  23  45  66 100 126 180 219 278 331 391
#     4  11  22  45  66  98 140 169 233 271 339 401
#     4  10  25  40  67  97 135 181 214 284 334 402
#     4  10  22  41  67 101 134 176 227 273 330 414
#     4  11  24  44  66  97 140 170 228 274 335 403
#     4   9  23  40  68  99 121 181 224 275 324 389
#
# _framework density 21.071733999999999
#
# number of rings (size 3 to 8) (size 9 to 14) (size 15 to 20)
#    0.750    1.000    1.250    1.500    8.750    1.000 
#    4.500    0.000    0.000    0.000    0.000    0.000 
#    0.000    0.000    0.000    0.000    0.000    0.000 
#
# Total GULP energy -198286.808246 kJ/mol
# GULP energy per Si atom -12392.925515 kJ/mol
# Density = 2.102377 g / cm^3
# Si number density = 21.071734 Si / 1000 Ang^3
#
#
#
# Elastic Constant Matrix: (Units=GPa)
#
#
# Indices 1 2 3 4 5 6 
#
# 1 102.0901 21.3823 35.2210 0.0000 -23.0814 0.0000
# 2 21.3823 83.2677 52.8032 0.0000 -21.6409 0.0000
# 3 35.2210 52.8032 131.1778 0.0000 -31.1858 0.0000
# 4 0.0000 0.0000 0.0000 30.5345 0.0000 -1.2728
# 5 -23.0814 -21.6409 -31.1858 0.0000 35.2125 0.0000
# 6 0.0000 0.0000 0.0000 -1.2728 0.0000 21.1915
#
#
#
# Elastic Compliance Matrix: (Units=1/GPa)
#
#
# Indices 1 2 3 4 5 6 
#
# 1 0.011799 -0.000479 -0.001528 0.000000 0.006086 0.000000
# 2 -0.000479 0.016957 -0.005439 0.000000 0.005290 0.000000
# 3 -0.001528 -0.005439 0.011641 0.000000 0.005965 0.000000
# 4 0.000000 0.000000 0.000000 0.032832 0.000000 0.001972
# 5 0.006086 0.005290 0.005965 0.000000 0.040923 0.000000
# 6 0.000000 0.000000 0.000000 0.001972 0.000000 0.047307
#
#
# Mechanical properties :
#
#
# Convention : Reuss Voigt Hill
#
# Bulk Modulus (GPa) = 39.21022 59.48319 49.34670
# Shear Modulus (GPa) = 27.04855 31.19631 29.12243
#
# Velocity S-wave (km/s) = 3.58668 3.85188 3.72164
# Velocity P-wave (km/s) = 5.98337 6.93345 6.47586
#
# Compressibility (1/GPa) = 0.02550355
#
# Stress axis : x y z
#
# Youngs Moduli (GPa) = 84.75401 58.97423 85.90117
#
# Poissons Ratio (x) = 0.02824 0.13128
# Poissons Ratio (y) = 0.04059 0.46725
# Poissons Ratio (z) = 0.12953 0.32078
#
# Static dielectric constant tensor:
#      x y z
#    x 3.814280 0.000000 -0.067270 
#    y 0.000000 3.582320 0.000000 
#    z -0.067270 0.000000 3.717280 
# 
# 
# High freq. dielectric constant tensor:
#      x y z
#    x 1.831410 0.000000 -0.010020 
#    y 0.000000 1.812810 0.000000 
#    z -0.010020 0.000000 1.818190 
# 
# From -- ./inp_files/2898.got.cif
#   From: 2010.03.12/outbox.cif.g09.slc.cpg/sg4_2_cif.got.tgz:2898.got - 2010.03.31 09:31:35.
