data_PCOD8046072
_publ_section_title
;
Structure prediction by ZEFSAII (Michael W. Deem and Ramdas Pophale) SiO2 
 PCOD8046072
Probable space group: P 21
;
_chemical_formula_sum "Si O2"
_cell_formula_units_Z 16
_cell_length_a 6.242042
_cell_length_b 9.791467
_cell_length_c 11.850928
_cell_angle_alpha 90.000000
_cell_angle_beta 93.510155
_cell_angle_gamma 90.000000
_cell_volume 722.955045
_symmetry_space_group_name_H-M "P 21"
_symmetry_group_IT_number 4
_symmetry_cell_setting 'monoclinic'
loop_
_space_group_symop_operation_xyz
x,y,z
-x,1/2+y,-z
loop_
_atom_site_type_symbol
_atom_site_label
_atom_site_fract_x
_atom_site_fract_y
_atom_site_fract_z
Si Si1 0.933722 0.305460 0.101647
Si Si2 0.784430 0.999165 0.764330
Si Si3 0.439568 0.864384 0.053811
Si Si4 0.423382 0.782878 0.722149
Si Si5 0.219908 0.825557 0.487192
Si Si6 0.107118 0.102890 0.594213
Si Si7 0.666192 0.656184 0.907902
Si Si8 0.484154 0.742520 0.283041
O O1 0.779712 0.310819 0.204580
O O2 0.095526 0.434130 0.123908
O O3 0.076180 0.165929 0.100688
O O4 0.802223 0.311042 0.980459
O O5 0.584112 0.909547 0.716617
O O6 0.684925 0.145980 0.788503
O O7 0.947678 0.016770 0.666410
O O8 0.527019 0.850667 0.184417
O O9 0.418841 0.026149 0.026142
O O10 0.602805 0.794171 0.973110
O O11 0.340786 0.751386 0.594578
O O12 0.555474 0.656640 0.780376
O O13 0.374604 0.817279 0.384484
O O14 0.003443 0.736403 0.464210
O O15 0.178810 0.987645 0.505308
O O16 0.306053 0.159689 0.672991
#
# Coordination Sequence:
#
# PCOD8046072 Si02
#       8
#     2   2   2   2   2   2   2   2
#     4  10  22  40  73  96 132 181 232 286 348 420
#     4  10  20  41  71  96 129 185 229 284 349 417
#     4  11  27  44  67 104 141 184 239 290 354 414
#     4  10  21  43  68  99 133 175 237 280 350 417
#     4  11  25  42  70 103 138 193 233 289 352 422
#     4  11  25  43  69 103 140 190 235 288 353 418
#     4  10  26  42  69 102 136 188 228 299 345 421
#     4  11  26  41  67 101 147 182 233 296 347 413
#
# _framework density 22.13139
#
# number of rings (size 3 to 8) (size 9 to 14) (size 15 to 20)
#    0.000    1.500    2.500    0.000   10.500    5.000 
#    0.000    0.000    0.000    0.000    0.000    0.000 
#    0.000    0.000    0.000    0.000    0.000    0.000 
#
# Total GULP energy -198240.479171 kJ/mol
# GULP energy per Si atom -12390.029948 kJ/mol
# Density = 2.208102 g / cm^3
# Si number density = 22.131390 Si / 1000 Ang^3
#
#
#
# Elastic Constant Matrix: (Units=GPa)
#
#
# Indices 1 2 3 4 5 6 
#
# 1 126.0461 41.7102 44.4806 0.0000 3.1135 0.0000
# 2 41.7102 78.9170 27.0755 0.0000 -0.4172 0.0000
# 3 44.4806 27.0755 117.9782 0.0000 15.3303 0.0000
# 4 0.0000 0.0000 0.0000 37.3096 0.0000 -0.7448
# 5 3.1135 -0.4172 15.3303 0.0000 33.5283 0.0000
# 6 0.0000 0.0000 0.0000 -0.7448 0.0000 28.6094
#
#
#
# Elastic Compliance Matrix: (Units=1/GPa)
#
#
# Indices 1 2 3 4 5 6 
#
# 1 0.010461 -0.004515 -0.002949 0.000000 0.000321 0.000000
# 2 -0.004515 0.015797 -0.002130 0.000000 0.001590 0.000000
# 3 -0.002949 -0.002130 0.010679 0.000000 -0.004636 0.000000
# 4 0.000000 0.000000 0.000000 0.026817 0.000000 0.000698
# 5 0.000321 0.001590 -0.004636 0.000000 0.031935 0.000000
# 6 0.000000 0.000000 0.000000 0.000698 0.000000 0.034972
#
#
# Mechanical properties :
#
#
# Convention : Reuss Voigt Hill
#
# Bulk Modulus (GPa) = 56.34268 61.05266 58.69767
# Shear Modulus (GPa) = 32.09966 33.86777 32.98372
#
# Velocity S-wave (km/s) = 3.81256 3.91615 3.86470
# Velocity P-wave (km/s) = 6.70033 6.93503 6.81869
#
# Compressibility (1/GPa) = 0.01774853
#
# Stress axis : x y z
#
# Youngs Moduli (GPa) = 95.59662 63.30314 93.63987
#
# Poissons Ratio (x) = 0.28583 0.27618
# Poissons Ratio (y) = 0.43164 0.19941
# Poissons Ratio (z) = 0.28195 0.13481
#
# Static dielectric constant tensor:
#      x y z
#    x 4.252970 0.000000 0.243990 
#    y 0.000000 3.882780 0.000000 
#    z 0.243990 0.000000 3.919630 
# 
# 
# High freq. dielectric constant tensor:
#      x y z
#    x 1.886090 0.000000 0.010000 
#    y 0.000000 1.860360 0.000000 
#    z 0.010000 0.000000 1.864990 
# 
# From -- ./inp_files/3661.got.cif
#   From: 2010.03.12/outbox.cif.g09.slc.cpg/sg4_2_cif.got.tgz:3661.got - 2010.03.31 09:31:35.
