data_PCOD8046800
_publ_section_title
;
Structure prediction by ZEFSAII (Michael W. Deem and Ramdas Pophale) SiO2 
 PCOD8046800
Probable space group: P 21
;
_chemical_formula_sum "Si O2"
_cell_formula_units_Z 14
_cell_length_a 8.667123
_cell_length_b 8.510257
_cell_length_c 8.844943
_cell_angle_alpha 90.000000
_cell_angle_beta 96.615047
_cell_angle_gamma 90.000000
_cell_volume 648.054770
_symmetry_space_group_name_H-M "P 21"
_symmetry_group_IT_number 4
_symmetry_cell_setting 'monoclinic'
loop_
_space_group_symop_operation_xyz
x,y,z
-x,1/2+y,-z
loop_
_atom_site_type_symbol
_atom_site_label
_atom_site_fract_x
_atom_site_fract_y
_atom_site_fract_z
Si Si1 0.025377 0.666680 0.834743
Si Si2 0.554310 0.806582 0.829110
Si Si3 0.831017 0.478889 0.052609
Si Si4 0.599751 0.350402 0.782211
Si Si5 0.381581 0.080122 0.713262
Si Si6 0.643278 0.035767 0.091983
Si Si7 0.251291 0.100439 0.378737
O O1 0.054918 0.853755 0.853634
O O2 0.184071 0.572486 0.837893
O O3 0.932121 0.628024 0.669228
O O4 0.928168 0.602558 0.966249
O O5 0.463738 0.692474 0.936490
O O6 0.670349 0.713341 0.736202
O O7 0.429955 0.896459 0.707987
O O8 0.644939 0.936282 0.938002
O O9 0.737434 0.590753 0.158859
O O10 0.709473 0.374550 0.941482
O O11 0.547031 0.171328 0.750371
O O12 0.434696 0.439064 0.780385
O O13 0.693626 0.421555 0.649581
O O14 0.293295 0.141499 0.554646
#
# Coordination Sequence:
#
# PCOD8046800 Si02
#       7
#     2   2   2   2   2   2   2
#     4  11  23  41  58  95 127 163 211 261 325 380
#     4  11  21  38  69  93 124 162 222 271 311 373
#     4  11  24  39  68  90 124 165 217 272 311 372
#     4  10  23  40  66  98 116 167 220 268 314 364
#     4  12  22  42  66  94 128 168 216 262 320 388
#     4  11  20  38  66  95 122 162 216 277 307 366
#     4  10  25  42  61  93 135 169 202 259 332 391
#
# _framework density 21.603110000000001
#
# number of rings (size 3 to 8) (size 9 to 14) (size 15 to 20)
#    0.000    1.143    2.857    3.429    6.000    0.000 
#    2.571    0.000    3.143    0.000    0.000    0.000 
#    0.000    0.000    0.000    0.000    0.000    0.000 
#
# Total GULP energy -173531.151787 kJ/mol
# GULP energy per Si atom -12395.082270 kJ/mol
# Density = 2.155394 g / cm^3
# Si number density = 21.603110 Si / 1000 Ang^3
#
#
#
# Elastic Constant Matrix: (Units=GPa)
#
#
# Indices 1 2 3 4 5 6 
#
# 1 109.1329 28.4359 38.1731 0.0000 15.8356 0.0000
# 2 28.4359 92.3910 26.3496 0.0000 8.5253 0.0000
# 3 38.1731 26.3496 107.6466 0.0000 22.3371 0.0000
# 4 0.0000 0.0000 0.0000 23.9795 0.0000 1.4601
# 5 15.8356 8.5253 22.3371 0.0000 23.9298 0.0000
# 6 0.0000 0.0000 0.0000 1.4601 0.0000 41.7260
#
#
#
# Elastic Compliance Matrix: (Units=1/GPa)
#
#
# Indices 1 2 3 4 5 6 
#
# 1 0.011283 -0.002355 -0.002542 0.000000 -0.004255 0.000000
# 2 -0.002355 0.012193 -0.001949 0.000000 -0.000966 0.000000
# 3 -0.002542 -0.001949 0.012619 0.000000 -0.009403 0.000000
# 4 0.000000 0.000000 0.000000 0.041791 0.000000 -0.001462
# 5 -0.004255 -0.000966 -0.009403 0.000000 0.053726 0.000000
# 6 0.000000 0.000000 0.000000 -0.001462 0.000000 0.024017
#
#
# Mechanical properties :
#
#
# Convention : Reuss Voigt Hill
#
# Bulk Modulus (GPa) = 44.63489 55.00975 49.82232
# Shear Modulus (GPa) = 28.28207 32.34119 30.31163
#
# Velocity S-wave (km/s) = 3.62217 3.87339 3.74988
# Velocity P-wave (km/s) = 6.18058 6.74709 6.47004
#
# Compressibility (1/GPa) = 0.02240400
#
# Stress axis : x y z
#
# Youngs Moduli (GPa) = 88.62634 82.01119 79.24405
#
# Poissons Ratio (x) = 0.19315 0.20142
# Poissons Ratio (y) = 0.20873 0.15445
# Poissons Ratio (z) = 0.22527 0.15984
#
# Static dielectric constant tensor:
#      x y z
#    x 4.090700 0.000000 0.099340 
#    y 0.000000 4.186610 0.000000 
#    z 0.099340 0.000000 3.631290 
# 
# 
# High freq. dielectric constant tensor:
#      x y z
#    x 1.847800 0.000000 0.005580 
#    y 0.000000 1.859280 0.000000 
#    z 0.005580 0.000000 1.821510 
# 
# From -- ./inp_files/5718.got.cif
#   From: 2010.03.12/outbox.cif.g09.slc.cpg/sg4_3_cif.got.tgz:5718.got - 2010.03.31 09:31:35.
