data_PCOD8046987
_publ_section_title
;
Structure prediction by ZEFSAII (Michael W. Deem and Ramdas Pophale) SiO2 
 PCOD8046987
Probable space group: P 21
;
_chemical_formula_sum "Si O2"
_cell_formula_units_Z 16
_cell_length_a 11.743993
_cell_length_b 9.642455
_cell_length_c 17.019771
_cell_angle_alpha 90.000000
_cell_angle_beta 159.390943
_cell_angle_gamma 90.000000
_cell_volume 678.401754
_symmetry_space_group_name_H-M "P 21"
_symmetry_group_IT_number 4
_symmetry_cell_setting 'monoclinic'
loop_
_space_group_symop_operation_xyz
x,y,z
-x,1/2+y,-z
loop_
_atom_site_type_symbol
_atom_site_label
_atom_site_fract_x
_atom_site_fract_y
_atom_site_fract_z
Si Si1 0.546145 0.658960 0.176814
Si Si2 0.625517 0.778151 0.730178
Si Si3 0.103099 0.419813 0.362284
Si Si4 0.260097 0.606226 0.600654
Si Si5 0.914455 0.023302 0.005908
Si Si6 0.437640 0.470870 0.862980
Si Si7 0.614625 0.428674 0.562807
Si Si8 0.997563 0.105959 0.296979
O O1 0.587021 0.823554 0.196069
O O2 0.893575 0.591919 0.391486
O O3 0.400758 0.605749 0.165738
O O4 0.310396 0.604679 0.957914
O O5 0.363306 0.754365 0.630589
O O6 0.440580 0.790313 0.526386
O O7 0.850480 0.642797 0.873841
O O8 0.819899 0.919815 0.874069
O O9 0.306508 0.494746 0.560993
O O10 0.281508 0.446188 0.394721
O O11 0.087229 0.260943 0.380254
O O12 0.743484 0.481190 0.118674
O O13 0.483853 0.578005 0.820782
O O14 0.084517 0.925758 0.182386
O O15 0.109857 0.510313 0.698860
O O16 0.686898 0.547770 0.544453
#
# Coordination Sequence:
#
# PCOD8046987 Si02
#       8
#     2   2   2   2   2   2   2   2
#     4  10  24  46  69 103 146 187 245 302 369 439
#     4  12  28  48  75 114 147 200 250 303 377 445
#     4  11  25  45  71 105 141 189 249 301 370 442
#     4  12  27  44  70 108 142 191 242 298 373 443
#     4  11  28  49  75 110 154 193 251 312 365 445
#     4  11  25  45  71 101 146 187 243 310 365 437
#     4  11  24  47  76 103 148 194 246 301 372 438
#     4  10  23  46  71 104 140 197 240 311 367 435
#
# _framework density 23.584845000000001
#
# number of rings (size 3 to 8) (size 9 to 14) (size 15 to 20)
#    0.000    1.000    2.500    3.000    8.750    3.000 
#    2.250    0.000    0.000    0.000    0.000    0.000 
#    0.000    0.000    0.000    0.000    0.000    0.000 
#
# Total GULP energy -198338.038776 kJ/mol
# GULP energy per Si atom -12396.127424 kJ/mol
# Density = 2.353116 g / cm^3
# Si number density = 23.584845 Si / 1000 Ang^3
#
#
#
# Elastic Constant Matrix: (Units=GPa)
#
#
# Indices 1 2 3 4 5 6 
#
# 1 107.6292 42.2929 24.8392 0.0000 18.5122 0.0000
# 2 42.2929 100.0446 49.9471 0.0000 8.7458 0.0000
# 3 24.8392 49.9471 58.4835 0.0000 13.4806 0.0000
# 4 0.0000 0.0000 0.0000 39.4858 0.0000 -0.0770
# 5 18.5122 8.7458 13.4806 0.0000 39.8181 0.0000
# 6 0.0000 0.0000 0.0000 -0.0770 0.0000 49.1549
#
#
#
# Elastic Compliance Matrix: (Units=1/GPa)
#
#
# Indices 1 2 3 4 5 6 
#
# 1 0.011887 -0.004582 -0.000101 0.000000 -0.004486 0.000000
# 2 -0.004582 0.019255 -0.015201 0.000000 0.003048 0.000000
# 3 -0.000101 -0.015201 0.031827 0.000000 -0.007390 0.000000
# 4 0.000000 0.000000 0.000000 0.025326 0.000000 0.000040
# 5 -0.004486 0.003048 -0.007390 0.000000 0.029032 0.000000
# 6 0.000000 0.000000 0.000000 0.000040 0.000000 0.020344
#
#
# Mechanical properties :
#
#
# Convention : Reuss Voigt Hill
#
# Bulk Modulus (GPa) = 43.10266 55.59065 49.34666
# Shear Modulus (GPa) = 27.00170 35.63028 31.31599
#
# Velocity S-wave (km/s) = 3.38727 3.89102 3.64785
# Velocity P-wave (km/s) = 5.79771 6.61879 6.22181
#
# Compressibility (1/GPa) = 0.02320042
#
# Stress axis : x y z
#
# Youngs Moduli (GPa) = 84.12794 51.93344 31.41954
#
# Poissons Ratio (x) = 0.23798 0.00317
# Poissons Ratio (y) = 0.38551 0.47761
# Poissons Ratio (z) = 0.00850 0.78944
#
# Static dielectric constant tensor:
#      x y z
#    x 4.452370 0.000000 0.055070 
#    y 0.000000 4.185950 0.000000 
#    z 0.055070 0.000000 4.220130 
# 
# 
# High freq. dielectric constant tensor:
#      x y z
#    x 1.946720 0.000000 0.004940 
#    y 0.000000 1.923920 0.000000 
#    z 0.004940 0.000000 1.933520 
# 
# From -- ./inp_files/15181.got.cif
#   From: 2010.03.12/outbox.cif.g09.slc.cpg/sg4_8_cif.got.tgz:15181.got - 2010.03.31 09:31:35.
