data_PCOD8046644
_publ_section_title
;
Structure prediction by ZEFSAII (Michael W. Deem and Ramdas Pophale) SiO2 
 PCOD8046644
Probable space group: P 21
;
_chemical_formula_sum "Si O2"
_cell_formula_units_Z 16
_cell_length_a 5.340583
_cell_length_b 21.164157
_cell_length_c 7.008926
_cell_angle_alpha 90.000000
_cell_angle_beta 108.744502
_cell_angle_gamma 90.000000
_cell_volume 750.193329
_symmetry_space_group_name_H-M "P 21"
_symmetry_group_IT_number 4
_symmetry_cell_setting 'monoclinic'
loop_
_space_group_symop_operation_xyz
x,y,z
-x,1/2+y,-z
loop_
_atom_site_type_symbol
_atom_site_label
_atom_site_fract_x
_atom_site_fract_y
_atom_site_fract_z
Si Si1 0.249519 0.349630 0.858324
Si Si2 0.782584 0.406951 0.558914
Si Si3 0.221398 0.014590 0.186927
Si Si4 0.524423 0.779745 0.419838
Si Si5 0.243834 0.243357 0.125100
Si Si6 0.346599 0.555374 0.961852
Si Si7 0.659780 0.440026 0.117104
Si Si8 0.317620 0.692373 0.061122
O O1 0.261538 0.301009 0.683831
O O2 0.061228 0.405531 0.738991
O O3 0.144287 0.311212 0.017509
O O4 0.530863 0.379296 0.982482
O O5 0.650777 0.469920 0.616527
O O6 0.636757 0.341474 0.558578
O O7 0.815112 0.417454 0.341611
O O8 0.460096 0.061029 0.177663
O O9 0.957523 0.051282 0.185846
O O10 0.136135 0.970304 0.983883
O O11 0.662460 0.749534 0.635403
O O12 0.347660 0.725960 0.274327
O O13 0.488322 0.220620 0.053395
O O14 0.990590 0.197792 0.071872
O O15 0.434251 0.493594 0.106414
O O16 0.380901 0.618040 0.098175
#
# Coordination Sequence:
#
# PCOD8046644 Si02
#       8
#     2   2   2   2   2   2   2   2
#     4  11  22  39  63  98 134 159 211 269 329 386
#     4  12  21  39  67  96 132 168 209 272 331 392
#     4  10  22  43  65  96 125 170 214 271 323 382
#     4  11  24  39  67  98 131 170 216 264 332 389
#     4  11  25  42  68  96 128 172 215 264 327 384
#     4  10  22  47  64  88 135 170 220 271 317 376
#     4  10  23  39  63  98 128 170 209 270 326 383
#     4  11  25  46  65  92 133 175 218 275 309 388
#
# _framework density 21.327836999999999
#
# number of rings (size 3 to 8) (size 9 to 14) (size 15 to 20)
#    0.750    0.500    5.000    0.750    1.750    2.000 
#    4.500    0.000    0.000    0.000    0.000    0.000 
#    0.000    0.000    0.000    0.000    0.000    0.000 
#
# Total GULP energy -198250.437353 kJ/mol
# GULP energy per Si atom -12390.652335 kJ/mol
# Density = 2.127929 g / cm^3
# Si number density = 21.327837 Si / 1000 Ang^3
#
#
#
# Elastic Constant Matrix: (Units=GPa)
#
#
# Indices 1 2 3 4 5 6 
#
# 1 101.2781 6.0072 28.4259 0.0000 6.2266 0.0000
# 2 6.0072 69.3625 27.2389 0.0000 3.3141 0.0000
# 3 28.4259 27.2389 138.7617 0.0000 -2.5037 0.0000
# 4 0.0000 0.0000 0.0000 17.6219 0.0000 -0.1526
# 5 6.2266 3.3141 -2.5037 0.0000 23.5338 0.0000
# 6 0.0000 0.0000 0.0000 -0.1526 0.0000 25.7176
#
#
#
# Elastic Compliance Matrix: (Units=1/GPa)
#
#
# Indices 1 2 3 4 5 6 
#
# 1 0.010694 0.000112 -0.002268 0.000000 -0.003086 0.000000
# 2 0.000112 0.015774 -0.003166 0.000000 -0.002588 0.000000
# 3 -0.002268 -0.003166 0.008328 0.000000 0.001932 0.000000
# 4 0.000000 0.000000 0.000000 0.056750 0.000000 0.000337
# 5 -0.003086 -0.002588 0.001932 0.000000 0.043879 0.000000
# 6 0.000000 0.000000 0.000000 0.000337 0.000000 0.038886
#
#
# Mechanical properties :
#
#
# Convention : Reuss Voigt Hill
#
# Bulk Modulus (GPa) = 41.40652 48.08293 44.74473
# Shear Modulus (GPa) = 25.90602 29.89004 27.89803
#
# Velocity S-wave (km/s) = 3.48897 3.74766 3.62063
# Velocity P-wave (km/s) = 5.97386 6.42809 6.20513
#
# Compressibility (1/GPa) = 0.02415079
#
# Stress axis : x y z
#
# Youngs Moduli (GPa) = 93.51431 63.39427 120.08198
#
# Poissons Ratio (x) = -0.00711 0.27238
# Poissons Ratio (y) = -0.01048 0.38020
# Poissons Ratio (z) = 0.21212 0.20072
#
# Static dielectric constant tensor:
#      x y z
#    x 3.714750 0.000000 -0.064270 
#    y 0.000000 3.846540 0.000000 
#    z -0.064270 0.000000 3.683680 
# 
# 
# High freq. dielectric constant tensor:
#      x y z
#    x 1.830350 0.000000 -0.004450 
#    y 0.000000 1.836210 0.000000 
#    z -0.004450 0.000000 1.819150 
# 
# From -- ./inp_files/739.got.cif
#   From: 2010.03.12/outbox.cif.g09.slc.cpg/sg4_1_cif.got.tgz:739.got - 2010.03.31 09:31:35.
