data_PCOD8046330
_publ_section_title
;
Structure prediction by ZEFSAII (Michael W. Deem and Ramdas Pophale) SiO2 
 PCOD8046330
Probable space group: P 21
;
_chemical_formula_sum "Si O2"
_cell_formula_units_Z 16
_cell_length_a 15.319157
_cell_length_b 10.799853
_cell_length_c 5.029827
_cell_angle_alpha 90.000000
_cell_angle_beta 52.436430
_cell_angle_gamma 90.000000
_cell_volume 659.632812
_symmetry_space_group_name_H-M "P 21"
_symmetry_group_IT_number 4
_symmetry_cell_setting 'monoclinic'
loop_
_space_group_symop_operation_xyz
x,y,z
-x,1/2+y,-z
loop_
_atom_site_type_symbol
_atom_site_label
_atom_site_fract_x
_atom_site_fract_y
_atom_site_fract_z
Si Si1 0.552195 0.040500 0.435416
Si Si2 0.682498 0.101593 0.702494
Si Si3 0.894440 0.954542 0.379140
Si Si4 0.901690 0.558544 0.299074
Si Si5 0.011282 0.755054 0.417994
Si Si6 0.398332 0.271949 0.811049
Si Si7 0.249472 0.260612 0.594394
Si Si8 0.850268 0.291699 0.359697
O O1 0.643964 0.038922 0.498216
O O2 0.457122 0.136441 0.705402
O O3 0.525891 0.894714 0.408670
O O4 0.588143 0.105638 0.095604
O O5 0.725404 0.241084 0.573561
O O6 0.785609 0.031879 0.646008
O O7 0.856624 0.850176 0.235504
O O8 0.937369 0.881294 0.563371
O O9 0.988730 0.039126 0.078161
O O10 0.801606 0.624157 0.331275
O O11 0.847358 0.429204 0.483957
O O12 0.935062 0.636318 0.498299
O O13 0.071258 0.718465 0.578448
O O14 0.100321 0.780381 0.023162
O O15 0.297169 0.269755 0.798915
O O16 0.345921 0.291916 0.200312
#
# Coordination Sequence:
#
# PCOD8046330 Si02
#       8
#     2   2   2   2   2   2   2   2
#     4  12  27  47  76 100 135 179 242 301 361 417
#     4  12  24  43  69 103 133 181 225 291 354 417
#     4  10  21  41  67  97 140 174 234 261 337 419
#     4  10  24  41  65 102 142 185 226 282 332 420
#     4  10  23  37  59  92 130 188 216 277 319 407
#     4  12  26  50  73 106 134 185 238 302 361 419
#     4  11  25  45  73 100 140 187 230 282 355 422
#     4  11  24  38  60  94 138 175 231 276 339 399
#
# _framework density 24.255915999999999
#
# number of rings (size 3 to 8) (size 9 to 14) (size 15 to 20)
#    0.000    1.000    3.750    1.500    1.750   11.000 
#    0.000    0.000    0.000    0.000    0.000    0.000 
#    0.000    0.000    0.000    0.000    0.000    0.000 
#
# Total GULP energy -198255.850808 kJ/mol
# GULP energy per Si atom -12390.990675 kJ/mol
# Density = 2.420071 g / cm^3
# Si number density = 24.255916 Si / 1000 Ang^3
#
#
#
# Elastic Constant Matrix: (Units=GPa)
#
#
# Indices 1 2 3 4 5 6 
#
# 1 63.7367 14.7459 14.8258 0.0000 4.4731 0.0000
# 2 14.7459 126.0053 21.0523 0.0000 -9.0468 0.0000
# 3 14.8258 21.0523 68.4356 0.0000 5.9275 0.0000
# 4 0.0000 0.0000 0.0000 40.6448 0.0000 -16.6040
# 5 4.4731 -9.0468 5.9275 0.0000 26.2197 0.0000
# 6 0.0000 0.0000 0.0000 -16.6040 0.0000 40.2283
#
#
#
# Elastic Compliance Matrix: (Units=1/GPa)
#
#
# Indices 1 2 3 4 5 6 
#
# 1 0.016957 -0.001702 -0.002906 0.000000 -0.002823 0.000000
# 2 -0.001702 0.008872 -0.002704 0.000000 0.003963 0.000000
# 3 -0.002906 -0.002704 0.016433 0.000000 -0.004152 0.000000
# 4 0.000000 0.000000 0.000000 0.029593 0.000000 0.012214
# 5 -0.002823 0.003963 -0.004152 0.000000 0.040927 0.000000
# 6 0.000000 0.000000 0.000000 0.012214 0.000000 0.029900
#
#
# Mechanical properties :
#
#
# Convention : Reuss Voigt Hill
#
# Bulk Modulus (GPa) = 36.17943 39.93618 38.05781
# Shear Modulus (GPa) = 30.02705 35.25547 32.64126
#
# Velocity S-wave (km/s) = 3.52224 3.81659 3.67236
# Velocity P-wave (km/s) = 5.61156 5.99350 5.80567
#
# Compressibility (1/GPa) = 0.02764001
#
# Stress axis : x y z
#
# Youngs Moduli (GPa) = 58.97188 112.72017 60.85282
#
# Poissons Ratio (x) = 0.19181 0.17681
# Poissons Ratio (y) = 0.10035 0.16452
# Poissons Ratio (z) = 0.17135 0.30476
#
# Static dielectric constant tensor:
#      x y z
#    x 4.284910 0.000000 -0.033210 
#    y 0.000000 5.005120 0.000000 
#    z -0.033210 0.000000 3.989940 
# 
# 
# High freq. dielectric constant tensor:
#      x y z
#    x 1.953400 0.000000 0.011930 
#    y 0.000000 1.989550 0.000000 
#    z 0.011930 0.000000 1.941380 
# 
# From -- ./inp_files/3001.got.cif
#   From: 2010.03.12/outbox.cif.g09.slc.cpg/sg4_2_cif.got.tgz:3001.got - 2010.03.31 09:31:35.
