data_PCOD8046307
_publ_section_title
;
Structure prediction by ZEFSAII (Michael W. Deem and Ramdas Pophale) SiO2 
 PCOD8046307
Probable space group: P 21
;
_chemical_formula_sum "Si O2"
_cell_formula_units_Z 14
_cell_length_a 18.356512
_cell_length_b 7.804937
_cell_length_c 12.512054
_cell_angle_alpha 90.000000
_cell_angle_beta 160.037737
_cell_angle_gamma 90.000000
_cell_volume 612.002449
_symmetry_space_group_name_H-M "P 21"
_symmetry_group_IT_number 4
_symmetry_cell_setting 'monoclinic'
loop_
_space_group_symop_operation_xyz
x,y,z
-x,1/2+y,-z
loop_
_atom_site_type_symbol
_atom_site_label
_atom_site_fract_x
_atom_site_fract_y
_atom_site_fract_z
Si Si1 0.284394 0.180700 0.605747
Si Si2 0.500463 0.859845 0.364953
Si Si3 0.983885 0.016321 0.345766
Si Si4 0.140616 0.490979 0.273833
Si Si5 0.774116 0.371066 0.631093
Si Si6 0.537323 0.977573 0.645155
Si Si7 0.256707 0.748394 0.832682
O O1 0.166275 0.149582 0.555778
O O2 0.214504 0.369330 0.471905
O O3 0.205159 0.020153 0.426829
O O4 0.542115 0.181051 0.960553
O O5 0.560285 0.660806 0.457320
O O6 0.708485 0.965988 0.620811
O O7 0.430060 0.928121 0.383738
O O8 0.324905 0.871950 0.027209
O O9 0.871557 0.087924 0.297220
O O10 0.101730 0.841831 0.537051
O O11 0.796677 0.980157 0.999761
O O12 0.151672 0.692267 0.320477
O O13 0.909208 0.428484 0.920625
O O14 0.539755 0.352715 0.363850
#
# Coordination Sequence:
#
# PCOD8046307 Si02
#       7
#     2   2   2   2   2   2   2
#     4  11  24  48  69 105 143 186 246 287 354 425
#     4  10  21  41  62 105 140 178 236 285 356 409
#     4  11  25  47  74  98 147 184 235 295 356 418
#     4  11  22  38  67 103 144 191 226 294 352 419
#     4  12  21  40  69 103 152 181 235 292 354 422
#     4  11  22  39  71 105 143 183 233 295 347 424
#     4  10  25  49  68 103 143 185 237 296 347 429
#
# _framework density 22.875724999999999
#
# number of rings (size 3 to 8) (size 9 to 14) (size 15 to 20)
#    0.000    1.143    5.714    1.714    4.000    4.571 
#    7.714    0.000    0.000    0.000    0.000    0.000 
#    0.000    0.000    0.000    0.000    0.000    0.000 
#
# Total GULP energy -173517.125856 kJ/mol
# GULP energy per Si atom -12394.080418 kJ/mol
# Density = 2.282366 g / cm^3
# Si number density = 22.875725 Si / 1000 Ang^3
#
#
#
# Elastic Constant Matrix: (Units=GPa)
#
#
# Indices 1 2 3 4 5 6 
#
# 1 41.9036 5.6842 12.7865 0.0000 16.1529 0.0000
# 2 5.6842 104.2254 25.1080 0.0000 5.4199 0.0000
# 3 12.7865 25.1080 66.0736 0.0000 21.0763 0.0000
# 4 0.0000 0.0000 0.0000 34.9817 0.0000 1.0361
# 5 16.1529 5.4199 21.0763 0.0000 33.3448 0.0000
# 6 0.0000 0.0000 0.0000 1.0361 0.0000 34.0270
#
#
#
# Elastic Compliance Matrix: (Units=1/GPa)
#
#
# Indices 1 2 3 4 5 6 
#
# 1 0.029489 -0.000624 -0.001184 0.000000 -0.013435 0.000000
# 2 -0.000624 0.010603 -0.004328 0.000000 0.001314 0.000000
# 3 -0.001184 -0.004328 0.020793 0.000000 -0.011866 0.000000
# 4 0.000000 0.000000 0.000000 0.028612 0.000000 -0.000871
# 5 -0.013435 0.001314 -0.011866 0.000000 0.043785 0.000000
# 6 0.000000 0.000000 0.000000 -0.000871 0.000000 0.029415
#
#
# Mechanical properties :
#
#
# Convention : Reuss Voigt Hill
#
# Bulk Modulus (GPa) = 20.57026 33.26221 26.91624
# Shear Modulus (GPa) = 26.15432 31.71229 28.93331
#
# Velocity S-wave (km/s) = 3.38497 3.72733 3.56027
# Velocity P-wave (km/s) = 4.92840 5.75290 5.35654
#
# Compressibility (1/GPa) = 0.04861387
#
# Stress axis : x y z
#
# Youngs Moduli (GPa) = 33.91062 94.31475 48.09268
#
# Poissons Ratio (x) = 0.05889 0.05693
# Poissons Ratio (y) = 0.02117 0.20812
# Poissons Ratio (z) = 0.04014 0.40815
#
# Static dielectric constant tensor:
#      x y z
#    x 4.096260 0.000000 0.193150 
#    y 0.000000 4.002330 0.000000 
#    z 0.193150 0.000000 4.132630 
# 
# 
# High freq. dielectric constant tensor:
#      x y z
#    x 1.897420 0.000000 0.021260 
#    y 0.000000 1.896490 0.000000 
#    z 0.021260 0.000000 1.894310 
# 
# From -- ./inp_files/12890.got.cif
#   From: 2010.03.12/outbox.cif.g09.slc.cpg/sg4_7_cif.got.tgz:12890.got - 2010.03.31 09:31:35.
