data_PCOD8046499
_publ_section_title
;
Structure prediction by ZEFSAII (Michael W. Deem and Ramdas Pophale) SiO2 
 PCOD8046499
Probable space group: P 21
;
_chemical_formula_sum "Si O2"
_cell_formula_units_Z 14
_cell_length_a 5.554554
_cell_length_b 8.285655
_cell_length_c 14.703796
_cell_angle_alpha 90.000000
_cell_angle_beta 73.425899
_cell_angle_gamma 90.000000
_cell_volume 648.598143
_symmetry_space_group_name_H-M "P 21"
_symmetry_group_IT_number 4
_symmetry_cell_setting 'monoclinic'
loop_
_space_group_symop_operation_xyz
x,y,z
-x,1/2+y,-z
loop_
_atom_site_type_symbol
_atom_site_label
_atom_site_fract_x
_atom_site_fract_y
_atom_site_fract_z
Si Si1 0.236898 0.936000 0.806644
Si Si2 0.854410 0.806854 0.979583
Si Si3 0.511886 0.050883 0.937149
Si Si4 0.604853 0.448532 0.570790
Si Si5 0.044817 0.452954 0.663416
Si Si6 0.326081 0.760084 0.615024
Si Si7 0.049045 0.763994 0.151648
O O1 0.354158 0.865587 0.702600
O O2 0.017088 0.822670 0.870361
O O3 0.453553 0.932807 0.859296
O O4 0.142960 0.119456 0.802518
O O5 0.649766 0.950669 0.000545
O O6 0.738199 0.627742 0.992109
O O7 0.005898 0.836387 0.055983
O O8 0.669841 0.197870 0.878295
O O9 0.818757 0.395589 0.620835
O O10 0.571000 0.644096 0.575415
O O11 0.705820 0.385228 0.463663
O O12 0.323387 0.372486 0.616244
O O13 0.968291 0.406707 0.773608
O O14 0.077435 0.646957 0.649511
#
# Coordination Sequence:
#
# PCOD8046499 Si02
#       7
#     2   2   2   2   2   2   2
#     4  10  23  43  62 100 128 173 220 271 329 399
#     4  10  22  41  61  97 132 174 219 268 332 392
#     4  10  22  39  65  90 134 179 214 272 326 393
#     4  10  26  46  68  99 131 173 220 279 335 397
#     4  10  26  43  69 101 129 176 219 276 332 401
#     4  10  26  42  70  96 135 169 222 276 338 396
#     4  10  23  40  65  93 135 174 220 270 328 394
#
# _framework density 21.585014999999999
#
# number of rings (size 3 to 8) (size 9 to 14) (size 15 to 20)
#    0.857    1.143    0.000    0.857    8.000    8.000 
#    0.000    0.000    0.000    0.000    0.000    0.000 
#    0.000    0.000    0.000    0.000    0.000    0.000 
#
# Total GULP energy -173485.635680 kJ/mol
# GULP energy per Si atom -12391.831120 kJ/mol
# Density = 2.153589 g / cm^3
# Si number density = 21.585015 Si / 1000 Ang^3
#
#
#
# Elastic Constant Matrix: (Units=GPa)
#
#
# Indices 1 2 3 4 5 6 
#
# 1 108.6241 16.5002 21.5879 0.0000 17.7346 0.0000
# 2 16.5002 70.7349 50.1275 0.0000 0.2024 0.0000
# 3 21.5879 50.1275 114.3064 0.0000 12.9675 0.0000
# 4 0.0000 0.0000 0.0000 52.6013 0.0000 -2.1583
# 5 17.7346 0.2024 12.9675 0.0000 16.4760 0.0000
# 6 0.0000 0.0000 0.0000 -2.1583 0.0000 29.5146
#
#
#
# Elastic Compliance Matrix: (Units=1/GPa)
#
#
# Indices 1 2 3 4 5 6 
#
# 1 0.011687 -0.003155 0.000658 0.000000 -0.013058 0.000000
# 2 -0.003155 0.022243 -0.010445 0.000000 0.011344 0.000000
# 3 0.000658 -0.010445 0.014572 0.000000 -0.012049 0.000000
# 4 0.000000 0.000000 0.000000 0.019068 0.000000 0.001394
# 5 -0.013058 0.011344 -0.012049 0.000000 0.084093 0.000000
# 6 0.000000 0.000000 0.000000 0.001394 0.000000 0.033983
#
#
# Mechanical properties :
#
#
# Convention : Reuss Voigt Hill
#
# Bulk Modulus (GPa) = 44.21595 52.23294 48.22444
# Shear Modulus (GPa) = 22.82373 33.41506 28.11939
#
# Velocity S-wave (km/s) = 3.25528 3.93882 3.61325
# Velocity P-wave (km/s) = 5.88712 6.70350 6.30853
#
# Compressibility (1/GPa) = 0.02261627
#
# Stress axis : x y z
#
# Youngs Moduli (GPa) = 85.56880 44.95774 68.62594
#
# Poissons Ratio (x) = 0.14184 -0.04514
# Poissons Ratio (y) = 0.26996 0.71683
# Poissons Ratio (z) = -0.05629 0.46960
#
# Static dielectric constant tensor:
#      x y z
#    x 3.980270 0.000000 0.044550 
#    y 0.000000 3.698560 0.000000 
#    z 0.044550 0.000000 3.627770 
# 
# 
# High freq. dielectric constant tensor:
#      x y z
#    x 1.849520 0.000000 0.004930 
#    y 0.000000 1.838740 0.000000 
#    z 0.004930 0.000000 1.836940 
# 
# From -- ./inp_files/13212.got.cif
#   From: 2010.03.12/outbox.cif.g09.slc.cpg/sg4_7_cif.got.tgz:13212.got - 2010.03.31 09:31:35.
