data_PCOD8046246
_publ_section_title
;
Structure prediction by ZEFSAII (Michael W. Deem and Ramdas Pophale) SiO2 
 PCOD8046246
Probable space group: P 21
;
_chemical_formula_sum "Si O2"
_cell_formula_units_Z 16
_cell_length_a 8.338155
_cell_length_b 17.004021
_cell_length_c 6.938313
_cell_angle_alpha 90.000000
_cell_angle_beta 54.250164
_cell_angle_gamma 90.000000
_cell_volume 798.370525
_symmetry_space_group_name_H-M "P 21"
_symmetry_group_IT_number 4
_symmetry_cell_setting 'monoclinic'
loop_
_space_group_symop_operation_xyz
x,y,z
-x,1/2+y,-z
loop_
_atom_site_type_symbol
_atom_site_label
_atom_site_fract_x
_atom_site_fract_y
_atom_site_fract_z
Si Si1 0.979474 0.247970 0.108992
Si Si2 0.091804 0.020759 0.697167
Si Si3 0.292879 0.116223 0.854333
Si Si4 0.919226 0.871518 0.677455
Si Si5 0.630156 0.592633 0.764506
Si Si6 0.786693 0.853532 0.344158
Si Si7 0.480593 0.718639 0.596444
Si Si8 0.304673 0.472842 0.903449
O O1 0.025777 0.284274 0.287926
O O2 0.750080 0.233314 0.243216
O O3 0.092600 0.166073 0.012098
O O4 0.050689 0.309432 0.898245
O O5 0.242650 0.037455 0.768264
O O6 0.150308 0.080027 0.480402
O O7 0.098683 0.930251 0.617036
O O8 0.868097 0.037291 0.929298
O O9 0.462174 0.165964 0.628393
O O10 0.373967 0.091537 0.003757
O O11 0.893936 0.873522 0.467848
O O12 0.716197 0.902020 0.923994
O O13 0.539788 0.674189 0.752147
O O14 0.511679 0.516598 0.770488
O O15 0.592608 0.801419 0.513787
O O16 0.722333 0.935409 0.290078
#
# Coordination Sequence:
#
# PCOD8046246 Si02
#       8
#     2   2   2   2   2   2   2   2
#     4  10  21  40  62  85 119 157 198 243 296 347
#     4   9  22  38  54  89 119 150 202 237 289 358
#     4  10  22  39  62  85 123 152 196 250 288 348
#     4   9  21  39  57  88 118 155 199 240 293 354
#     4  11  22  38  61  87 120 159 198 242 300 351
#     4  10  21  40  60  85 123 153 195 253 289 348
#     4  10  23  39  60  90 117 154 203 245 290 355
#     4   9  22  37  56  87 121 152 197 244 293 349
#
# _framework density 20.040821999999999
#
# number of rings (size 3 to 8) (size 9 to 14) (size 15 to 20)
#    0.750    1.500    0.000    1.500    3.500    4.000 
#    2.250    0.000    0.000    0.000    0.000    0.000 
#    0.000    0.000    0.000    0.000    0.000    0.000 
#
# Total GULP energy -198322.434609 kJ/mol
# GULP energy per Si atom -12395.152163 kJ/mol
# Density = 1.999521 g / cm^3
# Si number density = 20.040822 Si / 1000 Ang^3
#
#
#
# Elastic Constant Matrix: (Units=GPa)
#
#
# Indices 1 2 3 4 5 6 
#
# 1 100.6066 49.1835 64.5047 0.0000 5.7821 0.0000
# 2 49.1835 75.4111 36.0172 0.0000 3.8404 0.0000
# 3 64.5047 36.0172 97.8327 0.0000 26.0219 0.0000
# 4 0.0000 0.0000 0.0000 25.2893 0.0000 2.6519
# 5 5.7821 3.8404 26.0219 0.0000 48.4066 0.0000
# 6 0.0000 0.0000 0.0000 2.6519 0.0000 29.1129
#
#
#
# Elastic Compliance Matrix: (Units=1/GPa)
#
#
# Indices 1 2 3 4 5 6 
#
# 1 0.021893 -0.008514 -0.012584 0.000000 0.004825 0.000000
# 2 -0.008514 0.019609 -0.001706 0.000000 0.000378 0.000000
# 3 -0.012584 -0.001706 0.021832 0.000000 -0.010098 0.000000
# 4 0.000000 0.000000 0.000000 0.039924 0.000000 -0.003637
# 5 0.004825 0.000378 -0.010098 0.000000 0.025480 0.000000
# 6 0.000000 0.000000 0.000000 -0.003637 0.000000 0.034680
#
#
# Mechanical properties :
#
#
# Convention : Reuss Voigt Hill
#
# Bulk Modulus (GPa) = 56.41231 63.69569 60.05400
# Shear Modulus (GPa) = 23.26279 28.83807 26.05043
#
# Velocity S-wave (km/s) = 3.41070 3.79749 3.60928
# Velocity P-wave (km/s) = 6.61214 7.14702 6.88477
#
# Compressibility (1/GPa) = 0.01772663
#
# Stress axis : x y z
#
# Youngs Moduli (GPa) = 45.67706 50.99642 45.80364
#
# Poissons Ratio (x) = 0.43420 0.57637
# Poissons Ratio (y) = 0.38891 0.07814
# Poissons Ratio (z) = 0.57478 0.08700
#
# Static dielectric constant tensor:
#      x y z
#    x 3.300460 0.000000 0.001190 
#    y 0.000000 3.598440 0.000000 
#    z 0.001190 0.000000 3.744030 
# 
# 
# High freq. dielectric constant tensor:
#      x y z
#    x 1.761480 0.000000 0.000730 
#    y 0.000000 1.778150 0.000000 
#    z 0.000730 0.000000 1.791920 
# 
# From -- ./inp_files/2156.got.cif
#   From: 2010.03.12/outbox.cif.g09.slc.cpg/sg4_2_cif.got.tgz:2156.got - 2010.03.31 09:31:35.
