data_PCOD8046567
_publ_section_title
;
Structure prediction by ZEFSAII (Michael W. Deem and Ramdas Pophale) SiO2 
 PCOD8046567
Probable space group: P 21
;
_chemical_formula_sum "Si O2"
_cell_formula_units_Z 16
_cell_length_a 18.246430
_cell_length_b 8.243874
_cell_length_c 6.186569
_cell_angle_alpha 90.000000
_cell_angle_beta 132.951354
_cell_angle_gamma 90.000000
_cell_volume 681.130189
_symmetry_space_group_name_H-M "P 21"
_symmetry_group_IT_number 4
_symmetry_cell_setting 'monoclinic'
loop_
_space_group_symop_operation_xyz
x,y,z
-x,1/2+y,-z
loop_
_atom_site_type_symbol
_atom_site_label
_atom_site_fract_x
_atom_site_fract_y
_atom_site_fract_z
Si Si1 0.446796 0.510360 0.500589
Si Si2 0.361565 0.824251 0.105224
Si Si3 0.879075 0.824412 0.116296
Si Si4 0.328180 0.613295 0.648888
Si Si5 0.195357 0.823558 0.115921
Si Si6 0.291851 0.344627 0.914115
Si Si7 0.997361 0.638593 0.671805
Si Si8 0.187085 0.132042 0.396671
O O1 0.419400 0.673922 0.325605
O O2 0.565521 0.478961 0.724440
O O3 0.420768 0.535182 0.702060
O O4 0.389357 0.358373 0.264621
O O5 0.255963 0.865584 0.014398
O O6 0.351278 0.777837 0.831563
O O7 0.805294 0.894480 0.146824
O O8 0.936337 0.664646 0.325376
O O9 0.958691 0.960879 0.223923
O O10 0.811181 0.773586 0.778144
O O11 0.242992 0.658020 0.304144
O O12 0.287662 0.480187 0.725753
O O13 0.208531 0.962547 0.322795
O O14 0.079305 0.783771 0.842248
O O15 0.273698 0.170505 0.753237
O O16 0.923322 0.645836 0.725676
#
# Coordination Sequence:
#
# PCOD8046567 Si02
#       8
#     2   2   2   2   2   2   2   2
#     4  10  22  42  64  92 126 165 211 262 321 381
#     4  10  24  42  65  93 128 169 212 266 323 382
#     4  11  23  40  60  90 124 165 212 264 321 381
#     4  10  22  41  65  90 123 167 211 263 322 380
#     4  11  24  42  62  95 132 167 213 268 322 382
#     4  10  22  41  64  89 122 164 210 262 321 380
#     4  11  23  39  63  90 127 169 212 263 321 384
#     4  11  24  39  63  95 124 166 215 262 323 390
#
# _framework density 23.490371
#
# number of rings (size 3 to 8) (size 9 to 14) (size 15 to 20)
#    0.000    1.500    0.000    5.250    0.000   15.000 
#    0.000    1.250    0.000    0.000    0.000    0.000 
#    0.000    0.000    0.000    0.000    0.000    0.000 
#
# Total GULP energy -198315.332958 kJ/mol
# GULP energy per Si atom -12394.708310 kJ/mol
# Density = 2.343691 g / cm^3
# Si number density = 23.490371 Si / 1000 Ang^3
#
#
#
# Elastic Constant Matrix: (Units=GPa)
#
#
# Indices 1 2 3 4 5 6 
#
# 1 134.3527 23.7632 45.3548 0.0000 -7.7455 0.0000
# 2 23.7632 44.5213 7.2869 0.0000 -4.6858 0.0000
# 3 45.3548 7.2869 82.6773 0.0000 -8.0834 0.0000
# 4 0.0000 0.0000 0.0000 45.8799 0.0000 -1.6916
# 5 -7.7455 -4.6858 -8.0834 0.0000 35.2215 0.0000
# 6 0.0000 0.0000 0.0000 -1.6916 0.0000 38.9350
#
#
#
# Elastic Compliance Matrix: (Units=1/GPa)
#
#
# Indices 1 2 3 4 5 6 
#
# 1 0.009950 -0.004442 -0.005024 0.000000 0.000444 0.000000
# 2 -0.004442 0.025014 0.000473 0.000000 0.002459 0.000000
# 3 -0.005024 0.000473 0.015045 0.000000 0.002411 0.000000
# 4 0.000000 0.000000 0.000000 0.021831 0.000000 0.000948
# 5 0.000444 0.002459 0.002411 0.000000 0.029370 0.000000
# 6 0.000000 0.000000 0.000000 0.000948 0.000000 0.025725
#
#
# Mechanical properties :
#
#
# Convention : Reuss Voigt Hill
#
# Bulk Modulus (GPa) = 31.22746 46.04013 38.63379
# Shear Modulus (GPa) = 32.13473 36.35038 34.24256
#
# Velocity S-wave (km/s) = 3.70266 3.93804 3.82216
# Velocity P-wave (km/s) = 5.62158 6.34978 5.99674
#
# Compressibility (1/GPa) = 0.03202310
#
# Stress axis : x y z
#
# Youngs Moduli (GPa) = 100.50046 39.97835 66.46695
#
# Poissons Ratio (x) = 0.17758 0.33390
# Poissons Ratio (y) = 0.44642 -0.03141
# Poissons Ratio (z) = 0.50487 -0.01889
#
# Static dielectric constant tensor:
#      x y z
#    x 4.291330 0.000000 -0.239170 
#    y 0.000000 4.147420 0.000000 
#    z -0.239170 0.000000 4.611410 
# 
# 
# High freq. dielectric constant tensor:
#      x y z
#    x 1.932090 0.000000 -0.009850 
#    y 0.000000 1.929860 0.000000 
#    z -0.009850 0.000000 1.933410 
# 
# From -- ./inp_files/2672.got.cif
#   From: 2010.03.12/outbox.cif.g09.slc.cpg/sg4_2_cif.got.tgz:2672.got - 2010.03.31 09:31:35.
