data_PCOD8046333
_publ_section_title
;
Structure prediction by ZEFSAII (Michael W. Deem and Ramdas Pophale) SiO2 
 PCOD8046333
Probable space group: P 21
;
_chemical_formula_sum "Si O2"
_cell_formula_units_Z 10
_cell_length_a 11.294443
_cell_length_b 4.804500
_cell_length_c 23.606581
_cell_angle_alpha 90.000000
_cell_angle_beta 160.267333
_cell_angle_gamma 90.000000
_cell_volume 432.503556
_symmetry_space_group_name_H-M "P 21"
_symmetry_group_IT_number 4
_symmetry_cell_setting 'monoclinic'
loop_
_space_group_symop_operation_xyz
x,y,z
-x,1/2+y,-z
loop_
_atom_site_type_symbol
_atom_site_label
_atom_site_fract_x
_atom_site_fract_y
_atom_site_fract_z
Si Si1 0.737245 0.029550 0.613226
Si Si2 0.843117 0.873907 0.402066
Si Si3 0.652591 0.587399 0.039148
Si Si4 0.221553 0.548320 0.090403
Si Si5 0.310401 0.265542 0.787617
O O1 0.386629 0.215462 0.453941
O O2 0.929350 0.051142 0.761130
O O3 0.015227 0.110961 0.690464
O O4 0.847811 0.174819 0.433997
O O5 0.480280 0.705383 0.251674
O O6 0.883916 0.920207 0.352495
O O7 0.455394 0.407613 0.999717
O O8 0.531103 0.491298 0.922790
O O9 0.405353 0.548537 0.110946
O O10 0.138708 0.232119 0.071145
#
# Coordination Sequence:
#
# PCOD8046333 Si02
#       5
#     2   2   2   2   2
#     4  11  23  42  64  97 126 160 212 260 305 378
#     4  10  22  41  65  90 128 163 205 262 311 361
#     4  10  21  41  68  88 125 168 208 253 312 375
#     4  10  22  41  65  90 123 160 216 252 302 379
#     4   9  24  43  66  87 134 167 203 255 324 355
#
# _framework density 23.121196999999999
#
# number of rings (size 3 to 8) (size 9 to 14) (size 15 to 20)
#    1.200    0.800    0.000    3.600    0.000    9.600 
#   10.800    0.000    0.000    0.000    0.000    0.000 
#    0.000    0.000    0.000    0.000    0.000    0.000 
#
# Total GULP energy -123927.069705 kJ/mol
# GULP energy per Si atom -12392.706971 kJ/mol
# Density = 2.306857 g / cm^3
# Si number density = 23.121197 Si / 1000 Ang^3
#
#
#
# Elastic Constant Matrix: (Units=GPa)
#
#
# Indices 1 2 3 4 5 6 
#
# 1 106.3042 8.5091 34.5390 0.0002 -13.8622 -0.0001
# 2 8.5091 73.9148 3.6538 0.0001 -4.9349 0.0000
# 3 34.5390 3.6538 98.6708 0.0006 -18.3812 0.0003
# 4 0.0002 0.0001 0.0006 40.0229 0.0003 8.6933
# 5 -13.8622 -4.9349 -18.3812 0.0003 42.6063 0.0000
# 6 -0.0001 0.0000 0.0003 8.6933 0.0000 6.2037
#
#
#
# Elastic Compliance Matrix: (Units=1/GPa)
#
#
# Indices 1 2 3 4 5 6 
#
# 1 0.010841 -0.000950 -0.003396 0.000000 0.001952 0.000000
# 2 -0.000950 0.013723 0.000068 0.000000 0.001310 0.000000
# 3 -0.003396 0.000068 0.012088 0.000000 0.004118 -0.000001
# 4 0.000000 0.000000 0.000000 0.035919 0.000000 -0.050333
# 5 0.001952 0.001310 0.004118 0.000000 0.026034 0.000000
# 6 0.000000 0.000000 -0.000001 -0.050333 0.000000 0.231726
#
#
# Mechanical properties :
#
#
# Convention : Reuss Voigt Hill
#
# Bulk Modulus (GPa) = 35.59147 41.36594 38.47871
# Shear Modulus (GPa) = 14.35748 33.24578 23.80163
#
# Velocity S-wave (km/s) = 2.49462 3.79607 3.21195
# Velocity P-wave (km/s) = 4.87077 6.09453 5.51669
#
# Compressibility (1/GPa) = 0.02809662
#
# Stress axis : x y z
#
# Youngs Moduli (GPa) = 92.24307 72.87296 82.72635
#
# Poissons Ratio (x) = 0.06921 0.28094
# Poissons Ratio (y) = 0.08761 -0.00565
# Poissons Ratio (z) = 0.31325 -0.00498
#
# Static dielectric constant tensor:
#      x y z
#    x 3.682060 0.000000 -0.192910 
#    y 0.000000 3.984010 0.000000 
#    z -0.192910 0.000000 4.452050 
# 
# 
# High freq. dielectric constant tensor:
#      x y z
#    x 1.871220 0.000000 -0.010630 
#    y 0.000000 1.919830 0.000000 
#    z -0.010630 0.000000 1.929730 
# 
# From -- ./inp_files/13064.got.cif
#   From: 2010.03.12/outbox.cif.g09.slc.cpg/sg4_7_cif.got.tgz:13064.got - 2010.03.31 09:31:35.
