data_PCOD8046940
_publ_section_title
;
Structure prediction by ZEFSAII (Michael W. Deem and Ramdas Pophale) SiO2 
 PCOD8046940
Probable space group: P 21
;
_chemical_formula_sum "Si O2"
_cell_formula_units_Z 16
_cell_length_a 6.310579
_cell_length_b 8.630095
_cell_length_c 14.695775
_cell_angle_alpha 90.000000
_cell_angle_beta 124.862298
_cell_angle_gamma 90.000000
_cell_volume 656.705693
_symmetry_space_group_name_H-M "P 21"
_symmetry_group_IT_number 4
_symmetry_cell_setting 'monoclinic'
loop_
_space_group_symop_operation_xyz
x,y,z
-x,1/2+y,-z
loop_
_atom_site_type_symbol
_atom_site_label
_atom_site_fract_x
_atom_site_fract_y
_atom_site_fract_z
Si Si1 0.161841 0.519310 0.932944
Si Si2 0.730422 0.533678 0.100992
Si Si3 0.940906 0.235356 0.941514
Si Si4 0.272646 0.544621 0.491633
Si Si5 0.987422 0.840273 0.437699
Si Si6 0.229925 0.403712 0.292470
Si Si7 0.442737 0.116660 0.741075
Si Si8 0.830998 0.551870 0.675279
O O1 0.018467 0.413598 0.973277
O O2 0.002404 0.501612 0.802166
O O3 0.460602 0.467856 0.993588
O O4 0.129996 0.685431 0.973104
O O5 0.809775 0.664883 0.048530
O O6 0.679157 0.593140 0.190163
O O7 0.963942 0.411581 0.168985
O O8 0.703587 0.215714 0.814382
O O9 0.051479 0.432526 0.477973
O O10 0.251185 0.530650 0.377878
O O11 0.541545 0.482866 0.600500
O O12 0.237771 0.728634 0.505941
O O13 0.753720 0.720133 0.364400
O O14 0.013520 0.980142 0.371317
O O15 0.474103 0.451683 0.286999
O O16 0.223096 0.235602 0.337670
#
# Coordination Sequence:
#
# PCOD8046940 Si02
#       8
#     2   2   2   2   2   2   2   2
#     4  11  26  43  72 102 142 188 238 296 370 442
#     4  10  23  44  72 102 140 186 235 296 369 440
#     4  10  24  44  68 103 139 183 233 299 362 430
#     4  12  28  46  76 106 151 191 250 307 375 440
#     4  12  27  48  74 110 145 199 249 304 375 449
#     4  11  26  46  75 105 147 189 246 307 372 440
#     4  10  23  45  75  99 141 190 243 296 374 436
#     4  12  29  46  72 111 149 192 250 313 367 443
#
# _framework density 24.364035999999999
#
# number of rings (size 3 to 8) (size 9 to 14) (size 15 to 20)
#    0.000    1.000    1.250    3.000   15.750    4.000 
#    0.000    0.000    0.000    0.000    0.000    0.000 
#    0.000    0.000    0.000    0.000    0.000    0.000 
#
# Total GULP energy -198251.805897 kJ/mol
# GULP energy per Si atom -12390.737869 kJ/mol
# Density = 2.430858 g / cm^3
# Si number density = 24.364036 Si / 1000 Ang^3
#
#
#
# Elastic Constant Matrix: (Units=GPa)
#
#
# Indices 1 2 3 4 5 6 
#
# 1 104.2449 23.2725 39.3105 0.0000 6.6124 0.0000
# 2 23.2725 75.8466 6.1349 0.0000 6.9819 0.0000
# 3 39.3105 6.1349 113.8552 0.0000 13.4065 0.0000
# 4 0.0000 0.0000 0.0000 26.0140 0.0000 -9.0982
# 5 6.6124 6.9819 13.4065 0.0000 45.6899 0.0000
# 6 0.0000 0.0000 0.0000 -9.0982 0.0000 42.1457
#
#
#
# Elastic Compliance Matrix: (Units=1/GPa)
#
#
# Indices 1 2 3 4 5 6 
#
# 1 0.011800 -0.003300 -0.003889 0.000000 -0.000062 0.000000
# 2 -0.003300 0.014323 0.000590 0.000000 -0.001884 0.000000
# 3 -0.003889 0.000590 0.010398 0.000000 -0.002578 0.000000
# 4 0.000000 0.000000 0.000000 0.041580 0.000000 0.008976
# 5 -0.000062 -0.001884 -0.002578 0.000000 0.022940 0.000000
# 6 0.000000 0.000000 0.000000 0.008976 0.000000 0.025665
#
#
# Mechanical properties :
#
#
# Convention : Reuss Voigt Hill
#
# Bulk Modulus (GPa) = 42.87974 47.93140 45.40557
# Shear Modulus (GPa) = 33.85716 37.78518 35.82117
#
# Velocity S-wave (km/s) = 3.73183 3.94237 3.83854
# Velocity P-wave (km/s) = 6.01719 6.35915 6.19053
#
# Compressibility (1/GPa) = 0.02332104
#
# Stress axis : x y z
#
# Youngs Moduli (GPa) = 84.74515 69.81816 96.17557
#
# Poissons Ratio (x) = 0.23043 0.37403
# Poissons Ratio (y) = 0.27969 -0.05670
# Poissons Ratio (z) = 0.32958 -0.04116
#
# Static dielectric constant tensor:
#      x y z
#    x 4.615840 0.000000 0.256730 
#    y 0.000000 4.301790 0.000000 
#    z 0.256730 0.000000 4.296310 
# 
# 
# High freq. dielectric constant tensor:
#      x y z
#    x 1.979280 0.000000 0.008490 
#    y 0.000000 1.961370 0.000000 
#    z 0.008490 0.000000 1.973900 
# 
# From -- ./inp_files/2570.got.cif
#   From: 2010.03.12/outbox.cif.g09.slc.cpg/sg4_2_cif.got.tgz:2570.got - 2010.03.31 09:31:35.
