data_PCOD8046695
_publ_section_title
;
Structure prediction by ZEFSAII (Michael W. Deem and Ramdas Pophale) SiO2 
 PCOD8046695
Probable space group: P 21
;
_chemical_formula_sum "Si O2"
_cell_formula_units_Z 16
_cell_length_a 8.477023
_cell_length_b 9.364295
_cell_length_c 13.736334
_cell_angle_alpha 90.000000
_cell_angle_beta 139.522864
_cell_angle_gamma 90.000000
_cell_volume 707.832842
_symmetry_space_group_name_H-M "P 21"
_symmetry_group_IT_number 4
_symmetry_cell_setting 'monoclinic'
loop_
_space_group_symop_operation_xyz
x,y,z
-x,1/2+y,-z
loop_
_atom_site_type_symbol
_atom_site_label
_atom_site_fract_x
_atom_site_fract_y
_atom_site_fract_z
Si Si1 0.608470 0.149130 0.075298
Si Si2 0.859210 0.848313 0.516310
Si Si3 0.822494 0.091794 0.370693
Si Si4 0.346456 0.489396 0.198613
Si Si5 0.309208 0.955239 0.820668
Si Si6 0.359663 0.759196 0.343704
Si Si7 0.974078 0.506585 0.858390
Si Si8 0.476395 0.210263 0.364514
O O1 0.629199 0.087065 0.193302
O O2 0.583585 0.319575 0.069904
O O3 0.835099 0.089696 0.119881
O O4 0.357930 0.093447 0.910023
O O5 0.581677 0.862814 0.417201
O O6 0.939364 0.682910 0.547898
O O7 0.022699 0.930351 0.673560
O O8 0.897303 0.930201 0.431501
O O9 0.707295 0.171914 0.407987
O O10 0.571134 0.476761 0.229021
O O11 0.339138 0.638531 0.251838
O O12 0.375964 0.367681 0.293589
O O13 0.095980 0.473634 0.020222
O O14 0.427593 0.695936 0.480372
O O15 0.115404 0.855874 0.230558
O O16 0.741697 0.604772 0.762409
#
# Coordination Sequence:
#
# PCOD8046695 Si02
#       8
#     2   2   2   2   2   2   2   2
#     4  10  23  45  68  97 138 181 232 287 346 416
#     4  11  23  43  65 102 132 179 226 285 350 402
#     4  11  24  41  68  96 137 177 228 288 340 412
#     4  11  24  46  71  97 143 183 237 289 345 420
#     4  10  22  44  69 101 133 185 231 293 345 408
#     4  12  26  44  71 103 140 184 230 288 354 419
#     4  11  25  46  68 102 138 186 231 289 356 413
#     4  12  23  45  66 104 139 179 241 281 352 416
#
# _framework density 22.604206000000001
#
# number of rings (size 3 to 8) (size 9 to 14) (size 15 to 20)
#    0.000    1.000    3.750    3.750    1.750    3.000 
#    6.750    0.000    0.000    0.000    0.000    0.000 
#    0.000    0.000    0.000    0.000    0.000    0.000 
#
# Total GULP energy -198378.954925 kJ/mol
# GULP energy per Si atom -12398.684683 kJ/mol
# Density = 2.255276 g / cm^3
# Si number density = 22.604206 Si / 1000 Ang^3
#
#
#
# Elastic Constant Matrix: (Units=GPa)
#
#
# Indices 1 2 3 4 5 6 
#
# 1 65.2532 14.6692 23.4163 0.0000 -15.4764 0.0000
# 2 14.6692 63.1180 21.4678 0.0000 -17.4380 0.0000
# 3 23.4163 21.4678 115.0850 0.0000 -14.5743 0.0000
# 4 0.0000 0.0000 0.0000 52.6725 0.0000 -8.9895
# 5 -15.4764 -17.4380 -14.5743 0.0000 25.3647 0.0000
# 6 0.0000 0.0000 0.0000 -8.9895 0.0000 33.0684
#
#
#
# Elastic Compliance Matrix: (Units=1/GPa)
#
#
# Indices 1 2 3 4 5 6 
#
# 1 0.018618 -0.000922 -0.002435 0.000000 0.009327 0.000000
# 2 -0.000922 0.020085 -0.002029 0.000000 0.012080 0.000000
# 3 -0.002435 -0.002029 0.009920 0.000000 0.002819 0.000000
# 4 0.000000 0.000000 0.000000 0.019909 0.000000 0.005412
# 5 0.009327 0.012080 0.002819 0.000000 0.055040 0.000000
# 6 0.000000 0.000000 0.000000 0.005412 0.000000 0.031712
#
#
# Mechanical properties :
#
#
# Convention : Reuss Voigt Hill
#
# Bulk Modulus (GPa) = 26.41953 40.28475 33.35214
# Shear Modulus (GPa) = 27.98393 34.48132 31.23263
#
# Velocity S-wave (km/s) = 3.52233 3.90992 3.72118
# Velocity P-wave (km/s) = 5.31561 6.18416 5.76626
#
# Compressibility (1/GPa) = 0.03785078
#
# Stress axis : x y z
#
# Youngs Moduli (GPa) = 53.71115 49.78798 100.80384
#
# Poissons Ratio (x) = 0.04590 0.24547
# Poissons Ratio (y) = 0.04952 0.20456
# Poissons Ratio (z) = 0.13079 0.10103
#
# Static dielectric constant tensor:
#      x y z
#    x 3.961560 0.000000 -0.081500 
#    y 0.000000 4.181830 0.000000 
#    z -0.081500 0.000000 4.338270 
# 
# 
# High freq. dielectric constant tensor:
#      x y z
#    x 1.876540 0.000000 -0.003660 
#    y 0.000000 1.900070 0.000000 
#    z -0.003660 0.000000 1.906860 
# 
# From -- ./inp_files/13698.got.cif
#   From: 2010.03.12/outbox.cif.g09.slc.cpg/sg4_7_cif.got.tgz:13698.got - 2010.03.31 09:31:35.
