data_PCOD8046449
_publ_section_title
;
Structure prediction by ZEFSAII (Michael W. Deem and Ramdas Pophale) SiO2 
 PCOD8046449
Probable space group: P 21
;
_chemical_formula_sum "Si O2"
_cell_formula_units_Z 14
_cell_length_a 8.481552
_cell_length_b 10.822940
_cell_length_c 7.844268
_cell_angle_alpha 90.000000
_cell_angle_beta 57.247094
_cell_angle_gamma 90.000000
_cell_volume 605.584813
_symmetry_space_group_name_H-M "P 21"
_symmetry_group_IT_number 4
_symmetry_cell_setting 'monoclinic'
loop_
_space_group_symop_operation_xyz
x,y,z
-x,1/2+y,-z
loop_
_atom_site_type_symbol
_atom_site_label
_atom_site_fract_x
_atom_site_fract_y
_atom_site_fract_z
Si Si1 0.955477 0.384950 0.016128
Si Si2 0.046781 0.695796 0.560923
Si Si3 0.060858 0.971568 0.601039
Si Si4 0.658165 0.202624 0.326844
Si Si5 0.258783 0.081544 0.049342
Si Si6 0.655302 0.769717 0.260272
Si Si7 0.535377 0.496867 0.755255
O O1 0.006559 0.452191 0.165302
O O2 0.777787 0.296585 0.144976
O O3 0.896409 0.479785 0.905142
O O4 0.130735 0.310828 0.835730
O O5 0.042742 0.841131 0.504317
O O6 0.231362 0.669194 0.565089
O O7 0.049517 0.590047 0.412363
O O8 0.858264 0.686966 0.784230
O O9 0.280062 0.006885 0.470412
O O10 0.456066 0.262069 0.495498
O O11 0.625520 0.082745 0.230992
O O12 0.422510 0.029758 0.073593
O O13 0.350508 0.135426 0.824978
O O14 0.547124 0.860028 0.194817
#
# Coordination Sequence:
#
# PCOD8046449 Si02
#       7
#     2   2   2   2   2   2   2
#     4  11  24  48  71 100 142 182 231 287 350 416
#     4  10  21  47  70 102 143 182 234 289 346 420
#     4  10  21  47  70 102 143 182 234 289 346 420
#     4  11  24  48  71 100 142 182 231 287 350 416
#     4  11  25  46  70 105 139 180 236 283 347 420
#     4  12  24  44  72 102 134 184 232 280 346 414
#     4  11  25  46  70 105 139 180 236 283 347 420
#
# _framework density 23.118148999999999
#
# number of rings (size 3 to 8) (size 9 to 14) (size 15 to 20)
#    0.000    1.143    5.714    1.714    2.000    1.143 
#   23.143    0.000    0.000    0.000    0.000    0.000 
#    0.000    0.000    0.000    0.000    0.000    0.000 
#
# Total GULP energy -173575.564206 kJ/mol
# GULP energy per Si atom -12398.254586 kJ/mol
# Density = 2.306553 g / cm^3
# Si number density = 23.118149 Si / 1000 Ang^3
#
#
#
# Elastic Constant Matrix: (Units=GPa)
#
#
# Indices 1 2 3 4 5 6 
#
# 1 80.2170 39.1253 13.7816 0.0000 2.7049 0.0000
# 2 39.1253 99.9805 -0.0584 0.0000 11.8404 0.0000
# 3 13.7816 -0.0584 49.8449 0.0000 -21.8470 0.0000
# 4 0.0000 0.0000 0.0000 20.7939 0.0000 -6.9446
# 5 2.7049 11.8404 -21.8470 0.0000 33.2232 0.0000
# 6 0.0000 0.0000 0.0000 -6.9446 0.0000 46.2729
#
#
#
# Elastic Compliance Matrix: (Units=1/GPa)
#
#
# Indices 1 2 3 4 5 6 
#
# 1 0.016578 -0.006127 -0.005936 0.000000 -0.003070 0.000000
# 2 -0.006127 0.012894 -0.000121 0.000000 -0.004176 0.000000
# 3 -0.005936 -0.000121 0.030816 0.000000 0.020790 0.000000
# 4 0.000000 0.000000 0.000000 0.050629 0.000000 0.007598
# 5 -0.003070 -0.004176 0.020790 0.000000 0.045509 0.000000
# 6 0.000000 0.000000 0.000000 0.007598 0.000000 0.022751
#
#
# Mechanical properties :
#
#
# Convention : Reuss Voigt Hill
#
# Bulk Modulus (GPa) = 27.84068 37.30435 32.57252
# Shear Modulus (GPa) = 23.19970 31.87093 27.53531
#
# Velocity S-wave (km/s) = 3.17129 3.71699 3.45493
# Velocity P-wave (km/s) = 5.04761 5.88156 5.48047
#
# Compressibility (1/GPa) = 0.03591866
#
# Stress axis : x y z
#
# Youngs Moduli (GPa) = 60.32017 77.55359 32.45084
#
# Poissons Ratio (x) = 0.47521 0.19264
# Poissons Ratio (y) = 0.36961 0.00393
# Poissons Ratio (z) = 0.35808 0.00939
#
# Static dielectric constant tensor:
#      x y z
#    x 4.115060 0.000000 -0.150690 
#    y 0.000000 4.344010 0.000000 
#    z -0.150690 0.000000 3.914590 
# 
# 
# High freq. dielectric constant tensor:
#      x y z
#    x 1.906460 0.000000 -0.014500 
#    y 0.000000 1.924270 0.000000 
#    z -0.014500 0.000000 1.900260 
# 
# From -- ./inp_files/6028.got.cif
#   From: 2010.03.12/outbox.cif.g09.slc.cpg/sg4_4_cif.got.tgz:6028.got - 2010.03.31 09:31:35.
