data_PCOD8046740
_publ_section_title
;
Structure prediction by ZEFSAII (Michael W. Deem and Ramdas Pophale) SiO2 
 PCOD8046740
Probable space group: P 21
;
_chemical_formula_sum "Si O2"
_cell_formula_units_Z 16
_cell_length_a 13.058862
_cell_length_b 10.241565
_cell_length_c 5.797897
_cell_angle_alpha 90.000000
_cell_angle_beta 56.792907
_cell_angle_gamma 90.000000
_cell_volume 648.798918
_symmetry_space_group_name_H-M "P 21"
_symmetry_group_IT_number 4
_symmetry_cell_setting 'monoclinic'
loop_
_space_group_symop_operation_xyz
x,y,z
-x,1/2+y,-z
loop_
_atom_site_type_symbol
_atom_site_label
_atom_site_fract_x
_atom_site_fract_y
_atom_site_fract_z
Si Si1 0.332466 0.733220 0.615207
Si Si2 0.052945 0.065810 0.927598
Si Si3 0.400510 0.919350 0.162294
Si Si4 0.932755 0.894518 0.697743
Si Si5 0.183206 0.545912 0.538484
Si Si6 0.168487 0.883339 0.133988
Si Si7 0.218108 0.279080 0.748095
Si Si8 0.471949 0.190129 0.271402
O O1 0.387064 0.866432 0.441323
O O2 0.294073 0.647889 0.435683
O O3 0.428930 0.656009 0.654596
O O4 0.217705 0.761662 0.924072
O O5 0.123839 0.186838 0.721394
O O6 0.015177 0.959293 0.790742
O O7 0.935964 0.117539 0.212545
O O8 0.149584 0.005618 0.989813
O O9 0.267612 0.924770 0.205109
O O10 0.456083 0.066036 0.118391
O O11 0.492282 0.822281 0.911782
O O12 0.035625 0.836635 0.397205
O O13 0.843727 0.003032 0.689581
O O14 0.839301 0.787383 0.920026
O O15 0.218307 0.421145 0.643459
O O16 0.351258 0.217374 0.570785
#
# Coordination Sequence:
#
# PCOD8046740 Si02
#       8
#     2   2   2   2   2   2   2   2
#     4  11  26  47  75 102 151 194 254 307 366 448
#     4  10  23  44  70 104 146 185 238 305 370 446
#     4  11  27  48  81 107 150 202 253 314 371 451
#     4  10  23  44  71 109 146 188 240 303 381 450
#     4  10  26  42  69 109 144 195 244 299 376 443
#     4  10  22  45  73 109 141 193 244 301 381 443
#     4  11  25  46  71 106 148 190 248 312 371 444
#     4  11  28  50  78 112 148 201 257 311 378 437
#
# _framework density 24.660952999999999
#
# number of rings (size 3 to 8) (size 9 to 14) (size 15 to 20)
#    0.000    1.500    0.000    2.250   10.500   10.000 
#    2.250    0.000    0.000    0.000    0.000    0.000 
#    0.000    0.000    0.000    0.000    0.000    0.000 
#
# Total GULP energy -198320.087140 kJ/mol
# GULP energy per Si atom -12395.005446 kJ/mol
# Density = 2.460482 g / cm^3
# Si number density = 24.660953 Si / 1000 Ang^3
#
#
#
# Elastic Constant Matrix: (Units=GPa)
#
#
# Indices 1 2 3 4 5 6 
#
# 1 139.8456 60.6092 46.5050 0.0000 4.5674 0.0000
# 2 60.6092 104.0104 37.0985 0.0000 -16.4133 0.0000
# 3 46.5050 37.0985 116.9535 0.0000 -14.6253 0.0000
# 4 0.0000 0.0000 0.0000 31.5751 0.0000 -7.6154
# 5 4.5674 -16.4133 -14.6253 0.0000 36.4930 0.0000
# 6 0.0000 0.0000 0.0000 -7.6154 0.0000 33.9344
#
#
#
# Elastic Compliance Matrix: (Units=1/GPa)
#
#
# Indices 1 2 3 4 5 6 
#
# 1 0.011037 -0.006177 -0.003105 0.000000 -0.005404 0.000000
# 2 -0.006177 0.014789 -0.001376 0.000000 0.006873 0.000000
# 3 -0.003105 -0.001376 0.010730 0.000000 0.004070 0.000000
# 4 0.000000 0.000000 0.000000 0.033483 0.000000 0.007514
# 5 -0.005404 0.006873 0.004070 0.000000 0.032801 0.000000
# 6 0.000000 0.000000 0.000000 0.007514 0.000000 0.031155
#
#
# Mechanical properties :
#
#
# Convention : Reuss Voigt Hill
#
# Bulk Modulus (GPa) = 65.60999 72.13721 68.87360
# Shear Modulus (GPa) = 31.17393 34.84029 33.00711
#
# Velocity S-wave (km/s) = 3.55928 3.76276 3.66243
# Velocity P-wave (km/s) = 6.59953 6.94211 6.77299
#
# Compressibility (1/GPa) = 0.01524158
#
# Stress axis : x y z
#
# Youngs Moduli (GPa) = 90.60630 67.61816 93.19243
#
# Poissons Ratio (x) = 0.41765 0.28937
# Poissons Ratio (y) = 0.55964 0.12820
# Poissons Ratio (z) = 0.28134 0.09302
#
# Static dielectric constant tensor:
#      x y z
#    x 4.479760 0.000000 -0.108650 
#    y 0.000000 4.242100 0.000000 
#    z -0.108650 0.000000 4.723710 
# 
# 
# High freq. dielectric constant tensor:
#      x y z
#    x 1.985640 0.000000 -0.005500 
#    y 0.000000 1.975040 0.000000 
#    z -0.005500 0.000000 1.981670 
# 
# From -- ./inp_files/3034.got.cif
#   From: 2010.03.12/outbox.cif.g09.slc.cpg/sg4_2_cif.got.tgz:3034.got - 2010.03.31 09:31:35.
