data_PCOD8046078
_publ_section_title
;
Structure prediction by ZEFSAII (Michael W. Deem and Ramdas Pophale) SiO2 
 PCOD8046078
Probable space group: P 21
;
_chemical_formula_sum "Si O2"
_cell_formula_units_Z 16
_cell_length_a 8.605302
_cell_length_b 12.663210
_cell_length_c 11.507201
_cell_angle_alpha 90.000000
_cell_angle_beta 142.998078
_cell_angle_gamma 90.000000
_cell_volume 754.678507
_symmetry_space_group_name_H-M "P 21"
_symmetry_group_IT_number 4
_symmetry_cell_setting 'monoclinic'
loop_
_space_group_symop_operation_xyz
x,y,z
-x,1/2+y,-z
loop_
_atom_site_type_symbol
_atom_site_label
_atom_site_fract_x
_atom_site_fract_y
_atom_site_fract_z
Si Si1 0.127056 0.095870 0.354337
Si Si2 0.554630 0.803624 0.970788
Si Si3 0.306771 0.516348 0.060362
Si Si4 0.548942 0.742568 0.217277
Si Si5 0.106940 0.689203 0.573527
Si Si6 0.665050 0.994829 0.670073
Si Si7 0.547797 0.800161 0.463794
Si Si8 0.896995 0.190273 0.688202
O O1 0.232504 0.212327 0.392353
O O2 0.952282 0.096552 0.367926
O O3 0.362115 0.016424 0.504309
O O4 0.959571 0.062421 0.144970
O O5 0.440188 0.793598 0.033735
O O6 0.817199 0.735561 0.120093
O O7 0.352124 0.757061 0.759082
O O8 0.588089 0.927570 0.964949
O O9 0.503546 0.615282 0.192718
O O10 0.245025 0.460702 0.147151
O O11 0.432328 0.799685 0.262411
O O12 0.855990 0.764218 0.410576
O O13 0.155456 0.645092 0.472813
O O14 0.695256 0.906293 0.589616
O O15 0.840245 0.094615 0.741544
O O16 0.308255 0.782806 0.407948
#
# Coordination Sequence:
#
# PCOD8046078 Si02
#       8
#     2   2   2   2   2   2   2   2
#     4  10  22  42  67  91 131 170 215 269 325 387
#     4  11  24  40  67  99 124 174 220 270 322 395
#     4  12  22  41  70  92 128 174 218 259 342 379
#     4  10  22  46  63  92 135 165 214 285 311 394
#     4  10  20  42  62  88 129 169 205 275 321 372
#     4  11  23  42  66  94 127 185 209 267 334 390
#     4  10  21  45  65  91 137 172 218 267 333 382
#     4  10  22  40  62  97 135 159 223 278 310 395
#
# _framework density 21.201080999999999
#
# number of rings (size 3 to 8) (size 9 to 14) (size 15 to 20)
#    0.000    1.500    5.000    1.500    0.000    5.000 
#   11.250    0.000    0.000    0.000    0.000    0.000 
#    0.000    0.000    0.000    0.000    0.000    0.000 
#
# Total GULP energy -198331.574397 kJ/mol
# GULP energy per Si atom -12395.723400 kJ/mol
# Density = 2.115283 g / cm^3
# Si number density = 21.201081 Si / 1000 Ang^3
#
#
#
# Elastic Constant Matrix: (Units=GPa)
#
#
# Indices 1 2 3 4 5 6 
#
# 1 108.8902 32.0752 42.1541 0.0000 -20.1085 0.0000
# 2 32.0752 82.7831 25.8564 0.0000 -19.2980 0.0000
# 3 42.1541 25.8564 117.3472 0.0000 -12.6558 0.0000
# 4 0.0000 0.0000 0.0000 29.5957 0.0000 -10.2331
# 5 -20.1085 -19.2980 -12.6558 0.0000 39.1720 0.0000
# 6 0.0000 0.0000 0.0000 -10.2331 0.0000 26.1704
#
#
#
# Elastic Compliance Matrix: (Units=1/GPa)
#
#
# Indices 1 2 3 4 5 6 
#
# 1 0.011950 -0.002735 -0.003288 0.000000 0.003725 0.000000
# 2 -0.002735 0.014937 -0.001727 0.000000 0.005397 0.000000
# 3 -0.003288 -0.001727 0.010164 0.000000 0.000745 0.000000
# 4 0.000000 0.000000 0.000000 0.039071 0.000000 0.015278
# 5 0.003725 0.005397 0.000745 0.000000 0.030340 0.000000
# 6 0.000000 0.000000 0.000000 0.015278 0.000000 0.044185
#
#
# Mechanical properties :
#
#
# Convention : Reuss Voigt Hill
#
# Bulk Modulus (GPa) = 46.40221 56.57687 51.48954
# Shear Modulus (GPa) = 28.84669 32.91660 30.88164
#
# Velocity S-wave (km/s) = 3.69266 3.94457 3.82069
# Velocity P-wave (km/s) = 6.33366 6.89129 6.61835
#
# Compressibility (1/GPa) = 0.02155070
#
# Stress axis : x y z
#
# Youngs Moduli (GPa) = 83.68193 66.94881 98.38803
#
# Poissons Ratio (x) = 0.18309 0.32355
# Poissons Ratio (y) = 0.22885 0.16989
# Poissons Ratio (z) = 0.27519 0.11560
#
# Static dielectric constant tensor:
#      x y z
#    x 4.109320 0.000000 -0.218980 
#    y 0.000000 3.591260 0.000000 
#    z -0.218980 0.000000 3.946310 
# 
# 
# High freq. dielectric constant tensor:
#      x y z
#    x 1.837290 0.000000 -0.013870 
#    y 0.000000 1.805580 0.000000 
#    z -0.013870 0.000000 1.841680 
# 
# From -- ./inp_files/11392.got.cif
#   From: 2010.03.12/outbox.cif.g09.slc.cpg/sg4_6_cif.got.tgz:11392.got - 2010.03.31 09:31:35.
