data_PCOD8046124
_publ_section_title
;
Structure prediction by ZEFSAII (Michael W. Deem and Ramdas Pophale) SiO2 
 PCOD8046124
Probable space group: P 21
;
_chemical_formula_sum "Si O2"
_cell_formula_units_Z 12
_cell_length_a 5.161989
_cell_length_b 9.058747
_cell_length_c 14.085971
_cell_angle_alpha 90.000000
_cell_angle_beta 111.489840
_cell_angle_gamma 90.000000
_cell_volume 612.886739
_symmetry_space_group_name_H-M "P 21"
_symmetry_group_IT_number 4
_symmetry_cell_setting 'monoclinic'
loop_
_space_group_symop_operation_xyz
x,y,z
-x,1/2+y,-z
loop_
_atom_site_type_symbol
_atom_site_label
_atom_site_fract_x
_atom_site_fract_y
_atom_site_fract_z
Si Si1 0.254144 0.185240 0.076973
Si Si2 0.852139 0.295692 0.392620
Si Si3 0.100138 0.594538 0.422964
Si Si4 0.933143 0.984034 0.892621
Si Si5 0.880264 0.221872 0.191058
Si Si6 0.501819 0.057820 0.691095
O O1 0.580771 0.154754 0.124853
O O2 0.189132 0.359643 0.051919
O O3 0.107812 0.135296 0.157099
O O4 0.134553 0.095436 0.972746
O O5 0.085299 0.420106 0.448003
O O6 0.940919 0.203078 0.310945
O O7 0.558842 0.381052 0.331773
O O8 0.811131 0.184337 0.472814
O O9 0.793596 0.644424 0.342829
O O10 0.331052 0.625009 0.375087
O O11 0.104694 0.898655 0.831750
O O12 0.680881 0.076564 0.810982
#
# Coordination Sequence:
#
# PCOD8046124 Si02
#       6
#     2   2   2   2   2   2
#     4  10  22  34  62  87 111 154 193 234 280 345
#     4  10  21  40  61  84 116 153 192 233 290 341
#     4  10  22  34  62  87 111 154 193 234 280 345
#     4  10  21  40  61  84 116 153 192 233 290 341
#     4  10  21  36  61  83 117 151 189 229 296 332
#     4  10  21  36  61  83 117 151 189 229 296 332
#
# _framework density 19.579473
#
# number of rings (size 3 to 8) (size 9 to 14) (size 15 to 20)
#    2.000    0.000    3.333    0.000    4.667    0.000 
#    0.000    3.333    0.000    0.000    0.000    0.000 
#    0.000    0.000    0.000    0.000    0.000    0.000 
#
# Total GULP energy -148673.396988 kJ/mol
# GULP energy per Si atom -12389.449749 kJ/mol
# Density = 1.953491 g / cm^3
# Si number density = 19.579473 Si / 1000 Ang^3
#
#
#
# Elastic Constant Matrix: (Units=GPa)
#
#
# Indices 1 2 3 4 5 6 
#
# 1 99.8515 -3.1622 -3.8357 0.0000 -3.6078 0.0000
# 2 -3.1622 24.3379 23.0564 0.0000 1.8863 0.0000
# 3 -3.8357 23.0564 19.7797 0.0000 -2.1450 0.0000
# 4 0.0000 0.0000 0.0000 43.2112 0.0000 1.5580
# 5 -3.6078 1.8863 -2.1450 0.0000 26.8094 0.0000
# 6 0.0000 0.0000 0.0000 1.5580 0.0000 21.5827
#
#
#
# Elastic Compliance Matrix: (Units=1/GPa)
#
#
# Indices 1 2 3 4 5 6 
#
# 1 0.010031 0.006068 -0.005071 0.000000 0.000517 0.000000
# 2 0.006068 -0.302896 0.359771 0.000000 0.050913 0.000000
# 3 -0.005071 0.359771 -0.375877 0.000000 -0.056069 0.000000
# 4 0.000000 0.000000 0.000000 0.023203 0.000000 -0.001675
# 5 0.000517 0.050913 -0.056069 0.000000 0.029302 0.000000
# 6 0.000000 0.000000 0.000000 -0.001675 0.000000 0.046454
#
#
# Mechanical properties :
#
#
# Convention : Reuss Voigt Hill
#
# Bulk Modulus (GPa) = 18.94212 19.56511 19.25362
# Shear Modulus (GPa) = -3.92551 26.84805 11.46127
#
# Velocity S-wave (km/s) = -1.41748 3.70704 2.42207
# Velocity P-wave (km/s) = 2.64886 5.32327 4.20438
#
# Compressibility (1/GPa) = 0.05279239
#
# Stress axis : x y z
#
# Youngs Moduli (GPa) = 99.69193 -3.30146 -2.66044
#
# Poissons Ratio (x) = 0.02003 -0.01349
# Poissons Ratio (y) = -0.60488 0.95715
# Poissons Ratio (z) = 0.50557 1.18777
#
# Static dielectric constant tensor:
#      x y z
#    x 3.575390 0.000000 -0.022030 
#    y 0.000000 3.064460 0.000000 
#    z -0.022030 0.000000 3.267290 
# 
# 
# High freq. dielectric constant tensor:
#      x y z
#    x 1.772470 0.000000 -0.001180 
#    y 0.000000 1.707830 0.000000 
#    z -0.001180 0.000000 1.756010 
# 
# From -- ./inp_files/7376.got.cif
#   From: 2010.03.12/outbox.cif.g09.slc.cpg/sg4_4_cif.got.tgz:7376.got - 2010.03.31 09:31:35.
