data_PCOD8046690
_publ_section_title
;
Structure prediction by ZEFSAII (Michael W. Deem and Ramdas Pophale) SiO2 
 PCOD8046690
Probable space group: P 21
;
_chemical_formula_sum "Si O2"
_cell_formula_units_Z 14
_cell_length_a 15.114536
_cell_length_b 7.273075
_cell_length_c 12.024775
_cell_angle_alpha 90.000000
_cell_angle_beta 25.508211
_cell_angle_gamma 90.000000
_cell_volume 569.252119
_symmetry_space_group_name_H-M "P 21"
_symmetry_group_IT_number 4
_symmetry_cell_setting 'monoclinic'
loop_
_space_group_symop_operation_xyz
x,y,z
-x,1/2+y,-z
loop_
_atom_site_type_symbol
_atom_site_label
_atom_site_fract_x
_atom_site_fract_y
_atom_site_fract_z
Si Si1 0.175518 0.959930 0.294447
Si Si2 0.765793 0.244109 0.436995
Si Si3 0.562420 0.975379 0.508695
Si Si4 0.524642 0.232741 0.927770
Si Si5 0.186258 0.129859 0.056004
Si Si6 0.263910 0.477711 0.103151
Si Si7 0.467252 0.082272 0.379257
O O1 0.976836 0.982847 0.597574
O O2 0.330437 0.104955 0.173369
O O3 0.114807 0.987704 0.235372
O O4 0.294770 0.759712 0.179555
O O5 0.713428 0.456710 0.469099
O O6 0.004331 0.221843 0.193235
O O7 0.719943 0.120030 0.381824
O O8 0.642239 0.168432 0.684010
O O9 0.631132 0.773604 0.470415
O O10 0.574854 0.979511 0.361266
O O11 0.329476 0.019544 0.809028
O O12 0.413074 0.438252 0.040731
O O13 0.310859 0.290415 0.977071
O O14 0.357079 0.629947 0.913476
#
# Coordination Sequence:
#
# PCOD8046690 Si02
#       7
#     2   2   2   2   2   2   2
#     4  11  23  41  71 100 146 193 242 301 369 434
#     4  11  23  50  69 103 150 187 244 302 365 432
#     4  12  23  49  75 107 145 194 242 308 367 446
#     4  10  23  41  66  98 140 193 233 303 358 438
#     4  11  24  45  69 104 151 187 240 308 363 433
#     4  10  22  44  67 101 144 190 239 306 359 437
#     4  11  24  48  79 103 144 194 244 304 377 430
#
# _framework density 24.593672999999999
#
# number of rings (size 3 to 8) (size 9 to 14) (size 15 to 20)
#    0.000    1.143    7.143    0.000    2.000    4.571 
#    7.714    0.000    0.000    0.000    0.000    0.000 
#    0.000    0.000    0.000    0.000    0.000    0.000 
#
# Total GULP energy -173538.870633 kJ/mol
# GULP energy per Si atom -12395.633617 kJ/mol
# Density = 2.453770 g / cm^3
# Si number density = 24.593673 Si / 1000 Ang^3
#
#
#
# Elastic Constant Matrix: (Units=GPa)
#
#
# Indices 1 2 3 4 5 6 
#
# 1 131.1572 9.5773 52.1104 0.0000 -11.2267 0.0000
# 2 9.5773 53.9111 11.1220 0.0000 -12.5944 0.0000
# 3 52.1104 11.1220 87.4647 0.0000 -9.1565 0.0000
# 4 0.0000 0.0000 0.0000 34.3124 0.0000 -3.0360
# 5 -11.2267 -12.5944 -9.1565 0.0000 39.6353 0.0000
# 6 0.0000 0.0000 0.0000 -3.0360 0.0000 35.3589
#
#
#
# Elastic Compliance Matrix: (Units=1/GPa)
#
#
# Indices 1 2 3 4 5 6 
#
# 1 0.010079 -0.000256 -0.005823 0.000000 0.001428 0.000000
# 2 -0.000256 0.020365 -0.001811 0.000000 0.005980 0.000000
# 3 -0.005823 -0.001811 0.015269 0.000000 0.001303 0.000000
# 4 0.000000 0.000000 0.000000 0.029367 0.000000 0.002522
# 5 0.001428 0.005980 0.001303 0.000000 0.027836 0.000000
# 6 0.000000 0.000000 0.000000 0.002522 0.000000 0.028498
#
#
# Mechanical properties :
#
#
# Convention : Reuss Voigt Hill
#
# Bulk Modulus (GPa) = 33.40710 46.46138 39.93424
# Shear Modulus (GPa) = 31.81243 35.17621 33.49432
#
# Velocity S-wave (km/s) = 3.60046 3.78603 3.69441
# Velocity P-wave (km/s) = 5.55855 6.16803 5.87121
#
# Compressibility (1/GPa) = 0.02993376
#
# Stress axis : x y z
#
# Youngs Moduli (GPa) = 99.21768 49.10330 65.49201
#
# Poissons Ratio (x) = 0.01255 0.38135
# Poissons Ratio (y) = 0.02535 0.11863
# Poissons Ratio (z) = 0.57773 0.08894
#
# Static dielectric constant tensor:
#      x y z
#    x 4.772180 0.000000 0.041020 
#    y 0.000000 4.834160 0.000000 
#    z 0.041020 0.000000 4.193090 
# 
# 
# High freq. dielectric constant tensor:
#      x y z
#    x 1.990760 0.000000 -0.000040 
#    y 0.000000 1.989570 0.000000 
#    z -0.000040 0.000000 1.966350 
# 
# From -- ./inp_files/12606.got.cif
#   From: 2010.03.12/outbox.cif.g09.slc.cpg/sg4_7_cif.got.tgz:12606.got - 2010.03.31 09:31:35.
