data_PCOD8046896
_publ_section_title
;
Structure prediction by ZEFSAII (Michael W. Deem and Ramdas Pophale) SiO2 
 PCOD8046896
Probable space group: P 21
;
_chemical_formula_sum "Si O2"
_cell_formula_units_Z 14
_cell_length_a 7.897845
_cell_length_b 8.709024
_cell_length_c 12.041501
_cell_angle_alpha 90.000000
_cell_angle_beta 52.615242
_cell_angle_gamma 90.000000
_cell_volume 658.103582
_symmetry_space_group_name_H-M "P 21"
_symmetry_group_IT_number 4
_symmetry_cell_setting 'monoclinic'
loop_
_space_group_symop_operation_xyz
x,y,z
-x,1/2+y,-z
loop_
_atom_site_type_symbol
_atom_site_label
_atom_site_fract_x
_atom_site_fract_y
_atom_site_fract_z
Si Si1 0.945991 0.331130 0.083527
Si Si2 0.747873 0.451028 0.384998
Si Si3 0.855154 0.537619 0.933884
Si Si4 0.427876 0.669382 0.406162
Si Si5 0.602025 0.788184 0.122270
Si Si6 0.842462 0.443577 0.698357
Si Si7 0.011445 0.631332 0.448732
O O1 0.957729 0.145792 0.087702
O O2 0.822459 0.401476 0.235122
O O3 0.190868 0.394925 0.980147
O O4 0.829450 0.383072 0.016575
O O5 0.539813 0.558309 0.450731
O O6 0.685393 0.307319 0.484382
O O7 0.944668 0.538346 0.365395
O O8 0.934067 0.500454 0.778586
O O9 0.632849 0.635639 0.030925
O O10 0.602432 0.735696 0.251374
O O11 0.244601 0.584916 0.404801
O O12 0.390485 0.880987 0.178352
O O13 0.989096 0.311530 0.583667
O O14 0.839615 0.587994 0.614078
#
# Coordination Sequence:
#
# PCOD8046896 Si02
#       7
#     2   2   2   2   2   2   2
#     4  10  23  44  68 101 140 177 239 278 357 425
#     4  12  24  45  71 101 142 192 226 303 354 419
#     4  10  23  43  70 101 136 184 227 293 350 420
#     4  11  25  44  68 105 138 184 241 286 356 431
#     4   9  22  44  64  97 140 170 236 276 344 425
#     4  11  24  46  71 103 143 187 234 299 355 425
#     4  11  25  44  70 102 145 184 239 291 356 421
#
# _framework density 21.273243999999998
#
# number of rings (size 3 to 8) (size 9 to 14) (size 15 to 20)
#    0.857    0.571    4.286    0.857    6.000    3.429 
#    0.000    0.000    0.000    0.000    0.000    0.000 
#    0.000    0.000    0.000    0.000    0.000    0.000 
#
# Total GULP energy -173437.299904 kJ/mol
# GULP energy per Si atom -12388.378565 kJ/mol
# Density = 2.122482 g / cm^3
# Si number density = 21.273244 Si / 1000 Ang^3
#
#
#
# Elastic Constant Matrix: (Units=GPa)
#
#
# Indices 1 2 3 4 5 6 
#
# 1 78.3813 35.7796 15.9579 0.0000 1.8474 0.0000
# 2 35.7796 86.5650 48.8300 0.0000 -0.8051 0.0000
# 3 15.9579 48.8300 111.5314 0.0000 15.5676 0.0000
# 4 0.0000 0.0000 0.0000 21.9222 0.0000 -0.2712
# 5 1.8474 -0.8051 15.5676 0.0000 39.4759 0.0000
# 6 0.0000 0.0000 0.0000 -0.2712 0.0000 33.8164
#
#
#
# Elastic Compliance Matrix: (Units=1/GPa)
#
#
# Indices 1 2 3 4 5 6 
#
# 1 0.015839 -0.007148 0.001045 0.000000 -0.001299 0.000000
# 2 -0.007148 0.018942 -0.007800 0.000000 0.003797 0.000000
# 3 0.001045 -0.007800 0.012975 0.000000 -0.005325 0.000000
# 4 0.000000 0.000000 0.000000 0.045620 0.000000 0.000366
# 5 -0.001299 0.003797 -0.005325 0.000000 0.027570 0.000000
# 6 0.000000 0.000000 0.000000 0.000366 0.000000 0.029574
#
#
# Mechanical properties :
#
#
# Convention : Reuss Voigt Hill
#
# Bulk Modulus (GPa) = 50.12936 53.06807 51.59871
# Shear Modulus (GPa) = 27.03037 30.77024 28.90031
#
# Velocity S-wave (km/s) = 3.56845 3.80732 3.68982
# Velocity P-wave (km/s) = 6.37135 6.65790 6.51620
#
# Compressibility (1/GPa) = 0.01994839
#
# Stress axis : x y z
#
# Youngs Moduli (GPa) = 63.13531 52.79345 77.07191
#
# Poissons Ratio (x) = 0.37737 -0.08050
# Poissons Ratio (y) = 0.45129 0.60118
# Poissons Ratio (z) = -0.06595 0.41180
#
# Static dielectric constant tensor:
#      x y z
#    x 3.689900 0.000000 0.106900 
#    y 0.000000 3.869230 0.000000 
#    z 0.106900 0.000000 3.911530 
# 
# 
# High freq. dielectric constant tensor:
#      x y z
#    x 1.812800 0.000000 0.010570 
#    y 0.000000 1.827900 0.000000 
#    z 0.010570 0.000000 1.845420 
# 
# From -- ./inp_files/11019.got.cif
#   From: 2010.03.12/outbox.cif.g09.slc.cpg/sg4_6_cif.got.tgz:11019.got - 2010.03.31 09:31:35.
