data_PCOD8046420
_publ_section_title
;
Structure prediction by ZEFSAII (Michael W. Deem and Ramdas Pophale) SiO2 
 PCOD8046420
Probable space group: P 21
;
_chemical_formula_sum "Si O2"
_cell_formula_units_Z 12
_cell_length_a 7.614193
_cell_length_b 5.178729
_cell_length_c 20.584207
_cell_angle_alpha 90.000000
_cell_angle_beta 37.646227
_cell_angle_gamma 90.000000
_cell_volume 495.757162
_symmetry_space_group_name_H-M "P 21"
_symmetry_group_IT_number 4
_symmetry_cell_setting 'monoclinic'
loop_
_space_group_symop_operation_xyz
x,y,z
-x,1/2+y,-z
loop_
_atom_site_type_symbol
_atom_site_label
_atom_site_fract_x
_atom_site_fract_y
_atom_site_fract_z
Si Si1 0.192009 0.524410 0.115186
Si Si2 0.250051 0.031877 0.168197
Si Si3 0.566100 0.419249 0.747233
Si Si4 0.041117 0.141096 0.947526
Si Si5 0.931346 0.749750 0.482097
Si Si6 0.323458 0.730555 0.696528
O O1 0.355890 0.260696 0.088307
O O2 0.200460 0.559390 0.034649
O O3 0.852169 0.492445 0.235052
O O4 0.338786 0.760937 0.110071
O O5 0.899754 0.038538 0.274484
O O6 0.394850 0.071343 0.196063
O O7 0.347786 0.183154 0.822931
O O8 0.877307 0.300919 0.637596
O O9 0.442932 0.610454 0.728994
O O10 0.936378 0.413767 0.007167
O O11 0.977949 0.453189 0.488947
O O12 0.589623 0.790049 0.570144
#
# Coordination Sequence:
#
# PCOD8046420 Si02
#       6
#     2   2   2   2   2   2
#     4  10  21  44  64  96 139 167 210 281 326 387
#     4  10  23  40  69 100 134 173 212 273 334 387
#     4  11  23  46  69 100 133 178 228 272 325 405
#     4  12  24  42  73  97 125 182 225 273 346 389
#     4  10  22  37  66  99 131 182 221 261 325 395
#     4   9  21  43  67  94 142 174 212 266 334 381
#
# _framework density 24.205400000000001
#
# number of rings (size 3 to 8) (size 9 to 14) (size 15 to 20)
#    1.000    0.667    1.667    3.000    2.333    6.667 
#    3.000    3.333    0.000    0.000    0.000    0.000 
#    0.000    0.000    0.000    0.000    0.000    0.000 
#
# Total GULP energy -148728.650256 kJ/mol
# GULP energy per Si atom -12394.054188 kJ/mol
# Density = 2.415031 g / cm^3
# Si number density = 24.205400 Si / 1000 Ang^3
#
#
#
# Elastic Constant Matrix: (Units=GPa)
#
#
# Indices 1 2 3 4 5 6 
#
# 1 125.8688 33.2391 16.7718 0.0000 8.4001 0.0000
# 2 33.2391 140.5220 25.9406 0.0000 8.7216 0.0000
# 3 16.7718 25.9406 95.8593 0.0000 3.0102 0.0000
# 4 0.0000 0.0000 0.0000 15.9721 0.0000 17.7243
# 5 8.4001 8.7216 3.0102 0.0000 32.7881 0.0000
# 6 0.0000 0.0000 0.0000 17.7243 0.0000 21.7677
#
#
#
# Elastic Compliance Matrix: (Units=1/GPa)
#
#
# Indices 1 2 3 4 5 6 
#
# 1 0.008652 -0.001762 -0.000985 0.000000 -0.001658 0.000000
# 2 -0.001762 0.007958 -0.001798 0.000000 -0.001500 0.000000
# 3 -0.000985 -0.001798 0.011100 0.000000 -0.000288 0.000000
# 4 0.000000 0.000000 0.000000 0.649237 0.000000 -0.528638
# 5 -0.001658 -0.001500 -0.000288 0.000000 0.031349 0.000000
# 6 0.000000 0.000000 0.000000 -0.528638 0.000000 0.476380
#
#
# Mechanical properties :
#
#
# Convention : Reuss Voigt Hill
#
# Bulk Modulus (GPa) = 53.70549 57.12812 55.41681
# Shear Modulus (GPa) = 4.16676 33.19217 18.67947
#
# Velocity S-wave (km/s) = 1.31345 3.70709 2.78097
# Velocity P-wave (km/s) = 4.95336 6.47888 5.76679
#
# Compressibility (1/GPa) = 0.01862007
#
# Stress axis : x y z
#
# Youngs Moduli (GPa) = 115.58157 125.65751 90.09049
#
# Poissons Ratio (x) = 0.22139 0.08873
# Poissons Ratio (y) = 0.20363 0.16200
# Poissons Ratio (z) = 0.11384 0.22596
#
# Static dielectric constant tensor:
#      x y z
#    x 4.167470 0.000000 -0.314300 
#    y 0.000000 4.175050 0.000000 
#    z -0.314300 0.000000 4.686410 
# 
# 
# High freq. dielectric constant tensor:
#      x y z
#    x 1.953220 0.000000 -0.027110 
#    y 0.000000 1.959300 0.000000 
#    z -0.027110 0.000000 1.969530 
# 
# From -- ./inp_files/15543.got.cif
#   From: 2010.03.12/outbox.cif.g09.slc.cpg/sg4_8_cif.got.tgz:15543.got - 2010.03.31 09:31:35.
