data_PCOD8046806
_publ_section_title
;
Structure prediction by ZEFSAII (Michael W. Deem and Ramdas Pophale) SiO2 
 PCOD8046806
Probable space group: P 21
;
_chemical_formula_sum "Si O2"
_cell_formula_units_Z 14
_cell_length_a 14.686780
_cell_length_b 8.492140
_cell_length_c 15.127486
_cell_angle_alpha 90.000000
_cell_angle_beta 160.012507
_cell_angle_gamma 90.000000
_cell_volume 644.913734
_symmetry_space_group_name_H-M "P 21"
_symmetry_group_IT_number 4
_symmetry_cell_setting 'monoclinic'
loop_
_space_group_symop_operation_xyz
x,y,z
-x,1/2+y,-z
loop_
_atom_site_type_symbol
_atom_site_label
_atom_site_fract_x
_atom_site_fract_y
_atom_site_fract_z
Si Si1 0.706145 0.444270 0.809877
Si Si2 0.157341 0.953055 0.264249
Si Si3 0.844932 0.789820 0.666357
Si Si4 0.600153 0.206257 0.230799
Si Si5 0.607006 0.781906 0.779198
Si Si6 0.866567 0.895164 0.489061
Si Si7 0.162313 0.179373 0.693787
O O1 0.763102 0.498961 0.762167
O O2 0.466827 0.318883 0.598357
O O3 0.614533 0.595443 0.779110
O O4 0.975626 0.376597 0.097503
O O5 0.111866 0.103988 0.284048
O O6 0.387955 0.845274 0.513009
O O7 0.889093 0.854751 0.015237
O O8 0.937979 0.842907 0.653714
O O9 0.474479 0.310977 0.193854
O O10 0.615578 0.016504 0.264221
O O11 0.899839 0.271143 0.490208
O O12 0.423402 0.236087 0.983100
O O13 0.109759 0.991748 0.662184
O O14 0.798206 0.735871 0.371791
#
# Coordination Sequence:
#
# PCOD8046806 Si02
#       7
#     2   2   2   2   2   2   2
#     4  12  23  45  70  95 140 187 227 282 343 411
#     4  12  26  41  66 108 134 178 236 285 340 398
#     4  12  26  45  70 101 143 179 230 289 341 406
#     4  10  23  42  65  96 127 176 223 267 346 393
#     4  12  24  45  69  96 139 182 229 282 341 413
#     4  10  25  44  69  98 134 177 225 276 343 402
#     4  10  23  40  69  96 131 169 228 271 336 405
#
# _framework density 21.708328999999999
#
# number of rings (size 3 to 8) (size 9 to 14) (size 15 to 20)
#    0.857    0.000    1.429    6.000    2.000    2.286 
#    0.000    0.000    0.000    0.000    0.000    0.000 
#    0.000    0.000    0.000    0.000    0.000    0.000 
#
# Total GULP energy -173550.590658 kJ/mol
# GULP energy per Si atom -12396.470761 kJ/mol
# Density = 2.165892 g / cm^3
# Si number density = 21.708329 Si / 1000 Ang^3
#
#
#
# Elastic Constant Matrix: (Units=GPa)
#
#
# Indices 1 2 3 4 5 6 
#
# 1 86.0213 26.5990 25.7627 0.0000 -6.5400 0.0000
# 2 26.5990 58.9605 26.9756 0.0000 1.5274 0.0000
# 3 25.7627 26.9756 144.3741 0.0000 -13.9901 0.0000
# 4 0.0000 0.0000 0.0000 -13.1482 0.0000 -20.5969
# 5 -6.5400 1.5274 -13.9901 0.0000 14.0867 0.0000
# 6 0.0000 0.0000 0.0000 -20.5969 0.0000 29.1720
#
#
#
# Elastic Compliance Matrix: (Units=1/GPa)
#
#
# Indices 1 2 3 4 5 6 
#
# 1 0.014288 -0.006278 -0.000739 0.000000 0.006580 0.000000
# 2 -0.006278 0.021780 -0.003829 0.000000 -0.009079 0.000000
# 3 -0.000739 -0.003829 0.008609 0.000000 0.008622 0.000000
# 4 0.000000 0.000000 0.000000 -0.036113 0.000000 -0.025498
# 5 0.006580 -0.009079 0.008622 0.000000 0.083592 0.000000
# 6 0.000000 0.000000 0.000000 -0.025498 0.000000 0.016277
#
#
# Mechanical properties :
#
#
# Convention : Reuss Voigt Hill
#
# Bulk Modulus (GPa) = 43.50667 49.78117 46.64392
# Shear Modulus (GPa) = 36.28826 20.02334 28.15580
#
# Velocity S-wave (km/s) = 4.09299 3.04037 3.60530
# Velocity P-wave (km/s) = 6.51320 5.94195 6.23412
#
# Compressibility (1/GPa) = 0.02298498
#
# Stress axis : x y z
#
# Youngs Moduli (GPa) = 69.98924 45.91412 116.15423
#
# Poissons Ratio (x) = 0.28826 0.08583
# Poissons Ratio (y) = 0.43940 0.44475
# Poissons Ratio (z) = 0.05172 0.17580
#
# Static dielectric constant tensor:
#      x y z
#    x 3.853360 0.000000 0.047950 
#    y 0.000000 3.813840 0.000000 
#    z 0.047950 0.000000 4.053510 
# 
# 
# High freq. dielectric constant tensor:
#      x y z
#    x 1.857750 0.000000 -0.005030 
#    y 0.000000 1.840680 0.000000 
#    z -0.005030 0.000000 1.863010 
# 
# From -- ./inp_files/14153.got.cif
#   From: 2010.03.12/outbox.cif.g09.slc.cpg/sg4_8_cif.got.tgz:14153.got - 2010.03.31 09:31:35.
