data_PCOD8046061
_publ_section_title
;
Structure prediction by ZEFSAII (Michael W. Deem and Ramdas Pophale) SiO2 
 PCOD8046061
Probable space group: P 21
;
_chemical_formula_sum "Si O2"
_cell_formula_units_Z 16
_cell_length_a 9.722413
_cell_length_b 8.605185
_cell_length_c 12.807257
_cell_angle_alpha 90.000000
_cell_angle_beta 145.036740
_cell_angle_gamma 90.000000
_cell_volume 614.021693
_symmetry_space_group_name_H-M "P 21"
_symmetry_group_IT_number 4
_symmetry_cell_setting 'monoclinic'
loop_
_space_group_symop_operation_xyz
x,y,z
-x,1/2+y,-z
loop_
_atom_site_type_symbol
_atom_site_label
_atom_site_fract_x
_atom_site_fract_y
_atom_site_fract_z
Si Si1 0.875635 0.401690 0.974529
Si Si2 0.396794 0.410593 0.218256
Si Si3 0.373943 0.930950 0.873812
Si Si4 0.161234 0.384094 0.496800
Si Si5 0.249023 0.699766 0.448537
Si Si6 0.456999 0.718959 0.365264
Si Si7 0.506159 0.238170 0.875127
Si Si8 0.765981 0.675412 0.044487
O O1 0.715318 0.366388 0.771170
O O2 0.770751 0.292548 0.002795
O O3 0.858305 0.583627 0.996947
O O4 0.149774 0.359012 0.119358
O O5 0.624996 0.348011 0.423135
O O6 0.420480 0.598086 0.245154
O O7 0.401833 0.321270 0.104967
O O8 0.486442 0.048734 0.855982
O O9 0.352183 0.039739 0.961899
O O10 0.123209 0.864596 0.673255
O O11 0.526576 0.787005 0.020420
O O12 0.230294 0.563924 0.521884
O O13 0.268929 0.282514 0.467447
O O14 0.287731 0.324552 0.680783
O O15 0.401809 0.643059 0.442219
O O16 0.988189 0.750358 0.245333
#
# Coordination Sequence:
#
# PCOD8046061 Si02
#       8
#     2   2   2   2   2   2   2   2
#     4  10  20  41  60  90 133 172 210 267 322 381
#     4  12  21  36  61  96 135 170 208 265 321 401
#     4  10  23  44  71  90 125 174 222 277 321 378
#     4  10  24  45  64  94 140 170 213 278 324 386
#     4  11  21  37  63  94 134 176 210 254 328 403
#     4  11  22  36  62  97 131 175 216 250 333 399
#     4  10  23  43  69  95 120 177 226 269 331 369
#     4  10  22  42  60  90 132 172 215 268 330 373
#
# _framework density 26.05771
#
# number of rings (size 3 to 8) (size 9 to 14) (size 15 to 20)
#    0.000    1.500    2.500    3.000    3.500    3.000 
#    2.250    7.500    0.000    0.000    0.000    0.000 
#    0.000    0.000    0.000    0.000    0.000    0.000 
#
# Total GULP energy -198327.606442 kJ/mol
# GULP energy per Si atom -12395.475403 kJ/mol
# Density = 2.599840 g / cm^3
# Si number density = 26.057710 Si / 1000 Ang^3
#
#
#
# Elastic Constant Matrix: (Units=GPa)
#
#
# Indices 1 2 3 4 5 6 
#
# 1 60.7863 11.3605 24.1779 0.0000 1.4627 0.0000
# 2 11.3605 124.7785 75.5622 0.0000 11.5052 0.0000
# 3 24.1779 75.5622 135.3240 0.0000 10.5077 0.0000
# 4 0.0000 0.0000 0.0000 40.3577 0.0000 2.6229
# 5 1.4627 11.5052 10.5077 0.0000 43.2648 0.0000
# 6 0.0000 0.0000 0.0000 2.6229 0.0000 37.0610
#
#
#
# Elastic Compliance Matrix: (Units=1/GPa)
#
#
# Indices 1 2 3 4 5 6 
#
# 1 0.017728 0.000452 -0.003428 0.000000 0.000113 0.000000
# 2 0.000452 0.012231 -0.006784 0.000000 -0.001620 0.000000
# 3 -0.003428 -0.006784 0.011865 0.000000 -0.000962 0.000000
# 4 0.000000 0.000000 0.000000 0.024893 0.000000 -0.001762
# 5 0.000113 -0.001620 -0.000962 0.000000 0.023774 0.000000
# 6 0.000000 0.000000 0.000000 -0.001762 0.000000 0.027107
#
#
# Mechanical properties :
#
#
# Convention : Reuss Voigt Hill
#
# Bulk Modulus (GPa) = 44.84008 60.34334 52.59171
# Shear Modulus (GPa) = 34.58923 38.12256 36.35590
#
# Velocity S-wave (km/s) = 3.64731 3.82907 3.73930
# Velocity P-wave (km/s) = 5.91460 6.53888 6.23456
#
# Compressibility (1/GPa) = 0.02230148
#
# Stress axis : x y z
#
# Youngs Moduli (GPa) = 56.40938 81.76025 84.28060
#
# Poissons Ratio (x) = -0.03693 0.28894
# Poissons Ratio (y) = -0.02548 0.57179
# Poissons Ratio (z) = 0.19339 0.55469
#
# Static dielectric constant tensor:
#      x y z
#    x 5.294850 0.000000 -0.159290 
#    y 0.000000 5.020870 0.000000 
#    z -0.159290 0.000000 4.492050 
# 
# 
# High freq. dielectric constant tensor:
#      x y z
#    x 2.085730 0.000000 -0.012820 
#    y 0.000000 2.064340 0.000000 
#    z -0.012820 0.000000 2.025410 
# 
# From -- ./inp_files/13967.got.cif
#   From: 2010.03.12/outbox.cif.g09.slc.cpg/sg4_7_cif.got.tgz:13967.got - 2010.03.31 09:31:35.
