data_PCOD8046125
_publ_section_title
;
Structure prediction by ZEFSAII (Michael W. Deem and Ramdas Pophale) SiO2 
 PCOD8046125
Probable space group: P 21
;
_chemical_formula_sum "Si O2"
_cell_formula_units_Z 14
_cell_length_a 14.961822
_cell_length_b 5.131247
_cell_length_c 9.126068
_cell_angle_alpha 90.000000
_cell_angle_beta 113.668089
_cell_angle_gamma 90.000000
_cell_volume 641.700940
_symmetry_space_group_name_H-M "P 21"
_symmetry_group_IT_number 4
_symmetry_cell_setting 'monoclinic'
loop_
_space_group_symop_operation_xyz
x,y,z
-x,1/2+y,-z
loop_
_atom_site_type_symbol
_atom_site_label
_atom_site_fract_x
_atom_site_fract_y
_atom_site_fract_z
Si Si1 0.724428 0.336560 0.072401
Si Si2 0.532750 0.761743 0.609704
Si Si3 0.462205 0.720999 0.895549
Si Si4 0.057304 0.283761 0.081369
Si Si5 0.726112 0.825705 0.885817
Si Si6 0.122285 0.842420 0.595857
Si Si7 0.908598 0.843398 0.563969
O O1 0.652958 0.269625 0.159336
O O2 0.831870 0.361451 0.212153
O O3 0.691272 0.611867 0.981647
O O4 0.723534 0.116251 0.947580
O O5 0.516125 0.490288 0.516404
O O6 0.486610 0.754134 0.741286
O O7 0.649500 0.812657 0.700761
O O8 0.482211 0.430167 0.966366
O O9 0.165038 0.247915 0.088053
O O10 0.066257 0.381273 0.251571
O O11 0.997029 0.505382 0.955841
O O12 0.157400 0.584270 0.533842
O O13 0.006261 0.835129 0.532518
O O14 0.153281 0.084638 0.513263
#
# Coordination Sequence:
#
# PCOD8046125 Si02
#       7
#     2   2   2   2   2   2   2
#     4  12  23  42  70  97 128 174 235 273 337 404
#     4  12  26  44  69 104 144 182 227 294 363 408
#     4  12  23  45  70  97 134 175 227 282 337 414
#     4  12  25  42  66  95 135 178 223 274 340 410
#     4  12  25  43  68  98 136 178 229 284 335 422
#     4  10  21  36  61  88 120 166 208 271 322 387
#     4  10  21  38  56  87 129 159 211 266 326 381
#
# _framework density 21.817015000000001
#
# number of rings (size 3 to 8) (size 9 to 14) (size 15 to 20)
#    0.000    0.571    2.857    6.000    0.000    4.571 
#    0.000    0.000    0.000    0.000    0.000    0.000 
#    0.000    0.000    0.000    0.000    0.000    0.000 
#
# Total GULP energy -173638.253211 kJ/mol
# GULP energy per Si atom -12402.732372 kJ/mol
# Density = 2.176736 g / cm^3
# Si number density = 21.817015 Si / 1000 Ang^3
#
#
#
# Elastic Constant Matrix: (Units=GPa)
#
#
# Indices 1 2 3 4 5 6 
#
# 1 79.6553 10.3947 14.5025 0.0000 1.1749 0.0000
# 2 10.3947 128.8810 37.2349 0.0000 2.2750 0.0000
# 3 14.5025 37.2349 112.1178 0.0000 1.7188 0.0000
# 4 0.0000 0.0000 0.0000 50.4255 0.0000 0.0490
# 5 1.1749 2.2750 1.7188 0.0000 42.2473 0.0000
# 6 0.0000 0.0000 0.0000 0.0490 0.0000 22.8280
#
#
#
# Elastic Compliance Matrix: (Units=1/GPa)
#
#
# Indices 1 2 3 4 5 6 
#
# 1 0.012904 -0.000614 -0.001461 0.000000 -0.000266 0.000000
# 2 -0.000614 0.008617 -0.002777 0.000000 -0.000334 0.000000
# 3 -0.001461 -0.002777 0.010034 0.000000 -0.000218 0.000000
# 4 0.000000 0.000000 0.000000 0.019831 0.000000 -0.000043
# 5 -0.000266 -0.000334 -0.000218 0.000000 0.023704 0.000000
# 6 0.000000 0.000000 0.000000 -0.000043 0.000000 0.043806
#
#
# Mechanical properties :
#
#
# Convention : Reuss Voigt Hill
#
# Bulk Modulus (GPa) = 45.76594 49.43537 47.60065
# Shear Modulus (GPa) = 36.79598 40.33498 38.56548
#
# Velocity S-wave (km/s) = 4.11125 4.30442 4.20894
# Velocity P-wave (km/s) = 6.59994 6.88566 6.74431
#
# Compressibility (1/GPa) = 0.02185031
#
# Stress axis : x y z
#
# Youngs Moduli (GPa) = 77.49438 116.05159 99.66263
#
# Poissons Ratio (x) = 0.07125 0.14563
# Poissons Ratio (y) = 0.04757 0.27678
# Poissons Ratio (z) = 0.11323 0.32230
#
# Static dielectric constant tensor:
#      x y z
#    x 3.948330 0.000000 0.098370 
#    y 0.000000 4.415830 0.000000 
#    z 0.098370 0.000000 3.857810 
# 
# 
# High freq. dielectric constant tensor:
#      x y z
#    x 1.846050 0.000000 0.006600 
#    y 0.000000 1.882510 0.000000 
#    z 0.006600 0.000000 1.857980 
# 
# From -- ./inp_files/7341.got.cif
#   From: 2010.03.12/outbox.cif.g09.slc.cpg/sg4_4_cif.got.tgz:7341.got - 2010.03.31 09:31:35.
