data_PCOD8046176
_publ_section_title
;
Structure prediction by ZEFSAII (Michael W. Deem and Ramdas Pophale) SiO2 
 PCOD8046176
Probable space group: P 21
;
_chemical_formula_sum "Si O2"
_cell_formula_units_Z 16
_cell_length_a 16.648108
_cell_length_b 8.396368
_cell_length_c 9.261177
_cell_angle_alpha 90.000000
_cell_angle_beta 32.700249
_cell_angle_gamma 90.000000
_cell_volume 699.378807
_symmetry_space_group_name_H-M "P 21"
_symmetry_group_IT_number 4
_symmetry_cell_setting 'monoclinic'
loop_
_space_group_symop_operation_xyz
x,y,z
-x,1/2+y,-z
loop_
_atom_site_type_symbol
_atom_site_label
_atom_site_fract_x
_atom_site_fract_y
_atom_site_fract_z
Si Si1 0.163770 0.410910 0.265521
Si Si2 0.712783 0.680314 0.695978
Si Si3 0.502222 0.421508 0.133698
Si Si4 0.694375 0.050673 0.347183
Si Si5 0.995171 0.712308 0.076389
Si Si6 0.672975 0.200559 0.088843
Si Si7 0.900358 0.439444 0.853699
Si Si8 0.157130 0.267302 0.981020
O O1 0.218900 0.249094 0.259320
O O2 0.096403 0.365409 0.211089
O O3 0.038777 0.498536 0.548785
O O4 0.296023 0.539209 0.047038
O O5 0.596657 0.814531 0.821119
O O6 0.842913 0.647390 0.381751
O O7 0.632105 0.511195 0.848794
O O8 0.403774 0.561086 0.359323
O O9 0.558080 0.307099 0.176732
O O10 0.619138 0.155818 0.333769
O O11 0.867233 0.092180 0.113463
O O12 0.700219 0.862221 0.295978
O O13 0.039906 0.879340 0.082052
O O14 0.972286 0.747181 0.942101
O O15 0.824128 0.299481 0.879273
O O16 0.792195 0.589717 0.046483
#
# Coordination Sequence:
#
# PCOD8046176 Si02
#       8
#     2   2   2   2   2   2   2   2
#     4  10  22  40  67  98 136 176 229 281 335 400
#     4  11  25  46  68  98 139 176 228 277 344 405
#     4  12  25  47  66 100 140 185 224 278 346 416
#     4  10  24  44  69 101 134 173 236 280 337 404
#     4  10  22  44  68 100 131 174 228 286 333 402
#     4  10  23  41  64  98 135 180 226 274 339 405
#     4  10  21  38  63 100 135 170 225 284 339 395
#     4  11  20  38  67  95 132 174 220 288 337 389
#
# _framework density 22.877444000000001
#
# number of rings (size 3 to 8) (size 9 to 14) (size 15 to 20)
#    0.000    1.500    1.250    3.000    1.750    8.000 
#    9.000    0.000    0.000    0.000    0.000    0.000 
#    0.000    0.000    0.000    0.000    0.000    0.000 
#
# Total GULP energy -198340.877625 kJ/mol
# GULP energy per Si atom -12396.304852 kJ/mol
# Density = 2.282537 g / cm^3
# Si number density = 22.877444 Si / 1000 Ang^3
#
#
#
# Elastic Constant Matrix: (Units=GPa)
#
#
# Indices 1 2 3 4 5 6 
#
# 1 111.0493 23.1234 44.5162 0.0000 15.6781 0.0000
# 2 23.1234 90.4369 41.0617 0.0000 3.0869 0.0000
# 3 44.5162 41.0617 93.5144 0.0000 1.1140 0.0000
# 4 0.0000 0.0000 0.0000 29.8995 0.0000 -3.3622
# 5 15.6781 3.0869 1.1140 0.0000 26.5670 0.0000
# 6 0.0000 0.0000 0.0000 -3.3622 0.0000 37.5701
#
#
#
# Elastic Compliance Matrix: (Units=1/GPa)
#
#
# Indices 1 2 3 4 5 6 
#
# 1 0.012322 -0.000358 -0.005625 0.000000 -0.006994 0.000000
# 2 -0.000358 0.013870 -0.005906 0.000000 -0.001153 0.000000
# 3 -0.005625 -0.005906 0.015925 0.000000 0.003338 0.000000
# 4 0.000000 0.000000 0.000000 0.033785 0.000000 0.003023
# 5 -0.006994 -0.001153 0.003338 0.000000 0.041762 0.000000
# 6 0.000000 0.000000 0.000000 0.003023 0.000000 0.026888
#
#
# Mechanical properties :
#
#
# Convention : Reuss Voigt Hill
#
# Bulk Modulus (GPa) = 54.53027 56.93367 55.73197
# Shear Modulus (GPa) = 28.66267 31.22728 29.94498
#
# Velocity S-wave (km/s) = 3.54344 3.69857 3.62184
# Velocity P-wave (km/s) = 6.37408 6.57112 6.47335
#
# Compressibility (1/GPa) = 0.01833844
#
# Stress axis : x y z
#
# Youngs Moduli (GPa) = 81.15591 72.09878 62.79436
#
# Poissons Ratio (x) = 0.02579 0.35324
# Poissons Ratio (y) = 0.02903 0.37087
# Poissons Ratio (z) = 0.45653 0.42583
#
# Static dielectric constant tensor:
#      x y z
#    x 4.196910 0.000000 0.196140 
#    y 0.000000 4.146970 0.000000 
#    z 0.196140 0.000000 3.908310 
# 
# 
# High freq. dielectric constant tensor:
#      x y z
#    x 1.907240 0.000000 0.017710 
#    y 0.000000 1.906840 0.000000 
#    z 0.017710 0.000000 1.887120 
# 
# From -- ./inp_files/9624.got.cif
#   From: 2010.03.12/outbox.cif.g09.slc.cpg/sg4_5_cif.got.tgz:9624.got - 2010.03.31 09:31:35.
