data_PCOD8046946
_publ_section_title
;
Structure prediction by ZEFSAII (Michael W. Deem and Ramdas Pophale) SiO2 
 PCOD8046946
Probable space group: P 21
;
_chemical_formula_sum "Si O2"
_cell_formula_units_Z 14
_cell_length_a 9.528653
_cell_length_b 4.977378
_cell_length_c 12.499207
_cell_angle_alpha 90.000000
_cell_angle_beta 75.149507
_cell_angle_gamma 90.000000
_cell_volume 573.007679
_symmetry_space_group_name_H-M "P 21"
_symmetry_group_IT_number 4
_symmetry_cell_setting 'monoclinic'
loop_
_space_group_symop_operation_xyz
x,y,z
-x,1/2+y,-z
loop_
_atom_site_type_symbol
_atom_site_label
_atom_site_fract_x
_atom_site_fract_y
_atom_site_fract_z
Si Si1 0.876520 0.562320 0.874372
Si Si2 0.311150 0.421656 0.795987
Si Si3 0.922858 0.316670 0.649765
Si Si4 0.541224 0.525858 0.927747
Si Si5 0.420873 0.314189 0.538586
Si Si6 0.125687 0.917084 0.890080
Si Si7 0.821404 0.818957 0.564940
O O1 0.953525 0.387164 0.766764
O O2 0.708345 0.613969 0.873993
O O3 0.967300 0.842112 0.870503
O O4 0.888807 0.382400 0.979042
O O5 0.457285 0.410867 0.839946
O O6 0.352886 0.355269 0.667287
O O7 0.244707 0.717095 0.817364
O O8 0.185146 0.216655 0.857667
O O9 0.809482 0.524798 0.618561
O O10 0.069840 0.335005 0.555642
O O11 0.860369 0.016647 0.654995
O O12 0.543560 0.288804 0.014930
O O13 0.561257 0.498784 0.491084
O O14 0.324456 0.422374 0.459612
#
# Coordination Sequence:
#
# PCOD8046946 Si02
#       7
#     2   2   2   2   2   2   2
#     4  12  27  46  77 110 145 193 260 299 370 451
#     4  12  26  51  72 107 157 201 238 315 389 433
#     4  10  24  44  73  97 138 185 233 309 355 432
#     4  12  26  48  73 109 154 201 241 307 377 458
#     4  12  27  45  73 106 142 192 249 301 357 459
#     4  12  27  47  74 110 151 194 252 311 373 449
#     4  10  23  45  66 101 137 180 239 294 375 410
#
# _framework density 24.432485
#
# number of rings (size 3 to 8) (size 9 to 14) (size 15 to 20)
#    0.000    0.571    2.857    3.429    4.000    9.143 
#    0.000    0.000    0.000    0.000    0.000    0.000 
#    0.000    0.000    0.000    0.000    0.000    0.000 
#
# Total GULP energy -173580.508385 kJ/mol
# GULP energy per Si atom -12398.607742 kJ/mol
# Density = 2.437688 g / cm^3
# Si number density = 24.432485 Si / 1000 Ang^3
#
#
#
# Elastic Constant Matrix: (Units=GPa)
#
#
# Indices 1 2 3 4 5 6 
#
# 1 124.7430 17.2233 5.0376 0.0000 12.8727 0.0000
# 2 17.2233 81.1182 -6.5594 0.0000 -8.2822 0.0000
# 3 5.0376 -6.5594 90.8457 0.0000 -4.8848 0.0000
# 4 0.0000 0.0000 0.0000 17.0246 0.0000 -19.1001
# 5 12.8727 -8.2822 -4.8848 0.0000 27.2240 0.0000
# 6 0.0000 0.0000 0.0000 -19.1001 0.0000 15.8374
#
#
#
# Elastic Compliance Matrix: (Units=1/GPa)
#
#
# Indices 1 2 3 4 5 6 
#
# 1 0.008932 -0.002500 -0.000953 0.000000 -0.005155 0.000000
# 2 -0.002500 0.013540 0.001415 0.000000 0.005555 0.000000
# 3 -0.000953 0.001415 0.011319 0.000000 0.002912 0.000000
# 4 0.000000 0.000000 0.000000 -0.166384 0.000000 -0.200660
# 5 -0.005155 0.005555 0.002912 0.000000 0.041382 0.000000
# 6 0.000000 0.000000 0.000000 -0.200660 0.000000 -0.178856
#
#
# Mechanical properties :
#
#
# Convention : Reuss Voigt Hill
#
# Bulk Modulus (GPa) = 33.65232 36.45665 35.05448
# Shear Modulus (GPa) = -19.52474 30.75091 5.61309
#
# Velocity S-wave (km/s) = -2.82996 3.55153 1.51736
# Velocity P-wave (km/s) = 1.76785 5.63663 4.17714
#
# Compressibility (1/GPa) = 0.02971564
#
# Stress axis : x y z
#
# Youngs Moduli (GPa) = 111.95596 73.85483 88.34492
#
# Poissons Ratio (x) = 0.18463 0.08419
# Poissons Ratio (y) = 0.27988 -0.12501
# Poissons Ratio (z) = 0.10669 -0.10450
#
# Static dielectric constant tensor:
#      x y z
#    x 4.416150 0.000000 0.045850 
#    y 0.000000 4.333460 0.000000 
#    z 0.045850 0.000000 4.390230 
# 
# 
# High freq. dielectric constant tensor:
#      x y z
#    x 1.976810 0.000000 0.007490 
#    y 0.000000 1.974930 0.000000 
#    z 0.007490 0.000000 1.977140 
# 
# From -- ./inp_files/10728.got.cif
#   From: 2010.03.12/outbox.cif.g09.slc.cpg/sg4_6_cif.got.tgz:10728.got - 2010.03.31 09:31:35.
