data_PCOD8046908
_publ_section_title
;
Structure prediction by ZEFSAII (Michael W. Deem and Ramdas Pophale) SiO2 
 PCOD8046908
Probable space group: P 21
;
_chemical_formula_sum "Si O2"
_cell_formula_units_Z 16
_cell_length_a 8.607729
_cell_length_b 9.405259
_cell_length_c 12.396954
_cell_angle_alpha 90.000000
_cell_angle_beta 137.266655
_cell_angle_gamma 90.000000
_cell_volume 681.051630
_symmetry_space_group_name_H-M "P 21"
_symmetry_group_IT_number 4
_symmetry_cell_setting 'monoclinic'
loop_
_space_group_symop_operation_xyz
x,y,z
-x,1/2+y,-z
loop_
_atom_site_type_symbol
_atom_site_label
_atom_site_fract_x
_atom_site_fract_y
_atom_site_fract_z
Si Si1 0.698691 0.246600 0.629458
Si Si2 0.002819 0.978842 0.821848
Si Si3 0.389722 0.863099 0.870148
Si Si4 0.305467 0.968021 0.183531
Si Si5 0.206702 0.463223 0.632153
Si Si6 0.238697 0.578717 0.876738
Si Si7 0.191575 0.764118 0.551876
Si Si8 0.756870 0.697646 0.693885
O O1 0.745983 0.367741 0.741094
O O2 0.730905 0.317483 0.526826
O O3 0.438608 0.180901 0.499633
O O4 0.892551 0.131531 0.750179
O O5 0.798634 0.865250 0.717466
O O6 0.181659 0.954122 0.815361
O O7 0.110201 0.967445 0.995138
O O8 0.403656 0.716781 0.947024
O O9 0.364726 0.819959 0.732285
O O10 0.623956 0.953524 0.993220
O O11 0.532380 0.911022 0.240662
O O12 0.348367 0.129517 0.249836
O O13 0.148474 0.525353 0.717710
O O14 0.163043 0.593200 0.527167
O O15 0.050288 0.327532 0.531099
O O16 0.001382 0.618003 0.812905
#
# Coordination Sequence:
#
# PCOD8046908 Si02
#       8
#     2   2   2   2   2   2   2   2
#     4  12  26  46  77 105 144 191 236 296 366 432
#     4  11  25  49  73 105 144 191 236 300 362 427
#     4  10  23  43  74 104 142 188 246 299 347 421
#     4  12  25  47  71 107 148 186 238 300 356 432
#     4  11  24  46  69 106 143 185 245 293 355 421
#     4  10  23  44  70 101 147 188 239 299 352 430
#     4  11  25  46  73 106 142 192 235 303 351 431
#     4  11  25  45  71 106 148 187 235 294 367 430
#
# _framework density 23.493079999999999
#
# number of rings (size 3 to 8) (size 9 to 14) (size 15 to 20)
#    0.000    1.000    2.500    3.000    5.250    4.000 
#    0.000    0.000    0.000    0.000    0.000    0.000 
#    0.000    0.000    0.000    0.000    0.000    0.000 
#
# Total GULP energy -198323.451949 kJ/mol
# GULP energy per Si atom -12395.215747 kJ/mol
# Density = 2.343961 g / cm^3
# Si number density = 23.493080 Si / 1000 Ang^3
#
#
#
# Elastic Constant Matrix: (Units=GPa)
#
#
# Indices 1 2 3 4 5 6 
#
# 1 76.6861 27.7778 41.4753 0.0000 -2.5700 0.0000
# 2 27.7778 84.3923 37.5871 0.0000 8.9867 0.0000
# 3 41.4753 37.5871 118.9025 0.0000 5.8865 0.0000
# 4 0.0000 0.0000 0.0000 39.6996 0.0000 5.5656
# 5 -2.5700 8.9867 5.8865 0.0000 37.2120 0.0000
# 6 0.0000 0.0000 0.0000 5.5656 0.0000 33.8641
#
#
#
# Elastic Compliance Matrix: (Units=1/GPa)
#
#
# Indices 1 2 3 4 5 6 
#
# 1 0.017171 -0.003756 -0.004945 0.000000 0.002875 0.000000
# 2 -0.003756 0.014879 -0.003228 0.000000 -0.003342 0.000000
# 3 -0.004945 -0.003228 0.011222 0.000000 -0.001337 0.000000
# 4 0.000000 0.000000 0.000000 0.025783 0.000000 -0.004237
# 5 0.002875 -0.003342 -0.001337 0.000000 0.028090 0.000000
# 6 0.000000 0.000000 0.000000 -0.004237 0.000000 0.030226
#
#
# Mechanical properties :
#
#
# Convention : Reuss Voigt Hill
#
# Bulk Modulus (GPa) = 51.50624 54.85126 53.17875
# Shear Modulus (GPa) = 31.70560 33.69786 32.70173
#
# Velocity S-wave (km/s) = 3.67764 3.79142 3.73496
# Velocity P-wave (km/s) = 6.32495 6.52419 6.42534
#
# Compressibility (1/GPa) = 0.01941512
#
# Stress axis : x y z
#
# Youngs Moduli (GPa) = 58.23662 67.20764 89.11310
#
# Poissons Ratio (x) = 0.25242 0.44064
# Poissons Ratio (y) = 0.21873 0.28766
# Poissons Ratio (z) = 0.28796 0.21695
#
# Static dielectric constant tensor:
#      x y z
#    x 4.286500 0.000000 -0.012650 
#    y 0.000000 4.406150 0.000000 
#    z -0.012650 0.000000 4.139040 
# 
# 
# High freq. dielectric constant tensor:
#      x y z
#    x 1.932490 0.000000 0.005900 
#    y 0.000000 1.931860 0.000000 
#    z 0.005900 0.000000 1.931670 
# 
# From -- ./inp_files/11112.got.cif
#   From: 2010.03.12/outbox.cif.g09.slc.cpg/sg4_6_cif.got.tgz:11112.got - 2010.03.31 09:31:35.
