data_PCOD8046841
_publ_section_title
;
Structure prediction by ZEFSAII (Michael W. Deem and Ramdas Pophale) SiO2 
 PCOD8046841
Probable space group: P 21
;
_chemical_formula_sum "Si O2"
_cell_formula_units_Z 14
_cell_length_a 15.117794
_cell_length_b 8.558537
_cell_length_c 14.721786
_cell_angle_alpha 90.000000
_cell_angle_beta 160.069544
_cell_angle_gamma 90.000000
_cell_volume 649.305543
_symmetry_space_group_name_H-M "P 21"
_symmetry_group_IT_number 4
_symmetry_cell_setting 'monoclinic'
loop_
_space_group_symop_operation_xyz
x,y,z
-x,1/2+y,-z
loop_
_atom_site_type_symbol
_atom_site_label
_atom_site_fract_x
_atom_site_fract_y
_atom_site_fract_z
Si Si1 0.279416 0.125000 0.661670
Si Si2 0.723167 0.113592 0.579791
Si Si3 0.799440 0.947376 0.116723
Si Si4 0.262030 0.467441 0.600262
Si Si5 0.989033 0.413157 0.871139
Si Si6 0.814881 0.620547 0.856601
Si Si7 0.742843 0.620123 0.151903
O O1 0.288471 0.282155 0.611180
O O2 0.257314 0.177871 0.744848
O O3 0.036895 0.019151 0.401238
O O4 0.536781 0.027870 0.893309
O O5 0.755306 0.303356 0.606697
O O6 0.979330 0.040099 0.874749
O O7 0.684078 0.049477 0.442497
O O8 0.473597 0.066325 0.397853
O O9 0.836331 0.970094 0.044364
O O10 0.781069 0.764044 0.120586
O O11 0.975746 0.499309 0.361365
O O12 0.473833 0.531023 0.875235
O O13 0.155813 0.308681 0.104327
O O14 0.876121 0.565120 0.813189
#
# Coordination Sequence:
#
# PCOD8046841 Si02
#       7
#     2   2   2   2   2   2   2
#     4  12  27  41  66 107 137 179 233 286 340 398
#     4  10  23  42  66  97 126 176 223 268 345 393
#     4  12  26  45  70 101 143 179 230 289 341 406
#     4  12  24  45  69  97 139 181 230 282 340 413
#     4  10  25  44  69  98 134 177 225 275 344 402
#     4  10  24  40  70  94 131 169 228 273 336 405
#     4  12  23  45  72  96 138 187 229 281 342 411
#
# _framework density 21.561496999999999
#
# number of rings (size 3 to 8) (size 9 to 14) (size 15 to 20)
#    0.857    0.000    1.429    6.000    4.000    2.286 
#    0.000    0.000    0.000    0.000    0.000    0.000 
#    0.000    0.000    0.000    0.000    0.000    0.000 
#
# Total GULP energy -173615.705452 kJ/mol
# GULP energy per Si atom -12401.121818 kJ/mol
# Density = 2.151242 g / cm^3
# Si number density = 21.561497 Si / 1000 Ang^3
#
#
#
# Elastic Constant Matrix: (Units=GPa)
#
#
# Indices 1 2 3 4 5 6 
#
# 1 114.5731 10.4549 5.7555 0.0000 13.6569 0.0000
# 2 10.4549 73.4076 28.8959 0.0000 -0.0567 0.0000
# 3 5.7555 28.8959 114.5718 0.0000 20.5359 0.0000
# 4 0.0000 0.0000 0.0000 23.7209 0.0000 -0.3566
# 5 13.6569 -0.0567 20.5359 0.0000 28.6596 0.0000
# 6 0.0000 0.0000 0.0000 -0.3566 0.0000 39.4355
#
#
#
# Elastic Compliance Matrix: (Units=1/GPa)
#
#
# Indices 1 2 3 4 5 6 
#
# 1 0.009450 -0.001693 0.000872 0.000000 -0.005132 0.000000
# 2 -0.001693 0.015683 -0.004613 0.000000 0.004143 0.000000
# 3 0.000872 -0.004613 0.011386 0.000000 -0.008583 0.000000
# 4 0.000000 0.000000 0.000000 0.042163 0.000000 0.000381
# 5 -0.005132 0.004143 -0.008583 0.000000 0.043496 0.000000
# 6 0.000000 0.000000 0.000000 0.000381 0.000000 0.025361
#
#
# Mechanical properties :
#
#
# Convention : Reuss Voigt Hill
#
# Bulk Modulus (GPa) = 38.98426 43.64059 41.31242
# Shear Modulus (GPa) = 29.94764 35.52628 32.73696
#
# Velocity S-wave (km/s) = 3.73089 4.06356 3.90077
# Velocity P-wave (km/s) = 6.05633 6.50389 6.28410
#
# Compressibility (1/GPa) = 0.02565138
#
# Stress axis : x y z
#
# Youngs Moduli (GPa) = 105.81534 63.76449 87.82528
#
# Poissons Ratio (x) = 0.10797 -0.07659
# Poissons Ratio (y) = 0.17917 0.40513
# Poissons Ratio (z) = -0.09228 0.29414
#
# Static dielectric constant tensor:
#      x y z
#    x 3.826990 0.000000 0.064550 
#    y 0.000000 3.774850 0.000000 
#    z 0.064550 0.000000 3.950080 
# 
# 
# High freq. dielectric constant tensor:
#      x y z
#    x 1.852160 0.000000 0.006580 
#    y 0.000000 1.835000 0.000000 
#    z 0.006580 0.000000 1.856440 
# 
# From -- ./inp_files/14198.got.cif
#   From: 2010.03.12/outbox.cif.g09.slc.cpg/sg4_8_cif.got.tgz:14198.got - 2010.03.31 09:31:35.
