data_PCOD8046920
_publ_section_title
;
Structure prediction by ZEFSAII (Michael W. Deem and Ramdas Pophale) SiO2 
 PCOD8046920
Probable space group: P 21
;
_chemical_formula_sum "Si O2"
_cell_formula_units_Z 14
_cell_length_a 11.447124
_cell_length_b 12.187067
_cell_length_c 5.169348
_cell_angle_alpha 90.000000
_cell_angle_beta 111.179583
_cell_angle_gamma 90.000000
_cell_volume 672.447096
_symmetry_space_group_name_H-M "P 21"
_symmetry_group_IT_number 4
_symmetry_cell_setting 'monoclinic'
loop_
_space_group_symop_operation_xyz
x,y,z
-x,1/2+y,-z
loop_
_atom_site_type_symbol
_atom_site_label
_atom_site_fract_x
_atom_site_fract_y
_atom_site_fract_z
Si Si1 0.661092 0.660500 0.875485
Si Si2 0.775481 0.162954 0.686771
Si Si3 0.813331 0.625858 0.505949
Si Si4 0.234298 0.877764 0.578909
Si Si5 0.519697 0.876357 0.864914
Si Si6 0.444886 0.504626 0.620479
Si Si7 0.907009 0.191696 0.301025
O O1 0.728652 0.685184 0.656115
O O2 0.563885 0.751414 0.895437
O O3 0.584482 0.549318 0.774451
O O4 0.764224 0.645729 0.178933
O O5 0.752844 0.295009 0.656464
O O6 0.873447 0.127085 0.539276
O O7 0.645478 0.103829 0.526529
O O8 0.831296 0.132378 0.009122
O O9 0.820409 0.494460 0.557864
O O10 0.946932 0.683878 0.639638
O O11 0.372657 0.887829 0.813005
O O12 0.138349 0.819344 0.706432
O O13 0.555158 0.921687 0.615181
O O14 0.595423 0.941332 0.150070
#
# Coordination Sequence:
#
# PCOD8046920 Si02
#       7
#     2   2   2   2   2   2   2
#     4  12  24  43  66 101 137 169 220 282 329 404
#     4  10  23  44  67  96 131 171 223 274 321 395
#     4  12  25  45  67  98 137 178 221 273 339 388
#     4  10  24  41  73  91 129 178 226 263 334 400
#     4  12  25  41  67 102 135 173 220 272 345 393
#     4  12  23  42  68 100 132 174 218 275 336 398
#     4  10  24  44  66  94 131 181 224 271 316 398
#
# _framework density 20.819481
#
# number of rings (size 3 to 8) (size 9 to 14) (size 15 to 20)
#    0.857    0.000    4.286    2.571    4.000    1.143 
#    7.714    0.000    0.000    0.000    0.000    0.000 
#    0.000    0.000    0.000    0.000    0.000    0.000 
#
# Total GULP energy -173543.150914 kJ/mol
# GULP energy per Si atom -12395.939351 kJ/mol
# Density = 2.077210 g / cm^3
# Si number density = 20.819481 Si / 1000 Ang^3
#
#
#
# Elastic Constant Matrix: (Units=GPa)
#
#
# Indices 1 2 3 4 5 6 
#
# 1 92.8171 24.9396 23.5065 0.0000 0.8259 0.0000
# 2 24.9396 68.4474 16.5451 0.0000 1.7742 0.0000
# 3 23.5065 16.5451 121.7160 0.0000 -12.9798 0.0000
# 4 0.0000 0.0000 0.0000 23.1730 0.0000 -5.3423
# 5 0.8259 1.7742 -12.9798 0.0000 27.6171 0.0000
# 6 0.0000 0.0000 0.0000 -5.3423 0.0000 29.6117
#
#
#
# Elastic Compliance Matrix: (Units=1/GPa)
#
#
# Indices 1 2 3 4 5 6 
#
# 1 0.012353 -0.004002 -0.001951 0.000000 -0.001029 0.000000
# 2 -0.004002 0.016513 -0.001655 0.000000 -0.001719 0.000000
# 3 -0.001951 -0.001655 0.009301 0.000000 0.004536 0.000000
# 4 0.000000 0.000000 0.000000 0.045027 0.000000 0.008123
# 5 -0.001029 -0.001719 0.004536 0.000000 0.038483 0.000000
# 6 0.000000 0.000000 0.000000 0.008123 0.000000 0.035236
#
#
# Mechanical properties :
#
#
# Convention : Reuss Voigt Hill
#
# Bulk Modulus (GPa) = 43.57431 45.88476 44.72953
# Shear Modulus (GPa) = 27.81191 30.61299 29.21245
#
# Velocity S-wave (km/s) = 3.65891 3.83874 3.74990
# Velocity P-wave (km/s) = 6.23098 6.46027 6.34666
#
# Compressibility (1/GPa) = 0.02294930
#
# Stress axis : x y z
#
# Youngs Moduli (GPa) = 80.95412 60.55946 107.51064
#
# Poissons Ratio (x) = 0.24239 0.20979
# Poissons Ratio (y) = 0.32402 0.17792
# Poissons Ratio (z) = 0.15797 0.10022
#
# Static dielectric constant tensor:
#      x y z
#    x 3.650930 0.000000 -0.136750 
#    y 0.000000 3.628090 0.000000 
#    z -0.136750 0.000000 3.798000 
# 
# 
# High freq. dielectric constant tensor:
#      x y z
#    x 1.807300 0.000000 -0.006910 
#    y 0.000000 1.803450 0.000000 
#    z -0.006910 0.000000 1.823650 
# 
# From -- ./inp_files/2750.got.cif
#   From: 2010.03.12/outbox.cif.g09.slc.cpg/sg4_2_cif.got.tgz:2750.got - 2010.03.31 09:31:35.
