data_PCOD8046619
_publ_section_title
;
Structure prediction by ZEFSAII (Michael W. Deem and Ramdas Pophale) SiO2 
 PCOD8046619
Probable space group: P 21
;
_chemical_formula_sum "Si O2"
_cell_formula_units_Z 12
_cell_length_a 9.545282
_cell_length_b 7.202100
_cell_length_c 7.881112
_cell_angle_alpha 90.000000
_cell_angle_beta 76.813197
_cell_angle_gamma 90.000000
_cell_volume 527.509171
_symmetry_space_group_name_H-M "P 21"
_symmetry_group_IT_number 4
_symmetry_cell_setting 'monoclinic'
loop_
_space_group_symop_operation_xyz
x,y,z
-x,1/2+y,-z
loop_
_atom_site_type_symbol
_atom_site_label
_atom_site_fract_x
_atom_site_fract_y
_atom_site_fract_z
Si Si1 0.250952 0.391950 0.330030
Si Si2 0.138694 0.499234 0.020986
Si Si3 0.180800 0.913674 0.919736
Si Si4 0.365546 0.217812 0.993770
Si Si5 0.702577 0.578288 0.454042
Si Si6 0.428764 0.728347 0.349123
O O1 0.130285 0.467248 0.230220
O O2 0.196540 0.229604 0.473925
O O3 0.314656 0.564669 0.415649
O O4 0.379672 0.295203 0.181501
O O5 0.981561 0.470668 0.985159
O O6 0.251933 0.347604 0.917129
O O7 0.200787 0.696307 0.945654
O O8 0.293916 0.013482 0.013411
O O9 0.211900 0.974097 0.717756
O O10 0.521023 0.221015 0.862163
O O11 0.566955 0.697724 0.428289
O O12 0.646983 0.423117 0.598799
#
# Coordination Sequence:
#
# PCOD8046619 Si02
#       6
#     2   2   2   2   2   2
#     4  10  24  40  60 101 126 165 210 264 318 375
#     4  10  22  42  68  93 123 166 222 264 314 390
#     4  11  22  45  68  92 121 176 214 265 324 383
#     4   9  24  37  68  93 124 164 220 260 309 394
#     4  11  25  40  63  95 131 168 208 267 325 379
#     4  11  23  40  63  90 131 169 206 258 328 387
#
# _framework density 22.748417
#
# number of rings (size 3 to 8) (size 9 to 14) (size 15 to 20)
#    1.000    0.667    3.333    0.000    7.000    1.333 
#    3.000    0.000    0.000    0.000    0.000    0.000 
#    0.000    0.000    0.000    0.000    0.000    0.000 
#
# Total GULP energy -148704.237709 kJ/mol
# GULP energy per Si atom -12392.019809 kJ/mol
# Density = 2.269664 g / cm^3
# Si number density = 22.748417 Si / 1000 Ang^3
#
#
#
# Elastic Constant Matrix: (Units=GPa)
#
#
# Indices 1 2 3 4 5 6 
#
# 1 35.0001 17.5152 -7.4234 0.0000 -2.6865 0.0000
# 2 17.5152 116.4460 14.9545 0.0000 -3.0434 0.0000
# 3 -7.4234 14.9545 49.8673 0.0000 12.0652 0.0000
# 4 0.0000 0.0000 0.0000 45.4193 0.0000 4.5329
# 5 -2.6865 -3.0434 12.0652 0.0000 22.6370 0.0000
# 6 0.0000 0.0000 0.0000 4.5329 0.0000 23.3919
#
#
#
# Elastic Compliance Matrix: (Units=1/GPa)
#
#
# Indices 1 2 3 4 5 6 
#
# 1 0.032884 -0.005827 0.006760 0.000000 -0.000484 0.000000
# 2 -0.005827 0.010147 -0.004676 0.000000 0.003165 0.000000
# 3 0.006760 -0.004676 0.025739 0.000000 -0.013545 0.000000
# 4 0.000000 0.000000 0.000000 0.022451 0.000000 -0.004351
# 5 -0.000484 0.003165 -0.013545 0.000000 0.051763 0.000000
# 6 0.000000 0.000000 0.000000 -0.004351 0.000000 0.043593
#
#
# Mechanical properties :
#
#
# Convention : Reuss Voigt Hill
#
# Bulk Modulus (GPa) = 16.31775 27.93403 22.12589
# Shear Modulus (GPa) = 23.31084 30.04076 26.67580
#
# Velocity S-wave (km/s) = 3.20460 3.63790 3.42810
# Velocity P-wave (km/s) = 4.56961 5.47284 5.04149
#
# Compressibility (1/GPa) = 0.06128297
#
# Stress axis : x y z
#
# Youngs Moduli (GPa) = 30.41005 98.54742 38.85159
#
# Poissons Ratio (x) = 0.57423 -0.26262
# Poissons Ratio (y) = 0.17720 0.18168
# Poissons Ratio (z) = -0.20556 0.46083
#
# Static dielectric constant tensor:
#      x y z
#    x 3.605500 0.000000 0.045010 
#    y 0.000000 4.220850 0.000000 
#    z 0.045010 0.000000 3.826510 
# 
# 
# High freq. dielectric constant tensor:
#      x y z
#    x 1.862790 0.000000 0.008400 
#    y 0.000000 1.920990 0.000000 
#    z 0.008400 0.000000 1.876540 
# 
# From -- ./inp_files/7336.got.cif
#   From: 2010.03.12/outbox.cif.g09.slc.cpg/sg4_4_cif.got.tgz:7336.got - 2010.03.31 09:31:35.
