data_PCOD8046127
_publ_section_title
;
Structure prediction by ZEFSAII (Michael W. Deem and Ramdas Pophale) SiO2 
 PCOD8046127
Probable space group: P 21
;
_chemical_formula_sum "Si O2"
_cell_formula_units_Z 16
_cell_length_a 8.886343
_cell_length_b 7.514329
_cell_length_c 11.344017
_cell_angle_alpha 90.000000
_cell_angle_beta 96.509018
_cell_angle_gamma 90.000000
_cell_volume 752.612859
_symmetry_space_group_name_H-M "P 21"
_symmetry_group_IT_number 4
_symmetry_cell_setting 'monoclinic'
loop_
_space_group_symop_operation_xyz
x,y,z
-x,1/2+y,-z
loop_
_atom_site_type_symbol
_atom_site_label
_atom_site_fract_x
_atom_site_fract_y
_atom_site_fract_z
Si Si1 0.915372 0.881120 0.052513
Si Si2 0.578671 0.407383 0.104206
Si Si3 0.120826 0.746152 0.889650
Si Si4 0.501508 0.014220 0.156892
Si Si5 0.972979 0.153809 0.615014
Si Si6 0.275391 0.224247 0.777346
Si Si7 0.971228 0.747908 0.641876
Si Si8 0.813752 0.445398 0.748597
O O1 0.819125 0.729040 0.108115
O O2 0.067015 0.937929 0.135332
O O3 0.823183 0.066286 0.038587
O O4 0.960017 0.815372 0.926692
O O5 0.749173 0.385441 0.072965
O O6 0.594202 0.571334 0.199250
O O7 0.515310 0.229667 0.163264
O O8 0.484265 0.456091 0.979406
O O9 0.105809 0.718368 0.748325
O O10 0.641296 0.914604 0.235351
O O11 0.352770 0.946531 0.211071
O O12 0.849056 0.275324 0.669298
O O13 0.149774 0.189850 0.665414
O O14 0.959824 0.187465 0.475453
O O15 0.921921 0.953147 0.637352
O O16 0.831863 0.622683 0.669790
#
# Coordination Sequence:
#
# PCOD8046127 Si02
#       8
#     2   2   2   2   2   2   2   2
#     4  10  21  36  62  99 133 157 220 272 329 387
#     4  12  23  39  61  96 139 175 207 261 331 407
#     4  11  21  36  62 102 130 165 210 275 330 394
#     4  12  25  41  63  98 142 178 216 254 336 410
#     4  11  23  44  72  95 126 168 230 286 330 367
#     4  11  24  41  65  94 132 180 207 271 329 391
#     4  11  23  40  72  97 125 165 224 285 333 375
#     4  10  24  41  65  99 127 170 220 276 324 397
#
# _framework density 21.259270999999998
#
# number of rings (size 3 to 8) (size 9 to 14) (size 15 to 20)
#    0.000    1.000    6.250    0.750    3.500    1.000 
#    0.000    0.000    8.250    0.000    0.000    0.000 
#    0.000    0.000    0.000    0.000    0.000    0.000 
#
# Total GULP energy -198286.878899 kJ/mol
# GULP energy per Si atom -12392.929931 kJ/mol
# Density = 2.121088 g / cm^3
# Si number density = 21.259271 Si / 1000 Ang^3
#
#
#
# Elastic Constant Matrix: (Units=GPa)
#
#
# Indices 1 2 3 4 5 6 
#
# 1 74.9766 33.1166 23.4877 0.0000 -10.4693 0.0000
# 2 33.1166 151.7751 33.0969 0.0000 -3.2562 0.0000
# 3 23.4877 33.0969 81.8683 0.0000 -6.4317 0.0000
# 4 0.0000 0.0000 0.0000 29.6523 0.0000 -5.0379
# 5 -10.4693 -3.2562 -6.4317 0.0000 19.4628 0.0000
# 6 0.0000 0.0000 0.0000 -5.0379 0.0000 35.7556
#
#
#
# Elastic Compliance Matrix: (Units=1/GPa)
#
#
# Indices 1 2 3 4 5 6 
#
# 1 0.016561 -0.002791 -0.003038 0.000000 0.007437 0.000000
# 2 -0.002791 0.007697 -0.002390 0.000000 -0.001003 0.000000
# 3 -0.003038 -0.002390 0.014263 0.000000 0.002679 0.000000
# 4 0.000000 0.000000 0.000000 0.034551 0.000000 0.004868
# 5 0.007437 -0.001003 0.002679 0.000000 0.056098 0.000000
# 6 0.000000 0.000000 0.000000 0.004868 0.000000 0.028654
#
#
# Mechanical properties :
#
#
# Convention : Reuss Voigt Hill
#
# Bulk Modulus (GPa) = 45.28597 54.22470 49.75533
# Shear Modulus (GPa) = 27.52938 31.56872 29.54905
#
# Velocity S-wave (km/s) = 3.60243 3.85767 3.73223
# Velocity P-wave (km/s) = 6.21702 6.73824 6.48287
#
# Compressibility (1/GPa) = 0.02208190
#
# Stress axis : x y z
#
# Youngs Moduli (GPa) = 60.38375 129.91468 70.11113
#
# Poissons Ratio (x) = 0.36263 0.21303
# Poissons Ratio (y) = 0.16855 0.16755
# Poissons Ratio (z) = 0.18348 0.31047
#
# Static dielectric constant tensor:
#      x y z
#    x 3.629060 0.000000 -0.005300 
#    y 0.000000 4.314160 0.000000 
#    z -0.005300 0.000000 3.656020 
# 
# 
# High freq. dielectric constant tensor:
#      x y z
#    x 1.810500 0.000000 -0.002270 
#    y 0.000000 1.863360 0.000000 
#    z -0.002270 0.000000 1.805420 
# 
# From -- ./inp_files/10803.got.cif
#   From: 2010.03.12/outbox.cif.g09.slc.cpg/sg4_6_cif.got.tgz:10803.got - 2010.03.31 09:31:35.
