data_PCOD8046134
_publ_section_title
;
Structure prediction by ZEFSAII (Michael W. Deem and Ramdas Pophale) SiO2 
 PCOD8046134
Probable space group: P 21
;
_chemical_formula_sum "Si O2"
_cell_formula_units_Z 12
_cell_length_a 10.232185
_cell_length_b 5.029268
_cell_length_c 10.969610
_cell_angle_alpha 90.000000
_cell_angle_beta 86.252684
_cell_angle_gamma 90.000000
_cell_volume 563.293615
_symmetry_space_group_name_H-M "P 21"
_symmetry_group_IT_number 4
_symmetry_cell_setting 'monoclinic'
loop_
_space_group_symop_operation_xyz
x,y,z
-x,1/2+y,-z
loop_
_atom_site_type_symbol
_atom_site_label
_atom_site_fract_x
_atom_site_fract_y
_atom_site_fract_z
Si Si1 0.591100 0.109150 0.375970
Si Si2 0.343902 0.426399 0.373042
Si Si3 0.368544 0.658978 0.116562
Si Si4 0.083944 0.269049 0.517393
Si Si5 0.740903 0.612030 0.283271
Si Si6 0.667840 0.660033 0.030604
O O1 0.447280 0.190576 0.336904
O O2 0.699028 0.316421 0.322653
O O3 0.596023 0.109869 0.523011
O O4 0.623840 0.818971 0.321356
O O5 0.320509 0.609264 0.256941
O O6 0.208880 0.291232 0.421752
O O7 0.304585 0.443744 0.030154
O O8 0.314295 0.942671 0.076553
O O9 0.524626 0.634530 0.099380
O O10 0.128213 0.189603 0.651260
O O11 0.012164 0.550540 0.532342
O O12 0.769173 0.618609 0.136378
#
# Coordination Sequence:
#
# PCOD8046134 Si02
#       6
#     2   2   2   2   2   2
#     4  11  23  35  62  96 121 157 196 251 329 369
#     4  11  23  39  62  92 128 158 202 256 309 373
#     4  10  22  34  58  88 132 156 192 235 300 378
#     4  11  25  42  61  90 121 164 211 258 305 352
#     4  11  22  41  64  89 129 159 201 251 309 375
#     4  10  21  37  55  91 127 162 188 235 302 375
#
# _framework density 21.303277999999999
#
# number of rings (size 3 to 8) (size 9 to 14) (size 15 to 20)
#    0.000    1.333    1.667    5.000    4.667    5.333 
#    0.000    0.000    0.000    4.000    0.000    0.000 
#    0.000    0.000    0.000    0.000    0.000    0.000 
#
# Total GULP energy -148859.062766 kJ/mol
# GULP energy per Si atom -12404.921897 kJ/mol
# Density = 2.125479 g / cm^3
# Si number density = 21.303278 Si / 1000 Ang^3
#
#
#
# Elastic Constant Matrix: (Units=GPa)
#
#
# Indices 1 2 3 4 5 6 
#
# 1 69.6159 3.7257 6.9289 0.0000 8.0236 0.0000
# 2 3.7257 58.0067 -4.4158 0.0000 0.0066 0.0000
# 3 6.9289 -4.4158 110.3700 0.0000 19.9418 0.0000
# 4 0.0000 0.0000 0.0000 31.5585 0.0000 5.5878
# 5 8.0236 0.0066 19.9418 0.0000 19.5552 0.0000
# 6 0.0000 0.0000 0.0000 5.5878 0.0000 18.8580
#
#
#
# Elastic Compliance Matrix: (Units=1/GPa)
#
#
# Indices 1 2 3 4 5 6 
#
# 1 0.015134 -0.000959 0.000164 0.000000 -0.006376 0.000000
# 2 -0.000959 0.017365 0.000840 0.000000 -0.000469 0.000000
# 3 0.000164 0.000840 0.011150 0.000000 -0.011438 0.000000
# 4 0.000000 0.000000 0.000000 0.033442 0.000000 -0.009909
# 5 -0.006376 -0.000469 -0.011438 0.000000 0.065418 0.000000
# 6 0.000000 0.000000 0.000000 -0.009909 0.000000 0.055964
#
#
# Mechanical properties :
#
#
# Convention : Reuss Voigt Hill
#
# Bulk Modulus (GPa) = 22.86313 27.83001 25.34657
# Shear Modulus (GPa) = 23.47805 29.44459 26.46132
#
# Velocity S-wave (km/s) = 3.32337 3.72178 3.52820
# Velocity P-wave (km/s) = 5.04796 5.61791 5.34054
#
# Compressibility (1/GPa) = 0.04373855
#
# Stress axis : x y z
#
# Youngs Moduli (GPa) = 66.07432 57.58726 89.68245
#
# Poissons Ratio (x) = 0.05522 -0.01467
# Poissons Ratio (y) = 0.06336 -0.07530
# Poissons Ratio (z) = -0.01081 -0.04835
#
# Static dielectric constant tensor:
#      x y z
#    x 3.470750 0.000000 0.234390 
#    y 0.000000 3.933220 0.000000 
#    z 0.234390 0.000000 3.928260 
# 
# 
# High freq. dielectric constant tensor:
#      x y z
#    x 1.782520 0.000000 0.020890 
#    y 0.000000 1.854310 0.000000 
#    z 0.020890 0.000000 1.842100 
# 
# From -- ./inp_files/10651.got.cif
#   From: 2010.03.12/outbox.cif.g09.slc.cpg/sg4_6_cif.got.tgz:10651.got - 2010.03.31 09:31:35.
