data_PCOD8046416
_publ_section_title
;
Structure prediction by ZEFSAII (Michael W. Deem and Ramdas Pophale) SiO2 
 PCOD8046416
Probable space group: P 21
;
_chemical_formula_sum "Si O2"
_cell_formula_units_Z 16
_cell_length_a 11.162498
_cell_length_b 11.564267
_cell_length_c 8.374722
_cell_angle_alpha 90.000000
_cell_angle_beta 42.258538
_cell_angle_gamma 90.000000
_cell_volume 726.988275
_symmetry_space_group_name_H-M "P 21"
_symmetry_group_IT_number 4
_symmetry_cell_setting 'monoclinic'
loop_
_space_group_symop_operation_xyz
x,y,z
-x,1/2+y,-z
loop_
_atom_site_type_symbol
_atom_site_label
_atom_site_fract_x
_atom_site_fract_y
_atom_site_fract_z
Si Si1 0.092485 0.941460 0.426556
Si Si2 0.623739 0.422263 0.120089
Si Si3 0.283536 0.395258 0.271823
Si Si4 0.176626 0.710991 0.946368
Si Si5 0.831380 0.673953 0.467647
Si Si6 0.318868 0.017545 0.624510
Si Si7 0.965521 0.341156 0.192590
Si Si8 0.678435 0.956481 0.126339
O O1 0.072811 0.837144 0.577744
O O2 0.911830 0.948163 0.500708
O O3 0.108866 0.060582 0.500956
O O4 0.263944 0.923104 0.151519
O O5 0.418324 0.437550 0.274960
O O6 0.667106 0.302889 0.170131
O O7 0.661746 0.530233 0.202312
O O8 0.271181 0.255983 0.306054
O O9 0.351848 0.435885 0.031963
O O10 0.105069 0.728059 0.833217
O O11 0.251433 0.584033 0.900273
O O12 0.008671 0.737081 0.227351
O O13 0.697912 0.639577 0.452099
O O14 0.133911 0.952331 0.779739
O O15 0.486641 0.940889 0.397126
O O16 0.177329 0.362563 0.953945
#
# Coordination Sequence:
#
# PCOD8046416 Si02
#       8
#     2   2   2   2   2   2   2   2
#     4  10  21  44  63  94 134 168 217 269 323 390
#     4  11  24  39  66 101 130 170 218 264 330 390
#     4  11  22  40  68  95 126 180 211 267 329 386
#     4  11  21  41  68  92 130 174 214 272 326 383
#     4  11  21  43  67  91 134 173 215 272 324 384
#     4  10  22  41  62  94 132 169 212 272 319 387
#     4   9  21  40  65  93 125 171 213 267 323 377
#     4  11  22  44  67  94 133 173 220 267 328 387
#
# _framework density 22.008607999999999
#
# number of rings (size 3 to 8) (size 9 to 14) (size 15 to 20)
#    0.000    1.500    5.000    2.250    1.750    0.000 
#    4.500    2.500    0.000    0.000    0.000    0.000 
#    0.000    0.000    0.000    0.000    0.000    0.000 
#
# Total GULP energy -198272.700470 kJ/mol
# GULP energy per Si atom -12392.043779 kJ/mol
# Density = 2.195852 g / cm^3
# Si number density = 22.008608 Si / 1000 Ang^3
#
#
#
# Elastic Constant Matrix: (Units=GPa)
#
#
# Indices 1 2 3 4 5 6 
#
# 1 155.6632 44.8893 23.0678 0.0000 -5.3675 0.0000
# 2 44.8893 69.2683 14.1279 0.0000 15.6761 0.0000
# 3 23.0678 14.1279 61.5521 0.0000 0.8199 0.0000
# 4 0.0000 0.0000 0.0000 23.7350 0.0000 4.8241
# 5 -5.3675 15.6761 0.8199 0.0000 30.5709 0.0000
# 6 0.0000 0.0000 0.0000 4.8241 0.0000 42.3928
#
#
#
# Elastic Compliance Matrix: (Units=1/GPa)
#
#
# Indices 1 2 3 4 5 6 
#
# 1 0.008699 -0.006350 -0.001867 0.000000 0.004834 0.000000
# 2 -0.006350 0.021825 -0.002466 0.000000 -0.012240 0.000000
# 3 -0.001867 -0.002466 0.017506 0.000000 0.000467 0.000000
# 4 0.000000 0.000000 0.000000 0.043129 0.000000 -0.004908
# 5 0.004834 -0.012240 0.000467 0.000000 0.039824 0.000000
# 6 0.000000 0.000000 0.000000 -0.004908 0.000000 0.024147
#
#
# Mechanical properties :
#
#
# Convention : Reuss Voigt Hill
#
# Bulk Modulus (GPa) = 37.50597 50.07263 43.78930
# Shear Modulus (GPa) = 26.97090 32.96630 29.96860
#
# Velocity S-wave (km/s) = 3.50447 3.87445 3.69409
# Velocity P-wave (km/s) = 5.78391 6.54339 6.17533
#
# Compressibility (1/GPa) = 0.02666242
#
# Stress axis : x y z
#
# Youngs Moduli (GPa) = 114.95926 45.81874 57.12355
#
# Poissons Ratio (x) = 0.29097 0.10664
# Poissons Ratio (y) = 0.73003 0.14089
# Poissons Ratio (z) = 0.21461 0.11301
#
# Static dielectric constant tensor:
#      x y z
#    x 4.533000 0.000000 0.090690 
#    y 0.000000 3.725090 0.000000 
#    z 0.090690 0.000000 4.124220 
# 
# 
# High freq. dielectric constant tensor:
#      x y z
#    x 1.887320 0.000000 -0.007830 
#    y 0.000000 1.829280 0.000000 
#    z -0.007830 0.000000 1.863180 
# 
# From -- ./inp_files/8393.got.cif
#   From: 2010.03.12/outbox.cif.g09.slc.cpg/sg4_5_cif.got.tgz:8393.got - 2010.03.31 09:31:35.
