data_PCOD8046266
_publ_section_title
;
Structure prediction by ZEFSAII (Michael W. Deem and Ramdas Pophale) SiO2 
 PCOD8046266
Probable space group: P 21
;
_chemical_formula_sum "Si O2"
_cell_formula_units_Z 16
_cell_length_a 7.552948
_cell_length_b 14.272133
_cell_length_c 8.544110
_cell_angle_alpha 90.000000
_cell_angle_beta 51.996133
_cell_angle_gamma 90.000000
_cell_volume 725.740654
_symmetry_space_group_name_H-M "P 21"
_symmetry_group_IT_number 4
_symmetry_cell_setting 'monoclinic'
loop_
_space_group_symop_operation_xyz
x,y,z
-x,1/2+y,-z
loop_
_atom_site_type_symbol
_atom_site_label
_atom_site_fract_x
_atom_site_fract_y
_atom_site_fract_z
Si Si1 0.770076 0.637660 0.505409
Si Si2 0.198027 0.599243 0.071746
Si Si3 0.305442 0.067248 0.139009
Si Si4 0.301961 0.342826 0.428234
Si Si5 0.194575 0.874812 0.360986
Si Si6 0.416806 0.959505 0.517773
Si Si7 0.083207 0.982559 0.982230
Si Si8 0.729919 0.304407 0.994582
O O1 0.782062 0.646085 0.690029
O O2 0.712672 0.741639 0.476195
O O3 0.570748 0.562056 0.573153
O O4 0.002118 0.599456 0.308277
O O5 0.212681 0.700432 0.976175
O O6 0.428091 0.576584 0.036124
O O7 0.151940 0.520203 0.962250
O O8 0.176799 0.066179 0.043621
O O9 0.249981 0.971025 0.249987
O O10 0.348058 0.421875 0.537712
O O11 0.071890 0.365476 0.463861
O O12 0.497867 0.342615 0.191704
O O13 0.323281 0.875890 0.456310
O O14 0.282056 0.795968 0.190042
O O15 0.249957 0.971017 0.750002
O O16 0.070757 0.880012 0.073166
#
# Coordination Sequence:
#
# PCOD8046266 Si02
#       8
#     2   2   2   2   2   2   2   2
#     4  10  21  40  64  91 128 169 210 263 316 370
#     4  11  21  43  62  91 134 163 211 270 304 378
#     4  10  22  41  63  92 121 170 211 255 324 368
#     4  11  21  43  62  91 134 163 211 270 304 378
#     4  10  22  41  63  92 121 170 211 255 324 368
#     4   9  22  41  64  95 124 165 213 253 319 373
#     4   9  22  41  64  95 124 165 213 253 319 373
#     4  10  21  40  64  91 128 169 210 263 316 370
#
# _framework density 22.046443
#
# number of rings (size 3 to 8) (size 9 to 14) (size 15 to 20)
#    0.000    2.000    2.500    0.000    0.000   13.000 
#    9.000    5.000    0.000    0.000    0.000    0.000 
#    0.000    0.000    0.000    0.000    0.000    0.000 
#
# Total GULP energy -198224.554025 kJ/mol
# GULP energy per Si atom -12389.034627 kJ/mol
# Density = 2.199626 g / cm^3
# Si number density = 22.046443 Si / 1000 Ang^3
#
#
#
# Elastic Constant Matrix: (Units=GPa)
#
#
# Indices 1 2 3 4 5 6 
#
# 1 87.4271 15.9720 24.3192 0.0000 -0.5189 0.0000
# 2 15.9720 95.2875 -2.2488 0.0000 1.7744 0.0000
# 3 24.3192 -2.2488 73.0814 0.0000 -2.0541 0.0000
# 4 0.0000 0.0000 0.0000 26.9611 0.0000 -6.0822
# 5 -0.5189 1.7744 -2.0541 0.0000 40.6044 0.0000
# 6 0.0000 0.0000 0.0000 -6.0822 0.0000 32.2148
#
#
#
# Elastic Compliance Matrix: (Units=1/GPa)
#
#
# Indices 1 2 3 4 5 6 
#
# 1 0.013089 -0.002299 -0.004425 0.000000 0.000044 0.000000
# 2 -0.002299 0.010914 0.001088 0.000000 -0.000451 0.000000
# 3 -0.004425 0.001088 0.015208 0.000000 0.000665 0.000000
# 4 0.000000 0.000000 0.000000 0.038740 0.000000 0.007314
# 5 0.000044 -0.000451 0.000665 0.000000 0.024682 0.000000
# 6 0.000000 0.000000 0.000000 0.007314 0.000000 0.032423
#
#
# Mechanical properties :
#
#
# Convention : Reuss Voigt Hill
#
# Bulk Modulus (GPa) = 35.79221 36.87567 36.33394
# Shear Modulus (GPa) = 32.12504 34.47297 33.29900
#
# Velocity S-wave (km/s) = 3.82141 3.95859 3.89061
# Velocity P-wave (km/s) = 5.97838 6.13650 6.05796
#
# Compressibility (1/GPa) = 0.02793904
#
# Stress axis : x y z
#
# Youngs Moduli (GPa) = 76.39790 91.62502 65.75429
#
# Poissons Ratio (x) = 0.21067 0.29098
# Poissons Ratio (y) = 0.17566 -0.07156
# Poissons Ratio (z) = 0.33808 -0.09971
#
# Static dielectric constant tensor:
#      x y z
#    x 4.779980 0.000000 0.766340 
#    y 0.000000 4.817590 0.000000 
#    z 0.766340 0.000000 4.843770 
# 
# 
# High freq. dielectric constant tensor:
#      x y z
#    x 1.840050 0.000000 -0.001490 
#    y 0.000000 1.863130 0.000000 
#    z -0.001490 0.000000 1.882630 
# 
# From -- ./inp_files/6592.got.cif
#   From: 2010.03.12/outbox.cif.g09.slc.cpg/sg4_4_cif.got.tgz:6592.got - 2010.03.31 09:31:35.
