data_PCOD8046494
_publ_section_title
;
Structure prediction by ZEFSAII (Michael W. Deem and Ramdas Pophale) SiO2 
 PCOD8046494
Probable space group: P 21
;
_chemical_formula_sum "Si O2"
_cell_formula_units_Z 16
_cell_length_a 9.356385
_cell_length_b 5.172644
_cell_length_c 19.379038
_cell_angle_alpha 90.000000
_cell_angle_beta 49.507664
_cell_angle_gamma 90.000000
_cell_volume 713.260235
_symmetry_space_group_name_H-M "P 21"
_symmetry_group_IT_number 4
_symmetry_cell_setting 'monoclinic'
loop_
_space_group_symop_operation_xyz
x,y,z
-x,1/2+y,-z
loop_
_atom_site_type_symbol
_atom_site_label
_atom_site_fract_x
_atom_site_fract_y
_atom_site_fract_z
Si Si1 0.964607 0.157020 0.966507
Si Si2 0.780163 0.597925 0.539303
Si Si3 0.814838 0.253016 0.405498
Si Si4 0.800232 0.815855 0.235832
Si Si5 0.903323 0.358286 0.628036
Si Si6 0.098915 0.626206 0.238365
Si Si7 0.598641 0.305658 0.344011
Si Si8 0.626987 0.086081 0.966373
O O1 0.760220 0.119118 0.992644
O O2 0.121180 0.246944 0.863486
O O3 0.961973 0.385881 0.024357
O O4 0.722430 0.384554 0.501533
O O5 0.762257 0.519169 0.625665
O O6 0.627165 0.825424 0.586441
O O7 0.000378 0.653665 0.454819
O O8 0.645219 0.207637 0.406476
O O9 0.969525 0.411476 0.313666
O O10 0.909652 0.990357 0.400113
O O11 0.664163 0.588343 0.303147
O O12 0.972853 0.836555 0.236249
O O13 0.688893 0.086592 0.265443
O O14 0.792048 0.252486 0.729933
O O15 0.246856 0.503325 0.139070
O O16 0.522747 0.354212 0.979034
#
# Coordination Sequence:
#
# PCOD8046494 Si02
#       8
#     2   2   2   2   2   2   2   2
#     4  11  23  45  73  99 139 182 218 276 353 416
#     4  11  25  37  62  91 129 172 215 274 320 379
#     4  10  22  39  64  85 126 170 226 255 323 388
#     4  10  22  43  66  94 129 168 221 260 331 393
#     4  11  21  42  58  89 127 176 215 255 333 394
#     4   9  22  41  67  90 124 180 212 265 324 405
#     4  11  24  40  64  97 123 168 222 276 308 375
#     4  11  25  45  72 107 137 174 231 285 336 410
#
# _framework density 22.432206000000001
#
# number of rings (size 3 to 8) (size 9 to 14) (size 15 to 20)
#    0.000    1.500    2.500    1.500    5.250    2.000 
#    6.750    0.000    0.000    0.000    0.000    0.000 
#    0.000    0.000    0.000    0.000    0.000    0.000 
#
# Total GULP energy -198241.386426 kJ/mol
# GULP energy per Si atom -12390.086652 kJ/mol
# Density = 2.238115 g / cm^3
# Si number density = 22.432206 Si / 1000 Ang^3
#
#
#
# Elastic Constant Matrix: (Units=GPa)
#
#
# Indices 1 2 3 4 5 6 
#
# 1 117.8191 18.6431 39.2529 0.0000 14.5328 0.0000
# 2 18.6431 69.7526 0.5484 0.0000 7.3180 0.0000
# 3 39.2529 0.5484 81.9934 0.0000 19.6566 0.0000
# 4 0.0000 0.0000 0.0000 28.8393 0.0000 2.1959
# 5 14.5328 7.3180 19.6566 0.0000 32.6303 0.0000
# 6 0.0000 0.0000 0.0000 2.1959 0.0000 32.0688
#
#
#
# Elastic Compliance Matrix: (Units=1/GPa)
#
#
# Indices 1 2 3 4 5 6 
#
# 1 0.010661 -0.002679 -0.004782 0.000000 -0.001267 0.000000
# 2 -0.002679 0.015401 0.002012 0.000000 -0.003473 0.000000
# 3 -0.004782 0.002012 0.016444 0.000000 -0.008228 0.000000
# 4 0.000000 0.000000 0.000000 0.034857 0.000000 -0.002387
# 5 -0.001267 -0.003473 -0.008228 0.000000 0.036946 0.000000
# 6 0.000000 0.000000 0.000000 -0.002387 0.000000 0.031346
#
#
# Mechanical properties :
#
#
# Convention : Reuss Voigt Hill
#
# Bulk Modulus (GPa) = 31.63736 42.93933 37.28835
# Shear Modulus (GPa) = 29.92412 32.78238 31.35325
#
# Velocity S-wave (km/s) = 3.65633 3.82697 3.74262
# Velocity P-wave (km/s) = 5.65324 6.22182 5.94433
#
# Compressibility (1/GPa) = 0.03160820
#
# Stress axis : x y z
#
# Youngs Moduli (GPa) = 93.80013 64.93114 60.81069
#
# Poissons Ratio (x) = 0.17395 0.29081
# Poissons Ratio (y) = 0.25128 -0.12235
# Poissons Ratio (z) = 0.44857 -0.13064
#
# Static dielectric constant tensor:
#      x y z
#    x 4.200580 0.000000 0.364340 
#    y 0.000000 3.980000 0.000000 
#    z 0.364340 0.000000 4.162360 
# 
# 
# High freq. dielectric constant tensor:
#      x y z
#    x 1.883180 0.000000 0.018550 
#    y 0.000000 1.880820 0.000000 
#    z 0.018550 0.000000 1.882520 
# 
# From -- ./inp_files/8719.got.cif
#   From: 2010.03.12/outbox.cif.g09.slc.cpg/sg4_5_cif.got.tgz:8719.got - 2010.03.31 09:31:35.
