data_PCOD8046732
_publ_section_title
;
Structure prediction by ZEFSAII (Michael W. Deem and Ramdas Pophale) SiO2 
 PCOD8046732
Probable space group: P 21
;
_chemical_formula_sum "Si O2"
_cell_formula_units_Z 16
_cell_length_a 6.708994
_cell_length_b 14.722793
_cell_length_c 8.883534
_cell_angle_alpha 90.000000
_cell_angle_beta 129.713009
_cell_angle_gamma 90.000000
_cell_volume 674.999460
_symmetry_space_group_name_H-M "P 21"
_symmetry_group_IT_number 4
_symmetry_cell_setting 'monoclinic'
loop_
_space_group_symop_operation_xyz
x,y,z
-x,1/2+y,-z
loop_
_atom_site_type_symbol
_atom_site_label
_atom_site_fract_x
_atom_site_fract_y
_atom_site_fract_z
Si Si1 0.087600 0.532200 0.981087
Si Si2 0.314282 0.402526 0.300368
Si Si3 0.118299 0.947815 0.401818
Si Si4 0.101512 0.159302 0.879962
Si Si5 0.857651 0.301662 0.944851
Si Si6 0.676932 0.176766 0.108463
Si Si7 0.294014 0.336169 0.615542
Si Si8 0.932110 0.638720 0.466902
O O1 0.288103 0.582522 0.966353
O O2 0.931860 0.458293 0.803396
O O3 0.256225 0.503135 0.209316
O O4 0.872539 0.594599 0.960624
O O5 0.624246 0.387518 0.443230
O O6 0.211151 0.378951 0.415897
O O7 0.135918 0.350458 0.092159
O O8 0.879489 0.889801 0.348504
O O9 0.163213 0.048328 0.492721
O O10 0.887154 0.235305 0.815591
O O11 0.018485 0.112113 0.683086
O O12 0.380401 0.203853 0.985026
O O13 0.596197 0.360068 0.792599
O O14 0.828207 0.253293 0.091309
O O15 0.795474 0.169145 0.331683
O O16 0.262106 0.225888 0.609358
#
# Coordination Sequence:
#
# PCOD8046732 Si02
#       8
#     2   2   2   2   2   2   2   2
#     4  10  25  45  69 106 144 188 242 302 365 440
#     4  12  26  44  72 106 145 191 237 309 355 444
#     4  11  28  49  72 110 147 194 243 307 368 439
#     4  11  24  43  74 103 140 194 235 302 368 426
#     4  11  26  43  70 107 147 185 248 295 363 436
#     4  10  22  45  69 105 142 190 238 302 361 435
#     4  12  27  46  73 109 150 196 244 305 367 436
#     4  11  24  47  77 104 147 192 247 298 365 438
#
# _framework density 23.703723
#
# number of rings (size 3 to 8) (size 9 to 14) (size 15 to 20)
#    0.000    1.000    2.500    2.250    7.000    6.000 
#    0.000    0.000    0.000    0.000    0.000    0.000 
#    0.000    0.000    0.000    0.000    0.000    0.000 
#
# Total GULP energy -198230.296313 kJ/mol
# GULP energy per Si atom -12389.393520 kJ/mol
# Density = 2.364977 g / cm^3
# Si number density = 23.703723 Si / 1000 Ang^3
#
#
#
# Elastic Constant Matrix: (Units=GPa)
#
#
# Indices 1 2 3 4 5 6 
#
# 1 134.0562 38.2557 70.4689 0.0000 1.7422 0.0000
# 2 38.2557 73.1768 37.8220 0.0000 8.0121 0.0000
# 3 70.4689 37.8220 150.7723 0.0000 -7.8776 0.0000
# 4 0.0000 0.0000 0.0000 37.9343 0.0000 3.5318
# 5 1.7422 8.0121 -7.8776 0.0000 45.8546 0.0000
# 6 0.0000 0.0000 0.0000 3.5318 0.0000 22.4403
#
#
#
# Elastic Compliance Matrix: (Units=1/GPa)
#
#
# Indices 1 2 3 4 5 6 
#
# 1 0.010598 -0.003341 -0.004143 0.000000 -0.000531 0.000000
# 2 -0.003341 0.017315 -0.002960 0.000000 -0.003407 0.000000
# 3 -0.004143 -0.002960 0.009431 0.000000 0.002295 0.000000
# 4 0.000000 0.000000 0.000000 0.026753 0.000000 -0.004211
# 5 -0.000531 -0.003407 0.002295 0.000000 0.022818 0.000000
# 6 0.000000 0.000000 0.000000 -0.004211 0.000000 0.045225
#
#
# Mechanical properties :
#
#
# Convention : Reuss Voigt Hill
#
# Bulk Modulus (GPa) = 60.76692 72.34426 66.55559
# Shear Modulus (GPa) = 31.54307 35.34310 33.44309
#
# Velocity S-wave (km/s) = 3.65186 3.86558 3.76024
# Velocity P-wave (km/s) = 6.59342 7.10705 6.85504
#
# Compressibility (1/GPa) = 0.01645632
#
# Stress axis : x y z
#
# Youngs Moduli (GPa) = 94.36115 57.75308 106.03041
#
# Poissons Ratio (x) = 0.19295 0.43926
# Poissons Ratio (y) = 0.31525 0.31386
# Poissons Ratio (z) = 0.39092 0.17095
#
# Static dielectric constant tensor:
#      x y z
#    x 4.122940 0.000000 -0.176510 
#    y 0.000000 4.285160 0.000000 
#    z -0.176510 0.000000 4.434900 
# 
# 
# High freq. dielectric constant tensor:
#      x y z
#    x 1.936310 0.000000 -0.012090 
#    y 0.000000 1.929740 0.000000 
#    z -0.012090 0.000000 1.953630 
# 
# From -- ./inp_files/1911.got.cif
#   From: 2010.03.12/outbox.cif.g09.slc.cpg/sg4_1_cif.got.tgz:1911.got - 2010.03.31 09:31:35.
