data_PCOD8046621
_publ_section_title
;
Structure prediction by ZEFSAII (Michael W. Deem and Ramdas Pophale) SiO2 
 PCOD8046621
Probable space group: P 21
;
_chemical_formula_sum "Si O2"
_cell_formula_units_Z 16
_cell_length_a 11.545086
_cell_length_b 8.255993
_cell_length_c 8.688407
_cell_angle_alpha 90.000000
_cell_angle_beta 111.698066
_cell_angle_gamma 90.000000
_cell_volume 769.467291
_symmetry_space_group_name_H-M "P 21"
_symmetry_group_IT_number 4
_symmetry_cell_setting 'monoclinic'
loop_
_space_group_symop_operation_xyz
x,y,z
-x,1/2+y,-z
loop_
_atom_site_type_symbol
_atom_site_label
_atom_site_fract_x
_atom_site_fract_y
_atom_site_fract_z
Si Si1 0.213927 0.587620 0.857592
Si Si2 0.639788 0.878283 0.309500
Si Si3 0.355590 0.805717 0.164685
Si Si4 0.905371 0.278934 0.472884
Si Si5 0.155669 0.049844 0.988107
Si Si6 0.736654 0.089647 0.620449
Si Si7 0.836799 0.630404 0.360087
Si Si8 0.902195 0.898435 0.933277
O O1 0.297573 0.461180 0.806565
O O2 0.137616 0.707306 0.710677
O O3 0.307477 0.692853 0.004679
O O4 0.116094 0.488085 0.912799
O O5 0.497677 0.845854 0.199736
O O6 0.712631 0.708848 0.373272
O O7 0.645930 0.994453 0.460795
O O8 0.346194 0.715792 0.324078
O O9 0.275866 0.970927 0.128292
O O10 0.843924 0.185671 0.584228
O O11 0.871137 0.467517 0.468343
O O12 0.053741 0.262515 0.564181
O O13 0.117221 0.207930 0.062889
O O14 0.188209 0.091488 0.829497
O O15 0.042100 0.922500 0.940602
O O16 0.802695 0.961556 0.762548
#
# Coordination Sequence:
#
# PCOD8046621 Si02
#       8
#     2   2   2   2   2   2   2   2
#     4  10  22  42  68  96 134 180 218 282 334 404
#     4  11  26  44  68  98 136 181 232 274 332 406
#     4  11  26  44  68  98 136 181 232 274 332 406
#     4  11  23  41  69  97 136 165 224 278 347 403
#     4  12  25  42  68 102 134 178 221 281 345 402
#     4  10  24  46  64 100 132 178 220 286 340 396
#     4  12  25  42  68 102 134 178 221 281 345 402
#     4  11  23  41  69  97 136 165 224 278 347 403
#
# _framework density 20.793607000000002
#
# number of rings (size 3 to 8) (size 9 to 14) (size 15 to 20)
#    0.000    1.000    3.750    3.000    1.750    3.000 
#    0.000    5.000    0.000    0.000    0.000    0.000 
#    0.000    0.000    0.000    0.000    0.000    0.000 
#
# Total GULP energy -198523.124164 kJ/mol
# GULP energy per Si atom -12407.695260 kJ/mol
# Density = 2.074628 g / cm^3
# Si number density = 20.793607 Si / 1000 Ang^3
#
#
#
# Elastic Constant Matrix: (Units=GPa)
#
#
# Indices 1 2 3 4 5 6 
#
# 1 91.0428 25.4888 30.9817 0.0000 21.5589 0.0000
# 2 25.4888 124.4657 25.2165 0.0000 9.4810 0.0000
# 3 30.9817 25.2165 78.3410 0.0000 -5.7698 0.0000
# 4 0.0000 0.0000 0.0000 24.8602 0.0000 0.5253
# 5 21.5589 9.4810 -5.7698 0.0000 35.5051 0.0000
# 6 0.0000 0.0000 0.0000 0.5253 0.0000 30.3400
#
#
#
# Elastic Compliance Matrix: (Units=1/GPa)
#
#
# Indices 1 2 3 4 5 6 
#
# 1 0.016117 -0.001117 -0.006794 0.000000 -0.010592 0.000000
# 2 -0.001117 0.008952 -0.002597 0.000000 -0.002134 0.000000
# 3 -0.006794 -0.002597 0.016844 0.000000 0.007556 0.000000
# 4 0.000000 0.000000 0.000000 0.040240 0.000000 -0.000697
# 5 -0.010592 -0.002134 0.007556 0.000000 0.036394 0.000000
# 6 0.000000 0.000000 0.000000 -0.000697 0.000000 0.032972
#
#
# Mechanical properties :
#
#
# Convention : Reuss Voigt Hill
#
# Bulk Modulus (GPa) = 47.85553 50.80262 49.32907
# Shear Modulus (GPa) = 27.85509 32.28524 30.07016
#
# Velocity S-wave (km/s) = 3.66402 3.94465 3.80692
# Velocity P-wave (km/s) = 6.40036 6.72546 6.56492
#
# Compressibility (1/GPa) = 0.02089623
#
# Stress axis : x y z
#
# Youngs Moduli (GPa) = 62.04667 111.70953 59.36814
#
# Poissons Ratio (x) = 0.12480 0.40337
# Poissons Ratio (y) = 0.06932 0.15417
# Poissons Ratio (z) = 0.42156 0.29009
#
# Static dielectric constant tensor:
#      x y z
#    x 3.653590 0.000000 -0.172330 
#    y 0.000000 4.003520 0.000000 
#    z -0.172330 0.000000 3.831560 
# 
# 
# High freq. dielectric constant tensor:
#      x y z
#    x 1.804900 0.000000 -0.008560 
#    y 0.000000 1.830970 0.000000 
#    z -0.008560 0.000000 1.820340 
# 
# From -- ./inp_files/7775.got.cif
#   From: 2010.03.12/outbox.cif.g09.slc.cpg/sg4_4_cif.got.tgz:7775.got - 2010.03.31 09:31:35.
