data_PCOD8046718
_publ_section_title
;
Structure prediction by ZEFSAII (Michael W. Deem and Ramdas Pophale) SiO2 
 PCOD8046718
Probable space group: P 21
;
_chemical_formula_sum "Si O2"
_cell_formula_units_Z 12
_cell_length_a 5.603135
_cell_length_b 13.332789
_cell_length_c 8.043185
_cell_angle_alpha 90.000000
_cell_angle_beta 61.754561
_cell_angle_gamma 90.000000
_cell_volume 529.323004
_symmetry_space_group_name_H-M "P 21"
_symmetry_group_IT_number 4
_symmetry_cell_setting 'monoclinic'
loop_
_space_group_symop_operation_xyz
x,y,z
-x,1/2+y,-z
loop_
_atom_site_type_symbol
_atom_site_label
_atom_site_fract_x
_atom_site_fract_y
_atom_site_fract_z
Si Si1 0.318952 0.631080 0.603440
Si Si2 0.482328 0.039643 0.945160
Si Si3 0.020777 0.652671 0.030391
Si Si4 0.636370 0.473730 0.677305
Si Si5 0.195576 0.440430 0.427654
Si Si6 0.327825 0.295627 0.660615
O O1 0.566287 0.580839 0.621104
O O2 0.185293 0.543330 0.538639
O O3 0.428867 0.715928 0.442411
O O4 0.115628 0.677021 0.810301
O O5 0.272007 0.096738 0.893057
O O6 0.737772 0.098976 0.945228
O O7 0.614408 0.950567 0.794023
O O8 0.299785 0.990005 0.149054
O O9 0.941942 0.750107 0.164968
O O10 0.400513 0.390823 0.750476
O O11 0.880100 0.428097 0.487117
O O12 0.274495 0.338780 0.494688
#
# Coordination Sequence:
#
# PCOD8046718 Si02
#       6
#     2   2   2   2   2   2
#     4  10  22  45  66  93 137 179 223 277 342 399
#     4  11  24  45  71  93 136 182 221 277 345 393
#     4  11  24  45  70  96 134 182 224 276 338 404
#     4  10  24  43  66  98 138 177 224 284 336 405
#     4  11  23  41  68  96 136 177 228 281 336 401
#     4  11  25  41  67 104 133 177 234 279 335 408
#
# _framework density 22.670469000000001
#
# number of rings (size 3 to 8) (size 9 to 14) (size 15 to 20)
#    0.000    1.333    3.333    1.000    4.667    4.000 
#    3.000    0.000    0.000    0.000    0.000    0.000 
#    0.000    0.000    0.000    0.000    0.000    0.000 
#
# Total GULP energy -148658.500265 kJ/mol
# GULP energy per Si atom -12388.208355 kJ/mol
# Density = 2.261887 g / cm^3
# Si number density = 22.670469 Si / 1000 Ang^3
#
#
#
# Elastic Constant Matrix: (Units=GPa)
#
#
# Indices 1 2 3 4 5 6 
#
# 1 85.4793 0.8481 -3.6137 0.0000 -9.6933 0.0000
# 2 0.8481 67.5380 3.3776 0.0000 -2.2123 0.0000
# 3 -3.6137 3.3776 77.8362 0.0000 -5.6455 0.0000
# 4 0.0000 0.0000 0.0000 28.3914 0.0000 -0.7781
# 5 -9.6933 -2.2123 -5.6455 0.0000 35.5673 0.0000
# 6 0.0000 0.0000 0.0000 -0.7781 0.0000 17.9772
#
#
#
# Elastic Compliance Matrix: (Units=1/GPa)
#
#
# Indices 1 2 3 4 5 6 
#
# 1 0.012123 -0.000081 0.000815 0.000000 0.003428 0.000000
# 2 -0.000081 0.014863 -0.000590 0.000000 0.000809 0.000000
# 3 0.000815 -0.000590 0.013075 0.000000 0.002261 0.000000
# 4 0.000000 0.000000 0.000000 0.035264 0.000000 0.001526
# 5 0.003428 0.000809 0.002261 0.000000 0.029459 0.000000
# 6 0.000000 0.000000 0.000000 0.001526 0.000000 0.055692
#
#
# Mechanical properties :
#
#
# Convention : Reuss Voigt Hill
#
# Bulk Modulus (GPa) = 24.78341 25.78640 25.28490
# Shear Modulus (GPa) = 28.79561 31.73663 30.26612
#
# Velocity S-wave (km/s) = 3.56783 3.74560 3.65779
# Velocity P-wave (km/s) = 5.28472 5.48681 5.38672
#
# Compressibility (1/GPa) = 0.04034958
#
# Stress axis : x y z
#
# Youngs Moduli (GPa) = 82.48957 67.27894 76.48242
#
# Poissons Ratio (x) = 0.00543 -0.06233
# Poissons Ratio (y) = 0.00666 0.04513
# Poissons Ratio (z) = -0.06723 0.03970
#
# Static dielectric constant tensor:
#      x y z
#    x 4.046090 0.000000 0.005720 
#    y 0.000000 3.851270 0.000000 
#    z 0.005720 0.000000 4.211360 
# 
# 
# High freq. dielectric constant tensor:
#      x y z
#    x 1.891910 0.000000 -0.006270 
#    y 0.000000 1.875490 0.000000 
#    z -0.006270 0.000000 1.909940 
# 
# From -- ./inp_files/1090.got.cif
#   From: 2010.03.12/outbox.cif.g09.slc.cpg/sg4_1_cif.got.tgz:1090.got - 2010.03.31 09:31:35.
