data_PCOD8046469
_publ_section_title
;
Structure prediction by ZEFSAII (Michael W. Deem and Ramdas Pophale) SiO2 
 PCOD8046469
Probable space group: P 21
;
_chemical_formula_sum "Si O2"
_cell_formula_units_Z 16
_cell_length_a 11.171439
_cell_length_b 8.861781
_cell_length_c 11.171461
_cell_angle_alpha 90.000000
_cell_angle_beta 40.935987
_cell_angle_gamma 90.000000
_cell_volume 724.643201
_symmetry_space_group_name_H-M "P 21"
_symmetry_group_IT_number 4
_symmetry_cell_setting 'monoclinic'
loop_
_space_group_symop_operation_xyz
x,y,z
-x,1/2+y,-z
loop_
_atom_site_type_symbol
_atom_site_label
_atom_site_fract_x
_atom_site_fract_y
_atom_site_fract_z
Si Si1 0.587018 0.486030 0.717690
Si Si2 0.009747 0.097362 0.131097
Si Si3 0.901992 0.670088 0.598009
Si Si4 0.782309 0.854145 0.912983
Si Si5 0.682214 0.293730 0.430537
Si Si6 0.930538 0.546445 0.182213
Si Si7 0.368902 0.242814 0.490254
Si Si8 0.909838 0.920087 0.409836
O O1 0.744305 0.549344 0.684619
O O2 0.664508 0.348122 0.580542
O O3 0.527250 0.621177 0.672158
O O4 0.420769 0.420088 0.920768
O O5 0.812570 0.149452 0.332144
O O6 0.172160 0.218998 0.027249
O O7 0.037967 0.948348 0.193413
O O8 0.979739 0.070191 0.014512
O O9 0.815380 0.790831 0.755696
O O10 0.975012 0.768651 0.431095
O O11 0.068904 0.571525 0.524990
O O12 0.919458 0.992052 0.835492
O O13 0.776711 0.420088 0.276711
O O14 0.485489 0.269984 0.520260
O O15 0.832145 0.690724 0.312569
O O16 0.306586 0.391827 0.462034
#
# Coordination Sequence:
#
# PCOD8046469 Si02
#       8
#     2   2   2   2   2   2   2   2
#     4  10  22  43  64  92 133 168 220 277 321 389
#     4  10  22  39  63 102 127 172 213 264 340 397
#     4  10  24  46  64  98 126 176 234 260 328 384
#     4  10  22  43  64  92 133 168 220 277 321 389
#     4  10  22  37  65  96 134 167 210 269 333 390
#     4  10  22  37  65  96 134 167 210 269 333 390
#     4  10  22  39  63 102 127 172 213 264 340 397
#     4  10  24  40  68  90 130 172 220 270 318 392
#
# _framework density 22.079833000000001
#
# number of rings (size 3 to 8) (size 9 to 14) (size 15 to 20)
#    0.000    2.000    0.000    1.500   17.500    0.000 
#    4.500    2.500    0.000    0.000    0.000    0.000 
#    0.000    0.000    0.000    0.000    0.000    0.000 
#
# Total GULP energy -198261.149659 kJ/mol
# GULP energy per Si atom -12391.321854 kJ/mol
# Density = 2.202958 g / cm^3
# Si number density = 22.079833 Si / 1000 Ang^3
#
#
#
# Elastic Constant Matrix: (Units=GPa)
#
#
# Indices 1 2 3 4 5 6 
#
# 1 123.0993 48.4808 51.0724 0.0000 11.3363 0.0000
# 2 48.4808 89.9895 57.4513 0.0000 -3.7639 0.0000
# 3 51.0724 57.4513 98.7074 0.0000 -1.1022 0.0000
# 4 0.0000 0.0000 0.0000 34.7339 0.0000 0.7414
# 5 11.3363 -3.7639 -1.1022 0.0000 27.7219 0.0000
# 6 0.0000 0.0000 0.0000 0.7414 0.0000 36.4981
#
#
#
# Elastic Compliance Matrix: (Units=1/GPa)
#
#
# Indices 1 2 3 4 5 6 
#
# 1 0.011852 -0.004238 -0.003728 0.000000 -0.005570 0.000000
# 2 -0.004238 0.019310 -0.009001 0.000000 0.003997 0.000000
# 3 -0.003728 -0.009001 0.017310 0.000000 0.000991 0.000000
# 4 0.000000 0.000000 0.000000 0.028803 0.000000 -0.000585
# 5 -0.005570 0.003997 0.000991 0.000000 0.038933 0.000000
# 6 0.000000 0.000000 0.000000 -0.000585 0.000000 0.027411
#
#
# Mechanical properties :
#
#
# Convention : Reuss Voigt Hill
#
# Bulk Modulus (GPa) = 68.79062 69.53389 69.16226
# Shear Modulus (GPa) = 27.41252 30.11023 28.76138
#
# Velocity S-wave (km/s) = 3.52734 3.69683 3.61308
# Velocity P-wave (km/s) = 6.91466 7.05567 6.98552
#
# Compressibility (1/GPa) = 0.01453687
#
# Stress axis : x y z
#
# Youngs Moduli (GPa) = 84.37131 51.78786 57.77032
#
# Poissons Ratio (x) = 0.21950 0.21536
# Poissons Ratio (y) = 0.35760 0.52001
# Poissons Ratio (z) = 0.31453 0.46616
#
# Static dielectric constant tensor:
#      x y z
#    x 4.012990 0.000000 0.076560 
#    y 0.000000 4.223950 0.000000 
#    z 0.076560 0.000000 3.830540 
# 
# 
# High freq. dielectric constant tensor:
#      x y z
#    x 1.874920 0.000000 0.016220 
#    y 0.000000 1.879020 0.000000 
#    z 0.016220 0.000000 1.836260 
# 
# From -- ./inp_files/7764.got.cif
#   From: 2010.03.12/outbox.cif.g09.slc.cpg/sg4_4_cif.got.tgz:7764.got - 2010.03.31 09:31:35.
