data_PCOD8046408
_publ_section_title
;
Structure prediction by ZEFSAII (Michael W. Deem and Ramdas Pophale) SiO2 
 PCOD8046408
Probable space group: P 21
;
_chemical_formula_sum "Si O2"
_cell_formula_units_Z 14
_cell_length_a 15.755924
_cell_length_b 5.165075
_cell_length_c 21.604562
_cell_angle_alpha 90.000000
_cell_angle_beta 161.760661
_cell_angle_gamma 90.000000
_cell_volume 550.290989
_symmetry_space_group_name_H-M "P 21"
_symmetry_group_IT_number 4
_symmetry_cell_setting 'monoclinic'
loop_
_space_group_symop_operation_xyz
x,y,z
-x,1/2+y,-z
loop_
_atom_site_type_symbol
_atom_site_label
_atom_site_fract_x
_atom_site_fract_y
_atom_site_fract_z
Si Si1 0.151496 0.896430 0.418134
Si Si2 0.166952 0.420885 0.687788
Si Si3 0.485765 0.397968 0.679770
Si Si4 0.208754 0.096737 0.998628
Si Si5 0.245111 0.874815 0.251545
Si Si6 0.358945 0.919692 0.758944
Si Si7 0.848270 0.700935 0.700104
O O1 0.276005 0.611396 0.509166
O O2 0.875975 0.895756 0.268019
O O3 0.356922 0.113345 0.587081
O O4 0.082707 0.962588 0.298722
O O5 0.306960 0.694080 0.772727
O O6 0.869331 0.403141 0.451639
O O7 0.359861 0.194908 0.794272
O O8 0.559139 0.442032 0.802432
O O9 0.754752 0.422399 0.822365
O O10 0.345845 0.359846 0.066837
O O11 0.965697 0.150540 0.878143
O O12 0.082378 0.919846 0.856300
O O13 0.554009 0.806437 0.480734
O O14 0.154863 0.118474 0.230121
#
# Coordination Sequence:
#
# PCOD8046408 Si02
#       7
#     2   2   2   2   2   2   2
#     4  11  24  47  75 108 143 197 249 303 384 463
#     4  10  21  43  72 104 142 182 236 305 392 439
#     4  11  27  42  74 110 148 189 256 310 366 446
#     4  12  27  43  71 113 149 194 257 315 369 443
#     4  11  25  45  68  98 149 200 243 296 372 449
#     4  10  23  40  71 108 140 182 237 314 375 439
#     4  11  25  44  73 101 151 206 248 299 378 457
#
# _framework density 25.441085999999999
#
# number of rings (size 3 to 8) (size 9 to 14) (size 15 to 20)
#    0.000    1.143    2.857    1.714   14.000    0.000 
#    0.000    0.000    3.143    0.000    0.000    0.000 
#    0.000    0.000    0.000    0.000    0.000    0.000 
#
# Total GULP energy -173582.660437 kJ/mol
# GULP energy per Si atom -12398.761460 kJ/mol
# Density = 2.538318 g / cm^3
# Si number density = 25.441086 Si / 1000 Ang^3
#
#
#
# Elastic Constant Matrix: (Units=GPa)
#
#
# Indices 1 2 3 4 5 6 
#
# 1 113.5432 -3.6816 15.1472 0.0000 26.4519 0.0000
# 2 -3.6816 59.4796 1.1459 0.0000 1.5891 0.0000
# 3 15.1472 1.1459 65.7375 0.0000 0.5963 0.0000
# 4 0.0000 0.0000 0.0000 34.7094 0.0000 7.2700
# 5 26.4519 1.5891 0.5963 0.0000 14.8866 0.0000
# 6 0.0000 0.0000 0.0000 7.2700 0.0000 42.3994
#
#
#
# Elastic Compliance Matrix: (Units=1/GPa)
#
#
# Indices 1 2 3 4 5 6 
#
# 1 0.015935 0.001811 -0.003446 0.000000 -0.028370 0.000000
# 2 0.001811 0.017071 -0.000669 0.000000 -0.005013 0.000000
# 3 -0.003446 -0.000669 0.015967 0.000000 0.005555 0.000000
# 4 0.000000 0.000000 0.000000 0.029884 0.000000 -0.005124
# 5 -0.028370 -0.005013 0.005555 0.000000 0.117897 0.000000
# 6 0.000000 0.000000 0.000000 -0.005124 0.000000 0.024464
#
#
# Mechanical properties :
#
#
# Convention : Reuss Voigt Hill
#
# Bulk Modulus (GPa) = 22.54057 29.33147 25.93602
# Shear Modulus (GPa) = 20.78003 33.47568 27.12785
#
# Velocity S-wave (km/s) = 2.86105 3.63135 3.26897
# Velocity P-wave (km/s) = 4.44897 5.39782 4.94620
#
# Compressibility (1/GPa) = 0.04436445
#
# Stress axis : x y z
#
# Youngs Moduli (GPa) = 62.75536 58.57755 62.62803
#
# Poissons Ratio (x) = -0.10606 0.21581
# Poissons Ratio (y) = -0.11363 0.04192
# Poissons Ratio (z) = 0.21625 0.03921
#
# Static dielectric constant tensor:
#      x y z
#    x 5.001230 0.000000 0.085660 
#    y 0.000000 4.502100 0.000000 
#    z 0.085660 0.000000 4.322840 
# 
# 
# High freq. dielectric constant tensor:
#      x y z
#    x 2.022920 0.000000 0.010530 
#    y 0.000000 2.021520 0.000000 
#    z 0.010530 0.000000 1.997930 
# 
# From -- ./inp_files/10648.got.cif
#   From: 2010.03.12/outbox.cif.g09.slc.cpg/sg4_6_cif.got.tgz:10648.got - 2010.03.31 09:31:35.
