data_PCOD8046290
_publ_section_title
;
Structure prediction by ZEFSAII (Michael W. Deem and Ramdas Pophale) SiO2 
 PCOD8046290
Probable space group: P 21
;
_chemical_formula_sum "Si O2"
_cell_formula_units_Z 14
_cell_length_a 11.404925
_cell_length_b 8.398071
_cell_length_c 9.408800
_cell_angle_alpha 90.000000
_cell_angle_beta 42.613382
_cell_angle_gamma 90.000000
_cell_volume 610.134512
_symmetry_space_group_name_H-M "P 21"
_symmetry_group_IT_number 4
_symmetry_cell_setting 'monoclinic'
loop_
_space_group_symop_operation_xyz
x,y,z
-x,1/2+y,-z
loop_
_atom_site_type_symbol
_atom_site_label
_atom_site_fract_x
_atom_site_fract_y
_atom_site_fract_z
Si Si1 0.109826 0.326710 0.567587
Si Si2 0.979964 0.070028 0.867306
Si Si3 0.663379 0.574563 0.310577
Si Si4 0.447802 0.809923 0.133285
Si Si5 0.101566 0.992473 0.472245
Si Si6 0.464814 0.461365 0.227572
Si Si7 0.375549 0.428039 0.757860
O O1 0.287372 0.407421 0.463221
O O2 0.002924 0.256357 0.798208
O O3 0.002754 0.458914 0.578569
O O4 0.155330 0.179372 0.419923
O O5 0.139169 0.027334 0.829965
O O6 0.990133 0.960987 0.715487
O O7 0.797582 0.035587 0.105752
O O8 0.612448 0.478200 0.214395
O O9 0.536910 0.527367 0.552590
O O10 0.645134 0.763154 0.307144
O O11 0.263632 0.878884 0.338789
O O12 0.437741 0.623025 0.166341
O O13 0.591601 0.892870 0.104891
O O14 0.482658 0.830564 0.935176
#
# Coordination Sequence:
#
# PCOD8046290 Si02
#       7
#     2   2   2   2   2   2   2
#     4  10  21  42  66 103 144 182 236 296 356 423
#     4  10  24  45  72 101 147 186 241 295 359 428
#     4  11  25  48  71 108 141 192 242 293 360 436
#     4  11  23  41  71 106 141 192 236 301 358 427
#     4  10  21  40  68 104 143 178 237 294 356 419
#     4  11  24  43  71 105 145 187 242 297 366 421
#     4  11  24  47  73  99 147 191 238 300 357 426
#
# _framework density 22.945758999999999
#
# number of rings (size 3 to 8) (size 9 to 14) (size 15 to 20)
#    0.857    0.571    1.429    3.429    2.000    3.429 
#    5.143    0.000    0.000    0.000    0.000    0.000 
#    0.000    0.000    0.000    0.000    0.000    0.000 
#
# Total GULP energy -173563.786115 kJ/mol
# GULP energy per Si atom -12397.413294 kJ/mol
# Density = 2.289353 g / cm^3
# Si number density = 22.945759 Si / 1000 Ang^3
#
#
#
# Elastic Constant Matrix: (Units=GPa)
#
#
# Indices 1 2 3 4 5 6 
#
# 1 129.9449 34.6735 28.3005 0.0000 -3.7834 0.0000
# 2 34.6735 56.2117 15.4751 0.0000 15.8282 0.0000
# 3 28.3005 15.4751 72.8276 0.0000 2.0623 0.0000
# 4 0.0000 0.0000 0.0000 36.2308 0.0000 -5.3264
# 5 -3.7834 15.8282 2.0623 0.0000 20.5078 0.0000
# 6 0.0000 0.0000 0.0000 -5.3264 0.0000 38.3639
#
#
#
# Elastic Compliance Matrix: (Units=1/GPa)
#
#
# Indices 1 2 3 4 5 6 
#
# 1 0.010755 -0.008354 -0.002651 0.000000 0.008698 0.000000
# 2 -0.008354 0.030678 -0.002566 0.000000 -0.024961 0.000000
# 3 -0.002651 -0.002566 0.015308 0.000000 -0.000048 0.000000
# 4 0.000000 0.000000 0.000000 0.028176 0.000000 0.003912
# 5 0.008698 -0.024961 -0.000048 0.000000 0.069637 0.000000
# 6 0.000000 0.000000 0.000000 0.003912 0.000000 0.026609
#
#
# Mechanical properties :
#
#
# Convention : Reuss Voigt Hill
#
# Bulk Modulus (GPa) = 33.78339 46.20917 39.99628
# Shear Modulus (GPa) = 22.91805 31.05617 26.98711
#
# Velocity S-wave (km/s) = 3.16380 3.68293 3.43319
# Velocity P-wave (km/s) = 5.30106 6.18607 5.76059
#
# Compressibility (1/GPa) = 0.02960034
#
# Stress axis : x y z
#
# Youngs Moduli (GPa) = 92.97876 32.59718 65.32694
#
# Poissons Ratio (x) = 0.27231 0.17316
# Poissons Ratio (y) = 0.77672 0.16760
# Poissons Ratio (z) = 0.24645 0.08363
#
# Static dielectric constant tensor:
#      x y z
#    x 4.303270 0.000000 0.020970 
#    y 0.000000 4.091830 0.000000 
#    z 0.020970 0.000000 3.821510 
# 
# 
# High freq. dielectric constant tensor:
#      x y z
#    x 1.919950 0.000000 -0.000970 
#    y 0.000000 1.901570 0.000000 
#    z -0.000970 0.000000 1.889040 
# 
# From -- ./inp_files/7936.got.cif
#   From: 2010.03.12/outbox.cif.g09.slc.cpg/sg4_4_cif.got.tgz:7936.got - 2010.03.31 09:31:35.
