data_PCOD8046710
_publ_section_title
;
Structure prediction by ZEFSAII (Michael W. Deem and Ramdas Pophale) SiO2 
 PCOD8046710
Probable space group: P 21
;
_chemical_formula_sum "Si O2"
_cell_formula_units_Z 16
_cell_length_a 8.976935
_cell_length_b 14.813121
_cell_length_c 5.272167
_cell_angle_alpha 90.000000
_cell_angle_beta 87.887389
_cell_angle_gamma 90.000000
_cell_volume 700.597399
_symmetry_space_group_name_H-M "P 21"
_symmetry_group_IT_number 4
_symmetry_cell_setting 'monoclinic'
loop_
_space_group_symop_operation_xyz
x,y,z
-x,1/2+y,-z
loop_
_atom_site_type_symbol
_atom_site_label
_atom_site_fract_x
_atom_site_fract_y
_atom_site_fract_z
Si Si1 0.701720 0.773200 0.192946
Si Si2 0.260680 0.515001 0.197785
Si Si3 0.967636 0.889224 0.022118
Si Si4 0.307424 0.621001 0.688644
Si Si5 0.347500 0.158957 0.312178
Si Si6 0.212904 0.974949 0.299838
Si Si7 0.523184 0.400606 0.015979
Si Si8 0.236584 0.817592 0.703734
O O1 0.682414 0.731100 0.468483
O O2 0.575508 0.850987 0.190471
O O3 0.862503 0.821175 0.183568
O O4 0.686260 0.702430 0.961359
O O5 0.126480 0.443444 0.181419
O O6 0.244673 0.555361 0.477194
O O7 0.252987 0.588063 0.969398
O O8 0.418066 0.463564 0.190956
O O9 0.095470 0.827612 0.894026
O O10 0.047848 0.962972 0.196188
O O11 0.485772 0.621397 0.679323
O O12 0.234486 0.715615 0.604266
O O13 0.231781 0.077937 0.389093
O O14 0.344779 0.964482 0.088152
O O15 0.235689 0.897020 0.502149
O O16 0.602625 0.321314 0.168742
#
# Coordination Sequence:
#
# PCOD8046710 Si02
#       8
#     2   2   2   2   2   2   2   2
#     4  11  26  46  74 105 144 184 238 293 352 422
#     4  11  26  46  74 105 144 184 238 293 352 422
#     4  10  28  48  68 104 146 198 232 280 366 430
#     4  12  25  45  76 110 137 181 244 301 350 408
#     4  12  25  45  76 110 137 181 244 301 350 408
#     4  11  25  45  71 101 145 189 235 288 357 427
#     4  10  22  44  72 104 140 188 232 294 354 422
#     4  11  25  45  71 101 145 189 235 288 357 427
#
# _framework density 22.837651000000001
#
# number of rings (size 3 to 8) (size 9 to 14) (size 15 to 20)
#    0.000    1.000    2.500    2.250   10.500    3.000 
#    0.000    0.000    0.000    0.000    0.000    0.000 
#    0.000    0.000    0.000    0.000    0.000    0.000 
#
# Total GULP energy -198382.584329 kJ/mol
# GULP energy per Si atom -12398.911521 kJ/mol
# Density = 2.278567 g / cm^3
# Si number density = 22.837651 Si / 1000 Ang^3
#
#
#
# Elastic Constant Matrix: (Units=GPa)
#
#
# Indices 1 2 3 4 5 6 
#
# 1 95.4397 5.4779 14.5436 0.0000 10.2367 0.0000
# 2 5.4779 71.2080 2.3886 0.0000 1.6636 0.0000
# 3 14.5436 2.3886 64.4985 0.0000 3.3039 0.0000
# 4 0.0000 0.0000 0.0000 50.2602 0.0000 4.1730
# 5 10.2367 1.6636 3.3039 0.0000 12.1211 0.0000
# 6 0.0000 0.0000 0.0000 4.1730 0.0000 28.4528
#
#
#
# Elastic Compliance Matrix: (Units=1/GPa)
#
#
# Indices 1 2 3 4 5 6 
#
# 1 0.011844 -0.000620 -0.002170 0.000000 -0.009326 0.000000
# 2 -0.000620 0.014133 -0.000315 0.000000 -0.001330 0.000000
# 3 -0.002170 -0.000315 0.016134 0.000000 -0.002522 0.000000
# 4 0.000000 0.000000 0.000000 0.020142 0.000000 -0.002954
# 5 -0.009326 -0.001330 -0.002522 0.000000 0.091247 0.000000
# 6 0.000000 0.000000 0.000000 -0.002954 0.000000 0.035579
#
#
# Mechanical properties :
#
#
# Convention : Reuss Voigt Hill
#
# Bulk Modulus (GPa) = 27.85532 30.66293 29.25913
# Shear Modulus (GPa) = 24.12449 32.08255 28.10352
#
# Velocity S-wave (km/s) = 3.25368 3.75214 3.51177
# Velocity P-wave (km/s) = 5.13213 5.67689 5.41137
#
# Compressibility (1/GPa) = 0.03589978
#
# Stress axis : x y z
#
# Youngs Moduli (GPa) = 84.42777 70.75765 61.97936
#
# Poissons Ratio (x) = 0.04390 0.13450
# Poissons Ratio (y) = 0.05239 0.01955
# Poissons Ratio (z) = 0.18321 0.02231
#
# Static dielectric constant tensor:
#      x y z
#    x 4.356930 0.000000 0.062070 
#    y 0.000000 4.269190 0.000000 
#    z 0.062070 0.000000 3.981650 
# 
# 
# High freq. dielectric constant tensor:
#      x y z
#    x 1.913320 0.000000 0.003310 
#    y 0.000000 1.913840 0.000000 
#    z 0.003310 0.000000 1.891610 
# 
# From -- ./inp_files/1748.got.cif
#   From: 2010.03.12/outbox.cif.g09.slc.cpg/sg4_1_cif.got.tgz:1748.got - 2010.03.31 09:31:35.
