data_PCOD8046611
_publ_section_title
;
Structure prediction by ZEFSAII (Michael W. Deem and Ramdas Pophale) SiO2 
 PCOD8046611
Probable space group: P 21
;
_chemical_formula_sum "Si O2"
_cell_formula_units_Z 16
_cell_length_a 9.077016
_cell_length_b 14.233938
_cell_length_c 6.767767
_cell_angle_alpha 90.000000
_cell_angle_beta 53.568998
_cell_angle_gamma 90.000000
_cell_volume 703.523812
_symmetry_space_group_name_H-M "P 21"
_symmetry_group_IT_number 4
_symmetry_cell_setting 'monoclinic'
loop_
_space_group_symop_operation_xyz
x,y,z
-x,1/2+y,-z
loop_
_atom_site_type_symbol
_atom_site_label
_atom_site_fract_x
_atom_site_fract_y
_atom_site_fract_z
Si Si1 0.138807 0.340720 0.731991
Si Si2 0.389644 0.991199 0.662233
Si Si3 0.353445 0.449283 0.870621
Si Si4 0.733488 0.293910 0.123790
Si Si5 0.854076 0.179362 0.373644
Si Si6 0.278578 0.491247 0.349869
Si Si7 0.755600 0.676728 0.104857
Si Si8 0.562852 0.269978 0.856014
O O1 0.182969 0.411824 0.877776
O O2 0.206693 0.388039 0.474117
O O3 0.249936 0.245629 0.699338
O O4 0.926895 0.318978 0.871245
O O5 0.516461 0.013809 0.370385
O O6 0.317247 0.884880 0.703108
O O7 0.509322 0.999274 0.764993
O O8 0.234619 0.071080 0.812937
O O9 0.484660 0.369133 0.852709
O O10 0.263698 0.505303 0.125252
O O11 0.747774 0.202727 0.253398
O O12 0.583207 0.270622 0.077072
O O13 0.765702 0.247079 0.609510
O O14 0.838750 0.070856 0.446078
O O15 0.068634 0.201069 0.170804
O O16 0.575753 0.689247 0.111254
#
# Coordination Sequence:
#
# PCOD8046611 Si02
#       8
#     2   2   2   2   2   2   2   2
#     4   9  23  42  68  97 134 176 228 282 336 407
#     4  11  21  42  68  98 136 179 226 283 339 401
#     4  10  22  42  66  96 132 183 226 278 340 402
#     4  11  23  42  72  97 135 181 223 285 346 399
#     4  11  24  45  67 102 140 177 229 288 334 408
#     4  11  22  42  68 100 138 179 232 280 337 408
#     4  10  23  45  69 100 140 177 232 283 339 409
#     4  11  22  42  68  98 135 176 228 279 339 408
#
# _framework density 22.742657999999999
#
# number of rings (size 3 to 8) (size 9 to 14) (size 15 to 20)
#    0.000    1.500    3.750    0.750    0.000    5.000 
#    2.250    2.500    0.000    0.000    0.000    0.000 
#    0.000    0.000    0.000    0.000    0.000    0.000 
#
# Total GULP energy -198327.017469 kJ/mol
# GULP energy per Si atom -12395.438592 kJ/mol
# Density = 2.269089 g / cm^3
# Si number density = 22.742658 Si / 1000 Ang^3
#
#
#
# Elastic Constant Matrix: (Units=GPa)
#
#
# Indices 1 2 3 4 5 6 
#
# 1 76.6352 17.5285 33.5435 0.0000 8.5516 0.0000
# 2 17.5285 85.0122 35.9042 0.0000 -3.5810 0.0000
# 3 33.5435 35.9042 104.3193 0.0000 8.7971 0.0000
# 4 0.0000 0.0000 0.0000 39.5023 0.0000 -5.1641
# 5 8.5516 -3.5810 8.7971 0.0000 29.8370 0.0000
# 6 0.0000 0.0000 0.0000 -5.1641 0.0000 18.6801
#
#
#
# Elastic Compliance Matrix: (Units=1/GPa)
#
#
# Indices 1 2 3 4 5 6 
#
# 1 0.015630 -0.001600 -0.004185 0.000000 -0.003438 0.000000
# 2 -0.001600 0.014218 -0.004678 0.000000 0.003544 0.000000
# 3 -0.004185 -0.004678 0.012806 0.000000 -0.003138 0.000000
# 4 0.000000 0.000000 0.000000 0.026264 0.000000 0.007261
# 5 -0.003438 0.003544 -0.003138 0.000000 0.035851 0.000000
# 6 0.000000 0.000000 0.000000 0.007261 0.000000 0.055540
#
#
# Mechanical properties :
#
#
# Convention : Reuss Voigt Hill
#
# Bulk Modulus (GPa) = 46.02302 48.87990 47.45146
# Shear Modulus (GPa) = 26.52814 29.53658 28.03236
#
# Velocity S-wave (km/s) = 3.41904 3.60770 3.51463
# Velocity P-wave (km/s) = 5.98889 6.23645 6.11392
#
# Compressibility (1/GPa) = 0.02172826
#
# Stress axis : x y z
#
# Youngs Moduli (GPa) = 63.97821 70.33405 78.08635
#
# Poissons Ratio (x) = 0.11253 0.32681
# Poissons Ratio (y) = 0.10236 0.36528
# Poissons Ratio (z) = 0.26777 0.32901
#
# Static dielectric constant tensor:
#      x y z
#    x 3.934190 0.000000 0.004890 
#    y 0.000000 4.137350 0.000000 
#    z 0.004890 0.000000 4.042900 
# 
# 
# High freq. dielectric constant tensor:
#      x y z
#    x 1.882820 0.000000 -0.002720 
#    y 0.000000 1.894480 0.000000 
#    z -0.002720 0.000000 1.893720 
# 
# From -- ./inp_files/1831.got.cif
#   From: 2010.03.12/outbox.cif.g09.slc.cpg/sg4_1_cif.got.tgz:1831.got - 2010.03.31 09:31:35.
