data_PCOD8046881
_publ_section_title
;
Structure prediction by ZEFSAII (Michael W. Deem and Ramdas Pophale) SiO2 
 PCOD8046881
Probable space group: P 21
;
_chemical_formula_sum "Si O2"
_cell_formula_units_Z 16
_cell_length_a 8.887138
_cell_length_b 8.622578
_cell_length_c 16.044045
_cell_angle_alpha 90.000000
_cell_angle_beta 145.109049
_cell_angle_gamma 90.000000
_cell_volume 703.268813
_symmetry_space_group_name_H-M "P 21"
_symmetry_group_IT_number 4
_symmetry_cell_setting 'monoclinic'
loop_
_space_group_symop_operation_xyz
x,y,z
-x,1/2+y,-z
loop_
_atom_site_type_symbol
_atom_site_label
_atom_site_fract_x
_atom_site_fract_y
_atom_site_fract_z
Si Si1 0.411424 0.449700 0.516783
Si Si2 0.848006 0.475290 0.190537
Si Si3 0.638176 0.118255 0.948855
Si Si4 0.750306 0.190801 0.250844
Si Si5 0.477054 0.397331 0.248104
Si Si6 0.795414 0.608035 0.814237
Si Si7 0.676674 0.595583 0.485494
Si Si8 0.282929 0.960932 0.048788
O O1 0.538096 0.541733 0.651543
O O2 0.585974 0.476883 0.515048
O O3 0.428064 0.268174 0.544414
O O4 0.113052 0.510545 0.364362
O O5 0.608734 0.594774 0.101388
O O6 0.752553 0.301866 0.170499
O O7 0.910536 0.478975 0.119913
O O8 0.613246 0.285734 0.894159
O O9 0.645268 0.981092 0.886081
O O10 0.939446 0.102065 0.122572
O O11 0.712766 0.288813 0.319599
O O12 0.012257 0.092330 0.377862
O O13 0.525792 0.067614 0.135689
O O14 0.254517 0.290014 0.189668
O O15 0.576400 0.532092 0.352763
O O16 0.849850 0.517814 0.926069
#
# Coordination Sequence:
#
# PCOD8046881 Si02
#       8
#     2   2   2   2   2   2   2   2
#     4  11  26  44  68 103 140 180 223 285 338 409
#     4  10  24  45  68  98 138 174 227 278 342 405
#     4  11  24  41  71  98 136 177 230 277 343 399
#     4   9  23  43  66 102 136 177 225 286 340 406
#     4  10  23  43  67 102 136 182 222 290 334 411
#     4  11  25  44  69 100 140 175 229 278 342 403
#     4  11  24  43  72  99 144 178 232 276 351 403
#     4  11  23  41  71  98 134 179 224 280 342 402
#
# _framework density 22.750903000000001
#
# number of rings (size 3 to 8) (size 9 to 14) (size 15 to 20)
#    0.000    1.500    0.000    3.000    8.750    9.000 
#    4.500    0.000    0.000    0.000    0.000    0.000 
#    0.000    0.000    0.000    0.000    0.000    0.000 
#
# Total GULP energy -198336.657221 kJ/mol
# GULP energy per Si atom -12396.041076 kJ/mol
# Density = 2.269912 g / cm^3
# Si number density = 22.750903 Si / 1000 Ang^3
#
#
#
# Elastic Constant Matrix: (Units=GPa)
#
#
# Indices 1 2 3 4 5 6 
#
# 1 98.5336 22.8902 57.7402 0.0000 18.7368 0.0000
# 2 22.8902 98.0520 38.5221 0.0000 7.3760 0.0000
# 3 57.7402 38.5221 106.1357 0.0000 3.1477 0.0000
# 4 0.0000 0.0000 0.0000 32.1089 0.0000 -4.8605
# 5 18.7368 7.3760 3.1477 0.0000 33.3924 0.0000
# 6 0.0000 0.0000 0.0000 -4.8605 0.0000 38.3722
#
#
#
# Elastic Compliance Matrix: (Units=1/GPa)
#
#
# Indices 1 2 3 4 5 6 
#
# 1 0.017124 0.000259 -0.009149 0.000000 -0.008803 0.000000
# 2 0.000259 0.012066 -0.004449 0.000000 -0.002391 0.000000
# 3 -0.009149 -0.004449 0.015877 0.000000 0.004620 0.000000
# 4 0.000000 0.000000 0.000000 0.031753 0.000000 0.004022
# 5 -0.008803 -0.002391 0.004620 0.000000 0.034979 0.000000
# 6 0.000000 0.000000 0.000000 0.004022 0.000000 0.026570
#
#
# Mechanical properties :
#
#
# Convention : Reuss Voigt Hill
#
# Bulk Modulus (GPa) = 54.38147 60.11403 57.24775
# Shear Modulus (GPa) = 29.20970 33.01262 31.11116
#
# Velocity S-wave (km/s) = 3.58703 3.81339 3.70194
# Velocity P-wave (km/s) = 6.41176 6.77269 6.59469
#
# Compressibility (1/GPa) = 0.01838862
#
# Stress axis : x y z
#
# Youngs Moduli (GPa) = 58.39892 82.87654 62.98500
#
# Poissons Ratio (x) = -0.02146 0.57622
# Poissons Ratio (y) = -0.01512 0.28024
# Poissons Ratio (z) = 0.53426 0.36875
#
# Static dielectric constant tensor:
#      x y z
#    x 4.292800 0.000000 0.033740 
#    y 0.000000 4.268470 0.000000 
#    z 0.033740 0.000000 3.973340 
# 
# 
# High freq. dielectric constant tensor:
#      x y z
#    x 1.910590 0.000000 0.004410 
#    y 0.000000 1.905910 0.000000 
#    z 0.004410 0.000000 1.890760 
# 
# From -- ./inp_files/5514.got.cif
#   From: 2010.03.12/outbox.cif.g09.slc.cpg/sg4_3_cif.got.tgz:5514.got - 2010.03.31 09:31:35.
