data_PCOD8046369
_publ_section_title
;
Structure prediction by ZEFSAII (Michael W. Deem and Ramdas Pophale) SiO2 
 PCOD8046369
Probable space group: P 21
;
_chemical_formula_sum "Si O2"
_cell_formula_units_Z 14
_cell_length_a 10.055060
_cell_length_b 11.190467
_cell_length_c 5.457545
_cell_angle_alpha 90.000000
_cell_angle_beta 113.877722
_cell_angle_gamma 90.000000
_cell_volume 561.528549
_symmetry_space_group_name_H-M "P 21"
_symmetry_group_IT_number 4
_symmetry_cell_setting 'monoclinic'
loop_
_space_group_symop_operation_xyz
x,y,z
-x,1/2+y,-z
loop_
_atom_site_type_symbol
_atom_site_label
_atom_site_fract_x
_atom_site_fract_y
_atom_site_fract_z
Si Si1 0.117103 0.014180 0.146118
Si Si2 0.663383 0.729656 0.680287
Si Si3 0.725185 0.957354 0.470659
Si Si4 0.496775 0.871214 0.924823
Si Si5 0.862567 0.115759 0.226451
Si Si6 0.836100 0.371975 0.312097
Si Si7 0.419484 0.599339 0.259873
O O1 0.241182 0.112991 0.205387
O O2 0.962825 0.080766 0.070567
O O3 0.145891 0.936217 0.412544
O O4 0.103534 0.942342 0.882006
O O5 0.763919 0.842862 0.672373
O O6 0.581184 0.756622 0.874229
O O7 0.537738 0.704154 0.382369
O O8 0.864343 0.999602 0.411727
O O9 0.680513 0.078212 0.577238
O O10 0.582943 0.917072 0.221202
O O11 0.331936 0.845418 0.871675
O O12 0.496001 0.975499 0.720402
O O13 0.916290 0.241724 0.383087
O O14 0.692560 0.134425 0.036093
#
# Coordination Sequence:
#
# PCOD8046369 Si02
#       7
#     2   2   2   2   2   2   2
#     4  12  31  48  76 113 152 197 255 309 379 447
#     4  11  23  42  76 110 150 191 251 317 367 448
#     4  10  23  41  73 105 147 193 254 301 384 433
#     4  10  22  41  72 110 143 195 245 310 369 440
#     4  11  28  46  75 103 152 199 250 307 381 457
#     4  12  28  50  76 109 152 199 250 314 378 451
#     4  10  21  42  68 108 144 194 243 306 370 444
#
# _framework density 24.931947999999998
#
# number of rings (size 3 to 8) (size 9 to 14) (size 15 to 20)
#    0.000    1.143    1.429    2.571   12.000    4.571 
#    0.000    0.000    0.000    0.000    0.000    0.000 
#    0.000    0.000    0.000    0.000    0.000    0.000 
#
# Total GULP energy -173514.426962 kJ/mol
# GULP energy per Si atom -12393.887640 kJ/mol
# Density = 2.487520 g / cm^3
# Si number density = 24.931948 Si / 1000 Ang^3
#
#
#
# Elastic Constant Matrix: (Units=GPa)
#
#
# Indices 1 2 3 4 5 6 
#
# 1 79.7161 32.4844 -1.5192 0.0000 -12.5666 0.0000
# 2 32.4844 137.2434 32.0551 0.0000 -10.9155 0.0000
# 3 -1.5192 32.0551 78.1127 0.0000 -16.9746 0.0000
# 4 0.0000 0.0000 0.0000 32.6727 0.0000 -15.2639
# 5 -12.5666 -10.9155 -16.9746 0.0000 32.5644 0.0000
# 6 0.0000 0.0000 0.0000 -15.2639 0.0000 36.2539
#
#
#
# Elastic Compliance Matrix: (Units=1/GPa)
#
#
# Indices 1 2 3 4 5 6 
#
# 1 0.015157 -0.003845 0.003230 0.000000 0.006244 0.000000
# 2 -0.003845 0.009070 -0.003900 0.000000 -0.000477 0.000000
# 3 0.003230 -0.003900 0.016298 0.000000 0.008435 0.000000
# 4 0.000000 0.000000 0.000000 0.038101 0.000000 0.016041
# 5 0.006244 -0.000477 0.008435 0.000000 0.037355 0.000000
# 6 0.000000 0.000000 0.000000 0.016041 0.000000 0.034337
#
#
# Mechanical properties :
#
#
# Convention : Reuss Voigt Hill
#
# Bulk Modulus (GPa) = 31.75295 46.79033 39.27164
# Shear Modulus (GPa) = 29.43818 35.76833 32.60325
#
# Velocity S-wave (km/s) = 3.43992 3.79177 3.62012
# Velocity P-wave (km/s) = 5.34237 6.16263 5.76710
#
# Compressibility (1/GPa) = 0.03149314
#
# Stress axis : x y z
#
# Youngs Moduli (GPa) = 65.97465 110.25935 61.35608
#
# Poissons Ratio (x) = 0.42399 -0.19816
# Poissons Ratio (y) = 0.25370 0.23931
# Poissons Ratio (z) = -0.21307 0.43004
#
# Static dielectric constant tensor:
#      x y z
#    x 4.455510 0.000000 -0.191990 
#    y 0.000000 4.742450 0.000000 
#    z -0.191990 0.000000 4.226880 
# 
# 
# High freq. dielectric constant tensor:
#      x y z
#    x 1.994210 0.000000 -0.014280 
#    y 0.000000 2.006290 0.000000 
#    z -0.014280 0.000000 1.983250 
# 
# From -- ./inp_files/1124.got.cif
#   From: 2010.03.12/outbox.cif.g09.slc.cpg/sg4_1_cif.got.tgz:1124.got - 2010.03.31 09:31:35.
