data_PCOD8046037
_publ_section_title
;
Structure prediction by ZEFSAII (Michael W. Deem and Ramdas Pophale) SiO2 
 PCOD8046037
Probable space group: P 21
;
_chemical_formula_sum "Si O2"
_cell_formula_units_Z 12
_cell_length_a 9.224027
_cell_length_b 13.780881
_cell_length_c 6.519260
_cell_angle_alpha 90.000000
_cell_angle_beta 44.978576
_cell_angle_gamma 90.000000
_cell_volume 585.758231
_symmetry_space_group_name_H-M "P 21"
_symmetry_group_IT_number 4
_symmetry_cell_setting 'monoclinic'
loop_
_space_group_symop_operation_xyz
x,y,z
-x,1/2+y,-z
loop_
_atom_site_type_symbol
_atom_site_label
_atom_site_fract_x
_atom_site_fract_y
_atom_site_fract_z
Si Si1 0.500391 0.066090 0.011547
Si Si2 0.202248 0.908177 0.176753
Si Si3 0.201596 0.724014 0.419854
Si Si4 0.120966 0.474241 0.176786
Si Si5 0.121445 0.158360 0.580177
Si Si6 0.011929 0.816297 0.988444
O O1 0.634847 0.137004 0.735273
O O2 0.645346 0.001551 0.011126
O O3 0.355108 0.130873 0.300784
O O4 0.366393 0.994939 0.004085
O O5 0.296562 0.816000 0.203503
O O6 0.994103 0.941260 0.499927
O O7 0.156414 0.880883 0.988874
O O8 0.993301 0.691154 0.513426
O O9 0.155871 0.751478 0.699282
O O10 0.999919 0.566392 0.203380
O O11 0.129482 0.387400 0.004305
O O12 0.129887 0.245412 0.735210
#
# Coordination Sequence:
#
# PCOD8046037 Si02
#       6
#     2   2   2   2   2   2
#     4  10  20  40  64  86 118 156 194 242 294 344
#     4   9  20  39  60  86 121 156 194 241 290 344
#     4   9  20  39  60  86 121 156 194 241 290 344
#     4   9  20  39  60  86 121 156 194 241 290 344
#     4   9  20  39  60  86 121 156 194 241 290 344
#     4  10  20  40  64  86 118 156 194 242 294 344
#
# _framework density 20.486267999999999
#
# number of rings (size 3 to 8) (size 9 to 14) (size 15 to 20)
#    0.000    2.667    0.000    0.000    0.000    8.000 
#    0.000   43.333    0.000    0.000    0.000    0.000 
#    0.000    0.000    0.000    0.000    0.000    0.000 
#
# Total GULP energy -148812.251785 kJ/mol
# GULP energy per Si atom -12401.020982 kJ/mol
# Density = 2.043964 g / cm^3
# Si number density = 20.486268 Si / 1000 Ang^3
#
#
#
# Elastic Constant Matrix: (Units=GPa)
#
#
# Indices 1 2 3 4 5 6 
#
# 1 100.3850 73.6983 94.3971 0.0000 0.5612 0.0000
# 2 73.6983 148.4948 72.8765 0.0000 -0.0597 0.0000
# 3 94.3971 72.8765 99.0288 0.0000 -0.6738 0.0000
# 4 0.0000 0.0000 0.0000 42.3288 0.0000 -0.0147
# 5 0.5612 -0.0597 -0.6738 0.0000 29.7817 0.0000
# 6 0.0000 0.0000 0.0000 -0.0147 0.0000 42.4491
#
#
#
# Elastic Compliance Matrix: (Units=1/GPa)
#
#
# Indices 1 2 3 4 5 6 
#
# 1 0.098355 -0.004368 -0.090567 0.000000 -0.003911 0.000000
# 2 -0.004368 0.010736 -0.003737 0.000000 0.000019 0.000000
# 3 -0.090567 -0.003737 0.099206 0.000000 0.003944 0.000000
# 4 0.000000 0.000000 0.000000 0.023625 0.000000 0.000008
# 5 -0.003911 0.000019 0.003944 0.000000 0.033741 0.000000
# 6 0.000000 0.000000 0.000000 0.000008 0.000000 0.023558
#
#
# Mechanical properties :
#
#
# Convention : Reuss Voigt Hill
#
# Bulk Modulus (GPa) = 91.29728 92.20580 91.75154
# Shear Modulus (GPa) = 10.19960 30.04105 20.12032
#
# Velocity S-wave (km/s) = 2.23373 3.83351 3.13731
# Velocity P-wave (km/s) = 7.16342 8.04368 7.61628
#
# Compressibility (1/GPa) = 0.01095323
#
# Stress axis : x y z
#
# Youngs Moduli (GPa) = 10.16724 93.14382 10.08002
#
# Poissons Ratio (x) = 0.40685 0.91292
# Poissons Ratio (y) = 0.04441 0.03767
# Poissons Ratio (z) = 0.92082 0.34807
#
# Static dielectric constant tensor:
#      x y z
#    x 3.464260 0.000000 -0.000140 
#    y 0.000000 4.201900 0.000000 
#    z -0.000140 0.000000 3.461850 
# 
# 
# High freq. dielectric constant tensor:
#      x y z
#    x 1.780170 0.000000 -0.000020 
#    y 0.000000 1.830990 0.000000 
#    z -0.000020 0.000000 1.779940 
# 
# From -- ./inp_files/268.got.cif
#   From: 2010.03.12/outbox.cif.g09.slc.cpg/sg4_1_cif.got.tgz:268.got - 2010.03.31 09:31:35.
