data_PCOD8046265
_publ_section_title
;
Structure prediction by ZEFSAII (Michael W. Deem and Ramdas Pophale) SiO2 
 PCOD8046265
Probable space group: P 21
;
_chemical_formula_sum "Si O2"
_cell_formula_units_Z 16
_cell_length_a 11.086566
_cell_length_b 10.592398
_cell_length_c 6.816598
_cell_angle_alpha 90.000000
_cell_angle_beta 105.428789
_cell_angle_gamma 90.000000
_cell_volume 771.647346
_symmetry_space_group_name_H-M "P 21"
_symmetry_group_IT_number 4
_symmetry_cell_setting 'monoclinic'
loop_
_space_group_symop_operation_xyz
x,y,z
-x,1/2+y,-z
loop_
_atom_site_type_symbol
_atom_site_label
_atom_site_fract_x
_atom_site_fract_y
_atom_site_fract_z
Si Si1 0.820737 0.493760 0.507823
Si Si2 0.391697 0.345435 0.428348
Si Si3 0.436858 0.064724 0.440043
Si Si4 0.910601 0.680913 0.232881
Si Si5 0.982739 0.082817 0.112531
Si Si6 0.143800 0.719219 0.604013
Si Si7 0.356181 0.519291 0.736061
Si Si8 0.772213 0.899472 0.989959
O O1 0.707512 0.527268 0.606471
O O2 0.825469 0.591436 0.330175
O O3 0.805450 0.360369 0.394459
O O4 0.943349 0.497856 0.696701
O O5 0.456811 0.211484 0.511103
O O6 0.487361 0.458341 0.400272
O O7 0.320936 0.395667 0.590748
O O8 0.288352 0.322373 0.214830
O O9 0.497961 0.056849 0.245426
O O10 0.834322 0.810061 0.179777
O O11 0.046327 0.696172 0.387006
O O12 0.926730 0.632498 0.017001
O O13 0.919908 0.197908 0.209440
O O14 0.878021 0.996740 0.962047
O O15 0.262907 0.629649 0.628056
O O16 0.337194 0.481933 0.953309
#
# Coordination Sequence:
#
# PCOD8046265 Si02
#       8
#     2   2   2   2   2   2   2   2
#     4  11  22  40  64  94 129 168 212 265 314 391
#     4  10  22  42  67  89 127 166 209 265 314 380
#     4  10  22  43  66  94 126 171 214 258 321 378
#     4  11  23  37  64  93 127 163 212 265 322 378
#     4  10  23  39  61  98 124 166 211 264 325 379
#     4  10  21  40  64  90 131 168 209 262 323 382
#     4   9  22  41  64  91 126 167 207 257 316 380
#     4  11  21  42  64  93 124 163 212 256 329 374
#
# _framework density 20.734860999999999
#
# number of rings (size 3 to 8) (size 9 to 14) (size 15 to 20)
#    0.750    1.000    1.250    3.000    1.750    1.000 
#    6.750    0.000    5.500    0.000    0.000    0.000 
#    0.000    0.000    0.000    0.000    0.000    0.000 
#
# Total GULP energy -198223.997167 kJ/mol
# GULP energy per Si atom -12388.999823 kJ/mol
# Density = 2.068767 g / cm^3
# Si number density = 20.734861 Si / 1000 Ang^3
#
#
#
# Elastic Constant Matrix: (Units=GPa)
#
#
# Indices 1 2 3 4 5 6 
#
# 1 107.1266 33.5824 20.5488 0.0000 -20.3040 0.0000
# 2 33.5824 116.6506 7.9552 0.0000 5.9916 0.0000
# 3 20.5488 7.9552 49.7951 0.0000 0.0293 0.0000
# 4 0.0000 0.0000 0.0000 23.8676 0.0000 0.4977
# 5 -20.3040 5.9916 0.0293 0.0000 25.9385 0.0000
# 6 0.0000 0.0000 0.0000 0.4977 0.0000 37.0480
#
#
#
# Elastic Compliance Matrix: (Units=1/GPa)
#
#
# Indices 1 2 3 4 5 6 
#
# 1 0.013890 -0.004263 -0.005058 0.000000 0.011863 0.000000
# 2 -0.004263 0.010081 0.000152 0.000000 -0.005666 0.000000
# 3 -0.005058 0.000152 0.022148 0.000000 -0.004019 0.000000
# 4 0.000000 0.000000 0.000000 0.041910 0.000000 -0.000563
# 5 0.011863 -0.005666 -0.004019 0.000000 0.049152 0.000000
# 6 0.000000 0.000000 0.000000 -0.000563 0.000000 0.027000
#
#
# Mechanical properties :
#
#
# Convention : Reuss Voigt Hill
#
# Bulk Modulus (GPa) = 35.99668 44.19391 40.09530
# Shear Modulus (GPa) = 26.07200 31.46989 28.77095
#
# Velocity S-wave (km/s) = 3.54983 3.90003 3.72904
# Velocity P-wave (km/s) = 5.84807 6.45294 6.15793
#
# Compressibility (1/GPa) = 0.02778034
#
# Stress axis : x y z
#
# Youngs Moduli (GPa) = 71.99547 99.20098 45.15178
#
# Poissons Ratio (x) = 0.42290 0.22837
# Poissons Ratio (y) = 0.30692 -0.00687
# Poissons Ratio (z) = 0.36414 -0.01509
#
# Static dielectric constant tensor:
#      x y z
#    x 3.700370 0.000000 -0.172680 
#    y 0.000000 3.782730 0.000000 
#    z -0.172680 0.000000 3.342060 
# 
# 
# High freq. dielectric constant tensor:
#      x y z
#    x 1.813470 0.000000 -0.016470 
#    y 0.000000 1.820690 0.000000 
#    z -0.016470 0.000000 1.784230 
# 
# From -- ./inp_files/3095.got.cif
#   From: 2010.03.12/outbox.cif.g09.slc.cpg/sg4_2_cif.got.tgz:3095.got - 2010.03.31 09:31:35.
