data_PCOD8046452
_publ_section_title
;
Structure prediction by ZEFSAII (Michael W. Deem and Ramdas Pophale) SiO2 
 PCOD8046452
Probable space group: P 21
;
_chemical_formula_sum "Si O2"
_cell_formula_units_Z 14
_cell_length_a 6.099796
_cell_length_b 9.409737
_cell_length_c 13.534978
_cell_angle_alpha 90.000000
_cell_angle_beta 51.586743
_cell_angle_gamma 90.000000
_cell_volume 608.719070
_symmetry_space_group_name_H-M "P 21"
_symmetry_group_IT_number 4
_symmetry_cell_setting 'monoclinic'
loop_
_space_group_symop_operation_xyz
x,y,z
-x,1/2+y,-z
loop_
_atom_site_type_symbol
_atom_site_label
_atom_site_fract_x
_atom_site_fract_y
_atom_site_fract_z
Si Si1 0.752753 0.177230 0.230178
Si Si2 0.802958 0.930197 0.089223
Si Si3 0.369195 0.285903 0.041469
Si Si4 0.933437 0.152020 0.904263
Si Si5 0.669405 0.899538 0.737995
Si Si6 0.291068 0.815976 0.559170
Si Si7 0.569258 0.583949 0.357624
O O1 0.550472 0.280190 0.228448
O O2 0.711082 0.192167 0.358076
O O3 0.071746 0.209560 0.112739
O O4 0.668165 0.019068 0.217494
O O5 0.986663 0.808714 0.084912
O O6 0.570099 0.870239 0.078082
O O7 0.002443 0.035211 0.968695
O O8 0.345126 0.402206 0.137942
O O9 0.599108 0.162365 0.984716
O O10 0.100714 0.107060 0.758334
O O11 0.979171 0.857198 0.613809
O O12 0.587197 0.043968 0.702128
O O13 0.447632 0.736502 0.425584
O O14 0.452740 0.956306 0.555629
#
# Coordination Sequence:
#
# PCOD8046452 Si02
#       7
#     2   2   2   2   2   2   2
#     4  10  22  44  65  99 138 180 228 285 341 415
#     4  12  24  42  66 105 144 178 233 287 341 432
#     4  11  22  41  70 103 141 182 221 286 361 416
#     4  12  26  42  70 105 143 185 227 290 355 419
#     4  10  21  47  72  99 139 183 230 287 355 404
#     4  10  25  47  78  95 142 186 235 290 353 402
#     4  11  26  49  71 106 137 184 240 293 340 426
#
# _framework density 22.999113000000001
#
# number of rings (size 3 to 8) (size 9 to 14) (size 15 to 20)
#    0.000    1.143    2.857    3.429    4.000    4.571 
#    2.571    0.000    0.000    0.000    0.000    0.000 
#    0.000    0.000    0.000    0.000    0.000    0.000 
#
# Total GULP energy -173496.497908 kJ/mol
# GULP energy per Si atom -12392.606993 kJ/mol
# Density = 2.294677 g / cm^3
# Si number density = 22.999113 Si / 1000 Ang^3
#
#
#
# Elastic Constant Matrix: (Units=GPa)
#
#
# Indices 1 2 3 4 5 6 
#
# 1 87.8834 13.8850 16.4210 0.0000 -3.1042 0.0000
# 2 13.8850 105.5975 23.9809 0.0000 3.9596 0.0000
# 3 16.4210 23.9809 62.4509 0.0000 -11.1535 0.0000
# 4 0.0000 0.0000 0.0000 51.8476 0.0000 13.2258
# 5 -3.1042 3.9596 -11.1535 0.0000 26.3256 0.0000
# 6 0.0000 0.0000 0.0000 13.2258 0.0000 27.6777
#
#
#
# Elastic Compliance Matrix: (Units=1/GPa)
#
#
# Indices 1 2 3 4 5 6 
#
# 1 0.012057 -0.000984 -0.002718 0.000000 0.000418 0.000000
# 2 -0.000984 0.010764 -0.004527 0.000000 -0.003653 0.000000
# 3 -0.002718 -0.004527 0.020047 0.000000 0.008854 0.000000
# 4 0.000000 0.000000 0.000000 0.021965 0.000000 -0.010496
# 5 0.000418 -0.003653 0.008854 0.000000 0.042336 0.000000
# 6 0.000000 0.000000 0.000000 -0.010496 0.000000 0.041146
#
#
# Mechanical properties :
#
#
# Convention : Reuss Voigt Hill
#
# Bulk Modulus (GPa) = 37.86390 40.50065 39.18227
# Shear Modulus (GPa) = 28.80599 34.61318 31.70958
#
# Velocity S-wave (km/s) = 3.54288 3.88361 3.71715
# Velocity P-wave (km/s) = 5.76498 6.14474 5.95789
#
# Compressibility (1/GPa) = 0.02641038
#
# Stress axis : x y z
#
# Youngs Moduli (GPa) = 82.94124 92.89893 49.88311
#
# Poissons Ratio (x) = 0.09140 0.13557
# Poissons Ratio (y) = 0.08160 0.22583
# Poissons Ratio (z) = 0.22541 0.42057
#
# Static dielectric constant tensor:
#      x y z
#    x 4.314620 0.000000 0.245650 
#    y 0.000000 4.196360 0.000000 
#    z 0.245650 0.000000 4.069850 
# 
# 
# High freq. dielectric constant tensor:
#      x y z
#    x 1.912930 0.000000 0.010230 
#    y 0.000000 1.912740 0.000000 
#    z 0.010230 0.000000 1.886070 
# 
# From -- ./inp_files/2520.got.cif
#   From: 2010.03.12/outbox.cif.g09.slc.cpg/sg4_2_cif.got.tgz:2520.got - 2010.03.31 09:31:35.
