data_PCOD8046237
_publ_section_title
;
Structure prediction by ZEFSAII (Michael W. Deem and Ramdas Pophale) SiO2 
 PCOD8046237
Probable space group: P 21
;
_chemical_formula_sum "Si O2"
_cell_formula_units_Z 14
_cell_length_a 8.590713
_cell_length_b 15.420816
_cell_length_c 5.091967
_cell_angle_alpha 90.000000
_cell_angle_beta 59.289031
_cell_angle_gamma 90.000000
_cell_volume 579.958090
_symmetry_space_group_name_H-M "P 21"
_symmetry_group_IT_number 4
_symmetry_cell_setting 'monoclinic'
loop_
_space_group_symop_operation_xyz
x,y,z
-x,1/2+y,-z
loop_
_atom_site_type_symbol
_atom_site_label
_atom_site_fract_x
_atom_site_fract_y
_atom_site_fract_z
Si Si1 0.290045 0.879840 0.057331
Si Si2 0.719135 0.713620 0.427546
Si Si3 0.200665 0.039563 0.832247
Si Si4 0.137390 0.706287 0.062625
Si Si5 0.946141 0.945120 0.655055
Si Si6 0.111229 0.601243 0.601493
Si Si7 0.364642 0.315558 0.987699
O O1 0.264717 0.790236 0.920271
O O2 0.107792 0.893508 0.378183
O O3 0.461324 0.875061 0.102260
O O4 0.322259 0.959347 0.826063
O O5 0.679886 0.609697 0.431974
O O6 0.661392 0.743645 0.764606
O O7 0.930073 0.731812 0.186045
O O8 0.603278 0.767351 0.314933
O O9 0.029619 0.007169 0.806507
O O10 0.107127 0.090647 0.158981
O O11 0.155547 0.671030 0.340932
O O12 0.206358 0.635962 0.786358
O O13 0.810648 0.875898 0.893715
O O14 0.831504 0.004873 0.546830
#
# Coordination Sequence:
#
# PCOD8046237 Si02
#       7
#     2   2   2   2   2   2   2
#     4  11  27  44  71 106 142 184 233 287 348 417
#     4  11  23  46  70 102 138 183 229 288 340 416
#     4  10  23  44  74 101 138 186 234 284 351 407
#     4  11  21  42  72  98 136 180 230 281 343 414
#     4  11  23  46  75  99 140 188 226 295 339 411
#     4  10  21  39  70 105 127 178 236 274 344 409
#     4  12  28  45  70 105 143 179 236 283 349 416
#
# _framework density 24.139676000000001
#
# number of rings (size 3 to 8) (size 9 to 14) (size 15 to 20)
#    0.000    1.143    4.286    2.571    8.000    0.000 
#    5.143    0.000    0.000    0.000    0.000    0.000 
#    0.000    0.000    0.000    0.000    0.000    0.000 
#
# Total GULP energy -173558.811325 kJ/mol
# GULP energy per Si atom -12397.057952 kJ/mol
# Density = 2.408473 g / cm^3
# Si number density = 24.139676 Si / 1000 Ang^3
#
#
#
# Elastic Constant Matrix: (Units=GPa)
#
#
# Indices 1 2 3 4 5 6 
#
# 1 74.3458 25.2234 15.2012 0.0000 4.4245 0.0000
# 2 25.2234 120.7546 27.7340 0.0000 3.8573 0.0000
# 3 15.2012 27.7340 55.9754 0.0000 24.0557 0.0000
# 4 0.0000 0.0000 0.0000 19.8266 0.0000 22.6544
# 5 4.4245 3.8573 24.0557 0.0000 33.3983 0.0000
# 6 0.0000 0.0000 0.0000 22.6544 0.0000 33.7627
#
#
#
# Elastic Compliance Matrix: (Units=1/GPa)
#
#
# Indices 1 2 3 4 5 6 
#
# 1 0.014866 -0.002419 -0.003059 0.000000 0.000513 0.000000
# 2 -0.002419 0.009991 -0.005699 0.000000 0.003272 0.000000
# 3 -0.003059 -0.005699 0.030505 0.000000 -0.020908 0.000000
# 4 0.000000 0.000000 0.000000 0.216180 0.000000 -0.145055
# 5 0.000513 0.003272 -0.020908 0.000000 0.044555 0.000000
# 6 0.000000 0.000000 0.000000 -0.145055 0.000000 0.126949
#
#
# Mechanical properties :
#
#
# Convention : Reuss Voigt Hill
#
# Bulk Modulus (GPa) = 30.29651 43.04365 36.67008
# Shear Modulus (GPa) = 10.49529 29.59200 20.04365
#
# Velocity S-wave (km/s) = 2.08738 3.50503 2.88465
# Velocity P-wave (km/s) = 4.28804 5.85236 5.13018
#
# Compressibility (1/GPa) = 0.03300710
#
# Stress axis : x y z
#
# Youngs Moduli (GPa) = 67.26604 100.09006 32.78148
#
# Poissons Ratio (x) = 0.24212 0.10029
# Poissons Ratio (y) = 0.16272 0.18683
# Poissons Ratio (z) = 0.20579 0.57044
#
# Static dielectric constant tensor:
#      x y z
#    x 4.076910 0.000000 0.270930 
#    y 0.000000 4.640940 0.000000 
#    z 0.270930 0.000000 4.166240 
# 
# 
# High freq. dielectric constant tensor:
#      x y z
#    x 1.928250 0.000000 0.025220 
#    y 0.000000 1.975910 0.000000 
#    z 0.025220 0.000000 1.947780 
# 
# From -- ./inp_files/1783.got.cif
#   From: 2010.03.12/outbox.cif.g09.slc.cpg/sg4_1_cif.got.tgz:1783.got - 2010.03.31 09:31:35.
