data_PCOD8046305
_publ_section_title
;
Structure prediction by ZEFSAII (Michael W. Deem and Ramdas Pophale) SiO2 
 PCOD8046305
Probable space group: P 21
;
_chemical_formula_sum "Si O2"
_cell_formula_units_Z 14
_cell_length_a 25.476245
_cell_length_b 5.050601
_cell_length_c 15.203930
_cell_angle_alpha 90.000000
_cell_angle_beta 161.893425
_cell_angle_gamma 90.000000
_cell_volume 607.988119
_symmetry_space_group_name_H-M "P 21"
_symmetry_group_IT_number 4
_symmetry_cell_setting 'monoclinic'
loop_
_space_group_symop_operation_xyz
x,y,z
-x,1/2+y,-z
loop_
_atom_site_type_symbol
_atom_site_label
_atom_site_fract_x
_atom_site_fract_y
_atom_site_fract_z
Si Si1 0.024984 0.613430 0.895150
Si Si2 0.477270 0.886596 0.348450
Si Si3 0.196113 0.407695 0.321486
Si Si4 0.747966 0.232626 0.436616
Si Si5 0.423319 0.812211 0.068323
Si Si6 0.680585 0.384007 0.721480
Si Si7 0.376929 0.327154 0.885105
O O1 0.946338 0.742293 0.856747
O O2 0.887417 0.440081 0.620784
O O3 0.164501 0.427859 0.166342
O O4 0.122793 0.822023 0.988446
O O5 0.377469 0.861984 0.097148
O O6 0.625652 0.671338 0.599655
O O7 0.336854 0.858234 0.201017
O O8 0.558545 0.176143 0.479229
O O9 0.209689 0.692818 0.392887
O O10 0.377059 0.273568 0.622131
O O11 0.755618 0.938056 0.400915
O O12 0.560612 0.357744 0.129409
O O13 0.347919 0.533875 0.918068
O O14 0.348754 0.037509 0.882654
#
# Coordination Sequence:
#
# PCOD8046305 Si02
#       7
#     2   2   2   2   2   2   2
#     4  12  23  36  59  96 133 174 202 262 329 393
#     4  10  21  41  60  93 126 171 207 267 312 387
#     4  11  23  34  57  90 134 167 198 256 324 391
#     4  11  24  40  56  88 135 173 216 258 311 386
#     4  11  22  39  63  88 126 165 221 263 306 372
#     4  10  23  37  63  91 134 164 209 254 331 389
#     4  11  24  39  60  88 122 178 219 256 303 372
#
# _framework density 23.026764
#
# number of rings (size 3 to 8) (size 9 to 14) (size 15 to 20)
#    0.000    1.143    4.286    2.571    8.000    0.000 
#    0.000    0.000    0.000    0.000    3.714    0.000 
#    0.000    0.000    0.000    0.000    0.000    0.000 
#
# Total GULP energy -173510.586761 kJ/mol
# GULP energy per Si atom -12393.613340 kJ/mol
# Density = 2.297435 g / cm^3
# Si number density = 23.026764 Si / 1000 Ang^3
#
#
#
# Elastic Constant Matrix: (Units=GPa)
#
#
# Indices 1 2 3 4 5 6 
#
# 1 116.9659 13.8809 18.7545 0.0000 -6.6768 0.0000
# 2 13.8809 81.8778 7.7316 0.0000 2.7973 0.0000
# 3 18.7545 7.7316 48.1711 0.0000 -1.6299 0.0000
# 4 0.0000 0.0000 0.0000 16.4151 0.0000 -1.3618
# 5 -6.6768 2.7973 -1.6299 0.0000 25.6978 0.0000
# 6 0.0000 0.0000 0.0000 -1.3618 0.0000 34.4756
#
#
#
# Elastic Compliance Matrix: (Units=1/GPa)
#
#
# Indices 1 2 3 4 5 6 
#
# 1 0.009384 -0.001355 -0.003356 0.000000 0.002373 0.000000
# 2 -0.001355 0.012653 -0.001565 0.000000 -0.001829 0.000000
# 3 -0.003356 -0.001565 0.022341 0.000000 0.000716 0.000000
# 4 0.000000 0.000000 0.000000 0.061120 0.000000 0.002414
# 5 0.002373 -0.001829 0.000716 0.000000 0.039775 0.000000
# 6 0.000000 0.000000 0.000000 0.002414 0.000000 0.029101
#
#
# Mechanical properties :
#
#
# Convention : Reuss Voigt Hill
#
# Bulk Modulus (GPa) = 31.42032 36.41655 33.91843
# Shear Modulus (GPa) = 25.31198 29.09422 27.20310
#
# Velocity S-wave (km/s) = 3.31908 3.55842 3.44083
# Velocity P-wave (km/s) = 5.32570 5.72122 5.52700
#
# Compressibility (1/GPa) = 0.03182654
#
# Stress axis : x y z
#
# Youngs Moduli (GPa) = 106.56662 79.03064 44.76035
#
# Poissons Ratio (x) = 0.10709 0.15020
# Poissons Ratio (y) = 0.14440 0.07006
# Poissons Ratio (z) = 0.35760 0.12370
#
# Static dielectric constant tensor:
#      x y z
#    x 4.216150 0.000000 -0.163670 
#    y 0.000000 4.228560 0.000000 
#    z -0.163670 0.000000 4.029870 
# 
# 
# High freq. dielectric constant tensor:
#      x y z
#    x 1.896600 0.000000 -0.024020 
#    y 0.000000 1.926350 0.000000 
#    z -0.024020 0.000000 1.881440 
# 
# From -- ./inp_files/14522.got.cif
#   From: 2010.03.12/outbox.cif.g09.slc.cpg/sg4_8_cif.got.tgz:14522.got - 2010.03.31 09:31:35.
