data_PCOD8046647
_publ_section_title
;
Structure prediction by ZEFSAII (Michael W. Deem and Ramdas Pophale) SiO2 
 PCOD8046647
Probable space group: P 21
;
_chemical_formula_sum "Si O2"
_cell_formula_units_Z 16
_cell_length_a 7.544894
_cell_length_b 17.285861
_cell_length_c 6.729328
_cell_angle_alpha 90.000000
_cell_angle_beta 55.878458
_cell_angle_gamma 90.000000
_cell_volume 726.552900
_symmetry_space_group_name_H-M "P 21"
_symmetry_group_IT_number 4
_symmetry_cell_setting 'monoclinic'
loop_
_space_group_symop_operation_xyz
x,y,z
-x,1/2+y,-z
loop_
_atom_site_type_symbol
_atom_site_label
_atom_site_fract_x
_atom_site_fract_y
_atom_site_fract_z
Si Si1 0.380904 0.047420 0.239051
Si Si2 0.790016 0.278724 0.272012
Si Si3 0.500852 0.196981 0.715563
Si Si4 0.094830 0.909769 0.539601
Si Si5 0.316684 0.807769 0.077683
Si Si6 0.902555 0.646128 0.847804
Si Si7 0.693194 0.057711 0.399906
Si Si8 0.615317 0.943707 0.773955
O O1 0.246777 0.121523 0.245356
O O2 0.556362 0.074037 0.288922
O O3 0.220093 0.989716 0.449859
O O4 0.496640 0.007648 0.980647
O O5 0.551913 0.254439 0.498809
O O6 0.836803 0.367129 0.300554
O O7 0.812620 0.267790 0.021463
O O8 0.954517 0.222001 0.286334
O O9 0.639482 0.119154 0.606592
O O10 0.559307 0.241013 0.882901
O O11 0.252690 0.170999 0.872701
O O12 0.846362 0.927037 0.718969
O O13 0.150768 0.854425 0.318591
O O14 0.483876 0.864482 0.862115
O O15 0.054832 0.572633 0.810782
O O16 0.648235 0.973552 0.525136
#
# Coordination Sequence:
#
# PCOD8046647 Si02
#       8
#     2   2   2   2   2   2   2   2
#     4  11  24  42  65  95 136 169 216 277 321 392
#     4  10  23  42  65  98 127 175 223 263 336 389
#     4  10  23  42  60  95 134 162 221 270 313 396
#     4  10  22  43  65  98 134 166 221 273 323 392
#     4  10  23  42  69  93 133 171 218 279 321 388
#     4  11  23  42  63  95 133 167 222 267 320 396
#     4  11  24  41  64  98 130 177 219 265 342 386
#     4  11  22  42  67  96 133 169 222 276 324 393
#
# _framework density 22.021794
#
# number of rings (size 3 to 8) (size 9 to 14) (size 15 to 20)
#    0.000    1.500    2.500    1.500    3.500    3.000 
#    6.750    0.000    0.000    0.000    0.000    0.000 
#    0.000    0.000    0.000    0.000    0.000    0.000 
#
# Total GULP energy -198338.316608 kJ/mol
# GULP energy per Si atom -12396.144788 kJ/mol
# Density = 2.197167 g / cm^3
# Si number density = 22.021794 Si / 1000 Ang^3
#
#
#
# Elastic Constant Matrix: (Units=GPa)
#
#
# Indices 1 2 3 4 5 6 
#
# 1 104.8840 29.6866 42.0765 0.0000 0.1052 0.0000
# 2 29.6866 74.0701 18.8784 0.0000 3.0707 0.0000
# 3 42.0765 18.8784 69.4754 0.0000 2.8266 0.0000
# 4 0.0000 0.0000 0.0000 27.2160 0.0000 -5.9895
# 5 0.1052 3.0707 2.8266 0.0000 42.0698 0.0000
# 6 0.0000 0.0000 0.0000 -5.9895 0.0000 32.2077
#
#
#
# Elastic Compliance Matrix: (Units=1/GPa)
#
#
# Indices 1 2 3 4 5 6 
#
# 1 0.013432 -0.003580 -0.007191 0.000000 0.000711 0.000000
# 2 -0.003580 0.015486 -0.002000 0.000000 -0.000987 0.000000
# 3 -0.007191 -0.002000 0.019338 0.000000 -0.001135 0.000000
# 4 0.000000 0.000000 0.000000 0.038311 0.000000 0.007124
# 5 0.000711 -0.000987 -0.001135 0.000000 0.023917 0.000000
# 6 0.000000 0.000000 0.000000 0.007124 0.000000 0.032373
#
#
# Mechanical properties :
#
#
# Convention : Reuss Voigt Hill
#
# Bulk Modulus (GPa) = 44.02385 47.74582 45.88483
# Shear Modulus (GPa) = 28.41403 30.81791 29.61597
#
# Velocity S-wave (km/s) = 3.59593 3.74495 3.67120
# Velocity P-wave (km/s) = 6.10536 6.35828 6.23310
#
# Compressibility (1/GPa) = 0.02271496
#
# Stress axis : x y z
#
# Youngs Moduli (GPa) = 74.45095 64.57387 51.71138
#
# Poissons Ratio (x) = 0.23118 0.37184
# Poissons Ratio (y) = 0.26654 0.10341
# Poissons Ratio (z) = 0.53536 0.12913
#
# Static dielectric constant tensor:
#      x y z
#    x 3.842760 0.000000 -0.262470 
#    y 0.000000 4.059440 0.000000 
#    z -0.262470 0.000000 4.032740 
# 
# 
# High freq. dielectric constant tensor:
#      x y z
#    x 1.853850 0.000000 -0.016120 
#    y 0.000000 1.873170 0.000000 
#    z -0.016120 0.000000 1.864820 
# 
# From -- ./inp_files/616.got.cif
#   From: 2010.03.12/outbox.cif.g09.slc.cpg/sg4_1_cif.got.tgz:616.got - 2010.03.31 09:31:35.
