data_PCOD8046633
_publ_section_title
;
Structure prediction by ZEFSAII (Michael W. Deem and Ramdas Pophale) SiO2 
 PCOD8046633
Probable space group: P 21
;
_chemical_formula_sum "Si O2"
_cell_formula_units_Z 14
_cell_length_a 6.933824
_cell_length_b 5.437483
_cell_length_c 16.870480
_cell_angle_alpha 90.000000
_cell_angle_beta 77.063298
_cell_angle_gamma 90.000000
_cell_volume 619.915631
_symmetry_space_group_name_H-M "P 21"
_symmetry_group_IT_number 4
_symmetry_cell_setting 'monoclinic'
loop_
_space_group_symop_operation_xyz
x,y,z
-x,1/2+y,-z
loop_
_atom_site_type_symbol
_atom_site_label
_atom_site_fract_x
_atom_site_fract_y
_atom_site_fract_z
Si Si1 0.832727 0.502810 0.636153
Si Si2 0.856513 0.349000 0.334697
Si Si3 0.797953 0.113593 0.757315
Si Si4 0.171329 0.726800 0.909329
Si Si5 0.376135 0.045400 0.509920
Si Si6 0.065176 0.730823 0.092056
Si Si7 0.519142 0.255146 0.245794
O O1 0.880752 0.241500 0.669651
O O2 0.755008 0.494408 0.554876
O O3 0.664404 0.583724 0.715291
O O4 0.036990 0.654021 0.616968
O O5 0.764509 0.559732 0.400043
O O6 0.676530 0.233890 0.301737
O O7 0.021698 0.417628 0.253964
O O8 0.795369 0.244142 0.842978
O O9 0.576818 0.024434 0.757559
O O10 0.382595 0.689227 0.847407
O O11 0.046797 0.489454 0.895130
O O12 0.202973 0.719897 0.001308
O O13 0.075696 0.989421 0.893467
O O14 0.518402 0.808436 0.508193
#
# Coordination Sequence:
#
# PCOD8046633 Si02
#       7
#     2   2   2   2   2   2   2
#     4  11  27  43  70 103 135 181 234 278 343 412
#     4  11  25  45  72  95 141 181 225 283 343 402
#     4  11  25  42  71 101 136 181 234 279 341 414
#     4  10  22  42  72  97 141 182 227 281 345 403
#     4  12  28  47  72 104 141 180 230 286 342 408
#     4  10  22  43  68 104 135 184 229 279 342 411
#     4  11  23  46  67 102 135 183 225 284 340 406
#
# _framework density 22.583718999999999
#
# number of rings (size 3 to 8) (size 9 to 14) (size 15 to 20)
#    0.000    1.143    2.857    1.714   10.000    2.286 
#    2.571    0.000    0.000    0.000    0.000    0.000 
#    0.000    0.000    0.000    0.000    0.000    0.000 
#
# Total GULP energy -173434.573581 kJ/mol
# GULP energy per Si atom -12388.183827 kJ/mol
# Density = 2.253232 g / cm^3
# Si number density = 22.583719 Si / 1000 Ang^3
#
#
#
# Elastic Constant Matrix: (Units=GPa)
#
#
# Indices 1 2 3 4 5 6 
#
# 1 103.1026 14.8011 40.0847 0.0000 1.7011 0.0000
# 2 14.8011 81.0334 9.5318 0.0000 1.3278 0.0000
# 3 40.0847 9.5318 115.7549 0.0000 -4.3039 0.0000
# 4 0.0000 0.0000 0.0000 30.4289 0.0000 2.4478
# 5 1.7011 1.3278 -4.3039 0.0000 48.5610 0.0000
# 6 0.0000 0.0000 0.0000 2.4478 0.0000 21.2807
#
#
#
# Elastic Compliance Matrix: (Units=1/GPa)
#
#
# Indices 1 2 3 4 5 6 
#
# 1 0.011442 -0.001625 -0.003855 0.000000 -0.000698 0.000000
# 2 -0.001625 0.012701 -0.000496 0.000000 -0.000334 0.000000
# 3 -0.003855 -0.000496 0.010053 0.000000 0.001040 0.000000
# 4 0.000000 0.000000 0.000000 0.033170 0.000000 -0.003815
# 5 -0.000698 -0.000334 0.001040 0.000000 0.020718 0.000000
# 6 0.000000 0.000000 0.000000 -0.003815 0.000000 0.047430
#
#
# Mechanical properties :
#
#
# Convention : Reuss Voigt Hill
#
# Bulk Modulus (GPa) = 44.95113 47.63625 46.29369
# Shear Modulus (GPa) = 32.28277 35.75235 34.01756
#
# Velocity S-wave (km/s) = 3.78494 3.98314 3.88530
# Velocity P-wave (km/s) = 6.24887 6.50329 6.37735
#
# Compressibility (1/GPa) = 0.02224638
#
# Stress axis : x y z
#
# Youngs Moduli (GPa) = 87.39358 78.73271 99.47094
#
# Poissons Ratio (x) = 0.12795 0.38342
# Poissons Ratio (y) = 0.14203 0.04929
# Poissons Ratio (z) = 0.33686 0.03901
#
# Static dielectric constant tensor:
#      x y z
#    x 3.939630 0.000000 -0.082180 
#    y 0.000000 4.141470 0.000000 
#    z -0.082180 0.000000 4.260330 
# 
# 
# High freq. dielectric constant tensor:
#      x y z
#    x 1.884640 0.000000 -0.000760 
#    y 0.000000 1.888480 0.000000 
#    z -0.000760 0.000000 1.910740 
# 
# From -- ./inp_files/3843.got.cif
#   From: 2010.03.12/outbox.cif.g09.slc.cpg/sg4_2_cif.got.tgz:3843.got - 2010.03.31 09:31:35.
