data_PCOD8046700
_publ_section_title
;
Structure prediction by ZEFSAII (Michael W. Deem and Ramdas Pophale) SiO2 
 PCOD8046700
Probable space group: P 21
;
_chemical_formula_sum "Si O2"
_cell_formula_units_Z 16
_cell_length_a 12.980654
_cell_length_b 9.381360
_cell_length_c 10.892003
_cell_angle_alpha 90.000000
_cell_angle_beta 146.455990
_cell_angle_gamma 90.000000
_cell_volume 732.931192
_symmetry_space_group_name_H-M "P 21"
_symmetry_group_IT_number 4
_symmetry_cell_setting 'monoclinic'
loop_
_space_group_symop_operation_xyz
x,y,z
-x,1/2+y,-z
loop_
_atom_site_type_symbol
_atom_site_label
_atom_site_fract_x
_atom_site_fract_y
_atom_site_fract_z
Si Si1 0.517222 0.110350 0.744121
Si Si2 0.771772 0.884559 0.890517
Si Si3 0.637429 0.888350 0.485186
Si Si4 0.476259 0.684475 0.715202
Si Si5 0.490566 0.540581 0.981397
Si Si6 0.169777 0.916471 0.384692
Si Si7 0.824603 0.865416 0.424483
Si Si8 0.104412 0.043359 0.569062
O O1 0.522207 0.272439 0.703435
O O2 0.690947 0.036081 0.852106
O O3 0.315492 0.045280 0.502329
O O4 0.544437 0.105558 0.918293
O O5 0.724330 0.857020 0.702698
O O6 0.670436 0.763556 0.873624
O O7 0.996948 0.890539 0.120808
O O8 0.801538 0.870833 0.547943
O O9 0.536081 0.040792 0.377007
O O10 0.461025 0.657296 0.845593
O O11 0.294091 0.775682 0.503353
O O12 0.370716 0.397661 0.838485
O O13 0.702155 0.490104 0.183270
O O14 0.065791 0.951743 0.408701
O O15 0.903784 0.713226 0.461493
O O16 0.952295 0.000054 0.517466
#
# Coordination Sequence:
#
# PCOD8046700 Si02
#       8
#     2   2   2   2   2   2   2   2
#     4  10  22  44  70  97 131 176 220 278 337 395
#     4  11  24  44  70  90 136 187 221 269 340 386
#     4  11  23  46  65  98 135 175 233 275 314 411
#     4  10  25  41  68 100 130 176 223 279 332 398
#     4  10  23  42  70  97 135 166 215 275 346 385
#     4  10  23  43  65  95 132 175 218 275 339 391
#     4  11  25  43  67 101 134 171 218 277 334 403
#     4  11  25  41  69  98 135 170 218 274 344 401
#
# _framework density 21.830155000000001
#
# number of rings (size 3 to 8) (size 9 to 14) (size 15 to 20)
#    0.000    1.500    2.500    1.500   10.500    1.000 
#    4.500    6.250    0.000    0.000    0.000    0.000 
#    0.000    0.000    0.000    0.000    0.000    0.000 
#
# Total GULP energy -198341.449514 kJ/mol
# GULP energy per Si atom -12396.340595 kJ/mol
# Density = 2.178047 g / cm^3
# Si number density = 21.830155 Si / 1000 Ang^3
#
#
#
# Elastic Constant Matrix: (Units=GPa)
#
#
# Indices 1 2 3 4 5 6 
#
# 1 73.5610 41.6598 49.7507 0.0000 -2.5403 0.0000
# 2 41.6598 132.5361 24.1529 0.0000 -5.0859 0.0000
# 3 49.7507 24.1529 95.3734 0.0000 -18.0542 0.0000
# 4 0.0000 0.0000 0.0000 26.8085 0.0000 1.4861
# 5 -2.5403 -5.0859 -18.0542 0.0000 33.7246 0.0000
# 6 0.0000 0.0000 0.0000 1.4861 0.0000 24.9701
#
#
#
# Elastic Compliance Matrix: (Units=1/GPa)
#
#
# Indices 1 2 3 4 5 6 
#
# 1 0.025436 -0.005871 -0.012893 0.000000 -0.005872 0.000000
# 2 -0.005871 0.009266 0.000998 0.000000 0.001489 0.000000
# 3 -0.012893 0.000998 0.018698 0.000000 0.009189 0.000000
# 4 0.000000 0.000000 0.000000 0.037425 0.000000 -0.002227
# 5 -0.005872 0.001489 0.009189 0.000000 0.034353 0.000000
# 6 0.000000 0.000000 0.000000 -0.002227 0.000000 0.040180
#
#
# Mechanical properties :
#
#
# Convention : Reuss Voigt Hill
#
# Bulk Modulus (GPa) = 55.96945 59.17746 57.57346
# Shear Modulus (GPa) = 24.17244 29.49445 26.83345
#
# Velocity S-wave (km/s) = 3.33122 3.67970 3.50979
# Velocity P-wave (km/s) = 6.36320 6.72463 6.54641
#
# Compressibility (1/GPa) = 0.01786689
#
# Stress axis : x y z
#
# Youngs Moduli (GPa) = 39.31382 107.92347 53.48304
#
# Poissons Ratio (x) = 0.63362 0.68958
# Poissons Ratio (y) = 0.23081 -0.05338
# Poissons Ratio (z) = 0.50689 -0.10771
#
# Static dielectric constant tensor:
#      x y z
#    x 3.963380 0.000000 -0.034790 
#    y 0.000000 4.028920 0.000000 
#    z -0.034790 0.000000 3.893290 
# 
# 
# High freq. dielectric constant tensor:
#      x y z
#    x 1.853090 0.000000 -0.002470 
#    y 0.000000 1.867960 0.000000 
#    z -0.002470 0.000000 1.850140 
# 
# From -- ./inp_files/12678.got.cif
#   From: 2010.03.12/outbox.cif.g09.slc.cpg/sg4_7_cif.got.tgz:12678.got - 2010.03.31 09:31:35.
