data_PCOD8046056
_publ_section_title
;
Structure prediction by ZEFSAII (Michael W. Deem and Ramdas Pophale) SiO2 
 PCOD8046056
Probable space group: P 21
;
_chemical_formula_sum "Si O2"
_cell_formula_units_Z 16
_cell_length_a 23.193587
_cell_length_b 5.949476
_cell_length_c 28.368920
_cell_angle_alpha 90.000000
_cell_angle_beta 169.087370
_cell_angle_gamma 90.000000
_cell_volume 741.083844
_symmetry_space_group_name_H-M "P 21"
_symmetry_group_IT_number 4
_symmetry_cell_setting 'monoclinic'
loop_
_space_group_symop_operation_xyz
x,y,z
-x,1/2+y,-z
loop_
_atom_site_type_symbol
_atom_site_label
_atom_site_fract_x
_atom_site_fract_y
_atom_site_fract_z
Si Si1 0.647934 0.180650 0.230895
Si Si2 0.634999 0.107528 0.621524
Si Si3 0.942622 0.753885 0.198139
Si Si4 0.292288 0.383994 0.527090
Si Si5 0.711963 0.302999 0.105379
Si Si6 0.122638 0.962860 0.946004
Si Si7 0.675002 0.644546 0.538237
Si Si8 0.805142 0.497986 0.278019
O O1 0.807671 0.275064 0.312165
O O2 0.914588 0.158451 0.483415
O O3 0.377166 0.339622 0.035247
O O4 0.501547 0.938867 0.102257
O O5 0.520499 0.366445 0.518918
O O6 0.622661 0.087202 0.668867
O O7 0.967214 0.103283 0.864114
O O8 0.130096 0.623674 0.389189
O O9 0.842755 0.602198 0.073826
O O10 0.175086 0.935492 0.366485
O O11 0.546215 0.388470 0.770977
O O12 0.434237 0.310268 0.590884
O O13 0.017140 0.217080 0.323121
O O14 0.835110 0.457162 0.246846
O O15 0.526691 0.100859 0.978918
O O16 0.925654 0.743474 0.775447
#
# Coordination Sequence:
#
# PCOD8046056 Si02
#       8
#     2   2   2   2   2   2   2   2
#     4  11  23  38  62  88 117 160 204 257 312 382
#     4  10  20  40  71  96 136 177 216 270 326 386
#     4  10  21  41  62  86 124 160 204 259 315 378
#     4  10  23  41  60  91 125 161 208 262 314 385
#     4  11  23  40  60  88 125 156 203 267 315 370
#     4  10  21  41  63  94 125 164 209 253 321 379
#     4  10  21  41  62  92 126 163 208 259 316 372
#     4  12  22  40  60  87 118 159 208 251 321 374
#
# _framework density 21.59
#
# number of rings (size 3 to 8) (size 9 to 14) (size 15 to 20)
#    0.000    1.500    3.750    1.500    0.000    1.000 
#    6.750    0.000    0.000    0.000    0.000    0.000 
#    0.000    0.000    0.000    0.000    0.000    0.000 
#
# Total GULP energy -198212.584442 kJ/mol
# GULP energy per Si atom -12388.286528 kJ/mol
# Density = 2.154086 g / cm^3
# Si number density = 21.590000 Si / 1000 Ang^3
#
#
#
# Elastic Constant Matrix: (Units=GPa)
#
#
# Indices 1 2 3 4 5 6 
#
# 1 88.9920 -8.8126 14.5986 0.0000 2.5674 0.0000
# 2 -8.8126 44.1201 -6.1374 0.0000 -7.3225 0.0000
# 3 14.5986 -6.1374 62.5615 0.0000 -17.5733 0.0000
# 4 0.0000 0.0000 0.0000 20.9754 0.0000 8.9505
# 5 2.5674 -7.3225 -17.5733 0.0000 41.2174 0.0000
# 6 0.0000 0.0000 0.0000 8.9505 0.0000 34.5844
#
#
#
# Elastic Compliance Matrix: (Units=1/GPa)
#
#
# Indices 1 2 3 4 5 6 
#
# 1 0.011966 0.001658 -0.003131 0.000000 -0.001786 0.000000
# 2 0.001658 0.024465 0.003641 0.000000 0.005795 0.000000
# 3 -0.003131 0.003641 0.019664 0.000000 0.009226 0.000000
# 4 0.000000 0.000000 0.000000 0.053593 0.000000 -0.013870
# 5 -0.001786 0.005795 0.009226 0.000000 0.029336 0.000000
# 6 0.000000 0.000000 0.000000 -0.013870 0.000000 0.032504
#
#
# Mechanical properties :
#
#
# Convention : Reuss Voigt Hill
#
# Bulk Modulus (GPa) = 16.54784 21.66341 19.10563
# Shear Modulus (GPa) = 26.69002 32.42379 29.55691
#
# Velocity S-wave (km/s) = 3.51981 3.87951 3.70403
# Velocity P-wave (km/s) = 4.91935 5.48846 5.21168
#
# Compressibility (1/GPa) = 0.06043085
#
# Stress axis : x y z
#
# Youngs Moduli (GPa) = 83.56763 40.87477 50.85549
#
# Poissons Ratio (x) = -0.06778 0.15924
# Poissons Ratio (y) = -0.13857 -0.18517
# Poissons Ratio (z) = 0.26167 -0.14883
#
# Static dielectric constant tensor:
#      x y z
#    x 4.414040 0.000000 0.395520 
#    y 0.000000 3.887580 0.000000 
#    z 0.395520 0.000000 3.838800 
# 
# 
# High freq. dielectric constant tensor:
#      x y z
#    x 1.871020 0.000000 0.020440 
#    y 0.000000 1.832230 0.000000 
#    z 0.020440 0.000000 1.831160 
# 
# From -- ./inp_files/3985.got.cif
#   From: 2010.03.12/outbox.cif.g09.slc.cpg/sg4_2_cif.got.tgz:3985.got - 2010.03.31 09:31:35.
