data_PCOD8046315
_publ_section_title
;
Structure prediction by ZEFSAII (Michael W. Deem and Ramdas Pophale) SiO2 
 PCOD8046315
Probable space group: P 21
;
_chemical_formula_sum "Si O2"
_cell_formula_units_Z 14
_cell_length_a 8.215809
_cell_length_b 9.624505
_cell_length_c 8.671372
_cell_angle_alpha 90.000000
_cell_angle_beta 110.654632
_cell_angle_gamma 90.000000
_cell_volume 641.599696
_symmetry_space_group_name_H-M "P 21"
_symmetry_group_IT_number 4
_symmetry_cell_setting 'monoclinic'
loop_
_space_group_symop_operation_xyz
x,y,z
-x,1/2+y,-z
loop_
_atom_site_type_symbol
_atom_site_label
_atom_site_fract_x
_atom_site_fract_y
_atom_site_fract_z
Si Si1 0.614909 0.488520 0.378401
Si Si2 0.236642 0.171298 0.105960
Si Si3 0.633825 0.416094 0.038973
Si Si4 0.104956 0.677578 0.810376
Si Si5 0.140798 0.224400 0.527346
Si Si6 0.256531 0.378773 0.854077
Si Si7 0.461848 0.232144 0.458439
O O1 0.563389 0.452316 0.186831
O O2 0.806545 0.559075 0.445291
O O3 0.610188 0.349063 0.483102
O O4 0.480717 0.603724 0.409829
O O5 0.404805 0.174037 0.272369
O O6 0.061664 0.143764 0.141773
O O7 0.215013 0.316023 0.007972
O O8 0.269937 0.049220 0.996246
O O9 0.772204 0.293097 0.076176
O O10 0.463679 0.365567 0.887071
O O11 0.215839 0.539847 0.831919
O O12 0.045284 0.731495 0.620131
O O13 0.137215 0.294712 0.692939
O O14 0.288363 0.303540 0.474519
#
# Coordination Sequence:
#
# PCOD8046315 Si02
#       7
#     2   2   2   2   2   2   2
#     4  10  21  41  64  97 134 177 222 271 335 398
#     4  11  22  45  63  99 141 170 224 284 334 399
#     4  12  25  43  71 100 136 175 229 282 334 403
#     4  11  27  43  67  97 132 185 221 275 350 401
#     4   9  24  41  65  93 138 172 222 274 332 402
#     4  12  24  43  71 101 132 178 229 279 336 400
#     4   9  21  38  65  95 137 173 219 275 333 397
#
# _framework density 21.820457999999999
#
# number of rings (size 3 to 8) (size 9 to 14) (size 15 to 20)
#    0.857    0.571    2.857    1.714    4.000    0.000 
#    0.000    0.000    0.000    0.000    0.000    0.000 
#    0.000    0.000    0.000    0.000    0.000    0.000 
#
# Total GULP energy -173502.783468 kJ/mol
# GULP energy per Si atom -12393.055962 kJ/mol
# Density = 2.177079 g / cm^3
# Si number density = 21.820458 Si / 1000 Ang^3
#
#
#
# Elastic Constant Matrix: (Units=GPa)
#
#
# Indices 1 2 3 4 5 6 
#
# 1 49.3606 28.4898 23.8823 0.0000 5.3233 0.0000
# 2 28.4898 106.1645 23.5547 0.0000 -6.0940 0.0000
# 3 23.8823 23.5547 78.6526 0.0000 -5.7710 0.0000
# 4 0.0000 0.0000 0.0000 32.9603 0.0000 -1.6748
# 5 5.3233 -6.0940 -5.7710 0.0000 36.6653 0.0000
# 6 0.0000 0.0000 0.0000 -1.6748 0.0000 33.5820
#
#
#
# Elastic Compliance Matrix: (Units=1/GPa)
#
#
# Indices 1 2 3 4 5 6 
#
# 1 0.027985 -0.006299 -0.007068 0.000000 -0.006223 0.000000
# 2 -0.006299 0.011561 -0.001357 0.000000 0.002623 0.000000
# 3 -0.007068 -0.001357 0.015504 0.000000 0.003241 0.000000
# 4 0.000000 0.000000 0.000000 0.030417 0.000000 0.001517
# 5 -0.006223 0.002623 0.003241 0.000000 0.029123 0.000000
# 6 0.000000 0.000000 0.000000 0.001517 0.000000 0.029854
#
#
# Mechanical properties :
#
#
# Convention : Reuss Voigt Hill
#
# Bulk Modulus (GPa) = 39.05774 42.89237 40.97505
# Shear Modulus (GPa) = 27.40821 31.19159 29.29990
#
# Velocity S-wave (km/s) = 3.54796 3.78493 3.66836
# Velocity P-wave (km/s) = 5.89258 6.22901 6.06313
#
# Compressibility (1/GPa) = 0.02560312
#
# Stress axis : x y z
#
# Youngs Moduli (GPa) = 35.73288 86.49459 64.49756
#
# Poissons Ratio (x) = 0.54484 0.45585
# Poissons Ratio (y) = 0.22509 0.08754
# Poissons Ratio (z) = 0.25255 0.11740
#
# Static dielectric constant tensor:
#      x y z
#    x 3.618810 0.000000 -0.134950 
#    y 0.000000 3.832220 0.000000 
#    z -0.134950 0.000000 4.001840 
# 
# 
# High freq. dielectric constant tensor:
#      x y z
#    x 1.833660 0.000000 -0.012980 
#    y 0.000000 1.859450 0.000000 
#    z -0.012980 0.000000 1.858520 
# 
# From -- ./inp_files/5846.got.cif
#   From: 2010.03.12/outbox.cif.g09.slc.cpg/sg4_3_cif.got.tgz:5846.got - 2010.03.31 09:31:35.
