data_PCOD8046804
_publ_section_title
;
Structure prediction by ZEFSAII (Michael W. Deem and Ramdas Pophale) SiO2 
 PCOD8046804
Probable space group: P 21
;
_chemical_formula_sum "Si O2"
_cell_formula_units_Z 16
_cell_length_a 8.192410
_cell_length_b 9.729680
_cell_length_c 10.815744
_cell_angle_alpha 90.000000
_cell_angle_beta 136.230288
_cell_angle_gamma 90.000000
_cell_volume 596.379966
_symmetry_space_group_name_H-M "P 21"
_symmetry_group_IT_number 4
_symmetry_cell_setting 'monoclinic'
loop_
_space_group_symop_operation_xyz
x,y,z
-x,1/2+y,-z
loop_
_atom_site_type_symbol
_atom_site_label
_atom_site_fract_x
_atom_site_fract_y
_atom_site_fract_z
Si Si1 0.011911 0.243150 0.886259
Si Si2 0.371030 0.985736 0.709927
Si Si3 0.213515 0.510098 0.881532
Si Si4 0.980188 0.283631 0.144727
Si Si5 0.033666 0.530007 0.325272
Si Si6 0.484521 0.697775 0.654111
Si Si7 0.545255 0.726945 0.413120
Si Si8 0.483678 0.943342 0.185781
O O1 0.051378 0.385693 0.838490
O O2 0.116775 0.117993 0.861021
O O3 0.735845 0.215079 0.748238
O O4 0.112943 0.255131 0.084043
O O5 0.431189 0.832223 0.703338
O O6 0.127720 0.985661 0.649730
O O7 0.343782 0.086667 0.578718
O O8 0.576909 0.042359 0.909289
O O9 0.053206 0.646359 0.792438
O O10 0.312884 0.474389 0.801703
O O11 0.128193 0.391402 0.309752
O O12 0.724357 0.353042 0.984825
O O13 0.238198 0.628386 0.483729
O O14 0.626832 0.732501 0.603611
O O15 0.618779 0.586301 0.814217
O O16 0.617225 0.859760 0.370213
#
# Coordination Sequence:
#
# PCOD8046804 Si02
#       8
#     2   2   2   2   2   2   2   2
#     4  10  23  40  68 100 141 183 230 297 351 422
#     4  12  24  45  73 101 145 188 239 296 353 428
#     4  12  24  42  72 107 138 184 240 296 360 414
#     4  11  23  44  69 106 142 182 236 293 357 418
#     4  11  25  45  70 102 147 183 238 294 356 424
#     4  11  27  45  69 105 141 195 231 289 362 424
#     4  10  23  48  64  98 144 184 234 290 352 425
#     4  11  23  43  73 103 140 187 238 291 353 425
#
# _framework density 26.828534000000001
#
# number of rings (size 3 to 8) (size 9 to 14) (size 15 to 20)
#    0.000    1.000    3.750    3.000    3.500    3.000 
#    0.000    2.500    0.000    0.000    0.000    0.000 
#    0.000    0.000    0.000    0.000    0.000    0.000 
#
# Total GULP energy -198504.274634 kJ/mol
# GULP energy per Si atom -12406.517165 kJ/mol
# Density = 2.676747 g / cm^3
# Si number density = 26.828534 Si / 1000 Ang^3
#
#
#
# Elastic Constant Matrix: (Units=GPa)
#
#
# Indices 1 2 3 4 5 6 
#
# 1 142.9826 85.1249 38.4211 0.0000 -26.0266 0.0000
# 2 85.1249 200.0472 20.2942 0.0000 -20.1107 0.0000
# 3 38.4211 20.2942 109.8735 0.0000 -29.1848 0.0000
# 4 0.0000 0.0000 0.0000 25.1888 0.0000 -4.2699
# 5 -26.0266 -20.1107 -29.1848 0.0000 37.5496 0.0000
# 6 0.0000 0.0000 0.0000 -4.2699 0.0000 62.1887
#
#
#
# Elastic Compliance Matrix: (Units=1/GPa)
#
#
# Indices 1 2 3 4 5 6 
#
# 1 0.010519 -0.003907 -0.001986 0.000000 0.003655 0.000000
# 2 -0.003907 0.006742 0.000455 0.000000 0.001256 0.000000
# 3 -0.001986 0.000455 0.011859 0.000000 0.008084 0.000000
# 4 0.000000 0.000000 0.000000 0.040168 0.000000 0.002758
# 5 0.003655 0.001256 0.008084 0.000000 0.036121 0.000000
# 6 0.000000 0.000000 0.000000 0.002758 0.000000 0.016269
#
#
# Mechanical properties :
#
#
# Convention : Reuss Voigt Hill
#
# Bulk Modulus (GPa) = 54.81544 82.28709 68.55126
# Shear Modulus (GPa) = 36.06585 45.58963 40.82774
#
# Velocity S-wave (km/s) = 3.67046 4.12672 3.90526
# Velocity P-wave (km/s) = 6.19993 7.31058 6.77804
#
# Compressibility (1/GPa) = 0.01824304
#
# Stress axis : x y z
#
# Youngs Moduli (GPa) = 95.06710 148.33415 84.32261
#
# Poissons Ratio (x) = 0.57957 0.16745
# Poissons Ratio (y) = 0.37144 -0.03834
# Poissons Ratio (z) = 0.18878 -0.06744
#
# Static dielectric constant tensor:
#      x y z
#    x 5.013780 0.000000 -0.458720 
#    y 0.000000 5.310050 0.000000 
#    z -0.458720 0.000000 5.510080 
# 
# 
# High freq. dielectric constant tensor:
#      x y z
#    x 2.088200 0.000000 -0.000130 
#    y 0.000000 2.101190 0.000000 
#    z -0.000130 0.000000 2.114190 
# 
# From -- ./inp_files/5733.got.cif
#   From: 2010.03.12/outbox.cif.g09.slc.cpg/sg4_3_cif.got.tgz:5733.got - 2010.03.31 09:31:35.
