data_PCOD8046225
_publ_section_title
;
Structure prediction by ZEFSAII (Michael W. Deem and Ramdas Pophale) SiO2 
 PCOD8046225
Probable space group: P 21
;
_chemical_formula_sum "Si O2"
_cell_formula_units_Z 14
_cell_length_a 7.687912
_cell_length_b 5.309281
_cell_length_c 15.449579
_cell_angle_alpha 90.000000
_cell_angle_beta 106.859772
_cell_angle_gamma 90.000000
_cell_volume 603.504653
_symmetry_space_group_name_H-M "P 21"
_symmetry_group_IT_number 4
_symmetry_cell_setting 'monoclinic'
loop_
_space_group_symop_operation_xyz
x,y,z
-x,1/2+y,-z
loop_
_atom_site_type_symbol
_atom_site_label
_atom_site_fract_x
_atom_site_fract_y
_atom_site_fract_z
Si Si1 0.005608 0.055770 0.275389
Si Si2 0.919397 0.555339 0.195645
Si Si3 0.088188 0.085118 0.483110
Si Si4 0.655450 0.048384 0.749790
Si Si5 0.520198 0.488728 0.451309
Si Si6 0.379848 0.046676 0.993740
Si Si7 0.324402 0.048918 0.180845
O O1 0.880487 0.304622 0.247127
O O2 0.106460 0.059732 0.382085
O O3 0.146892 0.055953 0.216178
O O4 0.883563 0.803591 0.249369
O O5 0.130361 0.555168 0.195917
O O6 0.787665 0.560801 0.095290
O O7 0.277729 0.019657 0.556785
O O8 0.050215 0.376198 0.501002
O O9 0.630732 0.038441 0.643264
O O10 0.561801 0.298394 0.776407
O O11 0.562801 0.804099 0.781232
O O12 0.504326 0.200975 0.479394
O O13 0.283075 0.041198 0.073363
O O14 0.505739 0.292347 0.003387
#
# Coordination Sequence:
#
# PCOD8046225 Si02
#       7
#     2   2   2   2   2   2   2
#     4  10  21  42  70  96 129 181 232 271 337 411
#     4  10  21  41  68  97 129 173 229 284 332 418
#     4  12  26  46  68 108 151 186 229 301 363 411
#     4  10  21  39  67 100 122 174 234 282 326 391
#     4  12  23  43  73 101 141 186 244 291 336 428
#     4  12  26  45  63 101 142 177 218 285 370 412
#     4  10  22  42  67  95 132 171 238 274 332 419
#
# _framework density 23.197832999999999
#
# number of rings (size 3 to 8) (size 9 to 14) (size 15 to 20)
#    0.000    1.143    0.000    7.714    0.000    4.571 
#   15.429    0.000    0.000    0.000    0.000    0.000 
#    0.000    0.000    0.000    0.000    0.000    0.000 
#
# Total GULP energy -173504.591123 kJ/mol
# GULP energy per Si atom -12393.185080 kJ/mol
# Density = 2.314503 g / cm^3
# Si number density = 23.197833 Si / 1000 Ang^3
#
#
#
# Elastic Constant Matrix: (Units=GPa)
#
#
# Indices 1 2 3 4 5 6 
#
# 1 62.1258 9.1207 41.2436 0.0000 5.5146 0.0000
# 2 9.1207 228.8358 49.0784 0.0000 0.4912 0.0000
# 3 41.2436 49.0784 157.6456 0.0000 8.9157 0.0000
# 4 0.0000 0.0000 0.0000 43.0142 0.0000 -2.6174
# 5 5.5146 0.4912 8.9157 0.0000 23.1890 0.0000
# 6 0.0000 0.0000 0.0000 -2.6174 0.0000 18.9177
#
#
#
# Elastic Compliance Matrix: (Units=1/GPa)
#
#
# Indices 1 2 3 4 5 6 
#
# 1 0.019671 0.000313 -0.005090 0.000000 -0.002728 0.000000
# 2 0.000313 0.004693 -0.001567 0.000000 0.000429 0.000000
# 3 -0.005090 -0.001567 0.008272 0.000000 -0.001937 0.000000
# 4 0.000000 0.000000 0.000000 0.023446 0.000000 0.003244
# 5 -0.002728 0.000429 -0.001937 0.000000 0.044508 0.000000
# 6 0.000000 0.000000 0.000000 0.003244 0.000000 0.053309
#
#
# Mechanical properties :
#
#
# Convention : Reuss Voigt Hill
#
# Bulk Modulus (GPa) = 50.12679 71.94364 61.03521
# Shear Modulus (GPa) = 28.86229 40.30181 34.58205
#
# Velocity S-wave (km/s) = 3.53112 4.17263 3.86521
# Velocity P-wave (km/s) = 6.18711 7.36850 6.80350
#
# Compressibility (1/GPa) = 0.01994941
#
# Stress axis : x y z
#
# Youngs Moduli (GPa) = 50.83507 213.09961 120.88419
#
# Poissons Ratio (x) = -0.06679 0.61528
# Poissons Ratio (y) = -0.01593 0.18944
# Poissons Ratio (z) = 0.25874 0.33396
#
# Static dielectric constant tensor:
#      x y z
#    x 3.736080 0.000000 0.080830 
#    y 0.000000 6.583650 0.000000 
#    z 0.080830 0.000000 4.119730 
# 
# 
# High freq. dielectric constant tensor:
#      x y z
#    x 1.879080 0.000000 0.003560 
#    y 0.000000 1.964970 0.000000 
#    z 0.003560 0.000000 1.916140 
# 
# From -- ./inp_files/13600.got.cif
#   From: 2010.03.12/outbox.cif.g09.slc.cpg/sg4_7_cif.got.tgz:13600.got - 2010.03.31 09:31:35.
