data_PCOD8046218
_publ_section_title
;
Structure prediction by ZEFSAII (Michael W. Deem and Ramdas Pophale) SiO2 
 PCOD8046218
Probable space group: P 21
;
_chemical_formula_sum "Si O2"
_cell_formula_units_Z 14
_cell_length_a 15.847943
_cell_length_b 5.290318
_cell_length_c 25.011970
_cell_angle_alpha 90.000000
_cell_angle_beta 162.097784
_cell_angle_gamma 90.000000
_cell_volume 644.610161
_symmetry_space_group_name_H-M "P 21"
_symmetry_group_IT_number 4
_symmetry_cell_setting 'monoclinic'
loop_
_space_group_symop_operation_xyz
x,y,z
-x,1/2+y,-z
loop_
_atom_site_type_symbol
_atom_site_label
_atom_site_fract_x
_atom_site_fract_y
_atom_site_fract_z
Si Si1 0.421781 0.001570 0.422068
Si Si2 0.765769 0.640509 0.112410
Si Si3 0.330576 0.952299 0.732086
Si Si4 0.832978 0.143687 0.088038
Si Si5 0.807143 0.087530 0.258474
Si Si6 0.173147 0.710052 0.537564
Si Si7 0.202527 0.471871 0.450861
O O1 0.569217 0.247538 0.536593
O O2 0.559551 0.934698 0.448517
O O3 0.106956 0.072842 0.220464
O O4 0.887868 0.418619 0.147432
O O5 0.951814 0.648101 0.278221
O O6 0.788183 0.924392 0.104449
O O7 0.452927 0.546754 0.938353
O O8 0.349959 0.747818 0.790425
O O9 0.385959 0.854827 0.704412
O O10 0.006683 0.024834 0.533496
O O11 0.570850 0.156827 0.889495
O O12 0.064593 0.205681 0.382642
O O13 0.917492 0.846120 0.354978
O O14 0.335517 0.580143 0.586226
#
# Coordination Sequence:
#
# PCOD8046218 Si02
#       7
#     2   2   2   2   2   2   2
#     4  12  24  45  68  93 133 178 225 275 335 409
#     4  11  23  40  63  99 133 163 216 269 344 397
#     4  10  21  39  65  91 126 172 224 262 336 402
#     4  11  22  42  69  94 123 179 223 271 319 408
#     4  10  23  36  61  92 129 163 208 274 329 401
#     4  11  21  39  61  93 129 174 213 276 331 407
#     4  11  26  37  63  96 131 171 217 277 340 404
#
# _framework density 21.718553
#
# number of rings (size 3 to 8) (size 9 to 14) (size 15 to 20)
#    0.000    1.143    5.714    0.000    6.000    0.000 
#    0.000    0.000    3.143    0.000    0.000    0.000 
#    0.000    0.000    0.000    0.000    0.000    0.000 
#
# Total GULP energy -173445.493374 kJ/mol
# GULP energy per Si atom -12388.963812 kJ/mol
# Density = 2.166912 g / cm^3
# Si number density = 21.718553 Si / 1000 Ang^3
#
#
#
# Elastic Constant Matrix: (Units=GPa)
#
#
# Indices 1 2 3 4 5 6 
#
# 1 122.8877 15.5948 36.8289 0.0000 3.9779 0.0000
# 2 15.5948 65.4725 -2.6844 0.0000 -6.1818 0.0000
# 3 36.8289 -2.6844 60.9335 0.0000 -2.1230 0.0000
# 4 0.0000 0.0000 0.0000 30.4709 0.0000 -1.5795
# 5 3.9779 -6.1818 -2.1230 0.0000 38.5366 0.0000
# 6 0.0000 0.0000 0.0000 -1.5795 0.0000 14.8995
#
#
#
# Elastic Compliance Matrix: (Units=1/GPa)
#
#
# Indices 1 2 3 4 5 6 
#
# 1 0.010545 -0.002963 -0.006571 0.000000 -0.001926 0.000000
# 2 -0.002963 0.016377 0.002620 0.000000 0.003077 0.000000
# 3 -0.006571 0.002620 0.020576 0.000000 0.002232 0.000000
# 4 0.000000 0.000000 0.000000 0.033000 0.000000 0.003498
# 5 -0.001926 0.003077 0.002232 0.000000 0.026765 0.000000
# 6 0.000000 0.000000 0.000000 0.003498 0.000000 0.067487
#
#
# Mechanical properties :
#
#
# Convention : Reuss Voigt Hill
#
# Bulk Modulus (GPa) = 29.70055 38.75246 34.22651
# Shear Modulus (GPa) = 25.02465 30.08503 27.55484
#
# Velocity S-wave (km/s) = 3.39813 3.72590 3.56578
# Velocity P-wave (km/s) = 5.39456 6.03254 5.72244
#
# Compressibility (1/GPa) = 0.03366941
#
# Stress axis : x y z
#
# Youngs Moduli (GPa) = 94.82943 61.06007 48.59964
#
# Poissons Ratio (x) = 0.18092 0.31936
# Poissons Ratio (y) = 0.28098 -0.12731
# Poissons Ratio (z) = 0.62315 -0.15995
#
# Static dielectric constant tensor:
#      x y z
#    x 3.885470 0.000000 -0.141860 
#    y 0.000000 3.966380 0.000000 
#    z -0.141860 0.000000 3.926670 
# 
# 
# High freq. dielectric constant tensor:
#      x y z
#    x 1.840370 0.000000 -0.010830 
#    y 0.000000 1.861300 0.000000 
#    z -0.010830 0.000000 1.835200 
# 
# From -- ./inp_files/10750.got.cif
#   From: 2010.03.12/outbox.cif.g09.slc.cpg/sg4_6_cif.got.tgz:10750.got - 2010.03.31 09:31:35.
