data_PCOD8046026
_publ_section_title
;
Structure prediction by ZEFSAII (Michael W. Deem and Ramdas Pophale) SiO2 
 PCOD8046026
Probable space group: P 21
;
_chemical_formula_sum "Si O2"
_cell_formula_units_Z 14
_cell_length_a 9.390723
_cell_length_b 5.035424
_cell_length_c 21.285012
_cell_angle_alpha 90.000000
_cell_angle_beta 33.630308
_cell_angle_gamma 90.000000
_cell_volume 557.425808
_symmetry_space_group_name_H-M "P 21"
_symmetry_group_IT_number 4
_symmetry_cell_setting 'monoclinic'
loop_
_space_group_symop_operation_xyz
x,y,z
-x,1/2+y,-z
loop_
_atom_site_type_symbol
_atom_site_label
_atom_site_fract_x
_atom_site_fract_y
_atom_site_fract_z
Si Si1 0.836034 0.242970 0.393035
Si Si2 0.165134 0.184320 0.104435
Si Si3 0.162584 0.032610 0.431268
Si Si4 0.318395 0.956798 0.236643
Si Si5 0.100590 0.376229 0.994511
Si Si6 0.238981 0.678967 0.146407
Si Si7 0.404952 0.235167 0.459478
O O1 0.696916 0.201821 0.376217
O O2 0.782797 0.541335 0.433287
O O3 0.145124 0.205251 0.276692
O O4 0.713329 0.028570 0.487297
O O5 0.083461 0.902891 0.163503
O O6 0.097191 0.406106 0.181624
O O7 0.024613 0.261134 0.090870
O O8 0.468048 0.183598 0.981888
O O9 0.279033 0.907042 0.324893
O O10 0.390550 0.147897 0.391674
O O11 0.981156 0.286407 0.481946
O O12 0.616947 0.009670 0.112146
O O13 0.220241 0.714473 0.228638
O O14 0.087336 0.122528 0.952580
#
# Coordination Sequence:
#
# PCOD8046026 Si02
#       7
#     2   2   2   2   2   2   2
#     4  10  21  38  66  88 126 166 221 264 319 382
#     4   9  18  38  59  85 120 157 204 267 322 366
#     4  12  23  40  66  97 137 175 217 268 333 402
#     4  11  24  42  70  96 128 183 225 268 335 403
#     4  11  25  44  67  96 138 174 218 281 338 394
#     4   9  19  34  62  89 112 155 215 260 308 383
#     4  10  20  40  60  93 129 168 206 274 319 376
#
# _framework density 25.115452000000001
#
# number of rings (size 3 to 8) (size 9 to 14) (size 15 to 20)
#    0.000    1.714    2.857    0.857    0.000    8.000 
#    5.143    0.000    0.000    0.000    0.000    0.000 
#    0.000    0.000    0.000    0.000    0.000    0.000 
#
# Total GULP energy -173509.022179 kJ/mol
# GULP energy per Si atom -12393.501584 kJ/mol
# Density = 2.505829 g / cm^3
# Si number density = 25.115452 Si / 1000 Ang^3
#
#
#
# Elastic Constant Matrix: (Units=GPa)
#
#
# Indices 1 2 3 4 5 6 
#
# 1 155.1008 24.5948 37.8903 0.0000 19.9844 0.0000
# 2 24.5948 116.3446 17.9856 0.0000 3.5902 0.0000
# 3 37.8903 17.9856 58.6273 0.0000 5.9404 0.0000
# 4 0.0000 0.0000 0.0000 27.6418 0.0000 5.7228
# 5 19.9844 3.5902 5.9404 0.0000 39.8504 0.0000
# 6 0.0000 0.0000 0.0000 5.7228 0.0000 31.1388
#
#
#
# Elastic Compliance Matrix: (Units=1/GPa)
#
#
# Indices 1 2 3 4 5 6 
#
# 1 0.008155 -0.000902 -0.004658 0.000000 -0.003314 0.000000
# 2 -0.000902 0.009129 -0.002214 0.000000 -0.000040 0.000000
# 3 -0.004658 -0.002214 0.020804 0.000000 -0.000566 0.000000
# 4 0.000000 0.000000 0.000000 0.037608 0.000000 -0.006912
# 5 -0.003314 -0.000040 -0.000566 0.000000 0.026844 0.000000
# 6 0.000000 0.000000 0.000000 -0.006912 0.000000 0.033385
#
#
# Mechanical properties :
#
#
# Convention : Reuss Voigt Hill
#
# Bulk Modulus (GPa) = 44.36358 54.55711 49.46034
# Shear Modulus (GPa) = 31.44922 36.36634 33.90778
#
# Velocity S-wave (km/s) = 3.54246 3.80934 3.67832
# Velocity P-wave (km/s) = 5.86807 6.41232 6.14622
#
# Compressibility (1/GPa) = 0.02254101
#
# Stress axis : x y z
#
# Youngs Moduli (GPa) = 122.61763 109.53823 48.06757
#
# Poissons Ratio (x) = 0.09876 0.22392
# Poissons Ratio (y) = 0.11056 0.10641
# Poissons Ratio (z) = 0.57120 0.24250
#
# Static dielectric constant tensor:
#      x y z
#    x 4.887660 0.000000 0.085450 
#    y 0.000000 4.645360 0.000000 
#    z 0.085450 0.000000 4.052160 
# 
# 
# High freq. dielectric constant tensor:
#      x y z
#    x 2.015230 0.000000 0.013030 
#    y 0.000000 2.009450 0.000000 
#    z 0.013030 0.000000 1.969270 
# 
# From -- ./inp_files/15578.got.cif
#   From: 2010.03.12/outbox.cif.g09.slc.cpg/sg4_8_cif.got.tgz:15578.got - 2010.03.31 09:31:35.
