data_PCOD8046091
_publ_section_title
;
Structure prediction by ZEFSAII (Michael W. Deem and Ramdas Pophale) SiO2 
 PCOD8046091
Probable space group: P 21
;
_chemical_formula_sum "Si O2"
_cell_formula_units_Z 14
_cell_length_a 7.994490
_cell_length_b 11.998443
_cell_length_c 6.806807
_cell_angle_alpha 90.000000
_cell_angle_beta 91.759090
_cell_angle_gamma 90.000000
_cell_volume 652.610980
_symmetry_space_group_name_H-M "P 21"
_symmetry_group_IT_number 4
_symmetry_cell_setting 'monoclinic'
loop_
_space_group_symop_operation_xyz
x,y,z
-x,1/2+y,-z
loop_
_atom_site_type_symbol
_atom_site_label
_atom_site_fract_x
_atom_site_fract_y
_atom_site_fract_z
Si Si1 0.928006 0.313910 0.308649
Si Si2 0.818838 0.675079 0.422887
Si Si3 0.651337 0.068072 0.496643
Si Si4 0.707567 0.145092 0.082104
Si Si5 0.528042 0.259418 0.743916
Si Si6 0.666023 0.454244 0.539724
Si Si7 0.071598 0.531836 0.223666
O O1 0.856348 0.222465 0.161944
O O2 0.778364 0.370924 0.421661
O O3 0.065173 0.260573 0.456767
O O4 0.007618 0.408364 0.172509
O O5 0.667003 0.745894 0.321586
O O6 0.758858 0.574668 0.569963
O O7 0.920459 0.620090 0.243996
O O8 0.628090 0.077587 0.260409
O O9 0.637615 0.190267 0.591306
O O10 0.834524 0.023517 0.560506
O O11 0.507171 0.986914 0.578847
O O12 0.562152 0.214897 0.965985
O O13 0.794166 0.059664 0.937036
O O14 0.600051 0.386708 0.731091
#
# Coordination Sequence:
#
# PCOD8046091 Si02
#       7
#     2   2   2   2   2   2   2
#     4  11  21  42  67  92 128 173 212 267 327 376
#     4  10  21  41  67  91 130 172 216 266 320 382
#     4  10  20  43  65  89 127 170 212 262 317 392
#     4  11  22  42  63  93 130 166 213 267 316 395
#     4  10  21  41  63  91 128 167 213 264 317 379
#     4  10  21  40  68  90 125 177 209 262 325 380
#     4  10  22  41  65  94 132 165 215 268 324 376
#
# _framework density 21.452290000000001
#
# number of rings (size 3 to 8) (size 9 to 14) (size 15 to 20)
#    0.000    1.714    2.857    1.714    0.000    1.143 
#   20.571    0.000    0.000    0.000    0.000    0.000 
#    0.000    0.000    0.000    0.000    0.000    0.000 
#
# Total GULP energy -173460.174471 kJ/mol
# GULP energy per Si atom -12390.012462 kJ/mol
# Density = 2.140346 g / cm^3
# Si number density = 21.452290 Si / 1000 Ang^3
#
#
#
# Elastic Constant Matrix: (Units=GPa)
#
#
# Indices 1 2 3 4 5 6 
#
# 1 111.0380 36.7517 30.9910 0.0000 12.4363 0.0000
# 2 36.7517 67.2164 15.2223 0.0000 3.2505 0.0000
# 3 30.9910 15.2223 88.1931 0.0000 12.2912 0.0000
# 4 0.0000 0.0000 0.0000 15.0648 0.0000 1.3183
# 5 12.4363 3.2505 12.2912 0.0000 26.1470 0.0000
# 6 0.0000 0.0000 0.0000 1.3183 0.0000 48.0569
#
#
#
# Elastic Compliance Matrix: (Units=1/GPa)
#
#
# Indices 1 2 3 4 5 6 
#
# 1 0.012116 -0.005825 -0.002729 0.000000 -0.003756 0.000000
# 2 -0.005825 0.018296 -0.001263 0.000000 0.001090 0.000000
# 3 -0.002729 -0.001263 0.013176 0.000000 -0.004739 0.000000
# 4 0.000000 0.000000 0.000000 0.066540 0.000000 -0.001825
# 5 -0.003756 0.001090 -0.004739 0.000000 0.042124 0.000000
# 6 0.000000 0.000000 0.000000 -0.001825 0.000000 0.020859
#
#
# Mechanical properties :
#
#
# Convention : Reuss Voigt Hill
#
# Bulk Modulus (GPa) = 41.74579 48.04195 44.89387
# Shear Modulus (GPa) = 24.90926 30.08590 27.49758
#
# Velocity S-wave (km/s) = 3.41126 3.74900 3.58411
# Velocity P-wave (km/s) = 5.91757 6.41743 6.17256
#
# Compressibility (1/GPa) = 0.02395451
#
# Stress axis : x y z
#
# Youngs Moduli (GPa) = 82.53406 54.65799 75.89530
#
# Poissons Ratio (x) = 0.31839 0.20710
# Poissons Ratio (y) = 0.48077 0.09584
# Poissons Ratio (z) = 0.22521 0.06902
#
# Static dielectric constant tensor:
#      x y z
#    x 4.052820 0.000000 0.092690 
#    y 0.000000 4.151970 0.000000 
#    z 0.092690 0.000000 3.588320 
# 
# 
# High freq. dielectric constant tensor:
#      x y z
#    x 1.860500 0.000000 0.003690 
#    y 0.000000 1.854340 0.000000 
#    z 0.003690 0.000000 1.799660 
# 
# From -- ./inp_files/1195.got.cif
#   From: 2010.03.12/outbox.cif.g09.slc.cpg/sg4_1_cif.got.tgz:1195.got - 2010.03.31 09:31:35.
