data_PCOD8046170
_publ_section_title
;
Structure prediction by ZEFSAII (Michael W. Deem and Ramdas Pophale) SiO2 
 PCOD8046170
Probable space group: P 21
;
_chemical_formula_sum "Si O2"
_cell_formula_units_Z 14
_cell_length_a 15.589133
_cell_length_b 7.839472
_cell_length_c 15.818771
_cell_angle_alpha 90.000000
_cell_angle_beta 19.056103
_cell_angle_gamma 90.000000
_cell_volume 631.184750
_symmetry_space_group_name_H-M "P 21"
_symmetry_group_IT_number 4
_symmetry_cell_setting 'monoclinic'
loop_
_space_group_symop_operation_xyz
x,y,z
-x,1/2+y,-z
loop_
_atom_site_type_symbol
_atom_site_label
_atom_site_fract_x
_atom_site_fract_y
_atom_site_fract_z
Si Si1 0.589997 0.725280 0.531765
Si Si2 0.470579 0.612938 0.463784
Si Si3 0.397955 0.800243 0.177231
Si Si4 0.053233 0.303901 0.284718
Si Si5 0.695695 0.129716 0.908067
Si Si6 0.086722 0.167054 0.072928
Si Si7 0.153405 0.777514 0.062877
O O1 0.582322 0.612584 0.454436
O O2 0.865509 0.692055 0.322995
O O3 0.554184 0.920017 0.540391
O O4 0.346047 0.678180 0.819015
O O5 0.181050 0.695137 0.730444
O O6 0.669302 0.713772 0.215476
O O7 0.277026 0.743946 0.200789
O O8 0.208641 0.728427 0.428316
O O9 0.682486 0.710985 0.926185
O O10 0.435664 0.007300 0.147011
O O11 0.056674 0.502338 0.310797
O O12 0.060234 0.293778 0.176952
O O13 0.708838 0.259309 0.974236
O O14 0.123543 0.977057 0.073348
#
# Coordination Sequence:
#
# PCOD8046170 Si02
#       7
#     2   2   2   2   2   2   2
#     4  10  22  39  59  91 118 162 200 247 300 352
#     4  10  21  38  61  87 124 157 203 246 296 355
#     4  10  25  41  61  90 122 155 207 243 309 355
#     4  10  24  39  62  90 122 156 208 241 307 354
#     4  10  26  40  65  88 126 155 205 250 303 362
#     4  10  21  39  60  90 120 164 201 247 298 352
#     4  10  23  38  62  86 124 157 204 248 301 354
#
# _framework density 22.180510000000002
#
# number of rings (size 3 to 8) (size 9 to 14) (size 15 to 20)
#    0.857    1.143    0.000    1.714    6.000    2.286 
#    0.000    0.000    0.000    0.000    0.000    0.000 
#    0.000    0.000    0.000    0.000    0.000    0.000 
#
# Total GULP energy -173489.430888 kJ/mol
# GULP energy per Si atom -12392.102206 kJ/mol
# Density = 2.213003 g / cm^3
# Si number density = 22.180510 Si / 1000 Ang^3
#
#
#
# Elastic Constant Matrix: (Units=GPa)
#
#
# Indices 1 2 3 4 5 6 
#
# 1 111.5468 25.0921 32.2248 0.0000 8.8923 0.0000
# 2 25.0921 24.5296 22.5752 0.0000 -7.1387 0.0000
# 3 32.2248 22.5752 161.7234 0.0000 6.6522 0.0000
# 4 0.0000 0.0000 0.0000 11.0740 0.0000 -1.7656
# 5 8.8923 -7.1387 6.6522 0.0000 33.8301 0.0000
# 6 0.0000 0.0000 0.0000 -1.7656 0.0000 34.1968
#
#
#
# Elastic Compliance Matrix: (Units=1/GPa)
#
#
# Indices 1 2 3 4 5 6 
#
# 1 0.012890 -0.014863 -0.000227 0.000000 -0.006480 0.000000
# 2 -0.014863 0.068580 -0.007428 0.000000 0.019839 0.000000
# 3 -0.000227 -0.007428 0.007387 0.000000 -0.002960 0.000000
# 4 0.000000 0.000000 0.000000 0.091051 0.000000 0.004701
# 5 -0.006480 0.019839 -0.002960 0.000000 0.036031 0.000000
# 6 0.000000 0.000000 0.000000 0.004701 0.000000 0.029485
#
#
# Mechanical properties :
#
#
# Convention : Reuss Voigt Hill
#
# Bulk Modulus (GPa) = 22.81937 50.84268 36.83103
# Shear Modulus (GPa) = 16.38982 30.34736 23.36859
#
# Velocity S-wave (km/s) = 2.72127 3.70293 3.24939
# Velocity P-wave (km/s) = 4.49268 6.42295 5.54249
#
# Compressibility (1/GPa) = 0.04382242
#
# Stress axis : x y z
#
# Youngs Moduli (GPa) = 77.57741 14.58154 135.36741
#
# Poissons Ratio (x) = 0.21672 0.03077
# Poissons Ratio (y) = 1.15300 1.00547
# Poissons Ratio (z) = 0.01763 0.10831
#
# Static dielectric constant tensor:
#      x y z
#    x 3.981870 0.000000 -0.088920 
#    y 0.000000 3.595470 0.000000 
#    z -0.088920 0.000000 4.209770 
# 
# 
# High freq. dielectric constant tensor:
#      x y z
#    x 1.878660 0.000000 -0.003470 
#    y 0.000000 1.843180 0.000000 
#    z -0.003470 0.000000 1.877610 
# 
# From -- ./inp_files/3529.got.cif
#   From: 2010.03.12/outbox.cif.g09.slc.cpg/sg4_2_cif.got.tgz:3529.got - 2010.03.31 09:31:35.
