data_PCOD8046601
_publ_section_title
;
Structure prediction by ZEFSAII (Michael W. Deem and Ramdas Pophale) SiO2 
 PCOD8046601
Probable space group: P 21
;
_chemical_formula_sum "Si O2"
_cell_formula_units_Z 14
_cell_length_a 11.609079
_cell_length_b 11.357649
_cell_length_c 13.411719
_cell_angle_alpha 90.000000
_cell_angle_beta 21.926635
_cell_angle_gamma 90.000000
_cell_volume 660.339294
_symmetry_space_group_name_H-M "P 21"
_symmetry_group_IT_number 4
_symmetry_cell_setting 'monoclinic'
loop_
_space_group_symop_operation_xyz
x,y,z
-x,1/2+y,-z
loop_
_atom_site_type_symbol
_atom_site_label
_atom_site_fract_x
_atom_site_fract_y
_atom_site_fract_z
Si Si1 0.489481 0.059530 0.907427
Si Si2 0.602554 0.416386 0.196938
Si Si3 0.831727 0.946488 0.126505
Si Si4 0.396339 0.647920 0.824727
Si Si5 0.183050 0.619508 0.540902
Si Si6 0.053006 0.549509 0.280137
Si Si7 0.824439 0.347899 0.329364
O O1 0.638868 0.150755 0.706039
O O2 0.718171 0.029684 0.812542
O O3 0.408425 0.938146 0.913815
O O4 0.174533 0.112335 0.202633
O O5 0.566577 0.278929 0.247736
O O6 0.325974 0.495453 0.467963
O O7 0.928703 0.463600 0.976358
O O8 0.511086 0.899302 0.428013
O O9 0.777374 0.073522 0.120499
O O10 0.968644 0.853171 0.936206
O O11 0.733098 0.598271 0.579147
O O12 0.194994 0.641888 0.087125
O O13 0.224677 0.715601 0.593537
O O14 0.996593 0.422368 0.276605
#
# Coordination Sequence:
#
# PCOD8046601 Si02
#       7
#     2   2   2   2   2   2   2
#     4  10  23  39  62  95 124 163 210 258 318 374
#     4  10  26  40  64  98 127 166 211 264 316 377
#     4  10  23  40  65  93 122 169 206 256 317 374
#     4  10  23  41  64  91 129 163 209 260 315 375
#     4  10  23  40  59  96 122 161 211 256 317 367
#     4  10  22  42  63  91 124 165 211 252 318 378
#     4  10  22  42  63  90 122 167 208 258 311 377
#
# _framework density 21.201222999999999
#
# number of rings (size 3 to 8) (size 9 to 14) (size 15 to 20)
#    0.857    1.143    0.000    1.714    6.000    2.286 
#    2.571    0.000    0.000    0.000    0.000    0.000 
#    0.000    0.000    0.000    0.000    0.000    0.000 
#
# Total GULP energy -173557.117721 kJ/mol
# GULP energy per Si atom -12396.936980 kJ/mol
# Density = 2.115297 g / cm^3
# Si number density = 21.201223 Si / 1000 Ang^3
#
#
#
# Elastic Constant Matrix: (Units=GPa)
#
#
# Indices 1 2 3 4 5 6 
#
# 1 83.6606 33.8326 28.2020 0.0000 -41.7754 0.0000
# 2 33.8326 113.2358 20.5326 0.0000 -5.9461 0.0000
# 3 28.2020 20.5326 110.2351 0.0000 -14.8124 0.0000
# 4 0.0000 0.0000 0.0000 25.4011 0.0000 3.7465
# 5 -41.7754 -5.9461 -14.8124 0.0000 42.1917 0.0000
# 6 0.0000 0.0000 0.0000 3.7465 0.0000 18.3277
#
#
#
# Elastic Compliance Matrix: (Units=1/GPa)
#
#
# Indices 1 2 3 4 5 6 
#
# 1 0.028932 -0.006777 -0.002538 0.000000 0.026800 0.000000
# 2 -0.006777 0.010748 -0.001014 0.000000 -0.005551 0.000000
# 3 -0.002538 -0.001014 0.010026 0.000000 0.000864 0.000000
# 4 0.000000 0.000000 0.000000 0.040592 0.000000 -0.008298
# 5 0.026800 -0.005551 0.000864 0.000000 0.049758 0.000000
# 6 0.000000 0.000000 0.000000 -0.008298 0.000000 0.056259
#
#
# Mechanical properties :
#
#
# Convention : Reuss Voigt Hill
#
# Bulk Modulus (GPa) = 34.42650 52.47398 43.45024
# Shear Modulus (GPa) = 22.05993 32.15504 27.10749
#
# Velocity S-wave (km/s) = 3.22918 3.89866 3.57960
# Velocity P-wave (km/s) = 5.49333 6.71344 6.13380
#
# Compressibility (1/GPa) = 0.02904739
#
# Stress axis : x y z
#
# Youngs Moduli (GPa) = 34.56424 93.03829 99.74202
#
# Poissons Ratio (x) = 0.63049 0.25318
# Poissons Ratio (y) = 0.23423 0.10116
# Poissons Ratio (z) = 0.08774 0.09436
#
# Static dielectric constant tensor:
#      x y z
#    x 3.588360 0.000000 -0.005310 
#    y 0.000000 3.542150 0.000000 
#    z -0.005310 0.000000 4.023530 
# 
# 
# High freq. dielectric constant tensor:
#      x y z
#    x 1.824380 0.000000 -0.005510 
#    y 0.000000 1.808770 0.000000 
#    z -0.005510 0.000000 1.850400 
# 
# From -- ./inp_files/2695.got.cif
#   From: 2010.03.12/outbox.cif.g09.slc.cpg/sg4_2_cif.got.tgz:2695.got - 2010.03.31 09:31:35.
