data_PCOD8046698
_publ_section_title
;
Structure prediction by ZEFSAII (Michael W. Deem and Ramdas Pophale) SiO2 
 PCOD8046698
Probable space group: P 21
;
_chemical_formula_sum "Si O2"
_cell_formula_units_Z 10
_cell_length_a 8.958742
_cell_length_b 7.063445
_cell_length_c 10.857106
_cell_angle_alpha 90.000000
_cell_angle_beta 141.711037
_cell_angle_gamma 90.000000
_cell_volume 425.704855
_symmetry_space_group_name_H-M "P 21"
_symmetry_group_IT_number 4
_symmetry_cell_setting 'monoclinic'
loop_
_space_group_symop_operation_xyz
x,y,z
-x,1/2+y,-z
loop_
_atom_site_type_symbol
_atom_site_label
_atom_site_fract_x
_atom_site_fract_y
_atom_site_fract_z
Si Si1 0.491159 0.982540 0.187622
Si Si2 0.899880 0.089924 0.627639
Si Si3 0.610595 0.601887 0.135959
Si Si4 0.864121 0.921439 0.079543
Si Si5 0.014247 0.324290 0.102713
O O1 0.622404 0.801540 0.212440
O O2 0.657026 0.092419 0.391931
O O3 0.250919 0.907025 0.098068
O O4 0.427274 0.131975 0.037612
O O5 0.120890 0.007548 0.685816
O O6 0.979769 0.300983 0.721447
O O7 0.847091 0.958875 0.711742
O O8 0.408840 0.461805 0.055237
O O9 0.005382 0.118061 0.156694
O O10 0.844052 0.814037 0.934979
#
# Coordination Sequence:
#
# PCOD8046698 Si02
#       5
#     2   2   2   2   2
#     4  10  23  44  66 102 134 179 232 281 345 407
#     4  11  23  45  69 102 137 184 237 276 342 420
#     4  10  22  44  69  98 139 177 225 296 339 400
#     4  11  21  45  73  97 142 182 224 288 344 404
#     4  10  23  44  69  99 140 184 226 285 350 403
#
# _framework density 23.490455000000001
#
# number of rings (size 3 to 8) (size 9 to 14) (size 15 to 20)
#    0.000    1.600    4.000    0.000    0.000    4.800 
#    7.200    2.000    0.000    0.000    0.000    0.000 
#    0.000    0.000    0.000    0.000    0.000    0.000 
#
# Total GULP energy -123964.446438 kJ/mol
# GULP energy per Si atom -12396.444644 kJ/mol
# Density = 2.343699 g / cm^3
# Si number density = 23.490455 Si / 1000 Ang^3
#
#
#
# Elastic Constant Matrix: (Units=GPa)
#
#
# Indices 1 2 3 4 5 6 
#
# 1 80.5490 -0.3246 18.9368 0.0000 -14.5598 0.0000
# 2 -0.3246 115.4974 35.5315 0.0000 1.8674 0.0000
# 3 18.9368 35.5315 134.0906 0.0000 9.8288 0.0000
# 4 0.0000 0.0000 0.0000 40.6019 0.0000 -5.1944
# 5 -14.5598 1.8674 9.8288 0.0000 19.3181 0.0000
# 6 0.0000 0.0000 0.0000 -5.1944 0.0000 28.2441
#
#
#
# Elastic Compliance Matrix: (Units=1/GPa)
#
#
# Indices 1 2 3 4 5 6 
#
# 1 0.015659 0.000882 -0.003432 0.000000 0.013463 0.000000
# 2 0.000882 0.009479 -0.002719 0.000000 0.001132 0.000000
# 3 -0.003432 -0.002719 0.009175 0.000000 -0.006992 0.000000
# 4 0.000000 0.000000 0.000000 0.025223 0.000000 0.004639
# 5 0.013463 0.001132 -0.006992 0.000000 0.065360 0.000000
# 6 0.000000 0.000000 0.000000 0.004639 0.000000 0.036259
#
#
# Mechanical properties :
#
#
# Convention : Reuss Voigt Hill
#
# Bulk Modulus (GPa) = 42.06138 48.71384 45.38761
# Shear Modulus (GPa) = 27.83699 36.03238 31.93469
#
# Velocity S-wave (km/s) = 3.44617 3.92077 3.69111
# Velocity P-wave (km/s) = 5.81200 6.42490 6.12612
#
# Compressibility (1/GPa) = 0.02377478
#
# Stress axis : x y z
#
# Youngs Moduli (GPa) = 63.86252 105.49702 108.98709
#
# Poissons Ratio (x) = -0.09306 0.37404
# Poissons Ratio (y) = -0.05634 0.29637
# Poissons Ratio (z) = 0.21917 0.28688
#
# Static dielectric constant tensor:
#      x y z
#    x 4.593310 0.000000 -0.054250 
#    y 0.000000 4.304530 0.000000 
#    z -0.054250 0.000000 3.756290 
# 
# 
# High freq. dielectric constant tensor:
#      x y z
#    x 1.948240 0.000000 -0.005080 
#    y 0.000000 1.947840 0.000000 
#    z -0.005080 0.000000 1.891200 
# 
# From -- ./inp_files/4476.got.cif
#   From: 2010.03.12/outbox.cif.g09.slc.cpg/sg4_3_cif.got.tgz:4476.got - 2010.03.31 09:31:35.
