data_PCOD8046095
_publ_section_title
;
Structure prediction by ZEFSAII (Michael W. Deem and Ramdas Pophale) SiO2 
 PCOD8046095
Probable space group: P 21
;
_chemical_formula_sum "Si O2"
_cell_formula_units_Z 16
_cell_length_a 9.299070
_cell_length_b 9.814837
_cell_length_c 11.245745
_cell_angle_alpha 90.000000
_cell_angle_beta 51.627376
_cell_angle_gamma 90.000000
_cell_volume 804.676740
_symmetry_space_group_name_H-M "P 21"
_symmetry_group_IT_number 4
_symmetry_cell_setting 'monoclinic'
loop_
_space_group_symop_operation_xyz
x,y,z
-x,1/2+y,-z
loop_
_atom_site_type_symbol
_atom_site_label
_atom_site_fract_x
_atom_site_fract_y
_atom_site_fract_z
Si Si1 0.857403 0.696780 0.855277
Si Si2 0.389227 0.103285 0.217420
Si Si3 0.991679 0.435062 0.906978
Si Si4 0.600976 0.845034 0.356578
Si Si5 0.266218 0.709975 0.068171
Si Si6 0.509252 0.300051 0.839667
Si Si7 0.984575 0.473474 0.184260
Si Si8 0.360410 0.093522 0.506338
O O1 0.793024 0.636220 0.763043
O O2 0.983427 0.586500 0.857661
O O3 0.978488 0.830677 0.768748
O O4 0.685076 0.737343 0.024505
O O5 0.323567 0.110504 0.386089
O O6 0.473193 0.958493 0.134833
O O7 0.550049 0.212151 0.107320
O O8 0.192758 0.370863 0.792982
O O9 0.851305 0.340172 0.908280
O O10 0.934204 0.442813 0.073770
O O11 0.478200 0.787692 0.309818
O O12 0.582212 0.739422 0.472797
O O13 0.522633 0.986774 0.446037
O O14 0.326604 0.720747 0.176395
O O15 0.160971 0.569804 0.101068
O O16 0.820897 0.546985 0.334316
#
# Coordination Sequence:
#
# PCOD8046095 Si02
#       8
#     2   2   2   2   2   2   2   2
#     4  11  22  39  67 100 120 170 217 262 322 373
#     4  10  22  43  63  93 137 167 207 264 329 385
#     4  12  23  41  72  96 128 162 224 272 313 375
#     4  11  24  46  65  95 133 170 212 267 325 386
#     4  11  22  41  71  93 126 168 214 272 317 370
#     4  10  20  43  67  92 131 162 216 269 322 366
#     4  12  23  41  65  99 124 165 221 267 309 383
#     4  11  26  44  62  94 135 174 203 261 333 392
#
# _framework density 19.883761
#
# number of rings (size 3 to 8) (size 9 to 14) (size 15 to 20)
#    0.000    1.000    5.000    2.250    3.500    0.000 
#    9.000    0.000    0.000    0.000    0.000    0.000 
#    0.000    0.000    0.000    0.000    0.000    0.000 
#
# Total GULP energy -198440.735240 kJ/mol
# GULP energy per Si atom -12402.545953 kJ/mol
# Density = 1.983850 g / cm^3
# Si number density = 19.883761 Si / 1000 Ang^3
#
#
#
# Elastic Constant Matrix: (Units=GPa)
#
#
# Indices 1 2 3 4 5 6 
#
# 1 106.0190 38.9000 36.8216 0.0000 11.5696 0.0000
# 2 38.9000 98.7949 19.2290 0.0000 18.1517 0.0000
# 3 36.8216 19.2290 86.8476 0.0000 13.6023 0.0000
# 4 0.0000 0.0000 0.0000 34.1030 0.0000 -2.6824
# 5 11.5696 18.1517 13.6023 0.0000 22.5230 0.0000
# 6 0.0000 0.0000 0.0000 -2.6824 0.0000 38.0430
#
#
#
# Elastic Compliance Matrix: (Units=1/GPa)
#
#
# Indices 1 2 3 4 5 6 
#
# 1 0.012443 -0.003950 -0.004306 0.000000 -0.000608 0.000000
# 2 -0.003950 0.013259 0.000105 0.000000 -0.008720 0.000000
# 3 -0.004306 0.000105 0.014340 0.000000 -0.006533 0.000000
# 4 0.000000 0.000000 0.000000 0.029487 0.000000 0.002079
# 5 -0.000608 -0.008720 -0.006533 0.000000 0.055684 0.000000
# 6 0.000000 0.000000 0.000000 0.002079 0.000000 0.026433
#
#
# Mechanical properties :
#
#
# Convention : Reuss Voigt Hill
#
# Bulk Modulus (GPa) = 42.12230 53.50697 47.81464
# Shear Modulus (GPa) = 28.43151 32.04785 30.23968
#
# Velocity S-wave (km/s) = 3.78549 4.01903 3.90400
# Velocity P-wave (km/s) = 6.35113 6.96456 6.66490
#
# Compressibility (1/GPa) = 0.02374039
#
# Stress axis : x y z
#
# Youngs Moduli (GPa) = 80.36424 75.42110 69.73458
#
# Poissons Ratio (x) = 0.29789 0.30027
# Poissons Ratio (y) = 0.31741 -0.00730
# Poissons Ratio (z) = 0.34604 -0.00789
#
# Static dielectric constant tensor:
#      x y z
#    x 3.820980 0.000000 0.012050 
#    y 0.000000 3.824230 0.000000 
#    z 0.012050 0.000000 3.405710 
# 
# 
# High freq. dielectric constant tensor:
#      x y z
#    x 1.788360 0.000000 0.003040 
#    y 0.000000 1.788130 0.000000 
#    z 0.003040 0.000000 1.755230 
# 
# From -- ./inp_files/5390.got.cif
#   From: 2010.03.12/outbox.cif.g09.slc.cpg/sg4_3_cif.got.tgz:5390.got - 2010.03.31 09:31:35.
