data_PCOD8046854
_publ_section_title
;
Structure prediction by ZEFSAII (Michael W. Deem and Ramdas Pophale) SiO2 
 PCOD8046854
Probable space group: P 21
;
_chemical_formula_sum "Si O2"
_cell_formula_units_Z 12
_cell_length_a 15.129961
_cell_length_b 5.051702
_cell_length_c 10.870258
_cell_angle_alpha 90.000000
_cell_angle_beta 44.072650
_cell_angle_gamma 90.000000
_cell_volume 577.904635
_symmetry_space_group_name_H-M "P 21"
_symmetry_group_IT_number 4
_symmetry_cell_setting 'monoclinic'
loop_
_space_group_symop_operation_xyz
x,y,z
-x,1/2+y,-z
loop_
_atom_site_type_symbol
_atom_site_label
_atom_site_fract_x
_atom_site_fract_y
_atom_site_fract_z
Si Si1 0.447388 0.604010 0.116012
Si Si2 0.947386 0.071806 0.989216
Si Si3 0.973553 0.564086 0.366029
Si Si4 0.655007 0.111585 0.283155
Si Si5 0.473548 0.111752 0.686869
Si Si6 0.155006 0.564252 0.406838
O O1 0.482539 0.670771 0.220124
O O2 0.303331 0.505960 0.248671
O O3 0.536905 0.370179 0.978112
O O4 0.982528 0.005072 0.814808
O O5 0.803332 0.169872 0.144679
O O6 0.036911 0.305615 0.948086
O O7 0.868113 0.352127 0.512519
O O8 0.097494 0.539735 0.327848
O O9 0.910663 0.851994 0.437777
O O10 0.597493 0.136103 0.477171
O O11 0.589340 0.323843 0.259104
O O12 0.631889 0.823710 0.248749
#
# Coordination Sequence:
#
# PCOD8046854 Si02
#       6
#     2   2   2   2   2   2
#     4  12  26  41  67 100 128 165 216 265 317 375
#     4  12  26  41  67 100 128 165 216 265 317 375
#     4  10  23  42  69  89 130 168 208 262 321 373
#     4  10  23  45  64  95 124 171 210 259 320 378
#     4  10  23  42  69  89 130 168 208 262 321 373
#     4  10  23  45  64  95 124 171 210 259 320 378
#
# _framework density 20.764668
#
# number of rings (size 3 to 8) (size 9 to 14) (size 15 to 20)
#    0.000    1.333    0.000    4.000    9.333    0.000 
#    0.000    0.000    0.000    0.000    0.000    0.000 
#    0.000    0.000    0.000    0.000    0.000    0.000 
#
# Total GULP energy -148909.304622 kJ/mol
# GULP energy per Si atom -12409.108719 kJ/mol
# Density = 2.071741 g / cm^3
# Si number density = 20.764668 Si / 1000 Ang^3
#
#
#
# Elastic Constant Matrix: (Units=GPa)
#
#
# Indices 1 2 3 4 5 6 
#
# 1 86.1343 9.5602 54.8973 0.0000 1.1620 0.0000
# 2 9.5602 85.3947 11.9197 0.0000 12.3657 0.0000
# 3 54.8973 11.9197 87.2716 0.0000 4.7874 0.0000
# 4 0.0000 0.0000 0.0000 26.6733 0.0000 2.4879
# 5 1.1620 12.3657 4.7874 0.0000 34.7042 0.0000
# 6 0.0000 0.0000 0.0000 2.4879 0.0000 26.1951
#
#
#
# Elastic Compliance Matrix: (Units=1/GPa)
#
#
# Indices 1 2 3 4 5 6 
#
# 1 0.019451 -0.000656 -0.012215 0.000000 0.001268 0.000000
# 2 -0.000656 0.012556 -0.001066 0.000000 -0.004305 0.000000
# 3 -0.012215 -0.001066 0.019391 0.000000 -0.001886 0.000000
# 4 0.000000 0.000000 0.000000 0.037826 0.000000 -0.003593
# 5 0.001268 -0.004305 -0.001886 0.000000 0.030567 0.000000
# 6 0.000000 0.000000 0.000000 -0.003593 0.000000 0.038516
#
#
# Mechanical properties :
#
#
# Convention : Reuss Voigt Hill
#
# Bulk Modulus (GPa) = 42.51084 45.72832 44.11958
# Shear Modulus (GPa) = 25.77016 29.67609 27.72312
#
# Velocity S-wave (km/s) = 3.52669 3.78453 3.65788
# Velocity P-wave (km/s) = 6.09102 6.41614 6.25569
#
# Compressibility (1/GPa) = 0.02352341
#
# Stress axis : x y z
#
# Youngs Moduli (GPa) = 51.41164 79.64343 51.56912
#
# Poissons Ratio (x) = 0.05225 0.62993
# Poissons Ratio (y) = 0.03373 0.05498
# Poissons Ratio (z) = 0.62801 0.08491
#
# Static dielectric constant tensor:
#      x y z
#    x 3.654320 0.000000 0.055760 
#    y 0.000000 3.835040 0.000000 
#    z 0.055760 0.000000 3.664980 
# 
# 
# High freq. dielectric constant tensor:
#      x y z
#    x 1.815300 0.000000 0.003280 
#    y 0.000000 1.828630 0.000000 
#    z 0.003280 0.000000 1.815930 
# 
# From -- ./inp_files/2501.got.cif
#   From: 2010.03.12/outbox.cif.g09.slc.cpg/sg4_2_cif.got.tgz:2501.got - 2010.03.31 09:31:35.
