data_PCOD8046596
_publ_section_title
;
Structure prediction by ZEFSAII (Michael W. Deem and Ramdas Pophale) SiO2 
 PCOD8046596
Probable space group: P 21
;
_chemical_formula_sum "Si O2"
_cell_formula_units_Z 16
_cell_length_a 20.492388
_cell_length_b 7.215665
_cell_length_c 10.336624
_cell_angle_alpha 90.000000
_cell_angle_beta 30.232706
_cell_angle_gamma 90.000000
_cell_volume 769.588423
_symmetry_space_group_name_H-M "P 21"
_symmetry_group_IT_number 4
_symmetry_cell_setting 'monoclinic'
loop_
_space_group_symop_operation_xyz
x,y,z
-x,1/2+y,-z
loop_
_atom_site_type_symbol
_atom_site_label
_atom_site_fract_x
_atom_site_fract_y
_atom_site_fract_z
Si Si1 0.178559 0.520460 0.261937
Si Si2 0.719488 0.245153 0.331936
Si Si3 0.391050 0.698940 0.741745
Si Si4 0.025740 0.883402 0.583275
Si Si5 0.916186 0.926322 0.037592
Si Si6 0.228789 0.174034 0.306948
Si Si7 0.186757 0.068894 0.660149
Si Si8 0.465665 0.058507 0.731398
O O1 0.130346 0.722862 0.382160
O O2 0.203797 0.396592 0.347544
O O3 0.071881 0.403652 0.367282
O O4 0.310949 0.538287 0.952143
O O5 0.706571 0.289272 0.199695
O O6 0.723858 0.438800 0.402704
O O7 0.594376 0.121290 0.589468
O O8 0.845378 0.123160 0.145127
O O9 0.483593 0.117462 0.548818
O O10 0.442195 0.838312 0.764523
O O11 0.101297 0.075138 0.470805
O O12 0.944362 0.836453 0.850330
O O13 0.828113 0.775826 0.260212
O O14 0.048550 0.967504 0.886915
O O15 0.258073 0.095109 0.399561
O O16 0.344757 0.147775 0.008446
#
# Coordination Sequence:
#
# PCOD8046596 Si02
#       8
#     2   2   2   2   2   2   2   2
#     4  12  22  39  65 101 139 172 215 278 346 398
#     4  10  24  44  69  97 128 176 225 269 334 399
#     4  10  22  41  72  97 132 173 223 278 339 400
#     4  11  23  37  64 100 135 171 217 276 343 394
#     4  11  23  42  68  95 128 177 224 276 330 393
#     4  11  25  41  63  98 135 175 226 276 332 394
#     4  11  25  43  68  96 132 178 226 274 326 400
#     4  10  22  45  67  96 135 170 224 279 332 402
#
# _framework density 20.790330999999998
#
# number of rings (size 3 to 8) (size 9 to 14) (size 15 to 20)
#    0.750    0.500    5.000    0.750    1.750    3.000 
#    2.250    0.000    0.000    0.000    0.000    0.000 
#    0.000    0.000    0.000    0.000    0.000    0.000 
#
# Total GULP energy -198311.609200 kJ/mol
# GULP energy per Si atom -12394.475575 kJ/mol
# Density = 2.074301 g / cm^3
# Si number density = 20.790331 Si / 1000 Ang^3
#
#
#
# Elastic Constant Matrix: (Units=GPa)
#
#
# Indices 1 2 3 4 5 6 
#
# 1 61.0686 33.6312 16.5277 0.0000 4.4574 0.0000
# 2 33.6312 102.7481 37.6089 0.0000 11.8696 0.0000
# 3 16.5277 37.6089 96.2650 0.0000 16.1859 0.0000
# 4 0.0000 0.0000 0.0000 31.0846 0.0000 0.0682
# 5 4.4574 11.8696 16.1859 0.0000 25.4370 0.0000
# 6 0.0000 0.0000 0.0000 0.0682 0.0000 39.7531
#
#
#
# Elastic Compliance Matrix: (Units=1/GPa)
#
#
# Indices 1 2 3 4 5 6 
#
# 1 0.020062 -0.006193 -0.001030 0.000000 0.000030 0.000000
# 2 -0.006193 0.013446 -0.003715 0.000000 -0.002825 0.000000
# 3 -0.001030 -0.003715 0.013095 0.000000 -0.006419 0.000000
# 4 0.000000 0.000000 0.000000 0.032170 0.000000 -0.000055
# 5 0.000030 -0.002825 -0.006419 0.000000 0.044710 0.000000
# 6 0.000000 0.000000 0.000000 -0.000055 0.000000 0.025155
#
#
# Mechanical properties :
#
#
# Convention : Reuss Voigt Hill
#
# Bulk Modulus (GPa) = 40.44027 48.40193 44.42110
# Shear Modulus (GPa) = 27.97083 30.74251 29.35667
#
# Velocity S-wave (km/s) = 3.67192 3.84955 3.76178
# Velocity P-wave (km/s) = 6.12136 6.56431 6.34670
#
# Compressibility (1/GPa) = 0.02472783
#
# Stress axis : x y z
#
# Youngs Moduli (GPa) = 49.84481 74.37311 76.36306
#
# Poissons Ratio (x) = 0.46061 0.07865
# Poissons Ratio (y) = 0.30870 0.28366
# Poissons Ratio (z) = 0.05134 0.27627
#
# Static dielectric constant tensor:
#      x y z
#    x 3.614230 0.000000 0.089040 
#    y 0.000000 3.689250 0.000000 
#    z 0.089040 0.000000 3.749810 
# 
# 
# High freq. dielectric constant tensor:
#      x y z
#    x 1.792220 0.000000 0.004820 
#    y 0.000000 1.817900 0.000000 
#    z 0.004820 0.000000 1.812870 
# 
# From -- ./inp_files/12958.got.cif
#   From: 2010.03.12/outbox.cif.g09.slc.cpg/sg4_7_cif.got.tgz:12958.got - 2010.03.31 09:31:35.
