data_PCOD8046011
_publ_section_title
;
Structure prediction by ZEFSAII (Michael W. Deem and Ramdas Pophale) SiO2 
 PCOD8046011
Probable space group: P 21
;
_chemical_formula_sum "Si O2"
_cell_formula_units_Z 16
_cell_length_a 19.616710
_cell_length_b 9.160298
_cell_length_c 8.145405
_cell_angle_alpha 90.000000
_cell_angle_beta 30.211428
_cell_angle_gamma 90.000000
_cell_volume 736.516469
_symmetry_space_group_name_H-M "P 21"
_symmetry_group_IT_number 4
_symmetry_cell_setting 'monoclinic'
loop_
_space_group_symop_operation_xyz
x,y,z
-x,1/2+y,-z
loop_
_atom_site_type_symbol
_atom_site_label
_atom_site_fract_x
_atom_site_fract_y
_atom_site_fract_z
Si Si1 0.866752 0.986970 0.639021
Si Si2 0.795366 0.308250 0.771453
Si Si3 0.367804 0.096860 0.340156
Si Si4 0.881882 0.206683 0.115948
Si Si5 0.908055 0.920154 0.898604
Si Si6 0.161694 0.287552 0.624183
Si Si7 0.832226 0.477988 0.010889
Si Si8 0.371569 0.790099 0.179182
O O1 0.841783 0.887299 0.856215
O O2 0.834934 0.891014 0.543715
O O3 0.778576 0.133214 0.824074
O O4 0.022310 0.046183 0.337549
O O5 0.677710 0.356176 0.891199
O O6 0.941168 0.356728 0.398915
O O7 0.761738 0.390927 0.009743
O O8 0.286255 0.172842 0.358725
O O9 0.270059 0.099717 0.705466
O O10 0.407449 0.929330 0.218361
O O11 0.499290 0.188322 0.110661
O O12 0.868680 0.370282 0.081788
O O13 0.748229 0.182748 0.504719
O O14 0.020823 0.197776 0.931758
O O15 0.901673 0.096709 0.923305
O O16 0.821093 0.873923 0.239420
#
# Coordination Sequence:
#
# PCOD8046011 Si02
#       8
#     2   2   2   2   2   2   2   2
#     4  10  22  38  66 108 135 173 222 286 350 408
#     4  11  20  40  65  99 135 178 221 284 346 408
#     4  11  26  47  63  99 133 184 229 286 335 409
#     4  10  20  39  63  94 130 171 221 283 344 400
#     4  11  21  36  66 103 136 166 220 284 346 403
#     4  11  23  39  69  98 135 174 228 282 341 411
#     4   9  21  40  62  95 139 170 219 288 341 405
#     4  11  25  43  70  92 133 184 234 277 341 410
#
# _framework density 21.723886
#
# number of rings (size 3 to 8) (size 9 to 14) (size 15 to 20)
#    0.000    1.500    2.500    2.250    7.000    0.000 
#    2.250    3.750    0.000    0.000    0.000    0.000 
#    0.000    0.000    0.000    0.000    0.000    0.000 
#
# Total GULP energy -198289.567364 kJ/mol
# GULP energy per Si atom -12393.097960 kJ/mol
# Density = 2.167444 g / cm^3
# Si number density = 21.723886 Si / 1000 Ang^3
#
#
#
# Elastic Constant Matrix: (Units=GPa)
#
#
# Indices 1 2 3 4 5 6 
#
# 1 122.0105 36.6163 43.7313 0.0000 16.9012 0.0000
# 2 36.6163 81.4955 28.1588 0.0000 0.0774 0.0000
# 3 43.7313 28.1588 49.5792 0.0000 0.7869 0.0000
# 4 0.0000 0.0000 0.0000 37.2428 0.0000 0.6376
# 5 16.9012 0.0774 0.7869 0.0000 34.7927 0.0000
# 6 0.0000 0.0000 0.0000 0.6376 0.0000 34.3672
#
#
#
# Elastic Compliance Matrix: (Units=1/GPa)
#
#
# Indices 1 2 3 4 5 6 
#
# 1 0.013568 -0.002476 -0.010461 0.000000 -0.006349 0.000000
# 2 -0.002476 0.015719 -0.006765 0.000000 0.001321 0.000000
# 3 -0.010461 -0.006765 0.033170 0.000000 0.004346 0.000000
# 4 0.000000 0.000000 0.000000 0.026859 0.000000 -0.000498
# 5 -0.006349 0.001321 0.004346 0.000000 0.031724 0.000000
# 6 0.000000 0.000000 0.000000 -0.000498 0.000000 0.029107
#
#
# Mechanical properties :
#
#
# Convention : Reuss Voigt Hill
#
# Bulk Modulus (GPa) = 43.37635 52.23312 47.80474
# Shear Modulus (GPa) = 25.35049 30.91912 28.13480
#
# Velocity S-wave (km/s) = 3.41976 3.77673 3.60267
# Velocity P-wave (km/s) = 5.96686 6.56617 6.27367
#
# Compressibility (1/GPa) = 0.02305404
#
# Stress axis : x y z
#
# Youngs Moduli (GPa) = 73.70434 63.61647 30.14782
#
# Poissons Ratio (x) = 0.15749 0.31536
# Poissons Ratio (y) = 0.18246 0.20395
# Poissons Ratio (z) = 0.77099 0.43038
#
# Static dielectric constant tensor:
#      x y z
#    x 3.876290 0.000000 0.163160 
#    y 0.000000 3.889410 0.000000 
#    z 0.163160 0.000000 3.839170 
# 
# 
# High freq. dielectric constant tensor:
#      x y z
#    x 1.852420 0.000000 0.016530 
#    y 0.000000 1.858250 0.000000 
#    z 0.016530 0.000000 1.820680 
# 
# From -- ./inp_files/8064.got.cif
#   From: 2010.03.12/outbox.cif.g09.slc.cpg/sg4_5_cif.got.tgz:8064.got - 2010.03.31 09:31:35.
