data_PCOD8046699
_publ_section_title
;
Structure prediction by ZEFSAII (Michael W. Deem and Ramdas Pophale) SiO2 
 PCOD8046699
Probable space group: P 21
;
_chemical_formula_sum "Si O2"
_cell_formula_units_Z 16
_cell_length_a 5.442250
_cell_length_b 14.066556
_cell_length_c 8.249576
_cell_angle_alpha 90.000000
_cell_angle_beta 106.165068
_cell_angle_gamma 90.000000
_cell_volume 606.567039
_symmetry_space_group_name_H-M "P 21"
_symmetry_group_IT_number 4
_symmetry_cell_setting 'monoclinic'
loop_
_space_group_symop_operation_xyz
x,y,z
-x,1/2+y,-z
loop_
_atom_site_type_symbol
_atom_site_label
_atom_site_fract_x
_atom_site_fract_y
_atom_site_fract_z
Si Si1 0.393739 0.487160 0.169983
Si Si2 0.834613 0.421118 0.424138
Si Si3 0.428602 0.939501 0.129310
Si Si4 0.008692 0.840729 0.888401
Si Si5 0.743635 0.062158 0.375614
Si Si6 0.637149 0.745799 0.188676
Si Si7 0.211693 0.734340 0.384293
Si Si8 0.211302 0.644725 0.957033
O O1 0.589401 0.492748 0.357917
O O2 0.273544 0.382649 0.164069
O O3 0.547085 0.501399 0.029885
O O4 0.190838 0.575295 0.116182
O O5 0.858975 0.363390 0.259098
O O6 0.788341 0.343300 0.553754
O O7 0.077546 0.487684 0.497531
O O8 0.652438 0.859217 0.167775
O O9 0.469732 0.007679 0.293910
O O10 0.154728 0.887525 0.071070
O O11 0.997583 0.728290 0.924580
O O12 0.710897 0.160367 0.461810
O O13 0.849934 0.084098 0.214936
O O14 0.439409 0.723739 0.298922
O O15 0.924865 0.707935 0.269454
O O16 0.495283 0.694764 0.009831
#
# Coordination Sequence:
#
# PCOD8046699 Si02
#       8
#     2   2   2   2   2   2   2   2
#     4  10  23  43  70 104 149 197 249 313 380 442
#     4  11  24  44  72 106 154 191 245 315 389 444
#     4   9  22  44  69  99 136 195 244 305 360 446
#     4  10  22  44  70 104 147 191 251 311 379 442
#     4  11  23  47  73 108 148 189 256 305 383 451
#     4  11  26  48  73 104 153 194 250 300 380 439
#     4  12  27  48  74 113 148 202 239 317 376 456
#     4  10  23  46  73 110 139 203 254 310 369 458
#
# _framework density 26.377955
#
# number of rings (size 3 to 8) (size 9 to 14) (size 15 to 20)
#    0.000    1.500    2.500    0.750    7.000    0.000 
#    9.000    0.000    0.000    0.000    0.000    0.000 
#    0.000    0.000    0.000    0.000    0.000    0.000 
#
# Total GULP energy -198210.937188 kJ/mol
# GULP energy per Si atom -12388.183574 kJ/mol
# Density = 2.631792 g / cm^3
# Si number density = 26.377955 Si / 1000 Ang^3
#
#
#
# Elastic Constant Matrix: (Units=GPa)
#
#
# Indices 1 2 3 4 5 6 
#
# 1 74.8391 7.6836 24.2380 0.0000 11.1758 0.0000
# 2 7.6836 128.3878 30.3189 0.0000 8.9120 0.0000
# 3 24.2380 30.3189 108.8080 0.0000 23.4490 0.0000
# 4 0.0000 0.0000 0.0000 55.6836 0.0000 9.5695
# 5 11.1758 8.9120 23.4490 0.0000 26.5963 0.0000
# 6 0.0000 0.0000 0.0000 9.5695 0.0000 31.5141
#
#
#
# Elastic Compliance Matrix: (Units=1/GPa)
#
#
# Indices 1 2 3 4 5 6 
#
# 1 0.014750 -0.000034 -0.002399 0.000000 -0.004072 0.000000
# 2 -0.000034 0.008356 -0.002124 0.000000 -0.000913 0.000000
# 3 -0.002399 -0.002124 0.012279 0.000000 -0.009106 0.000000
# 4 0.000000 0.000000 0.000000 0.018947 0.000000 -0.005754
# 5 -0.004072 -0.000913 -0.009106 0.000000 0.047645 0.000000
# 6 0.000000 0.000000 0.000000 -0.005754 0.000000 0.033479
#
#
# Mechanical properties :
#
#
# Convention : Reuss Voigt Hill
#
# Bulk Modulus (GPa) = 38.06279 48.50175 43.28227
# Shear Modulus (GPa) = 32.60993 39.41176 36.01085
#
# Velocity S-wave (km/s) = 3.51986 3.86957 3.69885
# Velocity P-wave (km/s) = 5.56600 6.19612 5.88949
#
# Compressibility (1/GPa) = 0.02627238
#
# Stress axis : x y z
#
# Youngs Moduli (GPa) = 67.79459 119.67596 81.43829
#
# Poissons Ratio (x) = 0.00402 0.19536
# Poissons Ratio (y) = 0.00228 0.17298
# Poissons Ratio (z) = 0.16263 0.25420
#
# Static dielectric constant tensor:
#      x y z
#    x 4.230160 0.000000 0.256050 
#    y 0.000000 5.313950 0.000000 
#    z 0.256050 0.000000 5.084120 
# 
# 
# High freq. dielectric constant tensor:
#      x y z
#    x 2.018770 0.000000 0.015260 
#    y 0.000000 2.079120 0.000000 
#    z 0.015260 0.000000 2.071100 
# 
# From -- ./inp_files/4848.got.cif
#   From: 2010.03.12/outbox.cif.g09.slc.cpg/sg4_3_cif.got.tgz:4848.got - 2010.03.31 09:31:35.
