data_PCOD8046583
_publ_section_title
;
Structure prediction by ZEFSAII (Michael W. Deem and Ramdas Pophale) SiO2 
 PCOD8046583
Probable space group: P 21
;
_chemical_formula_sum "Si O2"
_cell_formula_units_Z 12
_cell_length_a 10.672337
_cell_length_b 8.492293
_cell_length_c 4.929420
_cell_angle_alpha 90.000000
_cell_angle_beta 72.008496
_cell_angle_gamma 90.000000
_cell_volume 424.920386
_symmetry_space_group_name_H-M "P 21"
_symmetry_group_IT_number 4
_symmetry_cell_setting 'monoclinic'
loop_
_space_group_symop_operation_xyz
x,y,z
-x,1/2+y,-z
loop_
_atom_site_type_symbol
_atom_site_label
_atom_site_fract_x
_atom_site_fract_y
_atom_site_fract_z
Si Si1 0.579069 0.319060 0.375282
Si Si2 0.814776 0.141451 0.080419
Si Si3 0.092748 0.821460 0.450984
Si Si4 0.437699 0.565094 0.163349
Si Si5 0.807947 0.901811 0.525972
Si Si6 0.696760 0.559667 0.638590
O O1 0.659701 0.199144 0.118155
O O2 0.453138 0.398078 0.319668
O O3 0.543055 0.222303 0.670745
O O4 0.672377 0.470025 0.371441
O O5 0.859491 0.254703 0.296833
O O6 0.817310 0.966705 0.209228
O O7 0.912874 0.179787 0.767218
O O8 0.949412 0.898274 0.575389
O O9 0.195809 0.955140 0.269988
O O10 0.279028 0.523460 0.216634
O O11 0.548495 0.569384 0.859064
O O12 0.752368 0.728394 0.538171
#
# Coordination Sequence:
#
# PCOD8046583 Si02
#       6
#     2   2   2   2   2   2
#     4  10  22  41  67 100 138 190 240 307 363 442
#     4  10  24  47  71 104 150 192 247 305 368 441
#     4  11  24  49  74 105 149 193 245 308 372 442
#     4  11  22  44  67 104 144 188 251 303 377 445
#     4  11  25  44  71 114 138 199 250 312 373 453
#     4  11  23  45  72  99 145 192 247 305 375 443
#
# _framework density 28.240586
#
# number of rings (size 3 to 8) (size 9 to 14) (size 15 to 20)
#    0.000    1.333    1.667    3.000    0.000    4.000 
#   30.000    0.000    0.000    0.000    0.000    0.000 
#    0.000    0.000    0.000    0.000    0.000    0.000 
#
# Total GULP energy -148738.917348 kJ/mol
# GULP energy per Si atom -12394.909779 kJ/mol
# Density = 2.817631 g / cm^3
# Si number density = 28.240586 Si / 1000 Ang^3
#
#
#
# Elastic Constant Matrix: (Units=GPa)
#
#
# Indices 1 2 3 4 5 6 
#
# 1 143.0611 66.8973 40.4113 0.0000 -39.0711 0.0000
# 2 66.8973 172.9791 46.9681 0.0000 -12.6829 0.0000
# 3 40.4113 46.9681 93.5572 0.0000 -22.0561 0.0000
# 4 0.0000 0.0000 0.0000 48.2303 0.0000 -6.9988
# 5 -39.0711 -12.6829 -22.0561 0.0000 26.3126 0.0000
# 6 0.0000 0.0000 0.0000 -6.9988 0.0000 39.7591
#
#
#
# Elastic Compliance Matrix: (Units=1/GPa)
#
#
# Indices 1 2 3 4 5 6 
#
# 1 0.014068 -0.004180 0.000588 0.000000 0.019367 0.000000
# 2 -0.004180 0.007941 -0.003417 0.000000 -0.005244 0.000000
# 3 0.000588 -0.003417 0.014915 0.000000 0.011728 0.000000
# 4 0.000000 0.000000 0.000000 0.021277 0.000000 0.003745
# 5 0.019367 -0.005244 0.011728 0.000000 0.074066 0.000000
# 6 0.000000 0.000000 0.000000 0.003745 0.000000 0.025811
#
#
# Mechanical properties :
#
#
# Convention : Reuss Voigt Hill
#
# Bulk Modulus (GPa) = 43.65860 79.79454 61.72657
# Shear Modulus (GPa) = 27.81905 39.88178 33.85042
#
# Velocity S-wave (km/s) = 3.14199 3.76202 3.46590
# Velocity P-wave (km/s) = 5.35312 6.86928 6.15804
#
# Compressibility (1/GPa) = 0.02290500
#
# Stress axis : x y z
#
# Youngs Moduli (GPa) = 71.08299 125.92761 67.04570
#
# Poissons Ratio (x) = 0.52641 -0.03941
# Poissons Ratio (y) = 0.29714 0.22911
# Poissons Ratio (z) = -0.04178 0.43033
#
# Static dielectric constant tensor:
#      x y z
#    x 5.917300 0.000000 0.115090 
#    y 0.000000 5.773490 0.000000 
#    z 0.115090 0.000000 4.972280 
# 
# 
# High freq. dielectric constant tensor:
#      x y z
#    x 2.170600 0.000000 0.004610 
#    y 0.000000 2.186130 0.000000 
#    z 0.004610 0.000000 2.130250 
# 
# From -- ./inp_files/2351.got.cif
#   From: 2010.03.12/outbox.cif.g09.slc.cpg/sg4_2_cif.got.tgz:2351.got - 2010.03.31 09:31:35.
