data_PCOD8046742
_publ_section_title
;
Structure prediction by ZEFSAII (Michael W. Deem and Ramdas Pophale) SiO2 
 PCOD8046742
Probable space group: P 21
;
_chemical_formula_sum "Si O2"
_cell_formula_units_Z 16
_cell_length_a 16.966505
_cell_length_b 5.618825
_cell_length_c 19.836457
_cell_angle_alpha 90.000000
_cell_angle_beta 21.207656
_cell_angle_gamma 90.000000
_cell_volume 684.084130
_symmetry_space_group_name_H-M "P 21"
_symmetry_group_IT_number 4
_symmetry_cell_setting 'monoclinic'
loop_
_space_group_symop_operation_xyz
x,y,z
-x,1/2+y,-z
loop_
_atom_site_type_symbol
_atom_site_label
_atom_site_fract_x
_atom_site_fract_y
_atom_site_fract_z
Si Si1 0.883365 0.189190 0.539276
Si Si2 0.176680 0.984303 0.538957
Si Si3 0.694415 0.130001 0.942571
Si Si4 0.408601 0.016652 0.598742
Si Si5 0.546992 0.689270 0.291433
Si Si6 0.711754 0.423245 0.799908
Si Si7 0.033065 0.432216 0.011986
Si Si8 0.550678 0.854890 0.741441
O O1 0.814991 0.405909 0.546124
O O2 0.844902 0.233508 0.648946
O O3 0.740881 0.958700 0.636341
O O4 0.142670 0.160366 0.319867
O O5 0.301203 0.795663 0.487410
O O6 0.324779 0.218610 0.418473
O O7 0.933634 0.017861 0.761008
O O8 0.702113 0.353549 0.885835
O O9 0.613650 0.204136 0.081018
O O10 0.528532 0.943279 0.040399
O O11 0.538371 0.787069 0.467891
O O12 0.154911 0.972524 0.781807
O O13 0.431288 0.016533 0.661685
O O14 0.590365 0.550338 0.186655
O O15 0.725689 0.902504 0.149701
O O16 0.030784 0.674946 0.970069
#
# Coordination Sequence:
#
# PCOD8046742 Si02
#       8
#     2   2   2   2   2   2   2   2
#     4  11  22  43  66  97 133 187 227 308 369 428
#     4  11  24  47  67  98 148 181 239 291 364 441
#     4  12  24  42  69 101 133 184 247 304 348 443
#     4  11  24  47  77 118 151 180 246 307 352 434
#     4  10  26  47  75  96 146 200 220 293 370 429
#     4  12  22  40  70  97 133 179 247 301 375 408
#     4  10  22  45  77 108 147 191 241 287 357 434
#     4  11  24  47  67  97 145 184 239 287 369 441
#
# _framework density 23.388933999999999
#
# number of rings (size 3 to 8) (size 9 to 14) (size 15 to 20)
#    0.000    1.000    2.500    4.500    5.250    0.000 
#    4.500    0.000    0.000    0.000    0.000    0.000 
#    0.000    0.000    0.000    0.000    0.000    0.000 
#
# Total GULP energy -198247.797141 kJ/mol
# GULP energy per Si atom -12390.487321 kJ/mol
# Density = 2.333570 g / cm^3
# Si number density = 23.388934 Si / 1000 Ang^3
#
#
#
# Elastic Constant Matrix: (Units=GPa)
#
#
# Indices 1 2 3 4 5 6 
#
# 1 77.5839 19.4350 41.0055 0.0000 -16.0208 0.0000
# 2 19.4350 100.2216 38.1568 0.0000 -8.8520 0.0000
# 3 41.0055 38.1568 163.4360 0.0000 -17.8547 0.0000
# 4 0.0000 0.0000 0.0000 51.5431 0.0000 -0.2377
# 5 -16.0208 -8.8520 -17.8547 0.0000 30.6507 0.0000
# 6 0.0000 0.0000 0.0000 -0.2377 0.0000 32.5717
#
#
#
# Elastic Compliance Matrix: (Units=1/GPa)
#
#
# Indices 1 2 3 4 5 6 
#
# 1 0.016142 -0.001422 -0.003034 0.000000 0.006259 0.000000
# 2 -0.001422 0.011169 -0.002114 0.000000 0.001251 0.000000
# 3 -0.003034 -0.002114 0.007618 0.000000 0.002241 0.000000
# 4 0.000000 0.000000 0.000000 0.019402 0.000000 0.000142
# 5 0.006259 0.001251 0.002241 0.000000 0.037564 0.000000
# 6 0.000000 0.000000 0.000000 0.000142 0.000000 0.030702
#
#
# Mechanical properties :
#
#
# Convention : Reuss Voigt Hill
#
# Bulk Modulus (GPa) = 45.89666 59.82625 52.86145
# Shear Modulus (GPa) = 34.96482 39.12939 37.04711
#
# Velocity S-wave (km/s) = 3.87063 4.09465 3.98422
# Velocity P-wave (km/s) = 6.29615 6.92743 6.61932
#
# Compressibility (1/GPa) = 0.02178808
#
# Stress axis : x y z
#
# Youngs Moduli (GPa) = 61.95173 89.53303 131.26330
#
# Poissons Ratio (x) = 0.12734 0.39826
# Poissons Ratio (y) = 0.08811 0.27751
# Poissons Ratio (z) = 0.18797 0.18928
#
# Static dielectric constant tensor:
#      x y z
#    x 4.062630 0.000000 -0.225420 
#    y 0.000000 4.248100 0.000000 
#    z -0.225420 0.000000 4.527520 
# 
# 
# High freq. dielectric constant tensor:
#      x y z
#    x 1.908520 0.000000 -0.012260 
#    y 0.000000 1.931590 0.000000 
#    z -0.012260 0.000000 1.935890 
# 
# From -- ./inp_files/15872.got.cif
#   From: 2010.03.12/outbox.cif.g09.slc.cpg/sg4_8_cif.got.tgz:15872.got - 2010.03.31 09:31:35.
