data_PCOD8046847
_publ_section_title
;
Structure prediction by ZEFSAII (Michael W. Deem and Ramdas Pophale) SiO2 
 PCOD8046847
Probable space group: P 21
;
_chemical_formula_sum "Si O2"
_cell_formula_units_Z 16
_cell_length_a 8.717290
_cell_length_b 12.520353
_cell_length_c 9.146115
_cell_angle_alpha 90.000000
_cell_angle_beta 132.619370
_cell_angle_gamma 90.000000
_cell_volume 734.572674
_symmetry_space_group_name_H-M "P 21"
_symmetry_group_IT_number 4
_symmetry_cell_setting 'monoclinic'
loop_
_space_group_symop_operation_xyz
x,y,z
-x,1/2+y,-z
loop_
_atom_site_type_symbol
_atom_site_label
_atom_site_fract_x
_atom_site_fract_y
_atom_site_fract_z
Si Si1 0.354126 0.625000 0.200504
Si Si2 0.142677 0.296066 0.427357
Si Si3 0.779022 0.607579 0.322445
Si Si4 0.197868 0.853301 0.018246
Si Si5 0.842720 0.975968 0.350652
Si Si6 0.633369 0.639004 0.623077
Si Si7 0.001913 0.976822 0.143605
Si Si8 0.580804 0.572762 0.902172
O O1 0.559412 0.577578 0.255269
O O2 0.405367 0.614174 0.407040
O O3 0.330813 0.748263 0.138851
O O4 0.149618 0.558304 0.037769
O O5 0.101542 0.204457 0.521199
O O6 0.245899 0.389776 0.590849
O O7 0.296807 0.252864 0.400214
O O8 0.931689 0.331709 0.212352
O O9 0.942037 0.511939 0.436660
O O10 0.721406 0.629075 0.116077
O O11 0.054496 0.880351 0.067386
O O12 0.348310 0.952039 0.083505
O O13 0.895726 0.930689 0.222354
O O14 0.665043 0.066967 0.215989
O O15 0.612344 0.648634 0.782759
O O16 0.796541 0.546514 0.681752
#
# Coordination Sequence:
#
# PCOD8046847 Si02
#       8
#     2   2   2   2   2   2   2   2
#     4  11  21  45  71  94 142 184 215 286 349 399
#     4  11  23  43  67  95 146 173 223 285 341 398
#     4  11  23  43  71 100 138 181 226 286 340 403
#     4  11  24  44  71 102 136 181 226 283 349 416
#     4  12  23  45  71 104 135 178 232 291 337 405
#     4  10  23  42  67  99 136 181 223 273 341 408
#     4  11  23  43  70 101 137 174 233 283 338 405
#     4  11  24  41  72 103 136 182 230 275 349 406
#
# _framework density 21.781372000000001
#
# number of rings (size 3 to 8) (size 9 to 14) (size 15 to 20)
#    0.000    1.000    6.250    1.500    1.750    1.000 
#    2.250    0.000    0.000    0.000    0.000    0.000 
#    0.000    0.000    0.000    0.000    0.000    0.000 
#
# Total GULP energy -198321.706027 kJ/mol
# GULP energy per Si atom -12395.106627 kJ/mol
# Density = 2.173180 g / cm^3
# Si number density = 21.781372 Si / 1000 Ang^3
#
#
#
# Elastic Constant Matrix: (Units=GPa)
#
#
# Indices 1 2 3 4 5 6 
#
# 1 98.7993 26.9642 44.3796 0.0000 -18.1674 0.0000
# 2 26.9642 54.2873 35.0395 0.0000 0.8256 0.0000
# 3 44.3796 35.0395 166.4124 0.0000 -18.2471 0.0000
# 4 0.0000 0.0000 0.0000 40.9077 0.0000 -8.6058
# 5 -18.1674 0.8256 -18.2471 0.0000 39.3163 0.0000
# 6 0.0000 0.0000 0.0000 -8.6058 0.0000 20.3511
#
#
#
# Elastic Compliance Matrix: (Units=1/GPa)
#
#
# Indices 1 2 3 4 5 6 
#
# 1 0.013478 -0.005610 -0.001809 0.000000 0.005506 0.000000
# 2 -0.005610 0.023922 -0.004088 0.000000 -0.004992 0.000000
# 3 -0.001809 -0.004088 0.007660 0.000000 0.002805 0.000000
# 4 0.000000 0.000000 0.000000 0.026832 0.000000 0.011346
# 5 0.005506 -0.004992 0.002805 0.000000 0.029386 0.000000
# 6 0.000000 0.000000 0.000000 0.011346 0.000000 0.053936
#
#
# Mechanical properties :
#
#
# Convention : Reuss Voigt Hill
#
# Bulk Modulus (GPa) = 45.36352 59.14059 52.25206
# Shear Modulus (GPa) = 26.94307 34.32271 30.63289
#
# Velocity S-wave (km/s) = 3.52088 3.97392 3.75424
# Velocity P-wave (km/s) = 6.11562 6.94744 6.54476
#
# Compressibility (1/GPa) = 0.02204414
#
# Stress axis : x y z
#
# Youngs Moduli (GPa) = 74.19581 41.80304 130.54782
#
# Poissons Ratio (x) = 0.23453 0.23620
# Poissons Ratio (y) = 0.41626 0.53370
# Poissons Ratio (z) = 0.13424 0.17090
#
# Static dielectric constant tensor:
#      x y z
#    x 3.805700 0.000000 -0.128110 
#    y 0.000000 3.670760 0.000000 
#    z -0.128110 0.000000 4.382550 
# 
# 
# High freq. dielectric constant tensor:
#      x y z
#    x 1.844980 0.000000 -0.002550 
#    y 0.000000 1.827210 0.000000 
#    z -0.002550 0.000000 1.890390 
# 
# From -- ./inp_files/6387.got.cif
#   From: 2010.03.12/outbox.cif.g09.slc.cpg/sg4_4_cif.got.tgz:6387.got - 2010.03.31 09:31:35.
