data_PCOD8046712
_publ_section_title
;
Structure prediction by ZEFSAII (Michael W. Deem and Ramdas Pophale) SiO2 
 PCOD8046712
Probable space group: P 21
;
_chemical_formula_sum "Si O2"
_cell_formula_units_Z 14
_cell_length_a 16.495392
_cell_length_b 5.326893
_cell_length_c 7.116083
_cell_angle_alpha 90.000000
_cell_angle_beta 78.277962
_cell_angle_gamma 90.000000
_cell_volume 612.243966
_symmetry_space_group_name_H-M "P 21"
_symmetry_group_IT_number 4
_symmetry_cell_setting 'monoclinic'
loop_
_space_group_symop_operation_xyz
x,y,z
-x,1/2+y,-z
loop_
_atom_site_type_symbol
_atom_site_label
_atom_site_fract_x
_atom_site_fract_y
_atom_site_fract_z
Si Si1 0.902147 0.189770 0.099236
Si Si2 0.989309 0.392314 0.711221
Si Si3 0.733468 0.482734 0.784760
Si Si4 0.589297 0.503925 0.593615
Si Si5 0.250774 0.479247 0.989929
Si Si6 0.125135 0.038480 0.567348
Si Si7 0.400106 0.504320 0.643724
O O1 0.862876 0.419553 0.232574
O O2 0.930509 0.228124 0.871570
O O3 0.827210 0.988646 0.116199
O O4 0.987232 0.133876 0.174612
O O5 0.942245 0.406562 0.537339
O O6 0.083683 0.306867 0.622833
O O7 0.637499 0.493780 0.768954
O O8 0.755404 0.211808 0.860814
O O9 0.786258 0.540342 0.572401
O O10 0.754475 0.705666 0.916469
O O11 0.492229 0.501680 0.686368
O O12 0.615125 0.258009 0.465043
O O13 0.614773 0.758359 0.474922
O O14 0.337698 0.503715 0.845116
#
# Coordination Sequence:
#
# PCOD8046712 Si02
#       7
#     2   2   2   2   2   2   2
#     4  12  27  44  68  96 136 182 233 292 345 409
#     4  12  26  44  68  96 130 182 238 284 350 406
#     4  12  28  44  68 102 142 180 229 285 342 414
#     4  10  22  44  73 102 136 180 229 279 343 412
#     4  12  28  44  68 102 142 180 229 285 342 414
#     4  12  27  44  68  96 136 182 233 292 345 409
#     4  10  22  44  73 102 136 180 229 279 343 412
#
# _framework density 22.866700999999999
#
# number of rings (size 3 to 8) (size 9 to 14) (size 15 to 20)
#    0.000    0.571    4.286    2.571   10.000    1.143 
#    0.000    0.000    0.000    0.000    0.000    0.000 
#    0.000    0.000    0.000    0.000    0.000    0.000 
#
# Total GULP energy -173505.220006 kJ/mol
# GULP energy per Si atom -12393.230000 kJ/mol
# Density = 2.281466 g / cm^3
# Si number density = 22.866701 Si / 1000 Ang^3
#
#
#
# Elastic Constant Matrix: (Units=GPa)
#
#
# Indices 1 2 3 4 5 6 
#
# 1 100.3031 7.8299 22.4912 0.0000 9.4335 0.0000
# 2 7.8299 90.8661 8.0634 0.0000 4.1059 0.0000
# 3 22.4912 8.0634 76.2151 0.0000 -8.6828 0.0000
# 4 0.0000 0.0000 0.0000 32.7782 0.0000 2.9566
# 5 9.4335 4.1059 -8.6828 0.0000 56.2953 0.0000
# 6 0.0000 0.0000 0.0000 2.9566 0.0000 23.7966
#
#
#
# Elastic Compliance Matrix: (Units=1/GPa)
#
#
# Indices 1 2 3 4 5 6 
#
# 1 0.011007 -0.000536 -0.003458 0.000000 -0.002339 0.000000
# 2 -0.000536 0.011192 -0.001129 0.000000 -0.000901 0.000000
# 3 -0.003458 -0.001129 0.014592 0.000000 0.002912 0.000000
# 4 0.000000 0.000000 0.000000 0.030854 0.000000 -0.003833
# 5 -0.002339 -0.000901 0.002912 0.000000 0.018670 0.000000
# 6 0.000000 0.000000 0.000000 -0.003833 0.000000 0.042499
#
#
# Mechanical properties :
#
#
# Convention : Reuss Voigt Hill
#
# Bulk Modulus (GPa) = 37.66934 38.23923 37.95429
# Shear Modulus (GPa) = 33.80470 37.84068 35.82269
#
# Velocity S-wave (km/s) = 3.84909 4.07238 3.96231
# Velocity P-wave (km/s) = 6.02189 6.23469 6.12921
#
# Compressibility (1/GPa) = 0.02654679
#
# Stress axis : x y z
#
# Youngs Moduli (GPa) = 90.85178 89.34769 68.52892
#
# Poissons Ratio (x) = 0.04788 0.23697
# Poissons Ratio (y) = 0.04869 0.07734
# Poissons Ratio (z) = 0.31416 0.10083
#
# Static dielectric constant tensor:
#      x y z
#    x 4.327450 0.000000 -0.000300 
#    y 0.000000 4.284120 0.000000 
#    z -0.000300 0.000000 4.104900 
# 
# 
# High freq. dielectric constant tensor:
#      x y z
#    x 1.919870 0.000000 0.002570 
#    y 0.000000 1.905010 0.000000 
#    z 0.002570 0.000000 1.903550 
# 
# From -- ./inp_files/3308.got.cif
#   From: 2010.03.12/outbox.cif.g09.slc.cpg/sg4_2_cif.got.tgz:3308.got - 2010.03.31 09:31:35.
