data_PCOD8046668
_publ_section_title
;
Structure prediction by ZEFSAII (Michael W. Deem and Ramdas Pophale) SiO2 
 PCOD8046668
Probable space group: P 21
;
_chemical_formula_sum "Si O2"
_cell_formula_units_Z 14
_cell_length_a 5.448361
_cell_length_b 10.841959
_cell_length_c 9.986687
_cell_angle_alpha 90.000000
_cell_angle_beta 69.790691
_cell_angle_gamma 90.000000
_cell_volume 553.605193
_symmetry_space_group_name_H-M "P 21"
_symmetry_group_IT_number 4
_symmetry_cell_setting 'monoclinic'
loop_
_space_group_symop_operation_xyz
x,y,z
-x,1/2+y,-z
loop_
_atom_site_type_symbol
_atom_site_label
_atom_site_fract_x
_atom_site_fract_y
_atom_site_fract_z
Si Si1 0.475740 0.006310 0.127379
Si Si2 0.977115 0.371173 0.961478
Si Si3 0.421837 0.755997 0.785470
Si Si4 0.975970 0.693087 0.272921
Si Si5 0.193735 0.474090 0.349907
Si Si6 0.539671 0.147838 0.508638
Si Si7 0.764684 0.375387 0.595416
O O1 0.494610 0.155752 0.115205
O O2 0.252135 0.950454 0.071488
O O3 0.397462 0.980934 0.297695
O O4 0.765153 0.948443 0.048265
O O5 0.063916 0.243927 0.869333
O O6 0.848312 0.323894 0.124083
O O7 0.382526 0.679451 0.657083
O O8 0.640522 0.860206 0.733908
O O9 0.200335 0.585158 0.237234
O O10 0.024872 0.818209 0.344060
O O11 0.757596 0.617583 0.397426
O O12 0.292330 0.530805 0.473774
O O13 0.903862 0.424442 0.435884
O O14 0.566991 0.268980 0.593555
#
# Coordination Sequence:
#
# PCOD8046668 Si02
#       7
#     2   2   2   2   2   2   2
#     4  11  27  51  78 106 157 201 257 316 385 466
#     4  11  28  52  76 108 153 208 259 315 387 459
#     4  12  29  46  79 115 148 205 257 320 391 459
#     4  10  22  45  72  98 147 200 251 315 385 452
#     4  11  26  42  73 113 147 194 262 326 382 463
#     4  11  24  45  73 110 148 193 258 323 391 453
#     4  10  22  43  71 106 146 195 250 313 389 452
#
# _framework density 25.288779000000002
#
# number of rings (size 3 to 8) (size 9 to 14) (size 15 to 20)
#    0.000    1.143    2.857    0.857   12.000    3.429 
#    0.000    0.000    0.000    0.000    0.000    0.000 
#    0.000    0.000    0.000    0.000    0.000    0.000 
#
# Total GULP energy -173449.416220 kJ/mol
# GULP energy per Si atom -12389.244016 kJ/mol
# Density = 2.523122 g / cm^3
# Si number density = 25.288779 Si / 1000 Ang^3
#
#
#
# Elastic Constant Matrix: (Units=GPa)
#
#
# Indices 1 2 3 4 5 6 
#
# 1 83.1803 40.0000 34.1493 0.0000 -18.7869 0.0000
# 2 40.0000 154.0594 30.4145 0.0000 -12.6046 0.0000
# 3 34.1493 30.4145 79.3449 0.0000 -17.7544 0.0000
# 4 0.0000 0.0000 0.0000 18.6946 0.0000 -7.0489
# 5 -18.7869 -12.6046 -17.7544 0.0000 36.0008 0.0000
# 6 0.0000 0.0000 0.0000 -7.0489 0.0000 17.7807
#
#
#
# Elastic Compliance Matrix: (Units=1/GPa)
#
#
# Indices 1 2 3 4 5 6 
#
# 1 0.016606 -0.002924 -0.004851 0.000000 0.005249 0.000000
# 2 -0.002924 0.007590 -0.001571 0.000000 0.000357 0.000000
# 3 -0.004851 -0.001571 0.016415 0.000000 0.005014 0.000000
# 4 0.000000 0.000000 0.000000 0.062892 0.000000 0.024933
# 5 0.005249 0.000357 0.005014 0.000000 0.033114 0.000000
# 6 0.000000 0.000000 0.000000 0.024933 0.000000 0.066125
#
#
# Mechanical properties :
#
#
# Convention : Reuss Voigt Hill
#
# Bulk Modulus (GPa) = 45.62602 58.41249 52.01926
# Shear Modulus (GPa) = 21.85888 28.62996 25.24442
#
# Velocity S-wave (km/s) = 2.94321 3.36835 3.16293
# Velocity P-wave (km/s) = 5.44345 6.18676 5.82697
#
# Compressibility (1/GPa) = 0.02191732
#
# Stress axis : x y z
#
# Youngs Moduli (GPa) = 60.22070 131.76018 60.91896
#
# Poissons Ratio (x) = 0.38530 0.29554
# Poissons Ratio (y) = 0.17610 0.09570
# Poissons Ratio (z) = 0.29216 0.20698
#
# Static dielectric constant tensor:
#      x y z
#    x 4.411180 0.000000 -0.042130 
#    y 0.000000 4.679920 0.000000 
#    z -0.042130 0.000000 4.633160 
# 
# 
# High freq. dielectric constant tensor:
#      x y z
#    x 1.994170 0.000000 -0.011070 
#    y 0.000000 2.035210 0.000000 
#    z -0.011070 0.000000 2.002620 
# 
# From -- ./inp_files/1198.got.cif
#   From: 2010.03.12/outbox.cif.g09.slc.cpg/sg4_1_cif.got.tgz:1198.got - 2010.03.31 09:31:35.
