data_PCOD8046932
_publ_section_title
;
Structure prediction by ZEFSAII (Michael W. Deem and Ramdas Pophale) SiO2 
 PCOD8046932
Probable space group: P 21
;
_chemical_formula_sum "Si O2"
_cell_formula_units_Z 16
_cell_length_a 6.539358
_cell_length_b 8.754791
_cell_length_c 15.204531
_cell_angle_alpha 90.000000
_cell_angle_beta 55.078185
_cell_angle_gamma 90.000000
_cell_volume 713.728120
_symmetry_space_group_name_H-M "P 21"
_symmetry_group_IT_number 4
_symmetry_cell_setting 'monoclinic'
loop_
_space_group_symop_operation_xyz
x,y,z
-x,1/2+y,-z
loop_
_atom_site_type_symbol
_atom_site_label
_atom_site_fract_x
_atom_site_fract_y
_atom_site_fract_z
Si Si1 0.413179 0.278690 0.102878
Si Si2 0.848375 0.232865 0.270825
Si Si3 0.326462 0.432980 0.768405
Si Si4 0.691422 0.476913 0.178522
Si Si5 0.288293 0.707598 0.339543
Si Si6 0.325513 0.597327 0.513023
Si Si7 0.751295 0.985339 0.014845
Si Si8 0.803746 0.778861 0.367174
O O1 0.524095 0.382431 0.152125
O O2 0.145518 0.212308 0.196327
O O3 0.603648 0.141886 0.041430
O O4 0.374195 0.368715 0.021930
O O5 0.748389 0.391700 0.256679
O O6 0.773120 0.215429 0.390280
O O7 0.710709 0.109847 0.243183
O O8 0.612833 0.382824 0.674024
O O9 0.266841 0.406472 0.885153
O O10 0.156407 0.332738 0.743428
O O11 0.532132 0.625489 0.239969
O O12 0.957344 0.520920 0.071693
O O13 0.186854 0.632960 0.454957
O O14 0.064587 0.704610 0.327222
O O15 0.613643 0.638670 0.424212
O O16 0.281768 0.422117 0.551199
#
# Coordination Sequence:
#
# PCOD8046932 Si02
#       8
#     2   2   2   2   2   2   2   2
#     4  11  27  44  72 102 131 188 229 289 346 419
#     4  10  23  45  69  98 135 183 231 284 348 413
#     4  10  24  43  68  96 141 175 233 281 340 409
#     4  11  26  45  67 102 143 181 228 293 341 414
#     4  11  26  42  70 107 137 184 231 290 344 415
#     4  10  23  44  69  99 139 176 234 291 346 404
#     4  11  27  45  70 101 138 181 234 286 351 409
#     4  10  24  44  69 101 136 190 226 292 346 413
#
# _framework density 22.417501999999999
#
# number of rings (size 3 to 8) (size 9 to 14) (size 15 to 20)
#    0.000    1.500    1.250    0.750    8.750   10.000 
#    0.000    0.000    0.000    0.000    0.000    0.000 
#    0.000    0.000    0.000    0.000    0.000    0.000 
#
# Total GULP energy -198358.740534 kJ/mol
# GULP energy per Si atom -12397.421283 kJ/mol
# Density = 2.236648 g / cm^3
# Si number density = 22.417502 Si / 1000 Ang^3
#
#
#
# Elastic Constant Matrix: (Units=GPa)
#
#
# Indices 1 2 3 4 5 6 
#
# 1 98.1469 41.7271 40.8016 0.0000 13.0420 0.0000
# 2 41.7271 75.6189 36.9629 0.0000 -9.2395 0.0000
# 3 40.8016 36.9629 112.0082 0.0000 23.8506 0.0000
# 4 0.0000 0.0000 0.0000 31.3966 0.0000 -3.8419
# 5 13.0420 -9.2395 23.8506 0.0000 39.2931 0.0000
# 6 0.0000 0.0000 0.0000 -3.8419 0.0000 38.5926
#
#
#
# Elastic Compliance Matrix: (Units=1/GPa)
#
#
# Indices 1 2 3 4 5 6 
#
# 1 0.015188 -0.008427 -0.001443 0.000000 -0.006147 0.000000
# 2 -0.008427 0.022902 -0.007155 0.000000 0.012525 0.000000
# 3 -0.001443 -0.007155 0.013863 0.000000 -0.009618 0.000000
# 4 0.000000 0.000000 0.000000 0.032243 0.000000 0.003210
# 5 -0.006147 0.012525 -0.009618 0.000000 0.036273 0.000000
# 6 0.000000 0.000000 0.000000 0.003210 0.000000 0.026231
#
#
# Mechanical properties :
#
#
# Convention : Reuss Voigt Hill
#
# Bulk Modulus (GPa) = 55.85543 58.30635 57.08089
# Shear Modulus (GPa) = 26.77835 32.94195 29.86015
#
# Velocity S-wave (km/s) = 3.45994 3.83753 3.65362
# Velocity P-wave (km/s) = 6.39779 6.76027 6.58153
#
# Compressibility (1/GPa) = 0.01790336
#
# Stress axis : x y z
#
# Youngs Moduli (GPa) = 65.84138 43.66437 72.13532
#
# Poissons Ratio (x) = 0.36794 0.10409
# Poissons Ratio (y) = 0.55482 0.51614
# Poissons Ratio (z) = 0.09500 0.31243
#
# Static dielectric constant tensor:
#      x y z
#    x 4.203700 0.000000 0.189280 
#    y 0.000000 4.098900 0.000000 
#    z 0.189280 0.000000 4.121890 
# 
# 
# High freq. dielectric constant tensor:
#      x y z
#    x 1.896490 0.000000 0.012960 
#    y 0.000000 1.887720 0.000000 
#    z 0.012960 0.000000 1.886770 
# 
# From -- ./inp_files/11950.got.cif
#   From: 2010.03.12/outbox.cif.g09.slc.cpg/sg4_6_cif.got.tgz:11950.got - 2010.03.31 09:31:35.
