data_PCOD8046650
_publ_section_title
;
Structure prediction by ZEFSAII (Michael W. Deem and Ramdas Pophale) SiO2 
 PCOD8046650
Probable space group: P 21
;
_chemical_formula_sum "Si O2"
_cell_formula_units_Z 16
_cell_length_a 6.741513
_cell_length_b 8.791806
_cell_length_c 15.935220
_cell_angle_alpha 90.000000
_cell_angle_beta 49.196936
_cell_angle_gamma 90.000000
_cell_volume 714.934955
_symmetry_space_group_name_H-M "P 21"
_symmetry_group_IT_number 4
_symmetry_cell_setting 'monoclinic'
loop_
_space_group_symop_operation_xyz
x,y,z
-x,1/2+y,-z
loop_
_atom_site_type_symbol
_atom_site_label
_atom_site_fract_x
_atom_site_fract_y
_atom_site_fract_z
Si Si1 0.460125 0.973910 0.046100
Si Si2 0.130357 0.421213 0.776891
Si Si3 0.339316 0.186227 0.936442
Si Si4 0.199577 0.822094 0.515080
Si Si5 0.474211 0.611787 0.566344
Si Si6 0.744299 0.138933 0.109505
Si Si7 0.480791 0.683945 0.295599
Si Si8 0.399601 0.334369 0.322303
O O1 0.645746 0.827463 0.002859
O O2 0.176345 0.914982 0.151272
O O3 0.563706 0.104209 0.079656
O O4 0.442807 0.036193 0.956137
O O5 0.231667 0.521519 0.672219
O O6 0.230139 0.493698 0.837018
O O7 0.246012 0.250575 0.742723
O O8 0.521948 0.204579 0.804450
O O9 0.033364 0.180477 0.995997
O O10 0.374397 0.691065 0.509684
O O11 0.246371 0.785727 0.402443
O O12 0.898492 0.810870 0.626295
O O13 0.290843 0.992196 0.514796
O O14 0.572834 0.744341 0.599437
O O15 0.606713 0.279070 0.195330
O O16 0.458714 0.508826 0.326407
#
# Coordination Sequence:
#
# PCOD8046650 Si02
#       8
#     2   2   2   2   2   2   2   2
#     4  11  24  44  67  99 133 181 229 270 346 407
#     4   9  21  43  64  96 134 179 222 277 338 391
#     4  11  27  42  69 102 136 181 226 281 342 402
#     4  11  23  45  68  97 138 177 228 276 340 401
#     4  10  22  43  66  97 132 178 223 281 334 393
#     4  10  23  43  69  95 140 175 220 290 333 396
#     4  11  24  44  65 101 139 176 225 285 333 400
#     4  11  24  42  70  99 132 179 227 274 340 402
#
# _framework density 22.379657000000002
#
# number of rings (size 3 to 8) (size 9 to 14) (size 15 to 20)
#    0.000    1.500    1.250    2.250    5.250    0.000 
#   13.500    0.000    0.000    0.000    0.000    0.000 
#    0.000    0.000    0.000    0.000    0.000    0.000 
#
# Total GULP energy -198401.652641 kJ/mol
# GULP energy per Si atom -12400.103290 kJ/mol
# Density = 2.232872 g / cm^3
# Si number density = 22.379657 Si / 1000 Ang^3
#
#
#
# Elastic Constant Matrix: (Units=GPa)
#
#
# Indices 1 2 3 4 5 6 
#
# 1 107.8061 44.6673 38.4977 0.0000 -6.3311 0.0000
# 2 44.6673 136.6906 28.4197 0.0000 -3.2883 0.0000
# 3 38.4977 28.4197 88.5025 0.0000 2.7245 0.0000
# 4 0.0000 0.0000 0.0000 28.0646 0.0000 1.0004
# 5 -6.3311 -3.2883 2.7245 0.0000 23.9323 0.0000
# 6 0.0000 0.0000 0.0000 1.0004 0.0000 38.1997
#
#
#
# Elastic Compliance Matrix: (Units=1/GPa)
#
#
# Indices 1 2 3 4 5 6 
#
# 1 0.012328 -0.003012 -0.004499 0.000000 0.003359 0.000000
# 2 -0.003012 0.008620 -0.001475 0.000000 0.000555 0.000000
# 3 -0.004499 -0.001475 0.013821 0.000000 -0.002966 0.000000
# 4 0.000000 0.000000 0.000000 0.035665 0.000000 -0.000934
# 5 0.003359 0.000555 -0.002966 0.000000 0.043087 0.000000
# 6 0.000000 0.000000 0.000000 -0.000934 0.000000 0.026203
#
#
# Mechanical properties :
#
#
# Convention : Reuss Voigt Hill
#
# Bulk Modulus (GPa) = 59.53337 61.79653 60.66495
# Shear Modulus (GPa) = 30.61950 32.80028 31.70989
#
# Velocity S-wave (km/s) = 3.70291 3.83251 3.76827
# Velocity P-wave (km/s) = 6.70383 6.87437 6.78963
#
# Compressibility (1/GPa) = 0.01679730
#
# Stress axis : x y z
#
# Youngs Moduli (GPa) = 81.11798 116.00740 72.35444
#
# Poissons Ratio (x) = 0.34945 0.32549
# Poissons Ratio (y) = 0.24435 0.10671
# Poissons Ratio (z) = 0.36491 0.17109
#
# Static dielectric constant tensor:
#      x y z
#    x 3.852870 0.000000 -0.025650 
#    y 0.000000 4.097250 0.000000 
#    z -0.025650 0.000000 3.989220 
# 
# 
# High freq. dielectric constant tensor:
#      x y z
#    x 1.873590 0.000000 0.000000 
#    y 0.000000 1.894040 0.000000 
#    z 0.000000 0.000000 1.880050 
# 
# From -- ./inp_files/13292.got.cif
#   From: 2010.03.12/outbox.cif.g09.slc.cpg/sg4_7_cif.got.tgz:13292.got - 2010.03.31 09:31:35.
