data_PCOD8046287
_publ_section_title
;
Structure prediction by ZEFSAII (Michael W. Deem and Ramdas Pophale) SiO2 
 PCOD8046287
Probable space group: P 21
;
_chemical_formula_sum "Si O2"
_cell_formula_units_Z 16
_cell_length_a 8.021543
_cell_length_b 13.023837
_cell_length_c 6.785783
_cell_angle_alpha 90.000000
_cell_angle_beta 97.255071
_cell_angle_gamma 90.000000
_cell_volume 703.243591
_symmetry_space_group_name_H-M "P 21"
_symmetry_group_IT_number 4
_symmetry_cell_setting 'monoclinic'
loop_
_space_group_symop_operation_xyz
x,y,z
-x,1/2+y,-z
loop_
_atom_site_type_symbol
_atom_site_label
_atom_site_fract_x
_atom_site_fract_y
_atom_site_fract_z
Si Si1 0.411366 0.647630 0.323785
Si Si2 0.453690 0.016144 0.994898
Si Si3 0.899915 0.475236 0.588436
Si Si4 0.328551 0.149829 0.309924
Si Si5 0.804607 0.938046 0.111717
Si Si6 0.065486 0.546161 0.238036
Si Si7 0.747865 0.333405 0.878577
Si Si8 0.917166 0.735884 0.002257
O O1 0.508253 0.555912 0.220543
O O2 0.517518 0.686242 0.529483
O O3 0.223453 0.609219 0.357111
O O4 0.394489 0.748204 0.182957
O O5 0.616693 0.971095 0.129658
O O6 0.399045 0.113542 0.111359
O O7 0.316344 0.924832 0.987982
O O8 0.763254 0.563154 0.580973
O O9 0.816372 0.373758 0.674390
O O10 0.957890 0.474882 0.370336
O O11 0.071287 0.501857 0.729853
O O12 0.189386 0.233090 0.219544
O O13 0.824132 0.814701 0.138870
O O14 0.856282 0.964321 0.897433
O O15 0.935630 0.624875 0.111392
O O16 0.898155 0.279507 0.021035
#
# Coordination Sequence:
#
# PCOD8046287 Si02
#       8
#     2   2   2   2   2   2   2   2
#     4  10  23  44  67  95 134 174 216 267 326 393
#     4  10  23  42  69  89 135 174 212 273 327 384
#     4  10  21  40  67  91 131 167 217 273 316 383
#     4  11  23  40  62  97 126 172 216 264 329 380
#     4  10  21  42  63  98 126 168 219 267 321 390
#     4  10  21  43  66  90 129 178 213 266 330 376
#     4   9  22  45  67  98 132 168 224 267 322 389
#     4  10  22  42  65  92 131 169 217 265 321 391
#
# _framework density 22.751719000000001
#
# number of rings (size 3 to 8) (size 9 to 14) (size 15 to 20)
#    0.000    2.000    1.250    0.750    3.500    0.000 
#   18.000    1.250    0.000    0.000    0.000    0.000 
#    0.000    0.000    0.000    0.000    0.000    0.000 
#
# Total GULP energy -198255.361666 kJ/mol
# GULP energy per Si atom -12390.960104 kJ/mol
# Density = 2.269994 g / cm^3
# Si number density = 22.751719 Si / 1000 Ang^3
#
#
#
# Elastic Constant Matrix: (Units=GPa)
#
#
# Indices 1 2 3 4 5 6 
#
# 1 89.0463 25.5288 38.8779 0.0000 18.3214 0.0000
# 2 25.5288 87.0245 20.0884 0.0000 3.1392 0.0000
# 3 38.8779 20.0884 66.1951 0.0000 10.9670 0.0000
# 4 0.0000 0.0000 0.0000 20.0813 0.0000 2.6100
# 5 18.3214 3.1392 10.9670 0.0000 52.8062 0.0000
# 6 0.0000 0.0000 0.0000 2.6100 0.0000 30.2839
#
#
#
# Elastic Compliance Matrix: (Units=1/GPa)
#
#
# Indices 1 2 3 4 5 6 
#
# 1 0.016367 -0.002786 -0.008134 0.000000 -0.003824 0.000000
# 2 -0.002786 0.012831 -0.002373 0.000000 0.000697 0.000000
# 3 -0.008134 -0.002373 0.020830 0.000000 -0.001363 0.000000
# 4 0.000000 0.000000 0.000000 0.050362 0.000000 -0.004340
# 5 -0.003824 0.000697 -0.001363 0.000000 0.020505 0.000000
# 6 0.000000 0.000000 0.000000 -0.004340 0.000000 0.033395
#
#
# Mechanical properties :
#
#
# Convention : Reuss Voigt Hill
#
# Bulk Modulus (GPa) = 42.65756 45.69514 44.17635
# Shear Modulus (GPa) = 26.49868 31.15233 28.82551
#
# Velocity S-wave (km/s) = 3.41646 3.70432 3.56330
# Velocity P-wave (km/s) = 5.86112 6.19870 6.03227
#
# Compressibility (1/GPa) = 0.02344250
#
# Stress axis : x y z
#
# Youngs Moduli (GPa) = 61.09989 77.93693 48.00792
#
# Poissons Ratio (x) = 0.21711 0.39048
# Poissons Ratio (y) = 0.17021 0.11393
# Poissons Ratio (z) = 0.49696 0.18495
#
# Static dielectric constant tensor:
#      x y z
#    x 4.426630 0.000000 0.171880 
#    y 0.000000 4.072810 0.000000 
#    z 0.171880 0.000000 3.710250 
# 
# 
# High freq. dielectric constant tensor:
#      x y z
#    x 1.919810 0.000000 0.012710 
#    y 0.000000 1.887860 0.000000 
#    z 0.012710 0.000000 1.864840 
# 
# From -- ./inp_files/1732.got.cif
#   From: 2010.03.12/outbox.cif.g09.slc.cpg/sg4_1_cif.got.tgz:1732.got - 2010.03.31 09:31:35.
