data_PCOD8046763
_publ_section_title
;
Structure prediction by ZEFSAII (Michael W. Deem and Ramdas Pophale) SiO2 
 PCOD8046763
Probable space group: P 21
;
_chemical_formula_sum "Si O2"
_cell_formula_units_Z 12
_cell_length_a 9.058421
_cell_length_b 7.297137
_cell_length_c 9.159011
_cell_angle_alpha 90.000000
_cell_angle_beta 108.181724
_cell_angle_gamma 90.000000
_cell_volume 575.188152
_symmetry_space_group_name_H-M "P 21"
_symmetry_group_IT_number 4
_symmetry_cell_setting 'monoclinic'
loop_
_space_group_symop_operation_xyz
x,y,z
-x,1/2+y,-z
loop_
_atom_site_type_symbol
_atom_site_label
_atom_site_fract_x
_atom_site_fract_y
_atom_site_fract_z
Si Si1 0.853004 0.800100 0.175184
Si Si2 0.865600 0.840894 0.843474
Si Si3 0.687698 0.104176 0.300911
Si Si4 0.656262 0.496900 0.758765
Si Si5 0.188303 0.698353 0.356916
Si Si6 0.218443 0.892791 0.898196
O O1 0.793828 0.593602 0.173749
O O2 0.030634 0.809893 0.280199
O O3 0.745719 0.917944 0.246824
O O4 0.836974 0.875575 0.005854
O O5 0.778331 0.658925 0.764320
O O6 0.048264 0.807146 0.873070
O O7 0.802090 0.015003 0.736666
O O8 0.514648 0.079016 0.306488
O O9 0.800470 0.150576 0.469804
O O10 0.687078 0.268357 0.184862
O O11 0.673625 0.337479 0.643650
O O12 0.684965 0.401726 0.923350
#
# Coordination Sequence:
#
# PCOD8046763 Si02
#       6
#     2   2   2   2   2   2
#     4  10  23  44  69  96 125 174 222 266 319 393
#     4  10  22  46  74  92 124 176 224 264 320 402
#     4  12  28  40  66 104 136 164 216 282 328 378
#     4  11  25  43  68  95 133 174 215 271 328 391
#     4  11  25  43  68  95 133 174 215 271 328 391
#     4  10  23  44  69  96 125 174 222 266 319 393
#
# _framework density 20.862739000000001
#
# number of rings (size 3 to 8) (size 9 to 14) (size 15 to 20)
#    0.000    1.333    1.667    2.000   14.000    2.667 
#    0.000    0.000    0.000    0.000    0.000    0.000 
#    0.000    0.000    0.000    0.000    0.000    0.000 
#
# Total GULP energy -148882.670345 kJ/mol
# GULP energy per Si atom -12406.889195 kJ/mol
# Density = 2.081525 g / cm^3
# Si number density = 20.862739 Si / 1000 Ang^3
#
#
#
# Elastic Constant Matrix: (Units=GPa)
#
#
# Indices 1 2 3 4 5 6 
#
# 1 54.1550 30.6467 12.6375 0.0000 -4.1385 0.0000
# 2 30.6467 93.9045 30.6525 0.0000 -5.9574 0.0000
# 3 12.6375 30.6525 59.2637 0.0000 1.3838 0.0000
# 4 0.0000 0.0000 0.0000 16.8047 0.0000 -9.4411
# 5 -4.1385 -5.9574 1.3838 0.0000 15.6785 0.0000
# 6 0.0000 0.0000 0.0000 -9.4411 0.0000 45.7479
#
#
#
# Elastic Compliance Matrix: (Units=1/GPa)
#
#
# Indices 1 2 3 4 5 6 
#
# 1 0.022915 -0.006770 -0.001469 0.000000 0.003606 0.000000
# 2 -0.006770 0.015297 -0.006576 0.000000 0.004606 0.000000
# 3 -0.001469 -0.006576 0.020698 0.000000 -0.004713 0.000000
# 4 0.000000 0.000000 0.000000 0.067312 0.000000 0.013891
# 5 0.003606 0.004606 -0.004713 0.000000 0.066899 0.000000
# 6 0.000000 0.000000 0.000000 0.013891 0.000000 0.024726
#
#
# Mechanical properties :
#
#
# Convention : Reuss Voigt Hill
#
# Bulk Modulus (GPa) = 34.15251 39.46631 36.80941
# Shear Modulus (GPa) = 19.43721 24.53865 21.98793
#
# Velocity S-wave (km/s) = 3.05564 3.43329 3.24996
# Velocity P-wave (km/s) = 5.37167 5.88853 5.63603
#
# Compressibility (1/GPa) = 0.02928043
#
# Stress axis : x y z
#
# Youngs Moduli (GPa) = 43.63897 65.37028 48.31325
#
# Poissons Ratio (x) = 0.44258 0.07097
# Poissons Ratio (y) = 0.29545 0.31771
# Poissons Ratio (z) = 0.06410 0.42988
#
# Static dielectric constant tensor:
#      x y z
#    x 3.640000 0.000000 0.018310 
#    y 0.000000 3.864220 0.000000 
#    z 0.018310 0.000000 3.726430 
# 
# 
# High freq. dielectric constant tensor:
#      x y z
#    x 1.809710 0.000000 -0.000210 
#    y 0.000000 1.834680 0.000000 
#    z -0.000210 0.000000 1.813730 
# 
# From -- ./inp_files/5330.got.cif
#   From: 2010.03.12/outbox.cif.g09.slc.cpg/sg4_3_cif.got.tgz:5330.got - 2010.03.31 09:31:35.
