data_PCOD8046454
_publ_section_title
;
Structure prediction by ZEFSAII (Michael W. Deem and Ramdas Pophale) SiO2 
 PCOD8046454
Probable space group: P 21
;
_chemical_formula_sum "Si O2"
_cell_formula_units_Z 14
_cell_length_a 6.020043
_cell_length_b 10.196325
_cell_length_c 9.052342
_cell_angle_alpha 90.000000
_cell_angle_beta 80.869446
_cell_angle_gamma 90.000000
_cell_volume 548.613200
_symmetry_space_group_name_H-M "P 21"
_symmetry_group_IT_number 4
_symmetry_cell_setting 'monoclinic'
loop_
_space_group_symop_operation_xyz
x,y,z
-x,1/2+y,-z
loop_
_atom_site_type_symbol
_atom_site_label
_atom_site_fract_x
_atom_site_fract_y
_atom_site_fract_z
Si Si1 0.993111 0.129000 0.651470
Si Si2 0.701067 0.915805 0.811789
Si Si3 0.352119 0.227138 0.426582
Si Si4 0.667095 0.316163 0.822453
Si Si5 0.690653 0.616976 0.117494
Si Si6 0.608658 0.974084 0.356645
Si Si7 0.036654 0.461955 0.923614
O O1 0.112035 0.154313 0.481842
O O2 0.200473 0.162564 0.739792
O O3 0.780227 0.223456 0.688774
O O4 0.893586 0.983689 0.687301
O O5 0.655302 0.773879 0.743730
O O6 0.462299 0.989043 0.843130
O O7 0.791740 0.911852 0.969683
O O8 0.389899 0.358749 0.521390
O O9 0.548174 0.117214 0.431096
O O10 0.463140 0.237354 0.923672
O O11 0.579181 0.444897 0.748175
O O12 0.848223 0.349242 0.928085
O O13 0.901189 0.592521 0.985908
O O14 0.847024 0.984724 0.246988
#
# Coordination Sequence:
#
# PCOD8046454 Si02
#       7
#     2   2   2   2   2   2   2
#     4  10  22  44  79 104 152 206 252 326 399 458
#     4  10  25  48  77 115 154 204 263 330 400 474
#     4  12  26  52  80 118 156 213 271 327 402 481
#     4  11  22  47  76 109 155 204 259 333 399 468
#     4  10  21  47  76 108 152 205 256 330 399 464
#     4  12  28  51  81 117 161 213 271 334 395 485
#     4  11  24  51  77 117 154 211 264 332 410 472
#
# _framework density 25.518889999999999
#
# number of rings (size 3 to 8) (size 9 to 14) (size 15 to 20)
#    0.000    1.143    2.857    1.714    4.000    0.000 
#   33.429    0.000    3.143    0.000    0.000    0.000 
#    0.000    0.000    0.000    0.000    0.000    0.000 
#
# Total GULP energy -173531.149275 kJ/mol
# GULP energy per Si atom -12395.082091 kJ/mol
# Density = 2.546081 g / cm^3
# Si number density = 25.518890 Si / 1000 Ang^3
#
#
#
# Elastic Constant Matrix: (Units=GPa)
#
#
# Indices 1 2 3 4 5 6 
#
# 1 116.4734 44.9528 42.6577 0.0000 -14.6264 0.0000
# 2 44.9528 115.7239 50.9801 0.0000 -11.0125 0.0000
# 3 42.6577 50.9801 104.2421 0.0000 -19.6799 0.0000
# 4 0.0000 0.0000 0.0000 36.4552 0.0000 -1.5599
# 5 -14.6264 -11.0125 -19.6799 0.0000 38.2363 0.0000
# 6 0.0000 0.0000 0.0000 -1.5599 0.0000 56.0794
#
#
#
# Elastic Compliance Matrix: (Units=1/GPa)
#
#
# Indices 1 2 3 4 5 6 
#
# 1 0.010928 -0.002870 -0.002697 0.000000 0.001965 0.000000
# 2 -0.002870 0.011775 -0.004598 0.000000 -0.000073 0.000000
# 3 -0.002697 -0.004598 0.013846 0.000000 0.004770 0.000000
# 4 0.000000 0.000000 0.000000 0.027464 0.000000 0.000764
# 5 0.001965 -0.000073 0.004770 0.000000 0.029339 0.000000
# 6 0.000000 0.000000 0.000000 0.000764 0.000000 0.017853
#
#
# Mechanical properties :
#
#
# Convention : Reuss Voigt Hill
#
# Bulk Modulus (GPa) = 61.65724 68.18007 64.91866
# Shear Modulus (GPa) = 36.51219 39.34410 37.92815
#
# Velocity S-wave (km/s) = 3.78668 3.93079 3.85941
# Velocity P-wave (km/s) = 6.58274 6.88309 6.73459
#
# Compressibility (1/GPa) = 0.01621869
#
# Stress axis : x y z
#
# Youngs Moduli (GPa) = 91.50887 84.92928 72.22238
#
# Poissons Ratio (x) = 0.24371 0.19482
# Poissons Ratio (y) = 0.26259 0.33207
# Poissons Ratio (z) = 0.24684 0.39049
#
# Static dielectric constant tensor:
#      x y z
#    x 4.800140 0.000000 -0.126780 
#    y 0.000000 4.599200 0.000000 
#    z -0.126780 0.000000 4.519350 
# 
# 
# High freq. dielectric constant tensor:
#      x y z
#    x 2.034910 0.000000 -0.013420 
#    y 0.000000 2.015990 0.000000 
#    z -0.013420 0.000000 2.007760 
# 
# From -- ./inp_files/4624.got.cif
#   From: 2010.03.12/outbox.cif.g09.slc.cpg/sg4_3_cif.got.tgz:4624.got - 2010.03.31 09:31:35.
