data_PCOD8046146
_publ_section_title
;
Structure prediction by ZEFSAII (Michael W. Deem and Ramdas Pophale) SiO2 
 PCOD8046146
Probable space group: P 21
;
_chemical_formula_sum "Si O2"
_cell_formula_units_Z 12
_cell_length_a 13.512225
_cell_length_b 7.828204
_cell_length_c 14.407394
_cell_angle_alpha 90.000000
_cell_angle_beta 20.303034
_cell_angle_gamma 90.000000
_cell_volume 528.792798
_symmetry_space_group_name_H-M "P 21"
_symmetry_group_IT_number 4
_symmetry_cell_setting 'monoclinic'
loop_
_space_group_symop_operation_xyz
x,y,z
-x,1/2+y,-z
loop_
_atom_site_type_symbol
_atom_site_label
_atom_site_fract_x
_atom_site_fract_y
_atom_site_fract_z
Si Si1 0.876773 0.266640 0.512499
Si Si2 0.839531 0.455432 0.240152
Si Si3 0.098221 0.367124 0.512512
Si Si4 0.319834 0.678335 0.759846
Si Si5 0.255705 0.270183 0.016165
Si Si6 0.711957 0.363588 0.016177
O O1 0.911661 0.316878 0.588341
O O2 0.134543 0.332181 0.222318
O O3 0.880737 0.066883 0.499988
O O4 0.580125 0.338789 0.731279
O O5 0.609057 0.566886 0.499999
O O6 0.661176 0.316879 0.338828
O O7 0.067583 0.361915 0.104872
O O8 0.031908 0.566882 0.999999
O O9 0.957303 0.294977 0.731296
O O10 0.420813 0.301586 0.222333
O O11 0.277325 0.771865 0.895122
O O12 0.253817 0.066886 0.999996
#
# Coordination Sequence:
#
# PCOD8046146 Si02
#       6
#     2   2   2   2   2   2
#     4  10  21  37  60  90 126 169 212 259 312 369
#     4  12  26  44  68  98 128 167 212 264 322 384
#     4  10  21  37  60  90 126 169 212 259 312 369
#     4  12  26  44  68  98 128 167 212 264 322 384
#     4  10  22  41  63  90 128 170 212 261 316 373
#     4  10  22  41  63  90 128 170 212 261 316 373
#
# _framework density 22.693199
#
# number of rings (size 3 to 8) (size 9 to 14) (size 15 to 20)
#    0.000    1.333    0.000    5.000    0.000    8.000 
#    0.000    0.000    0.000    0.000    0.000    0.000 
#    0.000    0.000    0.000    0.000    0.000    0.000 
#
# Total GULP energy -148771.850599 kJ/mol
# GULP energy per Si atom -12397.654217 kJ/mol
# Density = 2.264155 g / cm^3
# Si number density = 22.693199 Si / 1000 Ang^3
#
#
#
# Elastic Constant Matrix: (Units=GPa)
#
#
# Indices 1 2 3 4 5 6 
#
# 1 137.0482 48.2634 45.8410 0.0000 1.1811 0.0000
# 2 48.2634 66.5704 56.3630 0.0000 -0.6925 0.0000
# 3 45.8410 56.3630 162.2597 0.0000 -3.3334 0.0000
# 4 0.0000 0.0000 0.0000 31.0577 0.0000 0.0331
# 5 1.1811 -0.6925 -3.3334 0.0000 39.0638 0.0000
# 6 0.0000 0.0000 0.0000 0.0331 0.0000 31.4410
#
#
#
# Elastic Compliance Matrix: (Units=1/GPa)
#
#
# Indices 1 2 3 4 5 6 
#
# 1 0.009827 -0.006759 -0.000438 0.000000 -0.000454 0.000000
# 2 -0.006759 0.025931 -0.007097 0.000000 0.000058 0.000000
# 3 -0.000438 -0.007097 0.008765 0.000000 0.000635 0.000000
# 4 0.000000 0.000000 0.000000 0.032198 0.000000 -0.000034
# 5 -0.000454 0.000058 0.000635 0.000000 0.025668 0.000000
# 6 0.000000 0.000000 0.000000 -0.000034 0.000000 0.031806
#
#
# Mechanical properties :
#
#
# Convention : Reuss Voigt Hill
#
# Bulk Modulus (GPa) = 62.75011 74.09034 68.42023
# Shear Modulus (GPa) = 29.74526 34.67322 32.20924
#
# Velocity S-wave (km/s) = 3.62436 3.91309 3.77149
# Velocity P-wave (km/s) = 6.72504 7.28944 7.01292
#
# Compressibility (1/GPa) = 0.01593623
#
# Stress axis : x y z
#
# Youngs Moduli (GPa) = 101.75774 38.56402 114.09112
#
# Poissons Ratio (x) = 0.26064 0.04997
# Poissons Ratio (y) = 0.68774 0.80968
# Poissons Ratio (z) = 0.04457 0.27368
#
# Static dielectric constant tensor:
#      x y z
#    x 3.738680 0.000000 -0.106220 
#    y 0.000000 4.150410 0.000000 
#    z -0.106220 0.000000 4.984490 
# 
# 
# High freq. dielectric constant tensor:
#      x y z
#    x 1.895170 0.000000 -0.001800 
#    y 0.000000 1.893730 0.000000 
#    z -0.001800 0.000000 1.916370 
# 
# From -- ./inp_files/2648.got.cif
#   From: 2010.03.12/outbox.cif.g09.slc.cpg/sg4_2_cif.got.tgz:2648.got - 2010.03.31 09:31:35.
