data_PCOD8046882
_publ_section_title
;
Structure prediction by ZEFSAII (Michael W. Deem and Ramdas Pophale) SiO2 
 PCOD8046882
Probable space group: P 21
;
_chemical_formula_sum "Si O2"
_cell_formula_units_Z 10
_cell_length_a 10.866681
_cell_length_b 4.939616
_cell_length_c 9.548445
_cell_angle_alpha 90.000000
_cell_angle_beta 134.146800
_cell_angle_gamma 90.000000
_cell_volume 367.772746
_symmetry_space_group_name_H-M "P 21"
_symmetry_group_IT_number 4
_symmetry_cell_setting 'monoclinic'
loop_
_space_group_symop_operation_xyz
x,y,z
-x,1/2+y,-z
loop_
_atom_site_type_symbol
_atom_site_label
_atom_site_fract_x
_atom_site_fract_y
_atom_site_fract_z
Si Si1 0.290665 0.743650 0.962187
Si Si2 0.983094 0.508067 0.576457
Si Si3 0.594980 0.142261 0.521412
Si Si4 0.380229 0.927146 0.724853
Si Si5 0.890516 0.405229 0.924726
O O1 0.131025 0.536967 0.809547
O O2 0.355053 0.878492 0.870335
O O3 0.448445 0.597557 0.161850
O O4 0.219406 0.956087 0.019790
O O5 0.788349 0.586709 0.468605
O O6 0.970357 0.195681 0.519655
O O7 0.556632 0.837049 0.538256
O O8 0.594767 0.157930 0.350337
O O9 0.777990 0.253110 0.718361
O O10 0.951774 0.698264 0.920730
#
# Coordination Sequence:
#
# PCOD8046882 Si02
#       5
#     2   2   2   2   2
#     4  11  25  45  77 113 148 198 259 313 383 451
#     4  10  23  43  67 106 148 186 239 310 379 443
#     4  12  27  49  73 109 156 200 250 314 387 463
#     4  11  25  45  77 112 150 196 256 320 381 451
#     4  12  28  50  76 110 156 206 256 313 386 468
#
# _framework density 27.190702999999999
#
# number of rings (size 3 to 8) (size 9 to 14) (size 15 to 20)
#    0.000    0.800    2.000    3.600    2.800   12.800 
#    0.000    0.000    0.000    0.000    0.000    0.000 
#    0.000    0.000    0.000    0.000    0.000    0.000 
#
# Total GULP energy -123956.860435 kJ/mol
# GULP energy per Si atom -12395.686043 kJ/mol
# Density = 2.712882 g / cm^3
# Si number density = 27.190703 Si / 1000 Ang^3
#
#
#
# Elastic Constant Matrix: (Units=GPa)
#
#
# Indices 1 2 3 4 5 6 
#
# 1 133.1139 11.0001 38.0898 0.0000 -15.4780 0.0000
# 2 11.0001 51.5554 -13.4242 0.0000 4.1218 0.0000
# 3 38.0898 -13.4242 88.6378 0.0000 39.0780 0.0000
# 4 0.0000 0.0000 0.0000 26.6657 0.0000 4.1052
# 5 -15.4780 4.1218 39.0780 0.0000 75.9934 0.0000
# 6 0.0000 0.0000 0.0000 4.1052 0.0000 33.9664
#
#
#
# Elastic Compliance Matrix: (Units=1/GPa)
#
#
# Indices 1 2 3 4 5 6 
#
# 1 0.011282 -0.005258 -0.008772 0.000000 0.007094 0.000000
# 2 -0.005258 0.023368 0.008832 0.000000 -0.006880 0.000000
# 3 -0.008772 0.008832 0.022486 0.000000 -0.013828 0.000000
# 4 0.000000 0.000000 0.000000 0.038212 0.000000 -0.004618
# 5 0.007094 -0.006880 -0.013828 0.000000 0.022088 0.000000
# 6 0.000000 0.000000 0.000000 -0.004618 0.000000 0.029999
#
#
# Mechanical properties :
#
#
# Convention : Reuss Voigt Hill
#
# Bulk Modulus (GPa) = 21.39524 38.29318 29.84421
# Shear Modulus (GPa) = 28.83319 43.16785 36.00052
#
# Velocity S-wave (km/s) = 3.25992 3.98879 3.64263
# Velocity P-wave (km/s) = 4.69629 5.94371 5.35643
#
# Compressibility (1/GPa) = 0.04673937
#
# Stress axis : x y z
#
# Youngs Moduli (GPa) = 88.63859 42.79287 44.47301
#
# Poissons Ratio (x) = 0.22502 0.39011
# Poissons Ratio (y) = 0.46609 -0.39279
# Poissons Ratio (z) = 0.77753 -0.37795
#
# Static dielectric constant tensor:
#      x y z
#    x 5.098040 0.000000 0.337160 
#    y 0.000000 4.410960 0.000000 
#    z 0.337160 0.000000 5.394250 
# 
# 
# High freq. dielectric constant tensor:
#      x y z
#    x 2.110630 0.000000 0.014510 
#    y 0.000000 2.058730 0.000000 
#    z 0.014510 0.000000 2.114680 
# 
# From -- ./inp_files/5053.got.cif
#   From: 2010.03.12/outbox.cif.g09.slc.cpg/sg4_3_cif.got.tgz:5053.got - 2010.03.31 09:31:35.
