data_PCOD8046915
_publ_section_title
;
Structure prediction by ZEFSAII (Michael W. Deem and Ramdas Pophale) SiO2 
 PCOD8046915
Probable space group: P 21
;
_chemical_formula_sum "Si O2"
_cell_formula_units_Z 10
_cell_length_a 8.446262
_cell_length_b 8.817241
_cell_length_c 7.537668
_cell_angle_alpha 90.000000
_cell_angle_beta 55.554222
_cell_angle_gamma 90.000000
_cell_volume 462.924497
_symmetry_space_group_name_H-M "P 21"
_symmetry_group_IT_number 4
_symmetry_cell_setting 'monoclinic'
loop_
_space_group_symop_operation_xyz
x,y,z
-x,1/2+y,-z
loop_
_atom_site_type_symbol
_atom_site_label
_atom_site_fract_x
_atom_site_fract_y
_atom_site_fract_z
Si Si1 0.817624 0.588610 0.968529
Si Si2 0.410948 0.506778 0.701637
Si Si3 0.953277 0.929050 0.881021
Si Si4 0.556755 0.197613 0.649787
Si Si5 0.202754 0.957117 0.394518
O O1 0.924726 0.748884 0.911090
O O2 0.868448 0.508837 0.751286
O O3 0.585878 0.603122 0.132495
O O4 0.884214 0.475981 0.081415
O O5 0.429151 0.329285 0.635694
O O6 0.350952 0.596709 0.563608
O O7 0.615521 0.560827 0.655176
O O8 0.242205 0.521461 0.954513
O O9 0.023622 0.975832 0.640841
O O10 0.727064 0.279825 0.653250
#
# Coordination Sequence:
#
# PCOD8046915 Si02
#       5
#     2   2   2   2   2
#     4  11  23  45  67  97 132 171 221 264 329 384
#     4   9  20  42  69  94 130 171 214 264 330 377
#     4  11  23  44  68  98 129 172 215 274 327 377
#     4   9  19  43  66  93 129 173 211 267 321 380
#     4  10  23  44  64  98 132 167 221 263 321 394
#
# _framework density 21.601794999999999
#
# number of rings (size 3 to 8) (size 9 to 14) (size 15 to 20)
#    1.200    0.800    2.000    1.200    0.000    1.600 
#   18.000    0.000    0.000    0.000    0.000    0.000 
#    0.000    0.000    0.000    0.000    0.000    0.000 
#
# Total GULP energy -123926.324930 kJ/mol
# GULP energy per Si atom -12392.632493 kJ/mol
# Density = 2.155263 g / cm^3
# Si number density = 21.601795 Si / 1000 Ang^3
#
#
#
# Elastic Constant Matrix: (Units=GPa)
#
#
# Indices 1 2 3 4 5 6 
#
# 1 32.0845 22.7530 37.8853 0.0000 -16.8991 0.0000
# 2 22.7530 67.6598 55.3868 0.0000 3.0844 0.0000
# 3 37.8853 55.3868 180.1436 0.0000 -19.4013 0.0000
# 4 0.0000 0.0000 0.0000 38.2247 0.0000 0.7415
# 5 -16.8991 3.0844 -19.4013 0.0000 44.0770 0.0000
# 6 0.0000 0.0000 0.0000 0.7415 0.0000 28.6952
#
#
#
# Elastic Compliance Matrix: (Units=1/GPa)
#
#
# Indices 1 2 3 4 5 6 
#
# 1 0.061528 -0.017528 -0.005121 0.000000 0.022562 0.000000
# 2 -0.017528 0.025535 -0.005334 0.000000 -0.010855 0.000000
# 3 -0.005121 -0.005334 0.008500 0.000000 0.002151 0.000000
# 4 0.000000 0.000000 0.000000 0.026174 0.000000 -0.000676
# 5 0.022562 -0.010855 0.002151 0.000000 0.033045 0.000000
# 6 0.000000 0.000000 0.000000 -0.000676 0.000000 0.034866
#
#
# Mechanical properties :
#
#
# Convention : Reuss Voigt Hill
#
# Bulk Modulus (GPa) = 25.25353 56.88203 41.06778
# Shear Modulus (GPa) = 19.31900 33.12356 26.22128
#
# Velocity S-wave (km/s) = 2.99377 3.92008 3.48781
# Velocity P-wave (km/s) = 4.86478 6.84679 5.93905
#
# Compressibility (1/GPa) = 0.03959842
#
# Stress axis : x y z
#
# Youngs Moduli (GPa) = 16.25275 39.16136 117.65091
#
# Poissons Ratio (x) = 0.68641 0.60246
# Poissons Ratio (y) = 0.28487 0.62755
# Poissons Ratio (z) = 0.08323 0.20889
#
# Static dielectric constant tensor:
#      x y z
#    x 3.622710 0.000000 -0.345630 
#    y 0.000000 3.709860 0.000000 
#    z -0.345630 0.000000 3.801550 
# 
# 
# High freq. dielectric constant tensor:
#      x y z
#    x 1.828100 0.000000 -0.028830 
#    y 0.000000 1.831990 0.000000 
#    z -0.028830 0.000000 1.853360 
# 
# From -- ./inp_files/971.got.cif
#   From: 2010.03.12/outbox.cif.g09.slc.cpg/sg4_1_cif.got.tgz:971.got - 2010.03.31 09:31:35.
