data_PCOD8046448
_publ_section_title
;
Structure prediction by ZEFSAII (Michael W. Deem and Ramdas Pophale) SiO2 
 PCOD8046448
Probable space group: P 21
;
_chemical_formula_sum "Si O2"
_cell_formula_units_Z 12
_cell_length_a 9.682118
_cell_length_b 10.262915
_cell_length_c 5.423498
_cell_angle_alpha 90.000000
_cell_angle_beta 71.577212
_cell_angle_gamma 90.000000
_cell_volume 511.296191
_symmetry_space_group_name_H-M "P 21"
_symmetry_group_IT_number 4
_symmetry_cell_setting 'monoclinic'
loop_
_space_group_symop_operation_xyz
x,y,z
-x,1/2+y,-z
loop_
_atom_site_type_symbol
_atom_site_label
_atom_site_fract_x
_atom_site_fract_y
_atom_site_fract_z
Si Si1 0.500300 0.722320 0.746922
Si Si2 0.849588 0.580716 0.105916
Si Si3 0.770892 0.812726 0.883789
Si Si4 0.715141 0.095038 0.810826
Si Si5 0.980151 0.630644 0.538907
Si Si6 0.545534 0.494511 0.376040
O O1 0.610817 0.767034 0.894154
O O2 0.556722 0.583339 0.613188
O O3 0.487615 0.840781 0.553775
O O4 0.341385 0.699001 0.957722
O O5 0.702592 0.497036 0.156763
O O6 0.929087 0.553584 0.320304
O O7 0.806987 0.736123 0.118072
O O8 0.948949 0.547071 0.808102
O O9 0.891518 0.767280 0.611077
O O10 0.775972 0.967135 0.918671
O O11 0.846973 0.157683 0.579665
O O12 0.582227 0.056612 0.711959
#
# Coordination Sequence:
#
# PCOD8046448 Si02
#       6
#     2   2   2   2   2   2
#     4  11  24  41  70 102 137 183 236 292 343 417
#     4  10  21  47  65  95 137 185 226 279 353 407
#     4   9  22  43  68  94 141 186 224 288 347 417
#     4  11  24  42  67 104 133 182 237 290 344 418
#     4  10  23  42  67  99 137 181 223 288 348 410
#     4  11  24  43  69  98 139 183 238 287 345 419
#
# _framework density 23.469764000000001
#
# number of rings (size 3 to 8) (size 9 to 14) (size 15 to 20)
#    1.000    0.667    3.333    0.000    4.667    1.333 
#    6.000    0.000    0.000    0.000    0.000    0.000 
#    0.000    0.000    0.000    0.000    0.000    0.000 
#
# Total GULP energy -148659.218668 kJ/mol
# GULP energy per Si atom -12388.268222 kJ/mol
# Density = 2.341635 g / cm^3
# Si number density = 23.469764 Si / 1000 Ang^3
#
#
#
# Elastic Constant Matrix: (Units=GPa)
#
#
# Indices 1 2 3 4 5 6 
#
# 1 100.7296 26.1518 48.6064 0.0000 -24.1080 0.0000
# 2 26.1518 94.8360 31.4870 0.0000 -17.5865 0.0000
# 3 48.6064 31.4870 118.3086 0.0000 -16.0675 0.0000
# 4 0.0000 0.0000 0.0000 27.8860 0.0000 -2.8439
# 5 -24.1080 -17.5865 -16.0675 0.0000 49.4359 0.0000
# 6 0.0000 0.0000 0.0000 -2.8439 0.0000 20.1424
#
#
#
# Elastic Compliance Matrix: (Units=1/GPa)
#
#
# Indices 1 2 3 4 5 6 
#
# 1 0.013616 -0.001364 -0.004598 0.000000 0.004660 0.000000
# 2 -0.001364 0.012228 -0.002295 0.000000 0.002939 0.000000
# 3 -0.004598 -0.002295 0.011023 0.000000 0.000524 0.000000
# 4 0.000000 0.000000 0.000000 0.036384 0.000000 0.005137
# 5 0.004660 0.002939 0.000524 0.000000 0.023717 0.000000
# 6 0.000000 0.000000 0.000000 0.005137 0.000000 0.050372
#
#
# Mechanical properties :
#
#
# Convention : Reuss Voigt Hill
#
# Bulk Modulus (GPa) = 49.13193 58.48496 53.80844
# Shear Modulus (GPa) = 29.30193 33.33482 31.31838
#
# Velocity S-wave (km/s) = 3.53724 3.77282 3.65693
# Velocity P-wave (km/s) = 6.13697 6.62965 6.38806
#
# Compressibility (1/GPa) = 0.02035336
#
# Stress axis : x y z
#
# Youngs Moduli (GPa) = 73.44422 81.78280 90.71536
#
# Poissons Ratio (x) = 0.11154 0.41712
# Poissons Ratio (y) = 0.10017 0.20817
# Poissons Ratio (z) = 0.33770 0.18768
#
# Static dielectric constant tensor:
#      x y z
#    x 4.149080 0.000000 -0.297950 
#    y 0.000000 4.181750 0.000000 
#    z -0.297950 0.000000 4.027800 
# 
# 
# High freq. dielectric constant tensor:
#      x y z
#    x 1.932610 0.000000 -0.018790 
#    y 0.000000 1.904570 0.000000 
#    z -0.018790 0.000000 1.914400 
# 
# From -- ./inp_files/1092.got.cif
#   From: 2010.03.12/outbox.cif.g09.slc.cpg/sg4_1_cif.got.tgz:1092.got - 2010.03.31 09:31:35.
