data_PCOD8046573
_publ_section_title
;
Structure prediction by ZEFSAII (Michael W. Deem and Ramdas Pophale) SiO2 
 PCOD8046573
Probable space group: P 21
;
_chemical_formula_sum "Si O2"
_cell_formula_units_Z 12
_cell_length_a 11.645734
_cell_length_b 11.755615
_cell_length_c 7.901889
_cell_angle_alpha 90.000000
_cell_angle_beta 32.384980
_cell_angle_gamma 90.000000
_cell_volume 579.412850
_symmetry_space_group_name_H-M "P 21"
_symmetry_group_IT_number 4
_symmetry_cell_setting 'monoclinic'
loop_
_space_group_symop_operation_xyz
x,y,z
-x,1/2+y,-z
loop_
_atom_site_type_symbol
_atom_site_label
_atom_site_fract_x
_atom_site_fract_y
_atom_site_fract_z
Si Si1 0.158578 0.865060 0.606335
Si Si2 0.086858 0.628619 0.533533
Si Si3 0.494883 0.042247 0.162829
Si Si4 0.793483 0.020446 0.081599
Si Si5 0.966188 0.930060 0.178875
Si Si6 0.893454 0.696445 0.425672
O O1 0.159815 0.733226 0.559779
O O2 0.373026 0.925122 0.265403
O O3 0.151946 0.885588 0.819519
O O4 0.948900 0.929019 0.789076
O O5 0.951589 0.536708 0.810798
O O6 0.939383 0.674003 0.566077
O O7 0.298636 0.562108 0.209396
O O8 0.567419 0.032076 0.269250
O O9 0.336644 0.148665 0.342453
O O10 0.767626 0.977847 0.308411
O O11 0.919732 0.140776 0.920940
O O12 0.887250 0.830606 0.399965
#
# Coordination Sequence:
#
# PCOD8046573 Si02
#       6
#     2   2   2   2   2   2
#     4   9  22  41  64  91 130 169 211 263 310 382
#     4  11  24  40  67  95 127 170 214 262 320 374
#     4  10  22  42  63  92 128 163 215 264 316 370
#     4   8  20  42  61  89 126 160 212 260 311 378
#     4  10  22  42  66  89 128 171 209 258 323 371
#     4  10  22  41  65  90 131 163 211 265 318 375
#
# _framework density 20.710622000000001
#
# number of rings (size 3 to 8) (size 9 to 14) (size 15 to 20)
#    1.000    1.333    0.000    1.000    9.333    0.000 
#   12.000    0.000    0.000    0.000    0.000    0.000 
#    0.000    0.000    0.000    0.000    0.000    0.000 
#
# Total GULP energy -148676.837238 kJ/mol
# GULP energy per Si atom -12389.736436 kJ/mol
# Density = 2.066348 g / cm^3
# Si number density = 20.710622 Si / 1000 Ang^3
#
#
#
# Elastic Constant Matrix: (Units=GPa)
#
#
# Indices 1 2 3 4 5 6 
#
# 1 132.5099 70.0187 44.6749 0.0000 7.7332 0.0000
# 2 70.0187 149.4655 26.9108 0.0000 14.1426 0.0000
# 3 44.6749 26.9108 51.7687 0.0000 -3.9124 0.0000
# 4 0.0000 0.0000 0.0000 20.5506 0.0000 13.1219
# 5 7.7332 14.1426 -3.9124 0.0000 29.8028 0.0000
# 6 0.0000 0.0000 0.0000 13.1219 0.0000 37.7559
#
#
#
# Elastic Compliance Matrix: (Units=1/GPa)
#
#
# Indices 1 2 3 4 5 6 
#
# 1 0.013040 -0.004192 -0.009271 0.000000 -0.002611 0.000000
# 2 -0.004192 0.009246 -0.001452 0.000000 -0.003491 0.000000
# 3 -0.009271 -0.001452 0.028590 0.000000 0.006848 0.000000
# 4 0.000000 0.000000 0.000000 0.062539 0.000000 -0.021735
# 5 -0.002611 -0.003491 0.006848 0.000000 0.036787 0.000000
# 6 0.000000 0.000000 0.000000 -0.021735 0.000000 0.034040
#
#
# Mechanical properties :
#
#
# Convention : Reuss Voigt Hill
#
# Bulk Modulus (GPa) = 47.51859 68.55032 58.03445
# Shear Modulus (GPa) = 22.61544 30.43118 26.52331
#
# Velocity S-wave (km/s) = 3.30809 3.83737 3.58252
# Velocity P-wave (km/s) = 6.13067 7.26669 6.72272
#
# Compressibility (1/GPa) = 0.02104440
#
# Stress axis : x y z
#
# Youngs Moduli (GPa) = 76.68719 108.15207 34.97740
#
# Poissons Ratio (x) = 0.45342 0.32428
# Poissons Ratio (y) = 0.32150 0.05080
# Poissons Ratio (z) = 0.71098 0.15707
#
# Static dielectric constant tensor:
#      x y z
#    x 3.675390 0.000000 0.049310 
#    y 0.000000 3.739640 0.000000 
#    z 0.049310 0.000000 3.349570 
# 
# 
# High freq. dielectric constant tensor:
#      x y z
#    x 1.805740 0.000000 0.006870 
#    y 0.000000 1.820500 0.000000 
#    z 0.006870 0.000000 1.773050 
# 
# From -- ./inp_files/1080.got.cif
#   From: 2010.03.12/outbox.cif.g09.slc.cpg/sg4_1_cif.got.tgz:1080.got - 2010.03.31 09:31:35.
