data_PCOD8046349
_publ_section_title
;
Structure prediction by ZEFSAII (Michael W. Deem and Ramdas Pophale) SiO2 
 PCOD8046349
Probable space group: P 21
;
_chemical_formula_sum "Si O2"
_cell_formula_units_Z 16
_cell_length_a 18.561023
_cell_length_b 6.949713
_cell_length_c 7.338510
_cell_angle_alpha 90.000000
_cell_angle_beta 53.889828
_cell_angle_gamma 90.000000
_cell_volume 764.762102
_symmetry_space_group_name_H-M "P 21"
_symmetry_group_IT_number 4
_symmetry_cell_setting 'monoclinic'
loop_
_space_group_symop_operation_xyz
x,y,z
-x,1/2+y,-z
loop_
_atom_site_type_symbol
_atom_site_label
_atom_site_fract_x
_atom_site_fract_y
_atom_site_fract_z
Si Si1 0.900110 0.228360 0.073244
Si Si2 0.596953 0.777698 0.411063
Si Si3 0.706386 0.146813 0.322762
Si Si4 0.887836 0.529816 0.772052
Si Si5 0.694108 0.443064 0.055932
Si Si6 0.002849 0.380562 0.266223
Si Si7 0.468729 0.794844 0.292838
Si Si8 0.477108 0.880227 0.878894
O O1 0.802251 0.150345 0.278371
O O2 0.947074 0.272904 0.193914
O O3 0.895027 0.413706 0.950822
O O4 0.953271 0.067919 0.884019
O O5 0.642285 0.584409 0.271972
O O6 0.530144 0.879042 0.363445
O O7 0.534213 0.716790 0.680985
O O8 0.673725 0.927584 0.354346
O O9 0.721147 0.238549 0.101802
O O10 0.637947 0.298782 0.520562
O O11 0.941311 0.434529 0.528037
O O12 0.785064 0.545559 0.856133
O O13 0.920757 0.743683 0.766772
O O14 0.629890 0.379939 0.984941
O O15 0.484906 0.567865 0.271637
O O16 0.501714 0.882679 0.053699
#
# Coordination Sequence:
#
# PCOD8046349 Si02
#       8
#     2   2   2   2   2   2   2   2
#     4  11  24  42  66  98 126 168 213 267 325 391
#     4  10  21  42  56  88 122 166 204 250 309 354
#     4  10  22  39  63  87 123 163 203 257 307 369
#     4  11  24  42  66  98 126 168 213 267 325 391
#     4  10  22  39  63  87 123 163 203 257 307 369
#     4  12  23  44  70  94 132 168 212 266 333 382
#     4  10  22  35  59  86 119 163 203 249 305 363
#     4  10  22  35  59  86 119 163 203 249 305 363
#
# _framework density 20.92154
#
# number of rings (size 3 to 8) (size 9 to 14) (size 15 to 20)
#    0.000    1.500    3.750    0.750    5.250    0.000 
#    0.000    0.000   11.000    0.000    0.000    0.000 
#    0.000    0.000    0.000    0.000    0.000    0.000 
#
# Total GULP energy -198299.976310 kJ/mol
# GULP energy per Si atom -12393.748519 kJ/mol
# Density = 2.087392 g / cm^3
# Si number density = 20.921540 Si / 1000 Ang^3
#
#
#
# Elastic Constant Matrix: (Units=GPa)
#
#
# Indices 1 2 3 4 5 6 
#
# 1 93.3333 2.4646 31.2953 0.0000 -17.5352 0.0000
# 2 2.4646 38.4016 -0.0027 0.0000 -0.1086 0.0000
# 3 31.2953 -0.0027 74.6789 0.0000 7.2887 0.0000
# 4 0.0000 0.0000 0.0000 31.7125 0.0000 0.8126
# 5 -17.5352 -0.1086 7.2887 0.0000 34.2992 0.0000
# 6 0.0000 0.0000 0.0000 0.8126 0.0000 28.7314
#
#
#
# Elastic Compliance Matrix: (Units=1/GPa)
#
#
# Indices 1 2 3 4 5 6 
#
# 1 0.014826 -0.000926 -0.007100 0.000000 0.009086 0.000000
# 2 -0.000926 0.026099 0.000436 0.000000 -0.000484 0.000000
# 3 -0.007100 0.000436 0.017074 0.000000 -0.007257 0.000000
# 4 0.000000 0.000000 0.000000 0.031556 0.000000 -0.000892
# 5 0.009086 -0.000484 -0.007257 0.000000 0.035341 0.000000
# 6 0.000000 0.000000 0.000000 -0.000892 0.000000 0.034830
#
#
# Mechanical properties :
#
#
# Convention : Reuss Voigt Hill
#
# Bulk Modulus (GPa) = 23.35391 30.43646 26.89518
# Shear Modulus (GPa) = 26.42985 30.45907 28.44446
#
# Velocity S-wave (km/s) = 3.55813 3.81973 3.69125
# Velocity P-wave (km/s) = 5.29785 5.83380 5.57227
#
# Compressibility (1/GPa) = 0.04281939
#
# Stress axis : x y z
#
# Youngs Moduli (GPa) = 67.44694 38.31610 58.56743
#
# Poissons Ratio (x) = 0.03549 0.41583
# Poissons Ratio (y) = 0.06248 -0.02556
# Poissons Ratio (z) = 0.47888 -0.01672
#
# Static dielectric constant tensor:
#      x y z
#    x 4.054440 0.000000 -0.181730 
#    y 0.000000 3.726310 0.000000 
#    z -0.181730 0.000000 3.747010 
# 
# 
# High freq. dielectric constant tensor:
#      x y z
#    x 1.820690 0.000000 -0.009170 
#    y 0.000000 1.824690 0.000000 
#    z -0.009170 0.000000 1.816300 
# 
# From -- ./inp_files/4107.got.cif
#   From: 2010.03.12/outbox.cif.g09.slc.cpg/sg4_3_cif.got.tgz:4107.got - 2010.03.31 09:31:35.
