data_PCOD8046788
_publ_section_title
;
Structure prediction by ZEFSAII (Michael W. Deem and Ramdas Pophale) SiO2 
 PCOD8046788
Probable space group: P 21
;
_chemical_formula_sum "Si O2"
_cell_formula_units_Z 14
_cell_length_a 11.422643
_cell_length_b 9.105954
_cell_length_c 9.726131
_cell_angle_alpha 90.000000
_cell_angle_beta 140.211079
_cell_angle_gamma 90.000000
_cell_volume 647.419485
_symmetry_space_group_name_H-M "P 21"
_symmetry_group_IT_number 4
_symmetry_cell_setting 'monoclinic'
loop_
_space_group_symop_operation_xyz
x,y,z
-x,1/2+y,-z
loop_
_atom_site_type_symbol
_atom_site_label
_atom_site_fract_x
_atom_site_fract_y
_atom_site_fract_z
Si Si1 0.936204 0.964390 0.507760
Si Si2 0.912511 0.428849 0.649091
Si Si3 0.440455 0.590049 0.886992
Si Si4 0.957647 0.759422 0.760447
Si Si5 0.814191 0.778159 0.922118
Si Si6 0.506695 0.396676 0.194985
Si Si7 0.237117 0.989465 0.980741
O O1 0.868723 0.827164 0.541388
O O2 0.772540 0.079596 0.343311
O O3 0.999338 0.899790 0.419639
O O4 0.105900 0.045710 0.736139
O O5 0.973562 0.586749 0.760755
O O6 0.694689 0.410495 0.447899
O O7 0.993993 0.311859 0.829193
O O8 0.498936 0.758344 0.915056
O O9 0.557875 0.482198 0.893784
O O10 0.471693 0.542882 0.073449
O O11 0.832655 0.806603 0.776645
O O12 0.162858 0.830427 0.964467
O O13 0.653114 0.880413 0.836738
O O14 0.770876 0.605990 0.902809
#
# Coordination Sequence:
#
# PCOD8046788 Si02
#       7
#     2   2   2   2   2   2   2
#     4  10  23  38  67  93 125 166 216 273 314 374
#     4  12  24  42  70  97 129 169 226 267 326 389
#     4  11  22  39  66  98 130 164 218 272 326 371
#     4  10  25  44  65  96 130 171 217 265 332 389
#     4  11  23  46  63  95 136 173 209 271 335 394
#     4  11  25  39  67  99 131 173 217 270 325 391
#     4   9  22  40  66  88 133 162 219 264 324 376
#
# _framework density 21.624310999999999
#
# number of rings (size 3 to 8) (size 9 to 14) (size 15 to 20)
#    0.857    0.571    2.857    1.714    8.000    0.000 
#    7.714    0.000    0.000    0.000    0.000    0.000 
#    0.000    0.000    0.000    0.000    0.000    0.000 
#
# Total GULP energy -173567.943316 kJ/mol
# GULP energy per Si atom -12397.710237 kJ/mol
# Density = 2.157509 g / cm^3
# Si number density = 21.624311 Si / 1000 Ang^3
#
#
#
# Elastic Constant Matrix: (Units=GPa)
#
#
# Indices 1 2 3 4 5 6 
#
# 1 116.4226 23.6932 45.0546 0.0000 -17.2467 0.0000
# 2 23.6932 61.8267 5.1094 0.0000 -6.7268 0.0000
# 3 45.0546 5.1094 72.7297 0.0000 7.2403 0.0000
# 4 0.0000 0.0000 0.0000 23.8863 0.0000 2.7173
# 5 -17.2467 -6.7268 7.2403 0.0000 43.3031 0.0000
# 6 0.0000 0.0000 0.0000 2.7173 0.0000 30.9246
#
#
#
# Elastic Compliance Matrix: (Units=1/GPa)
#
#
# Indices 1 2 3 4 5 6 
#
# 1 0.013752 -0.003843 -0.008883 0.000000 0.006365 0.000000
# 2 -0.003843 0.017675 0.001036 0.000000 0.001042 0.000000
# 3 -0.008883 0.001036 0.019846 0.000000 -0.006695 0.000000
# 4 0.000000 0.000000 0.000000 0.042288 0.000000 -0.003716
# 5 0.006365 0.001042 -0.006695 0.000000 0.026909 0.000000
# 6 0.000000 0.000000 0.000000 -0.003716 0.000000 0.032663
#
#
# Mechanical properties :
#
#
# Convention : Reuss Voigt Hill
#
# Bulk Modulus (GPa) = 35.85313 44.29928 40.07620
# Shear Modulus (GPa) = 26.90892 31.43093 29.16993
#
# Velocity S-wave (km/s) = 3.53141 3.81662 3.67678
# Velocity P-wave (km/s) = 5.76574 6.32079 6.04964
#
# Compressibility (1/GPa) = 0.02789157
#
# Stress axis : x y z
#
# Youngs Moduli (GPa) = 72.71618 56.57744 50.38794
#
# Poissons Ratio (x) = 0.21745 0.44759
# Poissons Ratio (y) = 0.27948 -0.05218
# Poissons Ratio (z) = 0.64592 -0.05859
#
# Static dielectric constant tensor:
#      x y z
#    x 3.950860 0.000000 0.078640 
#    y 0.000000 3.651820 0.000000 
#    z 0.078640 0.000000 3.707410 
# 
# 
# High freq. dielectric constant tensor:
#      x y z
#    x 1.856110 0.000000 0.004710 
#    y 0.000000 1.838790 0.000000 
#    z 0.004710 0.000000 1.828310 
# 
# From -- ./inp_files/7607.got.cif
#   From: 2010.03.12/outbox.cif.g09.slc.cpg/sg4_4_cif.got.tgz:7607.got - 2010.03.31 09:31:35.
