data_PCOD8046714
_publ_section_title
;
Structure prediction by ZEFSAII (Michael W. Deem and Ramdas Pophale) SiO2 
 PCOD8046714
Probable space group: P 21
;
_chemical_formula_sum "Si O2"
_cell_formula_units_Z 16
_cell_length_a 11.293116
_cell_length_b 11.538905
_cell_length_c 8.756860
_cell_angle_alpha 90.000000
_cell_angle_beta 38.368152
_cell_angle_gamma 90.000000
_cell_volume 708.299575
_symmetry_space_group_name_H-M "P 21"
_symmetry_group_IT_number 4
_symmetry_cell_setting 'monoclinic'
loop_
_space_group_symop_operation_xyz
x,y,z
-x,1/2+y,-z
loop_
_atom_site_type_symbol
_atom_site_label
_atom_site_fract_x
_atom_site_fract_y
_atom_site_fract_z
Si Si1 0.885208 0.745050 0.377029
Si Si2 0.807678 0.431624 0.629577
Si Si3 0.136993 0.591090 0.329561
Si Si4 0.863850 0.212551 0.381488
Si Si5 0.815256 0.422530 0.971560
Si Si6 0.468866 0.118298 0.213546
Si Si7 0.197374 0.172679 0.861581
Si Si8 0.600019 0.222503 0.370295
O O1 0.665590 0.736240 0.664846
O O2 0.893447 0.665935 0.216180
O O3 0.036972 0.699326 0.346964
O O4 0.964459 0.873916 0.256461
O O5 0.779034 0.308448 0.580008
O O6 0.679188 0.514833 0.656134
O O7 0.030396 0.472158 0.390367
O O8 0.737172 0.432710 0.876516
O O9 0.104993 0.599522 0.544614
O O10 0.363838 0.600066 0.077221
O O11 0.731089 0.178483 0.374503
O O12 0.066408 0.250046 0.105701
O O13 0.795353 0.542696 0.080379
O O14 0.681317 0.334036 0.201149
O O15 0.569410 0.118379 0.278475
O O16 0.394328 0.243865 0.655948
#
# Coordination Sequence:
#
# PCOD8046714 Si02
#       8
#     2   2   2   2   2   2   2   2
#     4  10  22  44  73  97 143 184 222 302 345 419
#     4  11  26  43  74 100 142 197 233 295 350 429
#     4  11  22  44  70 102 142 186 230 293 353 418
#     4  12  24  46  67 106 143 181 240 292 355 417
#     4  12  23  50  69 103 142 186 245 283 365 421
#     4  10  23  46  66 105 140 186 233 286 355 416
#     4  11  26  46  70 102 141 186 234 299 349 433
#     4  11  26  45  71 103 143 184 231 304 342 429
#
# _framework density 22.589312
#
# number of rings (size 3 to 8) (size 9 to 14) (size 15 to 20)
#    0.000    1.000    5.000    0.000    7.000    1.000 
#   11.250    1.250    0.000    0.000    0.000    0.000 
#    0.000    0.000    0.000    0.000    0.000    0.000 
#
# Total GULP energy -198227.272777 kJ/mol
# GULP energy per Si atom -12389.204549 kJ/mol
# Density = 2.253790 g / cm^3
# Si number density = 22.589312 Si / 1000 Ang^3
#
#
#
# Elastic Constant Matrix: (Units=GPa)
#
#
# Indices 1 2 3 4 5 6 
#
# 1 126.5066 46.1262 48.0883 0.0000 12.4128 0.0000
# 2 46.1262 59.4643 5.9895 0.0000 2.9024 0.0000
# 3 48.0883 5.9895 124.8767 0.0000 -11.0557 0.0000
# 4 0.0000 0.0000 0.0000 33.6029 0.0000 4.6793
# 5 12.4128 2.9024 -11.0557 0.0000 41.1503 0.0000
# 6 0.0000 0.0000 0.0000 4.6793 0.0000 26.8361
#
#
#
# Elastic Compliance Matrix: (Units=1/GPa)
#
#
# Indices 1 2 3 4 5 6 
#
# 1 0.014175 -0.010206 -0.005413 0.000000 -0.005010 0.000000
# 2 -0.010206 0.024331 0.002954 0.000000 0.002156 0.000000
# 3 -0.005413 0.002954 0.010322 0.000000 0.004198 0.000000
# 4 0.000000 0.000000 0.000000 0.030500 0.000000 -0.005318
# 5 -0.005010 0.002156 0.004198 0.000000 0.026788 0.000000
# 6 0.000000 0.000000 0.000000 -0.005318 0.000000 0.038191
#
#
# Mechanical properties :
#
#
# Convention : Reuss Voigt Hill
#
# Bulk Modulus (GPa) = 42.55512 56.80619 49.68065
# Shear Modulus (GPa) = 28.17409 34.36076 31.26742
#
# Velocity S-wave (km/s) = 3.53545 3.90437 3.72448
# Velocity P-wave (km/s) = 5.96199 6.74740 6.36682
#
# Compressibility (1/GPa) = 0.02349893
#
# Stress axis : x y z
#
# Youngs Moduli (GPa) = 70.54694 41.10058 96.87886
#
# Poissons Ratio (x) = 0.41946 0.52437
# Poissons Ratio (y) = 0.71998 -0.28618
# Poissons Ratio (z) = 0.38185 -0.12141
#
# Static dielectric constant tensor:
#      x y z
#    x 4.283930 0.000000 0.008910 
#    y 0.000000 3.782140 0.000000 
#    z 0.008910 0.000000 4.451050 
# 
# 
# High freq. dielectric constant tensor:
#      x y z
#    x 1.901970 0.000000 0.007710 
#    y 0.000000 1.859850 0.000000 
#    z 0.007710 0.000000 1.905640 
# 
# From -- ./inp_files/8152.got.cif
#   From: 2010.03.12/outbox.cif.g09.slc.cpg/sg4_5_cif.got.tgz:8152.got - 2010.03.31 09:31:35.
