data_PCOD8046544
_publ_section_title
;
Structure prediction by ZEFSAII (Michael W. Deem and Ramdas Pophale) SiO2 
 PCOD8046544
Probable space group: P 21
;
_chemical_formula_sum "Si O2"
_cell_formula_units_Z 14
_cell_length_a 9.697584
_cell_length_b 13.026711
_cell_length_c 4.983969
_cell_angle_alpha 90.000000
_cell_angle_beta 104.897135
_cell_angle_gamma 90.000000
_cell_volume 608.451001
_symmetry_space_group_name_H-M "P 21"
_symmetry_group_IT_number 4
_symmetry_cell_setting 'monoclinic'
loop_
_space_group_symop_operation_xyz
x,y,z
-x,1/2+y,-z
loop_
_atom_site_type_symbol
_atom_site_label
_atom_site_fract_x
_atom_site_fract_y
_atom_site_fract_z
Si Si1 0.659572 0.742230 0.126296
Si Si2 0.994639 0.547205 0.424906
Si Si3 0.659275 0.182145 0.033085
Si Si4 0.005619 0.877361 0.930668
Si Si5 0.760890 0.962209 0.130455
Si Si6 0.163838 0.188229 0.291714
Si Si7 0.164241 0.736291 0.372239
O O1 0.660671 0.865086 0.130028
O O2 0.703966 0.705929 0.442786
O O3 0.500191 0.712056 0.972900
O O4 0.771343 0.688347 0.975657
O O5 0.907246 0.462339 0.203512
O O6 0.139972 0.487772 0.567624
O O7 0.039883 0.649315 0.278276
O O8 0.908981 0.580289 0.652940
O O9 0.770936 0.236087 0.295568
O O10 0.660664 0.059297 0.030278
O O11 0.703572 0.218619 0.761052
O O12 0.960477 0.775235 0.738801
O O13 0.860230 0.936667 0.928121
O O14 0.091472 0.844277 0.244272
#
# Coordination Sequence:
#
# PCOD8046544 Si02
#       7
#     2   2   2   2   2   2   2
#     4  11  24  45  66  94 137 187 228 271 330 414
#     4  11  22  41  69 104 135 171 225 289 355 403
#     4  11  24  45  66  94 137 187 228 271 330 414
#     4  11  22  41  69 104 135 171 225 289 355 403
#     4  10  22  40  68  94 134 184 224 280 350 404
#     4  11  24  41  68 102 132 172 226 287 339 397
#     4  11  24  41  68 102 132 172 226 287 339 397
#
# _framework density 23.009247999999999
#
# number of rings (size 3 to 8) (size 9 to 14) (size 15 to 20)
#    0.000    1.143    2.857    4.286    4.000    0.000 
#    2.571    0.000    0.000    0.000    0.000    0.000 
#    0.000    0.000    0.000    0.000    0.000    0.000 
#
# Total GULP energy -173560.173201 kJ/mol
# GULP energy per Si atom -12397.155229 kJ/mol
# Density = 2.295688 g / cm^3
# Si number density = 23.009248 Si / 1000 Ang^3
#
#
#
# Elastic Constant Matrix: (Units=GPa)
#
#
# Indices 1 2 3 4 5 6 
#
# 1 96.9443 40.4314 13.2044 0.0000 10.5368 0.0000
# 2 40.4314 110.7516 24.3826 0.0000 5.3735 0.0000
# 3 13.2044 24.3826 75.7353 0.0000 -3.4663 0.0000
# 4 0.0000 0.0000 0.0000 45.7769 0.0000 -2.5546
# 5 10.5368 5.3735 -3.4663 0.0000 31.1022 0.0000
# 6 0.0000 0.0000 0.0000 -2.5546 0.0000 38.3075
#
#
#
# Elastic Compliance Matrix: (Units=1/GPa)
#
#
# Indices 1 2 3 4 5 6 
#
# 1 0.012602 -0.004200 -0.001012 0.000000 -0.003657 0.000000
# 2 -0.004200 0.011248 -0.002928 0.000000 -0.000847 0.000000
# 3 -0.001012 -0.002928 0.014435 0.000000 0.002458 0.000000
# 4 0.000000 0.000000 0.000000 0.021927 0.000000 0.001462
# 5 -0.003657 -0.000847 0.002458 0.000000 0.033811 0.000000
# 6 0.000000 0.000000 0.000000 0.001462 0.000000 0.026202
#
#
# Mechanical properties :
#
#
# Convention : Reuss Voigt Hill
#
# Bulk Modulus (GPa) = 45.44377 48.82978 47.13677
# Shear Modulus (GPa) = 34.76047 36.73150 35.74598
#
# Velocity S-wave (km/s) = 3.89101 3.99981 3.94578
# Velocity P-wave (km/s) = 6.32295 6.52680 6.42569
#
# Compressibility (1/GPa) = 0.02200522
#
# Stress axis : x y z
#
# Youngs Moduli (GPa) = 79.35058 88.90266 69.27406
#
# Poissons Ratio (x) = 0.37343 0.07012
# Poissons Ratio (y) = 0.33330 0.20282
# Poissons Ratio (z) = 0.08032 0.26028
#
# Static dielectric constant tensor:
#      x y z
#    x 3.725310 0.000000 -0.126090 
#    y 0.000000 4.491790 0.000000 
#    z -0.126090 0.000000 4.093060 
# 
# 
# High freq. dielectric constant tensor:
#      x y z
#    x 1.875250 0.000000 -0.015280 
#    y 0.000000 1.915970 0.000000 
#    z -0.015280 0.000000 1.919940 
# 
# From -- ./inp_files/2858.got.cif
#   From: 2010.03.12/outbox.cif.g09.slc.cpg/sg4_2_cif.got.tgz:2858.got - 2010.03.31 09:31:35.
