data_PCOD8046070
_publ_section_title
;
Structure prediction by ZEFSAII (Michael W. Deem and Ramdas Pophale) SiO2 
 PCOD8046070
Probable space group: P 21
;
_chemical_formula_sum "Si O2"
_cell_formula_units_Z 16
_cell_length_a 20.163995
_cell_length_b 5.219918
_cell_length_c 7.269610
_cell_angle_alpha 90.000000
_cell_angle_beta 106.676314
_cell_angle_gamma 90.000000
_cell_volume 732.976802
_symmetry_space_group_name_H-M "P 21"
_symmetry_group_IT_number 4
_symmetry_cell_setting 'monoclinic'
loop_
_space_group_symop_operation_xyz
x,y,z
-x,1/2+y,-z
loop_
_atom_site_type_symbol
_atom_site_label
_atom_site_fract_x
_atom_site_fract_y
_atom_site_fract_z
Si Si1 0.760508 0.529250 0.540254
Si Si2 0.130311 0.552418 0.726281
Si Si3 0.017214 0.491808 0.901311
Si Si4 0.281609 0.383213 0.814629
Si Si5 0.543046 0.464249 0.519288
Si Si6 0.336783 0.258835 0.255586
Si Si7 0.353365 0.650365 0.567643
Si Si8 0.903180 0.547227 0.518378
O O1 0.742621 0.638845 0.322483
O O2 0.732845 0.700006 0.685484
O O3 0.723993 0.256028 0.529074
O O4 0.842861 0.502117 0.622912
O O5 0.098022 0.506694 0.904492
O O6 0.214110 0.560165 0.798983
O O7 0.103130 0.329962 0.570195
O O8 0.103271 0.829470 0.640962
O O9 0.975570 0.525160 0.678718
O O10 0.001550 0.213653 0.971026
O O11 0.346180 0.508856 0.756269
O O12 0.315343 0.316103 0.033807
O O13 0.501822 0.725867 0.437595
O O14 0.605700 0.532207 0.711100
O O15 0.585149 0.363894 0.370107
O O16 0.373573 0.483204 0.403583
#
# Coordination Sequence:
#
# PCOD8046070 Si02
#       8
#     2   2   2   2   2   2   2   2
#     4   9  21  38  62  95 133 178 212 279 335 399
#     4  11  23  43  65  93 127 184 217 276 343 404
#     4  12  26  41  63  97 132 172 230 288 329 403
#     4  10  22  40  67 102 135 168 231 279 334 398
#     4  11  22  43  72  94 133 185 219 262 337 406
#     4  10  22  39  70  99 133 173 219 279 330 391
#     4  10  20  41  68  97 132 172 218 273 332 391
#     4  11  22  43  65  87 133 178 226 264 348 396
#
# _framework density 21.828793000000001
#
# number of rings (size 3 to 8) (size 9 to 14) (size 15 to 20)
#    0.000    1.500    2.500    2.250    1.750    3.000 
#    0.000    0.000   11.000    0.000    0.000    0.000 
#    0.000    0.000    0.000    0.000    0.000    0.000 
#
# Total GULP energy -198259.702729 kJ/mol
# GULP energy per Si atom -12391.231421 kJ/mol
# Density = 2.177911 g / cm^3
# Si number density = 21.828793 Si / 1000 Ang^3
#
#
#
# Elastic Constant Matrix: (Units=GPa)
#
#
# Indices 1 2 3 4 5 6 
#
# 1 111.9750 29.1251 37.6409 0.0000 -8.7994 0.0000
# 2 29.1251 91.6092 25.3844 0.0000 -6.9282 0.0000
# 3 37.6409 25.3844 119.4066 0.0000 -8.6857 0.0000
# 4 0.0000 0.0000 0.0000 23.6889 0.0000 -4.1288
# 5 -8.7994 -6.9282 -8.6857 0.0000 16.8025 0.0000
# 6 0.0000 0.0000 0.0000 -4.1288 0.0000 40.0563
#
#
#
# Elastic Compliance Matrix: (Units=1/GPa)
#
#
# Indices 1 2 3 4 5 6 
#
# 1 0.010698 -0.002430 -0.002620 0.000000 0.003247 0.000000
# 2 -0.002430 0.012370 -0.001647 0.000000 0.002977 0.000000
# 3 -0.002620 -0.001647 0.009769 0.000000 0.002999 0.000000
# 4 0.000000 0.000000 0.000000 0.042986 0.000000 0.004431
# 5 0.003247 0.002977 0.002999 0.000000 0.063993 0.000000
# 6 0.000000 0.000000 0.000000 0.004431 0.000000 0.025422
#
#
# Mechanical properties :
#
#
# Convention : Reuss Voigt Hill
#
# Bulk Modulus (GPa) = 51.43089 56.36572 53.89831
# Shear Modulus (GPa) = 27.01064 31.49892 29.25478
#
# Velocity S-wave (km/s) = 3.52147 3.80280 3.66484
# Velocity P-wave (km/s) = 6.33613 6.72008 6.53093
#
# Compressibility (1/GPa) = 0.01944357
#
# Stress axis : x y z
#
# Youngs Moduli (GPa) = 93.47242 80.84077 102.36584
#
# Poissons Ratio (x) = 0.19643 0.26817
# Poissons Ratio (y) = 0.22712 0.16862
# Poissons Ratio (z) = 0.24487 0.13316
#
# Static dielectric constant tensor:
#      x y z
#    x 4.434680 0.000000 -0.250030 
#    y 0.000000 4.191920 0.000000 
#    z -0.250030 0.000000 3.453590 
# 
# 
# High freq. dielectric constant tensor:
#      x y z
#    x 1.880850 0.000000 -0.019230 
#    y 0.000000 1.872110 0.000000 
#    z -0.019230 0.000000 1.812400 
# 
# From -- ./inp_files/4332.got.cif
#   From: 2010.03.12/outbox.cif.g09.slc.cpg/sg4_3_cif.got.tgz:4332.got - 2010.03.31 09:31:35.
