data_PCOD8046783
_publ_section_title
;
Structure prediction by ZEFSAII (Michael W. Deem and Ramdas Pophale) SiO2 
 PCOD8046783
Probable space group: P 21
;
_chemical_formula_sum "Si O2"
_cell_formula_units_Z 14
_cell_length_a 11.755999
_cell_length_b 5.090004
_cell_length_c 14.509031
_cell_angle_alpha 90.000000
_cell_angle_beta 136.707629
_cell_angle_gamma 90.000000
_cell_volume 595.338273
_symmetry_space_group_name_H-M "P 21"
_symmetry_group_IT_number 4
_symmetry_cell_setting 'monoclinic'
loop_
_space_group_symop_operation_xyz
x,y,z
-x,1/2+y,-z
loop_
_atom_site_type_symbol
_atom_site_label
_atom_site_fract_x
_atom_site_fract_y
_atom_site_fract_z
Si Si1 0.476920 0.267530 0.432173
Si Si2 0.861979 0.280613 0.059620
Si Si3 0.221365 0.693964 0.504106
Si Si4 0.302847 0.644489 0.221543
Si Si5 0.481267 0.726408 0.047940
Si Si6 0.656097 0.710997 0.338630
Si Si7 0.059523 0.785279 0.223552
O O1 0.558620 0.554345 0.509326
O O2 0.611161 0.122552 0.450350
O O3 0.320047 0.344854 0.273165
O O4 0.951130 0.562920 0.107942
O O5 0.974871 0.067967 0.176983
O O6 0.692492 0.324143 0.014197
O O7 0.829491 0.165657 0.938241
O O8 0.211234 0.445555 0.566491
O O9 0.078625 0.706057 0.342342
O O10 0.238418 0.955522 0.573499
O O11 0.482989 0.739953 0.292850
O O12 0.234804 0.810618 0.270303
O O13 0.618226 0.700257 0.208124
O O14 0.456470 0.441218 0.988199
#
# Coordination Sequence:
#
# PCOD8046783 Si02
#       7
#     2   2   2   2   2   2   2
#     4  11  21  33  54  85 118 167 230 246 279 338
#     4  11  26  42  58  96 121 161 213 250 305 383
#     4  11  22  36  59  89 133 169 207 250 298 350
#     4  10  23  37  60  86 133 171 210 251 290 348
#     4  11  23  46  77  92 114 151 205 278 330 356
#     4  10  23  39  63  99 121 155 222 265 292 358
#     4  12  24  37  61  85 140 176 195 230 304 381
#
# _framework density 23.516041999999999
#
# number of rings (size 3 to 8) (size 9 to 14) (size 15 to 20)
#    0.000    1.143    1.429    5.143    2.000    8.000 
#    0.000    0.000    0.000   17.143    0.000    0.000 
#    0.000    0.000    0.000    0.000    0.000    0.000 
#
# Total GULP energy -173500.890391 kJ/mol
# GULP energy per Si atom -12392.920742 kJ/mol
# Density = 2.346252 g / cm^3
# Si number density = 23.516042 Si / 1000 Ang^3
#
#
#
# Elastic Constant Matrix: (Units=GPa)
#
#
# Indices 1 2 3 4 5 6 
#
# 1 40.3242 10.3636 16.7256 0.0000 -17.2610 0.0000
# 2 10.3636 134.2113 40.3768 0.0000 -16.1474 0.0000
# 3 16.7256 40.3768 114.6531 0.0000 -40.5939 0.0000
# 4 0.0000 0.0000 0.0000 44.5378 0.0000 -4.0717
# 5 -17.2610 -16.1474 -40.5939 0.0000 34.1012 0.0000
# 6 0.0000 0.0000 0.0000 -4.0717 0.0000 19.4730
#
#
#
# Elastic Compliance Matrix: (Units=1/GPa)
#
#
# Indices 1 2 3 4 5 6 
#
# 1 0.031980 -0.000910 0.002133 0.000000 0.018295 0.000000
# 2 -0.000910 0.008372 -0.002723 0.000000 0.000263 0.000000
# 3 0.002133 -0.002723 0.016067 0.000000 0.018917 0.000000
# 4 0.000000 0.000000 0.000000 0.022890 0.000000 0.004786
# 5 0.018295 0.000263 0.018917 0.000000 0.061228 0.000000
# 6 0.000000 0.000000 0.000000 0.004786 0.000000 0.052354
#
#
# Mechanical properties :
#
#
# Convention : Reuss Voigt Hill
#
# Bulk Modulus (GPa) = 18.71979 47.12451 32.92215
# Shear Modulus (GPa) = 23.39767 34.40391 28.90079
#
# Velocity S-wave (km/s) = 3.15773 3.82906 3.50949
# Velocity P-wave (km/s) = 4.61224 6.29538 5.51836
#
# Compressibility (1/GPa) = 0.05341940
#
# Stress axis : x y z
#
# Youngs Moduli (GPa) = 31.26998 119.44774 62.23835
#
# Poissons Ratio (x) = 0.10869 -0.13274
# Poissons Ratio (y) = 0.02845 0.16944
# Poissons Ratio (z) = -0.06669 0.32520
#
# Static dielectric constant tensor:
#      x y z
#    x 3.822360 0.000000 -0.214860 
#    y 0.000000 4.081280 0.000000 
#    z -0.214860 0.000000 4.506750 
# 
# 
# High freq. dielectric constant tensor:
#      x y z
#    x 1.891410 0.000000 -0.019060 
#    y 0.000000 1.941820 0.000000 
#    z -0.019060 0.000000 1.946170 
# 
# From -- ./inp_files/13860.got.cif
#   From: 2010.03.12/outbox.cif.g09.slc.cpg/sg4_7_cif.got.tgz:13860.got - 2010.03.31 09:31:35.
