data_PCOD8046455
_publ_section_title
;
Structure prediction by ZEFSAII (Michael W. Deem and Ramdas Pophale) SiO2 
 PCOD8046455
Probable space group: P 21
;
_chemical_formula_sum "Si O2"
_cell_formula_units_Z 16
_cell_length_a 13.484920
_cell_length_b 12.057139
_cell_length_c 5.179271
_cell_angle_alpha 90.000000
_cell_angle_beta 61.135396
_cell_angle_gamma 90.000000
_cell_volume 737.475897
_symmetry_space_group_name_H-M "P 21"
_symmetry_group_IT_number 4
_symmetry_cell_setting 'monoclinic'
loop_
_space_group_symop_operation_xyz
x,y,z
-x,1/2+y,-z
loop_
_atom_site_type_symbol
_atom_site_label
_atom_site_fract_x
_atom_site_fract_y
_atom_site_fract_z
Si Si1 0.222688 0.237920 0.611269
Si Si2 0.617625 0.867146 0.883218
Si Si3 0.594982 0.665988 0.230983
Si Si4 0.797391 0.167440 0.233605
Si Si5 0.827533 0.291308 0.680227
Si Si6 0.974477 0.688350 0.824552
Si Si7 0.601982 0.007066 0.415338
Si Si8 0.199839 0.049633 0.258386
O O1 0.251896 0.328496 0.350931
O O2 0.336721 0.237035 0.641404
O O3 0.195617 0.116144 0.532452
O O4 0.112210 0.271257 0.916067
O O5 0.564073 0.923762 0.694007
O O6 0.556631 0.752383 0.052217
O O7 0.610420 0.953223 0.124445
O O8 0.485684 0.608680 0.491615
O O9 0.678171 0.570501 0.022908
O O10 0.756089 0.238365 0.533755
O O11 0.726879 0.054246 0.315466
O O12 0.931054 0.137687 0.098544
O O13 0.778074 0.242867 0.006420
O O14 0.813179 0.421313 0.675545
O O15 0.961139 0.259779 0.477781
O O16 0.902586 0.588424 0.795383
#
# Coordination Sequence:
#
# PCOD8046455 Si02
#       8
#     2   2   2   2   2   2   2   2
#     4  10  21  48  64 103 135 175 231 278 322 424
#     4  11  25  46  69 103 132 186 223 274 348 390
#     4  10  25  44  72  99 141 172 234 277 326 420
#     4  10  24  46  60 101 139 165 229 276 332 406
#     4  10  23  44  65 101 133 181 216 283 342 391
#     4   9  22  42  67  95 140 172 227 277 332 403
#     4  12  26  46  71 102 138 180 222 283 344 394
#     4  10  22  42  70  98 134 179 226 274 342 398
#
# _framework density 21.695625
#
# number of rings (size 3 to 8) (size 9 to 14) (size 15 to 20)
#    0.750    1.000    1.250    1.500    7.000    2.000 
#   13.500    0.000    0.000    0.000    0.000    0.000 
#    0.000    0.000    0.000    0.000    0.000    0.000 
#
# Total GULP energy -198266.093616 kJ/mol
# GULP energy per Si atom -12391.630851 kJ/mol
# Density = 2.164624 g / cm^3
# Si number density = 21.695625 Si / 1000 Ang^3
#
#
#
# Elastic Constant Matrix: (Units=GPa)
#
#
# Indices 1 2 3 4 5 6 
#
# 1 64.9432 8.7685 36.2166 0.0000 -7.7266 0.0000
# 2 8.7685 67.2342 30.3357 0.0000 -6.3739 0.0000
# 3 36.2166 30.3357 102.8904 0.0000 15.2464 0.0000
# 4 0.0000 0.0000 0.0000 38.9292 0.0000 5.6546
# 5 -7.7266 -6.3739 15.2464 0.0000 36.3413 0.0000
# 6 0.0000 0.0000 0.0000 5.6546 0.0000 23.4312
#
#
#
# Elastic Compliance Matrix: (Units=1/GPa)
#
#
# Indices 1 2 3 4 5 6 
#
# 1 0.021510 0.002387 -0.009613 0.000000 0.009025 0.000000
# 2 0.002387 0.018505 -0.007307 0.000000 0.006819 0.000000
# 3 -0.009613 -0.007307 0.016794 0.000000 -0.010371 0.000000
# 4 0.000000 0.000000 0.000000 0.026621 0.000000 -0.006424
# 5 0.009025 0.006819 -0.010371 0.000000 0.034982 0.000000
# 6 0.000000 0.000000 0.000000 -0.006424 0.000000 0.044229
#
#
# Mechanical properties :
#
#
# Convention : Reuss Voigt Hill
#
# Bulk Modulus (GPa) = 36.04231 42.85658 39.44944
# Shear Modulus (GPa) = 24.88146 30.39015 27.63580
#
# Velocity S-wave (km/s) = 3.39018 3.74672 3.57290
# Velocity P-wave (km/s) = 5.65448 6.20594 5.93662
#
# Compressibility (1/GPa) = 0.02774517
#
# Stress axis : x y z
#
# Youngs Moduli (GPa) = 46.48988 54.03892 59.54630
#
# Poissons Ratio (x) = -0.12901 0.57239
# Poissons Ratio (y) = -0.11099 0.43509
# Poissons Ratio (z) = 0.44689 0.39485
#
# Static dielectric constant tensor:
#      x y z
#    x 3.726140 0.000000 0.079070 
#    y 0.000000 3.645390 0.000000 
#    z 0.079070 0.000000 4.214210 
# 
# 
# High freq. dielectric constant tensor:
#      x y z
#    x 1.832490 0.000000 0.009350 
#    y 0.000000 1.837780 0.000000 
#    z 0.009350 0.000000 1.871720 
# 
# From -- ./inp_files/3750.got.cif
#   From: 2010.03.12/outbox.cif.g09.slc.cpg/sg4_2_cif.got.tgz:3750.got - 2010.03.31 09:31:35.
