data_PCOD8046540
_publ_section_title
;
Structure prediction by ZEFSAII (Michael W. Deem and Ramdas Pophale) SiO2 
 PCOD8046540
Probable space group: P 21
;
_chemical_formula_sum "Si O2"
_cell_formula_units_Z 16
_cell_length_a 9.349403
_cell_length_b 7.488497
_cell_length_c 14.940149
_cell_angle_alpha 90.000000
_cell_angle_beta 40.641591
_cell_angle_gamma 90.000000
_cell_volume 681.288959
_symmetry_space_group_name_H-M "P 21"
_symmetry_group_IT_number 4
_symmetry_cell_setting 'monoclinic'
loop_
_space_group_symop_operation_xyz
x,y,z
-x,1/2+y,-z
loop_
_atom_site_type_symbol
_atom_site_label
_atom_site_fract_x
_atom_site_fract_y
_atom_site_fract_z
Si Si1 0.642386 0.213090 0.977925
Si Si2 0.268770 0.461553 0.611923
Si Si3 0.694382 0.812875 0.997921
Si Si4 0.302574 0.886210 0.865455
Si Si5 0.719702 0.347582 0.465157
Si Si6 0.017008 0.678272 0.334246
Si Si7 0.383720 0.689647 0.300378
Si Si8 0.922788 0.088295 0.124288
O O1 0.405397 0.222083 0.043715
O O2 0.822195 0.253878 0.817785
O O3 0.642642 0.361699 0.055216
O O4 0.695232 0.023664 0.993654
O O5 0.529431 0.432310 0.494355
O O6 0.208031 0.657071 0.606236
O O7 0.181630 0.319939 0.579366
O O8 0.168386 0.444180 0.760448
O O9 0.558901 0.772887 0.150956
O O10 0.938156 0.738118 0.889526
O O11 0.278278 0.697694 0.825952
O O12 0.505462 0.997505 0.725191
O O13 0.066786 0.989943 0.978814
O O14 0.928577 0.478559 0.359809
O O15 0.638006 0.320874 0.605477
O O16 0.142481 0.673905 0.369852
#
# Coordination Sequence:
#
# PCOD8046540 Si02
#       8
#     2   2   2   2   2   2   2   2
#     4  11  21  42  68 101 138 177 227 283 352 419
#     4  12  27  46  72  98 135 190 234 284 344 418
#     4  10  22  40  68 102 137 175 223 284 352 421
#     4  11  24  41  71 105 141 174 222 292 356 421
#     4  12  28  48  69 100 140 185 240 287 340 413
#     4  11  25  50  72 100 138 186 235 289 343 413
#     4  10  27  46  69 105 136 179 234 290 350 414
#     4  11  24  41  67 105 135 182 221 283 359 417
#
# _framework density 23.484893
#
# number of rings (size 3 to 8) (size 9 to 14) (size 15 to 20)
#    0.000    1.000    2.500    3.750   10.500    1.000 
#    0.000    0.000    0.000    0.000    0.000    0.000 
#    0.000    0.000    0.000    0.000    0.000    0.000 
#
# Total GULP energy -198413.895239 kJ/mol
# GULP energy per Si atom -12400.868452 kJ/mol
# Density = 2.343144 g / cm^3
# Si number density = 23.484893 Si / 1000 Ang^3
#
#
#
# Elastic Constant Matrix: (Units=GPa)
#
#
# Indices 1 2 3 4 5 6 
#
# 1 88.8011 2.1977 14.7781 0.0000 -0.8086 0.0000
# 2 2.1977 71.5963 -5.7814 0.0000 4.6202 0.0000
# 3 14.7781 -5.7814 28.5196 0.0000 -2.4671 0.0000
# 4 0.0000 0.0000 0.0000 32.6918 0.0000 1.9308
# 5 -0.8086 4.6202 -2.4671 0.0000 23.8034 0.0000
# 6 0.0000 0.0000 0.0000 1.9308 0.0000 46.7675
#
#
#
# Elastic Compliance Matrix: (Units=1/GPa)
#
#
# Indices 1 2 3 4 5 6 
#
# 1 0.012382 -0.000908 -0.006608 0.000000 -0.000088 0.000000
# 2 -0.000908 0.014413 0.003176 0.000000 -0.002499 0.000000
# 3 -0.006608 0.003176 0.039412 0.000000 0.003244 0.000000
# 4 0.000000 0.000000 0.000000 0.030663 0.000000 -0.001266
# 5 -0.000088 -0.002499 0.003244 0.000000 0.042829 0.000000
# 6 0.000000 0.000000 0.000000 -0.001266 0.000000 0.021435
#
#
# Mechanical properties :
#
#
# Convention : Reuss Voigt Hill
#
# Bulk Modulus (GPa) = 17.38297 23.47843 20.43070
# Shear Modulus (GPa) = 26.45637 32.50071 29.47854
#
# Velocity S-wave (km/s) = 3.36002 3.72411 3.54674
# Velocity P-wave (km/s) = 4.74034 5.33957 5.04885
#
# Compressibility (1/GPa) = 0.05752756
#
# Stress axis : x y z
#
# Youngs Moduli (GPa) = 80.75933 69.38274 25.37289
#
# Poissons Ratio (x) = 0.06300 0.16766
# Poissons Ratio (y) = 0.07333 -0.08058
# Poissons Ratio (z) = 0.53365 -0.22036
#
# Static dielectric constant tensor:
#      x y z
#    x 4.436870 0.000000 -0.029200 
#    y 0.000000 4.236340 0.000000 
#    z -0.029200 0.000000 3.956740 
# 
# 
# High freq. dielectric constant tensor:
#      x y z
#    x 1.941050 0.000000 -0.003080 
#    y 0.000000 1.934160 0.000000 
#    z -0.003080 0.000000 1.910970 
# 
# From -- ./inp_files/13654.got.cif
#   From: 2010.03.12/outbox.cif.g09.slc.cpg/sg4_7_cif.got.tgz:13654.got - 2010.03.31 09:31:35.
