data_PCOD8046537
_publ_section_title
;
Structure prediction by ZEFSAII (Michael W. Deem and Ramdas Pophale) SiO2 
 PCOD8046537
Probable space group: P 21
;
_chemical_formula_sum "Si O2"
_cell_formula_units_Z 12
_cell_length_a 9.274208
_cell_length_b 8.603619
_cell_length_c 9.916221
_cell_angle_alpha 90.000000
_cell_angle_beta 27.898195
_cell_angle_gamma 90.000000
_cell_volume 370.219317
_symmetry_space_group_name_H-M "P 21"
_symmetry_group_IT_number 4
_symmetry_cell_setting 'monoclinic'
loop_
_space_group_symop_operation_xyz
x,y,z
-x,1/2+y,-z
loop_
_atom_site_type_symbol
_atom_site_label
_atom_site_fract_x
_atom_site_fract_y
_atom_site_fract_z
Si Si1 0.144877 0.186380 0.540316
Si Si2 0.274444 0.597037 0.817551
Si Si3 0.064056 0.985694 0.195244
Si Si4 0.325219 0.917626 0.670258
Si Si5 0.524906 0.272641 0.991130
Si Si6 0.545487 0.194093 0.674194
O O1 0.159659 0.333597 0.635648
O O2 0.782075 0.140543 0.829723
O O3 0.397620 0.059391 0.378354
O O4 0.218569 0.251122 0.330349
O O5 0.234603 0.785647 0.856771
O O6 0.365910 0.543261 0.581867
O O7 0.987614 0.509123 0.121698
O O8 0.327255 0.941491 0.089060
O O9 0.887372 0.128541 0.409930
O O10 0.257237 0.052982 0.896214
O O11 0.481034 0.826337 0.414837
O O12 0.439735 0.263792 0.904865
#
# Coordination Sequence:
#
# PCOD8046537 Si02
#       6
#     2   2   2   2   2   2
#     4  10  22  45  72 107 147 212 249 312 396 456
#     4  12  28  53  78 115 154 206 268 327 400 469
#     4  10  22  41  69 107 150 211 246 323 379 459
#     4  12  30  50  81 114 153 208 262 342 387 478
#     4  10  22  40  67 111 152 206 242 320 380 470
#     4  12  24  43  73 114 154 199 267 318 390 464
#
# _framework density 32.413217000000003
#
# number of rings (size 3 to 8) (size 9 to 14) (size 15 to 20)
#    1.000    0.000    1.667    4.000    2.333    5.333 
#    0.000    0.000    0.000    0.000    0.000    0.000 
#    0.000    0.000    0.000    0.000    0.000    0.000 
#
# Total GULP energy -148664.514966 kJ/mol
# GULP energy per Si atom -12388.709580 kJ/mol
# Density = 3.233944 g / cm^3
# Si number density = 32.413217 Si / 1000 Ang^3
#
#
#
# Elastic Constant Matrix: (Units=GPa)
#
#
# Indices 1 2 3 4 5 6 
#
# 1 99.2217 37.4905 16.8281 0.0000 23.0110 0.0000
# 2 37.4905 122.0789 69.0444 0.0000 -6.5279 0.0000
# 3 16.8281 69.0444 265.7913 0.0000 31.4011 0.0000
# 4 0.0000 0.0000 0.0000 50.2287 0.0000 -4.6042
# 5 23.0110 -6.5279 31.4011 0.0000 30.5324 0.0000
# 6 0.0000 0.0000 0.0000 -4.6042 0.0000 26.4463
#
#
#
# Elastic Compliance Matrix: (Units=1/GPa)
#
#
# Indices 1 2 3 4 5 6 
#
# 1 0.016406 -0.007619 0.002952 0.000000 -0.017030 0.000000
# 2 -0.007619 0.013943 -0.004747 0.000000 0.013605 0.000000
# 3 0.002952 -0.004747 0.005909 0.000000 -0.009317 0.000000
# 4 0.000000 0.000000 0.000000 0.020232 0.000000 0.003522
# 5 -0.017030 0.013605 -0.009317 0.000000 0.058078 0.000000
# 6 0.000000 0.000000 0.000000 0.003522 0.000000 0.038426
#
#
# Mechanical properties :
#
#
# Convention : Reuss Voigt Hill
#
# Bulk Modulus (GPa) = 57.36630 81.53532 69.45081
# Shear Modulus (GPa) = 28.14821 45.69006 36.91914
#
# Velocity S-wave (km/s) = 2.95009 3.75855 3.37859
# Velocity P-wave (km/s) = 5.41672 6.63666 6.05748
#
# Compressibility (1/GPa) = 0.01743184
#
# Stress axis : x y z
#
# Youngs Moduli (GPa) = 60.95416 71.71858 169.22347
#
# Poissons Ratio (x) = 0.54639 -0.49959
# Poissons Ratio (y) = 0.46438 0.80331
# Poissons Ratio (z) = -0.17995 0.34045
#
# Static dielectric constant tensor:
#      x y z
#    x 6.063740 0.000000 0.376930 
#    y 0.000000 6.555630 0.000000 
#    z 0.376930 0.000000 6.630220 
# 
# 
# High freq. dielectric constant tensor:
#      x y z
#    x 2.350580 0.000000 0.015530 
#    y 0.000000 2.349760 0.000000 
#    z 0.015530 0.000000 2.394120 
# 
# From -- ./inp_files/12236.got.cif
#   From: 2010.03.12/outbox.cif.g09.slc.cpg/sg4_7_cif.got.tgz:12236.got - 2010.03.31 09:31:35.
