data_PCOD8046074
_publ_section_title
;
Structure prediction by ZEFSAII (Michael W. Deem and Ramdas Pophale) SiO2 
 PCOD8046074
Probable space group: P 21
;
_chemical_formula_sum "Si O2"
_cell_formula_units_Z 16
_cell_length_a 12.265892
_cell_length_b 11.592764
_cell_length_c 6.233405
_cell_angle_alpha 90.000000
_cell_angle_beta 127.650626
_cell_angle_gamma 90.000000
_cell_volume 701.777866
_symmetry_space_group_name_H-M "P 21"
_symmetry_group_IT_number 4
_symmetry_cell_setting 'monoclinic'
loop_
_space_group_symop_operation_xyz
x,y,z
-x,1/2+y,-z
loop_
_atom_site_type_symbol
_atom_site_label
_atom_site_fract_x
_atom_site_fract_y
_atom_site_fract_z
Si Si1 0.357570 0.494670 0.893672
Si Si2 0.255301 0.265233 0.635039
Si Si3 0.643787 0.163993 0.498797
Si Si4 0.983312 0.916018 0.825892
Si Si5 0.883926 0.554414 0.391780
Si Si6 0.764245 0.397569 0.597694
Si Si7 0.412246 0.099934 0.529785
Si Si8 0.142521 0.561496 0.964888
O O1 0.369002 0.357929 0.852707
O O2 0.328129 0.568560 0.646207
O O3 0.490239 0.546015 0.168670
O O4 0.220983 0.494382 0.872076
O O5 0.222044 0.162245 0.767517
O O6 0.324210 0.207468 0.509122
O O7 0.108130 0.323551 0.408543
O O8 0.659763 0.292366 0.422524
O O9 0.493219 0.142415 0.417630
O O10 0.756746 0.160916 0.826103
O O11 0.051181 0.011512 0.750819
O O12 0.103419 0.854471 0.108234
O O13 0.880598 0.977220 0.864864
O O14 0.807316 0.448197 0.417673
O O15 0.999536 0.606027 0.694096
O O16 0.690065 0.495490 0.654236
#
# Coordination Sequence:
#
# PCOD8046074 Si02
#       8
#     2   2   2   2   2   2   2   2
#     4  11  24  44  67  97 133 182 224 273 341 400
#     4  11  23  46  68  98 137 179 221 282 339 400
#     4  11  23  42  70  91 134 185 219 281 334 401
#     4  11  22  44  71  96 138 177 218 287 340 402
#     4  10  22  41  66 104 135 171 223 281 345 405
#     4  10  25  43  63 103 134 169 231 285 335 407
#     4  10  27  44  64 102 133 173 236 273 336 412
#     4  10  20  42  61 103 132 166 232 264 334 411
#
# _framework density 22.799234999999999
#
# number of rings (size 3 to 8) (size 9 to 14) (size 15 to 20)
#    0.000    1.500    2.500    0.750    3.500    6.000 
#    6.750    0.000    0.000    0.000    0.000    0.000 
#    0.000    0.000    0.000    0.000    0.000    0.000 
#
# Total GULP energy -198333.220096 kJ/mol
# GULP energy per Si atom -12395.826256 kJ/mol
# Density = 2.274734 g / cm^3
# Si number density = 22.799235 Si / 1000 Ang^3
#
#
#
# Elastic Constant Matrix: (Units=GPa)
#
#
# Indices 1 2 3 4 5 6 
#
# 1 155.0382 60.4327 17.5589 0.0000 -22.6833 0.0000
# 2 60.4327 119.4203 22.2531 0.0000 -10.9110 0.0000
# 3 17.5589 22.2531 51.9734 0.0000 1.1966 0.0000
# 4 0.0000 0.0000 0.0000 17.7895 0.0000 3.9235
# 5 -22.6833 -10.9110 1.1966 0.0000 37.9305 0.0000
# 6 0.0000 0.0000 0.0000 3.9235 0.0000 37.1031
#
#
#
# Elastic Compliance Matrix: (Units=1/GPa)
#
#
# Indices 1 2 3 4 5 6 
#
# 1 0.008680 -0.003747 -0.001424 0.000000 0.004158 0.000000
# 2 -0.003747 0.011012 -0.003473 0.000000 0.001036 0.000000
# 3 -0.001424 -0.003473 0.021267 0.000000 -0.002521 0.000000
# 4 0.000000 0.000000 0.000000 0.057555 0.000000 -0.006086
# 5 0.004158 0.001036 -0.002521 0.000000 0.029228 0.000000
# 6 0.000000 0.000000 0.000000 -0.006086 0.000000 0.027595
#
#
# Mechanical properties :
#
#
# Convention : Reuss Voigt Hill
#
# Bulk Modulus (GPa) = 42.24594 58.54681 50.39638
# Shear Modulus (GPa) = 27.69836 33.64378 30.67107
#
# Velocity S-wave (km/s) = 3.48930 3.84559 3.67177
# Velocity P-wave (km/s) = 5.89944 6.74189 6.33469
#
# Compressibility (1/GPa) = 0.02367091
#
# Stress axis : x y z
#
# Youngs Moduli (GPa) = 115.20260 90.81007 47.02209
#
# Poissons Ratio (x) = 0.34031 0.06695
# Poissons Ratio (y) = 0.43172 0.16330
# Poissons Ratio (z) = 0.16403 0.31536
#
# Static dielectric constant tensor:
#      x y z
#    x 4.227700 0.000000 0.171700 
#    y 0.000000 3.965090 0.000000 
#    z 0.171700 0.000000 3.937890 
# 
# 
# High freq. dielectric constant tensor:
#      x y z
#    x 1.913200 0.000000 0.010980 
#    y 0.000000 1.895950 0.000000 
#    z 0.010980 0.000000 1.888600 
# 
# From -- ./inp_files/3042.got.cif
#   From: 2010.03.12/outbox.cif.g09.slc.cpg/sg4_2_cif.got.tgz:3042.got - 2010.03.31 09:31:35.
