data_PCOD8046984
_publ_section_title
;
Structure prediction by ZEFSAII (Michael W. Deem and Ramdas Pophale) SiO2 
 PCOD8046984
Probable space group: P 21
;
_chemical_formula_sum "Si O2"
_cell_formula_units_Z 14
_cell_length_a 8.948373
_cell_length_b 13.723386
_cell_length_c 9.591854
_cell_angle_alpha 90.000000
_cell_angle_beta 149.796949
_cell_angle_gamma 90.000000
_cell_volume 592.560716
_symmetry_space_group_name_H-M "P 21"
_symmetry_group_IT_number 4
_symmetry_cell_setting 'monoclinic'
loop_
_space_group_symop_operation_xyz
x,y,z
-x,1/2+y,-z
loop_
_atom_site_type_symbol
_atom_site_label
_atom_site_fract_x
_atom_site_fract_y
_atom_site_fract_z
Si Si1 0.133735 0.623500 0.387218
Si Si2 0.931688 0.554961 0.502597
Si Si3 0.788107 0.309635 0.855806
Si Si4 0.329944 0.246771 0.095591
Si Si5 0.646741 0.953472 0.964075
Si Si6 0.180876 0.193803 0.342408
Si Si7 0.006539 0.019716 0.006135
O O1 0.411319 0.697781 0.604042
O O2 0.154644 0.569904 0.553127
O O3 0.810157 0.675398 0.132782
O O4 0.134547 0.552410 0.254630
O O5 0.870871 0.651438 0.545269
O O6 0.067649 0.469856 0.708764
O O7 0.620210 0.517443 0.191743
O O8 0.477577 0.258917 0.568337
O O9 0.768720 0.427815 0.836716
O O10 0.044891 0.274400 0.958378
O O11 0.901900 0.267285 0.095649
O O12 0.455448 0.341612 0.119480
O O13 0.722062 0.987940 0.867470
O O14 0.182236 0.107747 0.224763
#
# Coordination Sequence:
#
# PCOD8046984 Si02
#       7
#     2   2   2   2   2   2   2
#     4  12  25  44  68 104 139 173 223 291 346 390
#     4  11  24  44  69  97 139 182 219 276 348 410
#     4  11  24  42  72 105 131 178 239 280 341 401
#     4  11  24  41  71  99 134 178 228 281 337 412
#     4  10  23  46  70  95 132 185 231 266 341 421
#     4  11  23  44  69  97 141 181 226 279 341 416
#     4  10  25  45  75 101 138 179 232 297 336 394
#
# _framework density 23.626272
#
# number of rings (size 3 to 8) (size 9 to 14) (size 15 to 20)
#    0.000    1.143    1.429    4.286    2.000    8.000 
#    7.714    0.000    0.000    0.000    0.000    0.000 
#    0.000    0.000    0.000    0.000    0.000    0.000 
#
# Total GULP energy -173535.648956 kJ/mol
# GULP energy per Si atom -12395.403497 kJ/mol
# Density = 2.357250 g / cm^3
# Si number density = 23.626272 Si / 1000 Ang^3
#
#
#
# Elastic Constant Matrix: (Units=GPa)
#
#
# Indices 1 2 3 4 5 6 
#
# 1 78.6026 25.4465 28.1556 0.0000 -18.1325 0.0000
# 2 25.4465 141.4224 58.6475 0.0000 -1.9515 0.0000
# 3 28.1556 58.6475 127.1443 0.0000 3.9238 0.0000
# 4 0.0000 0.0000 0.0000 44.5935 0.0000 7.7675
# 5 -18.1325 -1.9515 3.9238 0.0000 31.7645 0.0000
# 6 0.0000 0.0000 0.0000 7.7675 0.0000 17.7339
#
#
#
# Elastic Compliance Matrix: (Units=1/GPa)
#
#
# Indices 1 2 3 4 5 6 
#
# 1 0.016654 -0.001491 -0.003303 0.000000 0.009823 0.000000
# 2 -0.001491 0.008911 -0.003785 0.000000 0.000164 0.000000
# 3 -0.003303 -0.003785 0.010448 0.000000 -0.003409 0.000000
# 4 0.000000 0.000000 0.000000 0.024277 0.000000 -0.010633
# 5 0.009823 0.000164 -0.003409 0.000000 0.037520 0.000000
# 6 0.000000 0.000000 0.000000 -0.010633 0.000000 0.061046
#
#
# Mechanical properties :
#
#
# Convention : Reuss Voigt Hill
#
# Bulk Modulus (GPa) = 53.03986 63.51874 58.27930
# Shear Modulus (GPa) = 27.42703 34.47969 30.95336
#
# Velocity S-wave (km/s) = 3.41085 3.82433 3.62349
# Velocity P-wave (km/s) = 6.16524 6.81497 6.49823
#
# Compressibility (1/GPa) = 0.01885374
#
# Stress axis : x y z
#
# Youngs Moduli (GPa) = 60.04422 112.21608 95.71340
#
# Poissons Ratio (x) = 0.16734 0.31618
# Poissons Ratio (y) = 0.08954 0.36231
# Poissons Ratio (z) = 0.19835 0.42478
#
# Static dielectric constant tensor:
#      x y z
#    x 3.858120 0.000000 -0.132940 
#    y 0.000000 4.673000 0.000000 
#    z -0.132940 0.000000 4.355000 
# 
# 
# High freq. dielectric constant tensor:
#      x y z
#    x 1.909980 0.000000 -0.001100 
#    y 0.000000 1.939590 0.000000 
#    z -0.001100 0.000000 1.950440 
# 
# From -- ./inp_files/6698.got.cif
#   From: 2010.03.12/outbox.cif.g09.slc.cpg/sg4_4_cif.got.tgz:6698.got - 2010.03.31 09:31:35.
