data_PCOD8046637
_publ_section_title
;
Structure prediction by ZEFSAII (Michael W. Deem and Ramdas Pophale) SiO2 
 PCOD8046637
Probable space group: P 21
;
_chemical_formula_sum "Si O2"
_cell_formula_units_Z 14
_cell_length_a 10.022129
_cell_length_b 8.940849
_cell_length_c 12.283363
_cell_angle_alpha 90.000000
_cell_angle_beta 143.392276
_cell_angle_gamma 90.000000
_cell_volume 656.364296
_symmetry_space_group_name_H-M "P 21"
_symmetry_group_IT_number 4
_symmetry_cell_setting 'monoclinic'
loop_
_space_group_symop_operation_xyz
x,y,z
-x,1/2+y,-z
loop_
_atom_site_type_symbol
_atom_site_label
_atom_site_fract_x
_atom_site_fract_y
_atom_site_fract_z
Si Si1 0.913411 0.660990 0.496263
Si Si2 0.956750 0.724211 0.860615
Si Si3 0.728584 0.876231 0.529785
Si Si4 0.569659 0.158459 0.774655
Si Si5 0.972407 0.448471 0.728255
Si Si6 0.266323 0.699203 0.543427
Si Si7 0.704498 0.840339 0.889568
O O1 0.912279 0.819888 0.560257
O O2 0.651226 0.625441 0.294977
O O3 0.020134 0.533338 0.645110
O O4 0.049455 0.674449 0.475230
O O5 0.839412 0.860216 0.720428
O O6 0.876215 0.566875 0.753818
O O7 0.876369 0.737805 0.932806
O O8 0.226516 0.739333 0.028210
O O9 0.509600 0.766993 0.376138
O O10 0.662193 0.046929 0.468559
O O11 0.662661 0.996859 0.797551
O O12 0.787722 0.320824 0.585337
O O13 0.195839 0.372479 0.924730
O O14 0.472782 0.751962 0.752888
#
# Coordination Sequence:
#
# PCOD8046637 Si02
#       7
#     2   2   2   2   2   2   2
#     4   9  20  46  64  88 133 173 215 277 316 389
#     4  10  22  43  63  92 129 172 223 270 323 388
#     4   9  22  37  64  95 123 177 213 269 327 385
#     4   9  21  43  63  87 132 169 216 277 322 376
#     4  10  23  45  63  97 129 172 225 264 331 385
#     4  12  22  40  65  99 134 170 220 264 339 391
#     4  11  24  40  68  92 128 177 216 277 322 388
#
# _framework density 21.329619000000001
#
# number of rings (size 3 to 8) (size 9 to 14) (size 15 to 20)
#    0.857    1.143    1.429    0.857    0.000    9.143 
#    7.714    0.000    0.000    0.000    0.000    0.000 
#    0.000    0.000    0.000    0.000    0.000    0.000 
#
# Total GULP energy -173445.267925 kJ/mol
# GULP energy per Si atom -12388.947709 kJ/mol
# Density = 2.128107 g / cm^3
# Si number density = 21.329619 Si / 1000 Ang^3
#
#
#
# Elastic Constant Matrix: (Units=GPa)
#
#
# Indices 1 2 3 4 5 6 
#
# 1 57.1704 12.9137 34.4052 0.0000 5.5908 0.0000
# 2 12.9137 107.3155 57.9355 0.0000 -2.9182 0.0000
# 3 34.4052 57.9355 158.9252 0.0000 3.6984 0.0000
# 4 0.0000 0.0000 0.0000 31.3958 0.0000 -2.9287
# 5 5.5908 -2.9182 3.6984 0.0000 20.8301 0.0000
# 6 0.0000 0.0000 0.0000 -2.9287 0.0000 22.6572
#
#
#
# Elastic Compliance Matrix: (Units=1/GPa)
#
#
# Indices 1 2 3 4 5 6 
#
# 1 0.020578 -0.000327 -0.004224 0.000000 -0.004819 0.000000
# 2 -0.000327 0.011726 -0.004262 0.000000 0.002487 0.000000
# 3 -0.004224 -0.004262 0.008784 0.000000 -0.001023 0.000000
# 4 0.000000 0.000000 0.000000 0.032240 0.000000 0.004167
# 5 -0.004819 0.002487 -0.001023 0.000000 0.049831 0.000000
# 6 0.000000 0.000000 0.000000 0.004167 0.000000 0.044675
#
#
# Mechanical properties :
#
#
# Convention : Reuss Voigt Hill
#
# Bulk Modulus (GPa) = 42.61921 59.32444 50.97183
# Shear Modulus (GPa) = 25.86913 29.52042 27.69477
#
# Velocity S-wave (km/s) = 3.48634 3.72427 3.60727
# Velocity P-wave (km/s) = 6.01920 6.80934 6.42642
#
# Compressibility (1/GPa) = 0.02346360
#
# Stress axis : x y z
#
# Youngs Moduli (GPa) = 48.59448 85.28004 113.84327
#
# Poissons Ratio (x) = 0.02791 0.48082
# Poissons Ratio (y) = 0.01590 0.48517
# Poissons Ratio (z) = 0.20524 0.36344
#
# Static dielectric constant tensor:
#      x y z
#    x 3.268710 0.000000 0.010710 
#    y 0.000000 3.958800 0.000000 
#    z 0.010710 0.000000 3.991670 
# 
# 
# High freq. dielectric constant tensor:
#      x y z
#    x 1.788550 0.000000 0.003520 
#    y 0.000000 1.844600 0.000000 
#    z 0.003520 0.000000 1.843130 
# 
# From -- ./inp_files/13903.got.cif
#   From: 2010.03.12/outbox.cif.g09.slc.cpg/sg4_7_cif.got.tgz:13903.got - 2010.03.31 09:31:35.
