data_PCOD8046617
_publ_section_title
;
Structure prediction by ZEFSAII (Michael W. Deem and Ramdas Pophale) SiO2 
 PCOD8046617
Probable space group: P 21
;
_chemical_formula_sum "Si O2"
_cell_formula_units_Z 14
_cell_length_a 10.435000
_cell_length_b 9.067795
_cell_length_c 13.228441
_cell_angle_alpha 90.000000
_cell_angle_beta 148.800993
_cell_angle_gamma 90.000000
_cell_volume 648.399673
_symmetry_space_group_name_H-M "P 21"
_symmetry_group_IT_number 4
_symmetry_cell_setting 'monoclinic'
loop_
_space_group_symop_operation_xyz
x,y,z
-x,1/2+y,-z
loop_
_atom_site_type_symbol
_atom_site_label
_atom_site_fract_x
_atom_site_fract_y
_atom_site_fract_z
Si Si1 0.523201 0.895850 0.716106
Si Si2 0.854144 0.631657 0.889025
Si Si3 0.291344 0.262610 0.670980
Si Si4 0.997763 0.491768 0.600853
Si Si5 0.475338 0.399343 0.594854
Si Si6 0.702196 0.121445 0.678252
Si Si7 0.229403 0.587125 0.967183
O O1 0.638254 0.752200 0.743501
O O2 0.228282 0.879469 0.527746
O O3 0.563767 0.041071 0.676523
O O4 0.657824 0.933660 0.913393
O O5 0.728437 0.471023 0.807855
O O6 0.012992 0.650331 0.893982
O O7 0.014413 0.647412 0.098913
O O8 0.317810 0.327325 0.576650
O O9 0.200136 0.395146 0.679729
O O10 0.097866 0.126707 0.533780
O O11 0.553252 0.208804 0.892671
O O12 0.118658 0.558036 0.782860
O O13 0.560564 0.277347 0.569471
O O14 0.308623 0.524802 0.429963
#
# Coordination Sequence:
#
# PCOD8046617 Si02
#       7
#     2   2   2   2   2   2   2
#     4  10  22  42  68 105 138 178 227 280 351 415
#     4  11  23  40  69 106 143 169 229 289 350 423
#     4  11  27  48  69 102 136 186 242 285 335 423
#     4  11  25  49  73  94 145 187 232 291 339 410
#     4  12  24  42  67 104 140 180 225 282 358 416
#     4  11  22  40  67 101 142 177 215 287 353 416
#     4  10  23  45  73  98 140 181 230 292 348 405
#
# _framework density 21.591622999999998
#
# number of rings (size 3 to 8) (size 9 to 14) (size 15 to 20)
#    0.000    1.143    4.286    3.429    4.000    3.429 
#    0.000    0.000    0.000    0.000    0.000    0.000 
#    0.000    0.000    0.000    0.000    0.000    0.000 
#
# Total GULP energy -173605.436402 kJ/mol
# GULP energy per Si atom -12400.388314 kJ/mol
# Density = 2.154248 g / cm^3
# Si number density = 21.591623 Si / 1000 Ang^3
#
#
#
# Elastic Constant Matrix: (Units=GPa)
#
#
# Indices 1 2 3 4 5 6 
#
# 1 80.5922 51.8457 47.1087 0.0000 8.5777 0.0000
# 2 51.8457 132.3963 50.0987 0.0000 9.5445 0.0000
# 3 47.1087 50.0987 116.9876 0.0000 -8.2309 0.0000
# 4 0.0000 0.0000 0.0000 33.4124 0.0000 8.0239
# 5 8.5777 9.5445 -8.2309 0.0000 28.6522 0.0000
# 6 0.0000 0.0000 0.0000 8.0239 0.0000 42.4384
#
#
#
# Elastic Compliance Matrix: (Units=1/GPa)
#
#
# Indices 1 2 3 4 5 6 
#
# 1 0.019972 -0.004978 -0.006343 0.000000 -0.006143 0.000000
# 2 -0.004978 0.010777 -0.002815 0.000000 -0.002909 0.000000
# 3 -0.006343 -0.002815 0.012765 0.000000 0.006504 0.000000
# 4 0.000000 0.000000 0.000000 0.031353 0.000000 -0.005928
# 5 -0.006143 -0.002909 0.006504 0.000000 0.039578 0.000000
# 6 0.000000 0.000000 0.000000 -0.005928 0.000000 0.024684
#
#
# Mechanical properties :
#
#
# Convention : Reuss Voigt Hill
#
# Bulk Modulus (GPa) = 65.60674 69.78694 67.69684
# Shear Modulus (GPa) = 28.98848 32.96212 30.97530
#
# Velocity S-wave (km/s) = 3.66810 3.91143 3.79172
# Velocity P-wave (km/s) = 6.95638 7.26571 7.11272
#
# Compressibility (1/GPa) = 0.01524234
#
# Stress axis : x y z
#
# Youngs Moduli (GPa) = 50.07053 92.78605 78.33734
#
# Poissons Ratio (x) = 0.46188 0.49687
# Poissons Ratio (y) = 0.24925 0.22056
# Poissons Ratio (z) = 0.31758 0.26124
#
# Static dielectric constant tensor:
#      x y z
#    x 3.633910 0.000000 0.028100 
#    y 0.000000 3.988830 0.000000 
#    z 0.028100 0.000000 4.136220 
# 
# 
# High freq. dielectric constant tensor:
#      x y z
#    x 1.819330 0.000000 0.000380 
#    y 0.000000 1.856390 0.000000 
#    z 0.000380 0.000000 1.863540 
# 
# From -- ./inp_files/10778.got.cif
#   From: 2010.03.12/outbox.cif.g09.slc.cpg/sg4_6_cif.got.tgz:10778.got - 2010.03.31 09:31:35.
