data_PCOD8046053
_publ_section_title
;
Structure prediction by ZEFSAII (Michael W. Deem and Ramdas Pophale) SiO2 
 PCOD8046053
Probable space group: P 21
;
_chemical_formula_sum "Si O2"
_cell_formula_units_Z 16
_cell_length_a 8.512910
_cell_length_b 11.168859
_cell_length_c 9.136780
_cell_angle_alpha 90.000000
_cell_angle_beta 123.192869
_cell_angle_gamma 90.000000
_cell_volume 726.973423
_symmetry_space_group_name_H-M "P 21"
_symmetry_group_IT_number 4
_symmetry_cell_setting 'monoclinic'
loop_
_space_group_symop_operation_xyz
x,y,z
-x,1/2+y,-z
loop_
_atom_site_type_symbol
_atom_site_label
_atom_site_fract_x
_atom_site_fract_y
_atom_site_fract_z
Si Si1 0.315484 0.592390 0.052117
Si Si2 0.837518 0.487019 0.212929
Si Si3 0.522055 0.605974 0.891429
Si Si4 0.154701 0.319590 0.342037
Si Si5 0.411938 0.548351 0.510700
Si Si6 0.317746 0.101086 0.593266
Si Si7 0.102882 0.677675 0.200163
Si Si8 0.220366 0.318908 0.043562
O O1 0.511310 0.642955 0.216442
O O2 0.145231 0.657144 0.048066
O O3 0.294607 0.451736 0.072008
O O4 0.325969 0.618312 0.883254
O O5 0.819277 0.519305 0.376542
O O6 0.935059 0.356536 0.251052
O O7 0.970303 0.574048 0.189594
O O8 0.637009 0.496677 0.028107
O O9 0.480400 0.572037 0.706557
O O10 0.629980 0.731691 0.956145
O O11 0.285673 0.431592 0.448289
O O12 0.198042 0.213438 0.476436
O O13 0.198015 0.277901 0.200012
O O14 0.593565 0.528599 0.499248
O O15 0.295993 0.666498 0.392091
O O16 0.983412 0.801665 0.143432
#
# Coordination Sequence:
#
# PCOD8046053 Si02
#       8
#     2   2   2   2   2   2   2   2
#     4  10  21  44  67  94 131 167 223 272 317 396
#     4   9  20  41  62  95 131 164 213 268 324 393
#     4  10  22  39  69  98 126 168 225 266 319 395
#     4  11  21  42  68  89 133 177 209 274 333 376
#     4  10  20  41  64  98 129 162 227 272 311 391
#     4  10  20  40  69  91 127 171 218 270 315 387
#     4   9  20  40  62  92 128 168 209 270 322 386
#     4  11  20  41  69  89 131 179 206 270 339 378
#
# _framework density 22.009056999999999
#
# number of rings (size 3 to 8) (size 9 to 14) (size 15 to 20)
#    0.000    2.000    5.000    0.000    0.000    3.000 
#   13.500    3.750    8.250    0.000    0.000    0.000 
#    0.000    0.000    0.000    0.000    0.000    0.000 
#
# Total GULP energy -198235.202366 kJ/mol
# GULP energy per Si atom -12389.700148 kJ/mol
# Density = 2.195896 g / cm^3
# Si number density = 22.009057 Si / 1000 Ang^3
#
#
#
# Elastic Constant Matrix: (Units=GPa)
#
#
# Indices 1 2 3 4 5 6 
#
# 1 127.0789 11.1352 46.3050 0.0000 -31.2984 0.0000
# 2 11.1352 41.9756 21.6778 0.0000 11.5784 0.0000
# 3 46.3050 21.6778 87.4001 0.0000 -13.1953 0.0000
# 4 0.0000 0.0000 0.0000 28.2974 0.0000 -0.8136
# 5 -31.2984 11.5784 -13.1953 0.0000 39.7761 0.0000
# 6 0.0000 0.0000 0.0000 -0.8136 0.0000 31.2890
#
#
#
# Elastic Compliance Matrix: (Units=1/GPa)
#
#
# Indices 1 2 3 4 5 6 
#
# 1 0.011883 -0.003556 -0.004049 0.000000 0.009042 0.000000
# 2 -0.003556 0.033572 -0.008781 0.000000 -0.015483 0.000000
# 3 -0.004049 -0.008781 0.016496 0.000000 0.004843 0.000000
# 4 0.000000 0.000000 0.000000 0.035365 0.000000 0.000920
# 5 0.009042 -0.015483 0.004843 0.000000 0.038369 0.000000
# 6 0.000000 0.000000 0.000000 0.000920 0.000000 0.031984
#
#
# Mechanical properties :
#
#
# Convention : Reuss Voigt Hill
#
# Bulk Modulus (GPa) = 34.26906 46.07674 40.17290
# Shear Modulus (GPa) = 23.79073 31.69494 27.74284
#
# Velocity S-wave (km/s) = 3.29135 3.79896 3.55423
# Velocity P-wave (km/s) = 5.48163 6.34221 5.92756
#
# Compressibility (1/GPa) = 0.02918084
#
# Stress axis : x y z
#
# Youngs Moduli (GPa) = 84.15441 29.78664 60.62234
#
# Poissons Ratio (x) = 0.10591 0.24543
# Poissons Ratio (y) = 0.29922 0.53231
# Poissons Ratio (z) = 0.34071 0.26155
#
# Static dielectric constant tensor:
#      x y z
#    x 4.669150 0.000000 0.032410 
#    y 0.000000 3.764630 0.000000 
#    z 0.032410 0.000000 4.123500 
# 
# 
# High freq. dielectric constant tensor:
#      x y z
#    x 1.889800 0.000000 -0.013210 
#    y 0.000000 1.831500 0.000000 
#    z -0.013210 0.000000 1.855910 
# 
# From -- ./inp_files/6191.got.cif
#   From: 2010.03.12/outbox.cif.g09.slc.cpg/sg4_4_cif.got.tgz:6191.got - 2010.03.31 09:31:35.
