data_PCOD8046731
_publ_section_title
;
Structure prediction by ZEFSAII (Michael W. Deem and Ramdas Pophale) SiO2 
 PCOD8046731
Probable space group: P 21
;
_chemical_formula_sum "Si O2"
_cell_formula_units_Z 14
_cell_length_a 9.529474
_cell_length_b 8.176666
_cell_length_c 8.970542
_cell_angle_alpha 90.000000
_cell_angle_beta 59.394084
_cell_angle_gamma 90.000000
_cell_volume 601.603504
_symmetry_space_group_name_H-M "P 21"
_symmetry_group_IT_number 4
_symmetry_cell_setting 'monoclinic'
loop_
_space_group_symop_operation_xyz
x,y,z
-x,1/2+y,-z
loop_
_atom_site_type_symbol
_atom_site_label
_atom_site_fract_x
_atom_site_fract_y
_atom_site_fract_z
Si Si1 0.446053 0.263090 0.359837
Si Si2 0.323914 0.983207 0.600176
Si Si3 0.557557 0.434472 0.773611
Si Si4 0.851499 0.929249 0.626166
Si Si5 0.200029 0.340184 0.018894
Si Si6 0.864661 0.297230 0.718161
Si Si7 0.015834 0.126172 0.895328
O O1 0.405088 0.163634 0.535253
O O2 0.599305 0.382051 0.303921
O O3 0.291727 0.373869 0.405494
O O4 0.482340 0.130380 0.208429
O O5 0.132214 0.008693 0.731986
O O6 0.355739 0.882849 0.429752
O O7 0.394016 0.331988 0.889701
O O8 0.691094 0.391528 0.828781
O O9 0.023072 0.900580 0.453689
O O10 0.829675 0.118835 0.671458
O O11 0.840889 0.826395 0.784774
O O12 0.113805 0.186633 0.986222
O O13 0.135038 0.509319 0.979381
O O14 0.949894 0.279500 0.833936
#
# Coordination Sequence:
#
# PCOD8046731 Si02
#       7
#     2   2   2   2   2   2   2
#     4  10  23  39  73 102 132 178 236 282 339 403
#     4  10  22  45  69 104 132 180 238 276 337 422
#     4  10  24  43  69 100 135 178 227 284 348 402
#     4  11  24  44  69 102 137 184 231 285 350 407
#     4  11  27  45  65 102 142 177 228 290 361 399
#     4  11  23  45  72  97 140 180 241 281 335 432
#     4  11  25  47  67 101 138 185 229 284 350 415
#
# _framework density 23.271141
#
# number of rings (size 3 to 8) (size 9 to 14) (size 15 to 20)
#    0.857    0.571    1.429    3.429    6.000    4.571 
#    0.000    0.000    0.000    0.000    0.000    0.000 
#    0.000    0.000    0.000    0.000    0.000    0.000 
#
# Total GULP energy -173559.323832 kJ/mol
# GULP energy per Si atom -12397.094559 kJ/mol
# Density = 2.321817 g / cm^3
# Si number density = 23.271141 Si / 1000 Ang^3
#
#
#
# Elastic Constant Matrix: (Units=GPa)
#
#
# Indices 1 2 3 4 5 6 
#
# 1 140.6674 22.3977 19.8506 0.0000 -15.6856 0.0000
# 2 22.3977 48.5654 -9.3183 0.0000 6.3538 0.0000
# 3 19.8506 -9.3183 46.7413 0.0000 -10.5157 0.0000
# 4 0.0000 0.0000 0.0000 21.4594 0.0000 0.2422
# 5 -15.6856 6.3538 -10.5157 0.0000 27.9241 0.0000
# 6 0.0000 0.0000 0.0000 0.2422 0.0000 57.7262
#
#
#
# Elastic Compliance Matrix: (Units=1/GPa)
#
#
# Indices 1 2 3 4 5 6 
#
# 1 0.009091 -0.005578 -0.003866 0.000000 0.004920 0.000000
# 2 -0.005578 0.025163 0.005892 0.000000 -0.006640 0.000000
# 3 -0.003866 0.005892 0.025589 0.000000 0.006124 0.000000
# 4 0.000000 0.000000 0.000000 0.046602 0.000000 -0.000196
# 5 0.004920 -0.006640 0.006124 0.000000 0.042392 0.000000
# 6 0.000000 0.000000 0.000000 -0.000196 0.000000 0.017324
#
#
# Mechanical properties :
#
#
# Convention : Reuss Voigt Hill
#
# Bulk Modulus (GPa) = 18.96219 33.53714 26.24967
# Shear Modulus (GPa) = 26.19920 34.95820 30.57870
#
# Velocity S-wave (km/s) = 3.35897 3.88004 3.62887
# Velocity P-wave (km/s) = 4.81764 5.87501 5.37240
#
# Compressibility (1/GPa) = 0.05273651
#
# Stress axis : x y z
#
# Youngs Moduli (GPa) = 109.99391 39.74150 39.08000
#
# Poissons Ratio (x) = 0.22169 0.15109
# Poissons Ratio (y) = 0.61358 -0.23024
# Poissons Ratio (z) = 0.42526 -0.23414
#
# Static dielectric constant tensor:
#      x y z
#    x 4.202000 0.000000 -0.037210 
#    y 0.000000 3.976490 0.000000 
#    z -0.037210 0.000000 3.883260 
# 
# 
# High freq. dielectric constant tensor:
#      x y z
#    x 1.933720 0.000000 -0.007560 
#    y 0.000000 1.909390 0.000000 
#    z -0.007560 0.000000 1.894890 
# 
# From -- ./inp_files/5768.got.cif
#   From: 2010.03.12/outbox.cif.g09.slc.cpg/sg4_3_cif.got.tgz:5768.got - 2010.03.31 09:31:35.
