data_PCOD8046870
_publ_section_title
;
Structure prediction by ZEFSAII (Michael W. Deem and Ramdas Pophale) SiO2 
 PCOD8046870
Probable space group: P 21
;
_chemical_formula_sum "Si O2"
_cell_formula_units_Z 16
_cell_length_a 8.119481
_cell_length_b 4.996678
_cell_length_c 26.539932
_cell_angle_alpha 90.000000
_cell_angle_beta 143.719327
_cell_angle_gamma 90.000000
_cell_volume 637.149450
_symmetry_space_group_name_H-M "P 21"
_symmetry_group_IT_number 4
_symmetry_cell_setting 'monoclinic'
loop_
_space_group_symop_operation_xyz
x,y,z
-x,1/2+y,-z
loop_
_atom_site_type_symbol
_atom_site_label
_atom_site_fract_x
_atom_site_fract_y
_atom_site_fract_z
Si Si1 0.295792 0.351520 0.350802
Si Si2 0.949928 0.827764 0.277961
Si Si3 0.146306 0.062366 0.055073
Si Si4 0.609447 0.923983 0.103470
Si Si5 0.887009 0.237668 0.086255
Si Si6 0.319444 0.541682 0.242866
Si Si7 0.649601 0.038538 0.298053
Si Si8 0.077562 0.930499 0.487878
O O1 0.103054 0.558495 0.335135
O O2 0.292874 0.449967 0.293165
O O3 0.607979 0.353379 0.449132
O O4 0.182248 0.053276 0.327000
O O5 0.799285 0.747661 0.187742
O O6 0.716552 0.931232 0.258871
O O7 0.440682 0.125235 0.099951
O O8 0.131248 0.100904 0.111888
O O9 0.081219 0.753374 0.027065
O O10 0.823975 0.072461 0.120461
O O11 0.393616 0.761472 0.015401
O O12 0.020870 0.515451 0.139632
O O13 0.412366 0.848371 0.263359
O O14 0.542359 0.343327 0.270908
O O15 0.927323 0.024463 0.400074
O O16 0.921953 0.670985 0.471677
#
# Coordination Sequence:
#
# PCOD8046870 Si02
#       8
#     2   2   2   2   2   2   2   2
#     4  12  25  46  70 106 141 185 222 303 345 425
#     4  12  28  45  70 104 153 177 236 294 365 410
#     4  10  23  43  64  95 133 175 237 300 348 411
#     4  11  25  44  67 104 138 191 239 297 351 422
#     4  11  25  41  72  99 139 191 242 291 356 420
#     4  12  25  45  73 103 141 183 243 282 354 419
#     4  12  26  48  74 108 137 191 226 295 359 433
#     4  12  23  44  76 105 138 179 239 284 348 434
#
# _framework density 25.111847000000001
#
# number of rings (size 3 to 8) (size 9 to 14) (size 15 to 20)
#    0.000    0.500    3.750    3.750    1.750    9.000 
#    0.000    0.000    0.000    0.000    0.000    0.000 
#    0.000    0.000    0.000    0.000    0.000    0.000 
#
# Total GULP energy -198400.063866 kJ/mol
# GULP energy per Si atom -12400.003992 kJ/mol
# Density = 2.505469 g / cm^3
# Si number density = 25.111847 Si / 1000 Ang^3
#
#
#
# Elastic Constant Matrix: (Units=GPa)
#
#
# Indices 1 2 3 4 5 6 
#
# 1 117.9680 -5.9969 -9.6101 0.0000 -4.5140 0.0000
# 2 -5.9969 61.8463 6.3370 0.0000 6.3761 0.0000
# 3 -9.6101 6.3370 102.1467 0.0000 3.1873 0.0000
# 4 0.0000 0.0000 0.0000 35.4445 0.0000 6.2112
# 5 -4.5140 6.3761 3.1873 0.0000 35.5274 0.0000
# 6 0.0000 0.0000 0.0000 6.2112 0.0000 32.8180
#
#
#
# Elastic Compliance Matrix: (Units=1/GPa)
#
#
# Indices 1 2 3 4 5 6 
#
# 1 0.008606 0.000665 0.000740 0.000000 0.000908 0.000000
# 2 0.000665 0.016614 -0.000880 0.000000 -0.002818 0.000000
# 3 0.000740 -0.000880 0.009934 0.000000 -0.000639 0.000000
# 4 0.000000 0.000000 0.000000 0.029181 0.000000 -0.005523
# 5 0.000908 -0.002818 -0.000639 0.000000 0.028826 0.000000
# 6 0.000000 0.000000 0.000000 -0.005523 0.000000 0.031516
#
#
# Mechanical properties :
#
#
# Convention : Reuss Voigt Hill
#
# Bulk Modulus (GPa) = 27.62139 29.26900 28.44520
# Shear Modulus (GPa) = 36.84726 40.17337 38.51032
#
# Velocity S-wave (km/s) = 3.83472 4.00406 3.92031
# Velocity P-wave (km/s) = 5.53444 5.74956 5.64303
#
# Compressibility (1/GPa) = 0.03620383
#
# Stress axis : x y z
#
# Youngs Moduli (GPa) = 116.20202 60.18896 100.66425
#
# Poissons Ratio (x) = -0.04003 -0.07450
# Poissons Ratio (y) = -0.07728 0.08861
# Poissons Ratio (z) = -0.08600 0.05298
#
# Static dielectric constant tensor:
#      x y z
#    x 4.906920 0.000000 0.112920 
#    y 0.000000 4.480090 0.000000 
#    z 0.112920 0.000000 4.634050 
# 
# 
# High freq. dielectric constant tensor:
#      x y z
#    x 2.014700 0.000000 0.007320 
#    y 0.000000 1.988820 0.000000 
#    z 0.007320 0.000000 2.009320 
# 
# From -- ./inp_files/16342.got.cif
#   From: 2010.03.12/outbox.cif.g09.slc.cpg/sg4_9_cif.got.tgz:16342.got - 2010.03.31 09:31:35.
