data_PCOD8046152
_publ_section_title
;
Structure prediction by ZEFSAII (Michael W. Deem and Ramdas Pophale) SiO2 
 PCOD8046152
Probable space group: P 21
;
_chemical_formula_sum "Si O2"
_cell_formula_units_Z 16
_cell_length_a 23.021023
_cell_length_b 7.656259
_cell_length_c 9.633195
_cell_angle_alpha 90.000000
_cell_angle_beta 28.014465
_cell_angle_gamma 90.000000
_cell_volume 797.493263
_symmetry_space_group_name_H-M "P 21"
_symmetry_group_IT_number 4
_symmetry_cell_setting 'monoclinic'
loop_
_space_group_symop_operation_xyz
x,y,z
-x,1/2+y,-z
loop_
_atom_site_type_symbol
_atom_site_label
_atom_site_fract_x
_atom_site_fract_y
_atom_site_fract_z
Si Si1 0.764829 0.958150 0.598703
Si Si2 0.811752 0.602575 0.796671
Si Si3 0.009242 0.273107 0.766299
Si Si4 0.352127 0.596683 0.714729
Si Si5 0.188007 0.473536 0.803713
Si Si6 0.901406 0.611941 0.899795
Si Si7 0.163948 0.729824 0.333470
Si Si8 0.586232 0.813412 0.195833
O O1 0.880483 0.820112 0.357597
O O2 0.732678 0.988801 0.505368
O O3 0.803843 0.141325 0.587423
O O4 0.640940 0.895350 0.938742
O O5 0.812363 0.569229 0.959413
O O6 0.844613 0.437227 0.630956
O O7 0.913114 0.751034 0.542048
O O8 0.673083 0.654690 0.055641
O O9 0.912079 0.433445 0.965625
O O10 0.931674 0.098652 0.962491
O O11 0.275955 0.521301 0.746074
O O12 0.451171 0.736497 0.449472
O O13 0.419238 0.446171 0.662542
O O14 0.260253 0.695358 0.009433
O O15 0.145858 0.272759 0.908390
O O16 0.034311 0.655635 0.553878
#
# Coordination Sequence:
#
# PCOD8046152 Si02
#       8
#     2   2   2   2   2   2   2   2
#     4   9  24  42  59  93 134 168 215 256 323 393
#     4  11  18  36  61  92 124 163 211 267 319 368
#     4  10  23  34  60  93 130 170 204 253 322 390
#     4  11  22  41  67  93 117 168 220 272 323 373
#     4  12  23  41  64  93 133 171 211 260 324 395
#     4  11  21  35  60  98 132 160 209 265 321 383
#     4  10  21  37  63  92 126 165 204 267 322 380
#     4  10  22  42  62  88 122 161 216 274 312 374
#
# _framework density 20.062864999999999
#
# number of rings (size 3 to 8) (size 9 to 14) (size 15 to 20)
#    0.000    1.500    2.500    3.750    3.500    0.000 
#    2.250    3.750    0.000    0.000    0.000    0.000 
#    0.000    0.000    0.000    0.000    0.000    0.000 
#
# Total GULP energy -198326.611141 kJ/mol
# GULP energy per Si atom -12395.413196 kJ/mol
# Density = 2.001720 g / cm^3
# Si number density = 20.062865 Si / 1000 Ang^3
#
#
#
# Elastic Constant Matrix: (Units=GPa)
#
#
# Indices 1 2 3 4 5 6 
#
# 1 67.3385 29.5181 42.3748 0.0000 13.3677 0.0000
# 2 29.5181 101.9020 29.1283 0.0000 4.5741 0.0000
# 3 42.3748 29.1283 88.5834 0.0000 7.3735 0.0000
# 4 0.0000 0.0000 0.0000 29.1027 0.0000 -7.3321
# 5 13.3677 4.5741 7.3735 0.0000 20.7962 0.0000
# 6 0.0000 0.0000 0.0000 -7.3321 0.0000 17.3277
#
#
#
# Elastic Compliance Matrix: (Units=1/GPa)
#
#
# Indices 1 2 3 4 5 6 
#
# 1 0.025015 -0.003948 -0.009688 0.000000 -0.011776 0.000000
# 2 -0.003948 0.011482 -0.001945 0.000000 0.000702 0.000000
# 3 -0.009688 -0.001945 0.016495 0.000000 0.000806 0.000000
# 4 0.000000 0.000000 0.000000 0.038461 0.000000 0.016275
# 5 -0.011776 0.000702 0.000806 0.000000 0.055215 0.000000
# 6 0.000000 0.000000 0.000000 0.016275 0.000000 0.064598
#
#
# Mechanical properties :
#
#
# Convention : Reuss Voigt Hill
#
# Bulk Modulus (GPa) = 45.80891 51.09626 48.45258
# Shear Modulus (GPa) = 20.02358 23.89882 21.96120
#
# Velocity S-wave (km/s) = 3.16261 3.45512 3.31209
# Velocity P-wave (km/s) = 6.01817 6.43743 6.23133
#
# Compressibility (1/GPa) = 0.02182982
#
# Stress axis : x y z
#
# Youngs Moduli (GPa) = 39.97565 87.09613 60.62264
#
# Poissons Ratio (x) = 0.34389 0.58729
# Poissons Ratio (y) = 0.15784 0.11792
# Poissons Ratio (z) = 0.38727 0.16941
#
# Static dielectric constant tensor:
#      x y z
#    x 3.406270 0.000000 -0.021770 
#    y 0.000000 3.918280 0.000000 
#    z -0.021770 0.000000 3.492290 
# 
# 
# High freq. dielectric constant tensor:
#      x y z
#    x 1.761770 0.000000 -0.001100 
#    y 0.000000 1.796960 0.000000 
#    z -0.001100 0.000000 1.769520 
# 
# From -- ./inp_files/9184.got.cif
#   From: 2010.03.12/outbox.cif.g09.slc.cpg/sg4_5_cif.got.tgz:9184.got - 2010.03.31 09:31:35.
