data_PCOD8046111
_publ_section_title
;
Structure prediction by ZEFSAII (Michael W. Deem and Ramdas Pophale) SiO2 
 PCOD8046111
Probable space group: P 21
;
_chemical_formula_sum "Si O2"
_cell_formula_units_Z 14
_cell_length_a 6.451236
_cell_length_b 9.433633
_cell_length_c 15.644216
_cell_angle_alpha 90.000000
_cell_angle_beta 39.064529
_cell_angle_gamma 90.000000
_cell_volume 599.999424
_symmetry_space_group_name_H-M "P 21"
_symmetry_group_IT_number 4
_symmetry_cell_setting 'monoclinic'
loop_
_space_group_symop_operation_xyz
x,y,z
-x,1/2+y,-z
loop_
_atom_site_type_symbol
_atom_site_label
_atom_site_fract_x
_atom_site_fract_y
_atom_site_fract_z
Si Si1 0.725620 0.002460 0.519797
Si Si2 0.795889 0.908328 0.018914
Si Si3 0.994176 0.408844 0.231842
Si Si4 0.849074 0.592758 0.777213
Si Si5 0.103197 0.392242 0.828876
Si Si6 0.807541 0.274883 0.608526
Si Si7 0.744832 0.192235 0.815355
O O1 0.739186 0.144632 0.569305
O O2 0.932873 0.025573 0.367545
O O3 0.353349 0.957200 0.616583
O O4 0.888703 0.872268 0.520695
O O5 0.017211 0.903777 0.033768
O O6 0.618427 0.756200 0.064978
O O7 0.527194 0.037212 0.108238
O O8 0.040190 0.916549 0.860131
O O9 0.124716 0.262287 0.229425
O O10 0.272297 0.523453 0.167765
O O11 0.008201 0.538462 0.814238
O O12 0.494482 0.377404 0.709533
O O13 0.953512 0.258495 0.826714
O O14 0.906789 0.224581 0.671766
#
# Coordination Sequence:
#
# PCOD8046111 Si02
#       7
#     2   2   2   2   2   2   2
#     4  12  27  44  73 104 138 185 232 289 349 415
#     4  10  23  49  72  99 139 186 230 290 351 403
#     4  12  27  42  71 110 136 181 243 280 344 423
#     4  11  26  45  70 104 141 187 226 290 351 411
#     4  10  20  47  71  90 138 186 225 277 355 404
#     4  11  25  46  68  98 138 184 226 288 347 402
#     4  10  22  47  71  95 138 187 222 284 349 410
#
# _framework density 23.333354
#
# number of rings (size 3 to 8) (size 9 to 14) (size 15 to 20)
#    0.000    1.143    5.714    0.857    8.000    1.143 
#    5.143    0.000    0.000    0.000    0.000    0.000 
#    0.000    0.000    0.000    0.000    0.000    0.000 
#
# Total GULP energy -173569.988518 kJ/mol
# GULP energy per Si atom -12397.856323 kJ/mol
# Density = 2.328025 g / cm^3
# Si number density = 23.333354 Si / 1000 Ang^3
#
#
#
# Elastic Constant Matrix: (Units=GPa)
#
#
# Indices 1 2 3 4 5 6 
#
# 1 101.7374 22.5282 -0.7580 0.0000 8.4062 0.0000
# 2 22.5282 156.7623 -5.5378 0.0000 -9.2476 0.0000
# 3 -0.7580 -5.5378 67.8350 0.0000 5.7233 0.0000
# 4 0.0000 0.0000 0.0000 17.2340 0.0000 4.2486
# 5 8.4062 -9.2476 5.7233 0.0000 16.9538 0.0000
# 6 0.0000 0.0000 0.0000 4.2486 0.0000 20.4595
#
#
#
# Elastic Compliance Matrix: (Units=1/GPa)
#
#
# Indices 1 2 3 4 5 6 
#
# 1 0.010802 -0.001922 0.000519 0.000000 -0.006580 0.000000
# 2 -0.001922 0.006937 0.000149 0.000000 0.004687 0.000000
# 3 0.000519 0.000149 0.015208 0.000000 -0.005310 0.000000
# 4 0.000000 0.000000 0.000000 0.061156 0.000000 -0.012700
# 5 -0.006580 0.004687 -0.005310 0.000000 0.066595 0.000000
# 6 0.000000 0.000000 0.000000 -0.012700 0.000000 0.051514
#
#
# Mechanical properties :
#
#
# Convention : Reuss Voigt Hill
#
# Bulk Modulus (GPa) = 32.85217 39.86660 36.35939
# Shear Modulus (GPa) = 22.23542 31.60294 26.91918
#
# Velocity S-wave (km/s) = 3.09033 3.68422 3.40027
# Velocity P-wave (km/s) = 5.18108 5.93471 5.57065
#
# Compressibility (1/GPa) = 0.03043939
#
# Stress axis : x y z
#
# Youngs Moduli (GPa) = 92.57192 144.15306 65.75646
#
# Poissons Ratio (x) = 0.27710 -0.03412
# Poissons Ratio (y) = 0.17794 -0.00983
# Poissons Ratio (z) = -0.04804 -0.02154
#
# Static dielectric constant tensor:
#      x y z
#    x 4.216410 0.000000 0.287940 
#    y 0.000000 4.331400 0.000000 
#    z 0.287940 0.000000 4.242250 
# 
# 
# High freq. dielectric constant tensor:
#      x y z
#    x 1.920810 0.000000 0.012250 
#    y 0.000000 1.933840 0.000000 
#    z 0.012250 0.000000 1.916250 
# 
# From -- ./inp_files/10252.got.cif
#   From: 2010.03.12/outbox.cif.g09.slc.cpg/sg4_6_cif.got.tgz:10252.got - 2010.03.31 09:31:35.
