data_PCOD8046772
_publ_section_title
;
Structure prediction by ZEFSAII (Michael W. Deem and Ramdas Pophale) SiO2 
 PCOD8046772
Probable space group: P 21
;
_chemical_formula_sum "Si O2"
_cell_formula_units_Z 14
_cell_length_a 8.978082
_cell_length_b 6.355894
_cell_length_c 20.723250
_cell_angle_alpha 90.000000
_cell_angle_beta 30.959263
_cell_angle_gamma 90.000000
_cell_volume 608.335420
_symmetry_space_group_name_H-M "P 21"
_symmetry_group_IT_number 4
_symmetry_cell_setting 'monoclinic'
loop_
_space_group_symop_operation_xyz
x,y,z
-x,1/2+y,-z
loop_
_atom_site_type_symbol
_atom_site_label
_atom_site_fract_x
_atom_site_fract_y
_atom_site_fract_z
Si Si1 0.836993 0.368570 0.000523
Si Si2 0.460198 0.307431 0.379365
Si Si3 0.888327 0.668730 0.212518
Si Si4 0.074498 0.803301 0.343916
Si Si5 0.590006 0.099544 0.195153
Si Si6 0.255610 0.453126 0.179778
Si Si7 0.886446 0.063909 0.300266
O O1 0.602279 0.296015 0.142237
O O2 0.601991 0.484365 0.041742
O O3 0.002821 0.180082 0.901794
O O4 0.077452 0.526577 0.936473
O O5 0.577513 0.547848 0.327747
O O6 0.519564 0.172144 0.293348
O O7 0.614533 0.213470 0.386193
O O8 0.116254 0.289673 0.519857
O O9 0.125525 0.543403 0.163115
O O10 0.885064 0.907722 0.239365
O O11 0.141099 0.577907 0.286321
O O12 0.371620 0.919762 0.252247
O O13 0.860948 0.930017 0.374894
O O14 0.169462 0.206276 0.209541
#
# Coordination Sequence:
#
# PCOD8046772 Si02
#       7
#     2   2   2   2   2   2   2
#     4  12  24  44  70  94 146 178 238 282 342 432
#     4  11  26  45  71 104 142 181 236 288 353 424
#     4  10  24  42  72 107 134 182 230 294 354 411
#     4  11  26  45  71 104 142 181 236 288 353 424
#     4  12  26  46  68 104 138 196 228 286 356 420
#     4  10  24  42  72 107 134 182 230 294 354 411
#     4  10  22  48  68 108 134 182 236 286 364 402
#
# _framework density 23.013622999999999
#
# number of rings (size 3 to 8) (size 9 to 14) (size 15 to 20)
#    0.000    1.143    2.857    1.714    8.000    2.286 
#    0.000    0.000    0.000    0.000    0.000    0.000 
#    0.000    0.000    0.000    0.000    0.000    0.000 
#
# Total GULP energy -173471.658933 kJ/mol
# GULP energy per Si atom -12390.832781 kJ/mol
# Density = 2.296124 g / cm^3
# Si number density = 23.013623 Si / 1000 Ang^3
#
#
#
# Elastic Constant Matrix: (Units=GPa)
#
#
# Indices 1 2 3 4 5 6 
#
# 1 59.7081 23.1309 17.9792 0.0000 4.0538 0.0000
# 2 23.1309 108.6936 27.5183 0.0000 2.6534 0.0000
# 3 17.9792 27.5183 95.6263 0.0000 2.0836 0.0000
# 4 0.0000 0.0000 0.0000 32.2563 0.0000 -0.1121
# 5 4.0538 2.6534 2.0836 0.0000 34.5158 0.0000
# 6 0.0000 0.0000 0.0000 -0.1121 0.0000 30.1578
#
#
#
# Elastic Compliance Matrix: (Units=1/GPa)
#
#
# Indices 1 2 3 4 5 6 
#
# 1 0.018935 -0.003337 -0.002560 0.000000 -0.001813 0.000000
# 2 -0.003337 0.010523 -0.002395 0.000000 -0.000272 0.000000
# 3 -0.002560 -0.002395 0.011633 0.000000 -0.000217 0.000000
# 4 0.000000 0.000000 0.000000 0.031002 0.000000 0.000115
# 5 -0.001813 -0.000272 -0.000217 0.000000 0.029219 0.000000
# 6 0.000000 0.000000 0.000000 0.000115 0.000000 0.033159
#
#
# Mechanical properties :
#
#
# Convention : Reuss Voigt Hill
#
# Bulk Modulus (GPa) = 40.80564 44.58719 42.69642
# Shear Modulus (GPa) = 31.40214 32.41263 31.90738
#
# Velocity S-wave (km/s) = 3.69792 3.75695 3.72755
# Velocity P-wave (km/s) = 6.00020 6.18352 6.09255
#
# Compressibility (1/GPa) = 0.02450641
#
# Stress axis : x y z
#
# Youngs Moduli (GPa) = 52.81242 95.02717 85.96486
#
# Poissons Ratio (x) = 0.31711 0.22009
# Poissons Ratio (y) = 0.17624 0.20588
# Poissons Ratio (z) = 0.13521 0.22758
#
# Static dielectric constant tensor:
#      x y z
#    x 4.293210 0.000000 -0.043760 
#    y 0.000000 4.430550 0.000000 
#    z -0.043760 0.000000 3.883410 
# 
# 
# High freq. dielectric constant tensor:
#      x y z
#    x 1.926870 0.000000 -0.005940 
#    y 0.000000 1.909570 0.000000 
#    z -0.005940 0.000000 1.895690 
# 
# From -- ./inp_files/9823.got.cif
#   From: 2010.03.12/outbox.cif.g09.slc.cpg/sg4_5_cif.got.tgz:9823.got - 2010.03.31 09:31:35.
