data_PCOD8046240
_publ_section_title
;
Structure prediction by ZEFSAII (Michael W. Deem and Ramdas Pophale) SiO2 
 PCOD8046240
Probable space group: P 21
;
_chemical_formula_sum "Si O2"
_cell_formula_units_Z 14
_cell_length_a 23.534318
_cell_length_b 5.049896
_cell_length_c 13.849577
_cell_angle_alpha 90.000000
_cell_angle_beta 21.792663
_cell_angle_gamma 90.000000
_cell_volume 611.062704
_symmetry_space_group_name_H-M "P 21"
_symmetry_group_IT_number 4
_symmetry_cell_setting 'monoclinic'
loop_
_space_group_symop_operation_xyz
x,y,z
-x,1/2+y,-z
loop_
_atom_site_type_symbol
_atom_site_label
_atom_site_fract_x
_atom_site_fract_y
_atom_site_fract_z
Si Si1 0.332987 0.622120 0.829212
Si Si2 0.200922 0.634199 0.610748
Si Si3 0.403013 0.317782 0.170096
Si Si4 0.968313 0.003115 0.607463
Si Si5 0.104616 0.043343 0.598472
Si Si6 0.101776 0.881016 0.947915
Si Si7 0.666802 0.624136 0.299223
O O1 0.501057 0.655662 0.612962
O O2 0.311609 0.330808 0.819346
O O3 0.321561 0.829220 0.761073
O O4 0.197325 0.646456 0.120164
O O5 0.348628 0.447790 0.357913
O O6 0.225798 0.777838 0.673550
O O7 0.170212 0.814706 0.564705
O O8 0.050078 0.461238 0.869674
O O9 0.245370 0.251962 0.361473
O O10 0.501766 0.546838 0.959821
O O11 0.058900 0.222770 0.402405
O O12 0.055204 0.940198 0.571143
O O13 0.952482 0.176102 0.883660
O O14 0.189417 0.136623 0.854527
#
# Coordination Sequence:
#
# PCOD8046240 Si02
#       7
#     2   2   2   2   2   2   2
#     4  10  21  43  65  98 126 177 218 280 342 395
#     4  11  23  40  71 107 140 182 231 282 349 425
#     4  11  24  46  70  97 143 192 229 278 346 417
#     4  12  27  44  71  99 134 182 242 284 333 414
#     4  11  24  45  73  97 142 185 231 294 346 404
#     4  11  22  39  69 108 135 176 225 288 349 414
#     4  10  21  39  71  92 136 168 216 278 351 395
#
# _framework density 22.910907000000002
#
# number of rings (size 3 to 8) (size 9 to 14) (size 15 to 20)
#    0.000    1.143    4.286    1.714    4.000    0.000 
#    2.571    1.429    6.286    0.000    0.000    0.000 
#    0.000    0.000    0.000    0.000    0.000    0.000 
#
# Total GULP energy -173491.297887 kJ/mol
# GULP energy per Si atom -12392.235563 kJ/mol
# Density = 2.285876 g / cm^3
# Si number density = 22.910907 Si / 1000 Ang^3
#
#
#
# Elastic Constant Matrix: (Units=GPa)
#
#
# Indices 1 2 3 4 5 6 
#
# 1 68.1864 15.4850 20.5966 0.0000 14.8406 0.0000
# 2 15.4850 86.2115 19.3092 0.0000 3.5526 0.0000
# 3 20.5966 19.3092 104.7951 0.0000 -3.4637 0.0000
# 4 0.0000 0.0000 0.0000 38.7594 0.0000 -4.3768
# 5 14.8406 3.5526 -3.4637 0.0000 25.7268 0.0000
# 6 0.0000 0.0000 0.0000 -4.3768 0.0000 22.6525
#
#
#
# Elastic Compliance Matrix: (Units=1/GPa)
#
#
# Indices 1 2 3 4 5 6 
#
# 1 0.018618 -0.002078 -0.003638 0.000000 -0.010943 0.000000
# 2 -0.002078 0.012432 -0.001908 0.000000 -0.000775 0.000000
# 3 -0.003638 -0.001908 0.010735 0.000000 0.003807 0.000000
# 4 0.000000 0.000000 0.000000 0.026376 0.000000 0.005096
# 5 -0.010943 -0.000775 0.003807 0.000000 0.045802 0.000000
# 6 0.000000 0.000000 0.000000 0.005096 0.000000 0.045130
#
#
# Mechanical properties :
#
#
# Convention : Reuss Voigt Hill
#
# Bulk Modulus (GPa) = 37.68370 41.10826 39.39598
# Shear Modulus (GPa) = 27.29462 31.01456 29.15459
#
# Velocity S-wave (km/s) = 3.45532 3.68326 3.57111
# Velocity P-wave (km/s) = 5.69233 6.00584 5.85119
#
# Compressibility (1/GPa) = 0.02653668
#
# Stress axis : x y z
#
# Youngs Moduli (GPa) = 53.71074 80.43817 93.15495
#
# Poissons Ratio (x) = 0.16718 0.33890
# Poissons Ratio (y) = 0.11163 0.17772
# Poissons Ratio (z) = 0.19540 0.15346
#
# Static dielectric constant tensor:
#      x y z
#    x 3.723560 0.000000 -0.187670 
#    y 0.000000 4.218000 0.000000 
#    z -0.187670 0.000000 4.554360 
# 
# 
# High freq. dielectric constant tensor:
#      x y z
#    x 1.863310 0.000000 -0.010850 
#    y 0.000000 1.917650 0.000000 
#    z -0.010850 0.000000 1.919070 
# 
# From -- ./inp_files/10681.got.cif
#   From: 2010.03.12/outbox.cif.g09.slc.cpg/sg4_6_cif.got.tgz:10681.got - 2010.03.31 09:31:35.
