data_PCOD8046850
_publ_section_title
;
Structure prediction by ZEFSAII (Michael W. Deem and Ramdas Pophale) SiO2 
 PCOD8046850
Probable space group: P 21
;
_chemical_formula_sum "Si O2"
_cell_formula_units_Z 14
_cell_length_a 13.462320
_cell_length_b 9.110735
_cell_length_c 5.139613
_cell_angle_alpha 90.000000
_cell_angle_beta 58.400714
_cell_angle_gamma 90.000000
_cell_volume 536.917369
_symmetry_space_group_name_H-M "P 21"
_symmetry_group_IT_number 4
_symmetry_cell_setting 'monoclinic'
loop_
_space_group_symop_operation_xyz
x,y,z
-x,1/2+y,-z
loop_
_atom_site_type_symbol
_atom_site_label
_atom_site_fract_x
_atom_site_fract_y
_atom_site_fract_z
Si Si1 0.776462 0.148520 0.751471
Si Si2 0.251257 0.473338 0.734089
Si Si3 0.795914 0.456301 0.583211
Si Si4 0.983651 0.827635 0.007138
Si Si5 0.517648 0.839100 0.712420
Si Si6 0.980055 0.563367 0.682871
Si Si7 0.559172 0.509040 0.677767
O O1 0.754767 0.085648 0.495960
O O2 0.735216 0.318886 0.820789
O O3 0.915868 0.136741 0.626192
O O4 0.705902 0.062979 0.070844
O O5 0.345954 0.349572 0.547362
O O6 0.128169 0.400394 0.975999
O O7 0.858636 0.571770 0.691701
O O8 0.696028 0.538422 0.557898
O O9 0.893484 0.380649 0.273335
O O10 0.969417 0.652570 0.976187
O O11 0.987291 0.891114 0.298805
O O12 0.491211 0.664996 0.758380
O O13 0.443993 0.925093 0.593385
O O14 0.499254 0.910891 0.019062
#
# Coordination Sequence:
#
# PCOD8046850 Si02
#       7
#     2   2   2   2   2   2   2
#     4  10  24  42  74 113 149 202 241 322 386 464
#     4  11  24  48  76 108 151 200 255 315 393 464
#     4  11  26  44  76 111 155 201 259 320 393 474
#     4  10  24  42  72 111 150 200 244 320 383 475
#     4  12  30  54  83 116 159 210 276 338 400 471
#     4  10  23  42  68 112 159 194 255 305 396 463
#     4  12  31  54  85 117 157 213 274 338 401 475
#
# _framework density 26.074771999999999
#
# number of rings (size 3 to 8) (size 9 to 14) (size 15 to 20)
#    0.000    1.143    1.429    1.714   16.000    2.286 
#    0.000    0.000    0.000    0.000    0.000    0.000 
#    0.000    0.000    0.000    0.000    0.000    0.000 
#
# Total GULP energy -173549.010934 kJ/mol
# GULP energy per Si atom -12396.357924 kJ/mol
# Density = 2.601543 g / cm^3
# Si number density = 26.074772 Si / 1000 Ang^3
#
#
#
# Elastic Constant Matrix: (Units=GPa)
#
#
# Indices 1 2 3 4 5 6 
#
# 1 96.6775 35.6810 -7.6616 0.0000 11.8200 0.0000
# 2 35.6810 134.9108 23.2997 0.0000 16.0286 0.0000
# 3 -7.6616 23.2997 67.2043 0.0000 20.1171 0.0000
# 4 0.0000 0.0000 0.0000 38.8104 0.0000 3.2346
# 5 11.8200 16.0286 20.1171 0.0000 33.1248 0.0000
# 6 0.0000 0.0000 0.0000 3.2346 0.0000 38.6875
#
#
#
# Elastic Compliance Matrix: (Units=1/GPa)
#
#
# Indices 1 2 3 4 5 6 
#
# 1 0.012607 -0.003424 0.004247 0.000000 -0.005421 0.000000
# 2 -0.003424 0.009007 -0.003146 0.000000 -0.001226 0.000000
# 3 0.004247 -0.003146 0.020108 0.000000 -0.012205 0.000000
# 4 0.000000 0.000000 0.000000 0.025947 0.000000 -0.002169
# 5 -0.005421 -0.001226 -0.012205 0.000000 0.040129 0.000000
# 6 0.000000 0.000000 0.000000 -0.002169 0.000000 0.026030
#
#
# Mechanical properties :
#
#
# Convention : Reuss Voigt Hill
#
# Bulk Modulus (GPa) = 26.97127 44.60344 35.78735
# Shear Modulus (GPa) = 33.14962 38.62276 35.88619
#
# Velocity S-wave (km/s) = 3.56944 3.85285 3.71385
# Velocity P-wave (km/s) = 5.23012 6.07748 5.66965
#
# Compressibility (1/GPa) = 0.03707649
#
# Stress axis : x y z
#
# Youngs Moduli (GPa) = 79.32376 111.02785 49.73048
#
# Poissons Ratio (x) = 0.38011 -0.21120
# Poissons Ratio (y) = 0.27157 0.15645
# Poissons Ratio (z) = -0.33688 0.34929
#
# Static dielectric constant tensor:
#      x y z
#    x 4.854880 0.000000 -0.162150 
#    y 0.000000 4.869930 0.000000 
#    z -0.162150 0.000000 4.683560 
# 
# 
# High freq. dielectric constant tensor:
#      x y z
#    x 2.056760 0.000000 -0.009320 
#    y 0.000000 2.042010 0.000000 
#    z -0.009320 0.000000 2.038290 
# 
# From -- ./inp_files/3617.got.cif
#   From: 2010.03.12/outbox.cif.g09.slc.cpg/sg4_2_cif.got.tgz:3617.got - 2010.03.31 09:31:35.
