data_PCOD8046468
_publ_section_title
;
Structure prediction by ZEFSAII (Michael W. Deem and Ramdas Pophale) SiO2 
 PCOD8046468
Probable space group: P 21
;
_chemical_formula_sum "Si O2"
_cell_formula_units_Z 14
_cell_length_a 10.363347
_cell_length_b 9.428378
_cell_length_c 11.433145
_cell_angle_alpha 90.000000
_cell_angle_beta 36.212893
_cell_angle_gamma 90.000000
_cell_volume 659.984663
_symmetry_space_group_name_H-M "P 21"
_symmetry_group_IT_number 4
_symmetry_cell_setting 'monoclinic'
loop_
_space_group_symop_operation_xyz
x,y,z
-x,1/2+y,-z
loop_
_atom_site_type_symbol
_atom_site_label
_atom_site_fract_x
_atom_site_fract_y
_atom_site_fract_z
Si Si1 0.987038 0.396250 0.640448
Si Si2 0.711580 0.342863 0.222755
Si Si3 0.227141 0.665121 0.370346
Si Si4 0.684756 0.550347 0.046964
Si Si5 0.696132 0.679872 0.472891
Si Si6 0.355690 0.880635 0.462999
Si Si7 0.189460 0.256703 0.860677
O O1 0.872655 0.274383 0.648572
O O2 0.083040 0.523154 0.490622
O O3 0.175265 0.316551 0.574226
O O4 0.810683 0.465348 0.855409
O O5 0.598908 0.451317 0.214778
O O6 0.564342 0.202388 0.323016
O O7 0.713654 0.393346 0.353130
O O8 0.959802 0.327435 0.998540
O O9 0.469083 0.622768 0.148638
O O10 0.240947 0.748419 0.483739
O O11 0.838028 0.666632 0.999248
O O12 0.734076 0.533721 0.518224
O O13 0.748729 0.660131 0.296415
O O14 0.618837 0.871999 0.259294
#
# Coordination Sequence:
#
# PCOD8046468 Si02
#       7
#     2   2   2   2   2   2   2
#     4  12  25  46  72  92 135 183 225 277 332 390
#     4  11  21  37  65  96 136 169 212 274 335 402
#     4  11  26  48  67  97 134 180 229 275 328 399
#     4  11  23  43  67  98 132 171 225 277 328 397
#     4  11  22  37  65 100 132 175 219 270 336 399
#     4  10  23  40  64 100 136 172 221 270 338 401
#     4  10  22  37  64  99 135 176 211 273 339 394
#
# _framework density 21.212616000000001
#
# number of rings (size 3 to 8) (size 9 to 14) (size 15 to 20)
#    0.000    1.143    4.286    1.714    2.000    1.143 
#    2.571    1.429    0.000    0.000    0.000    0.000 
#    0.000    0.000    0.000    0.000    0.000    0.000 
#
# Total GULP energy -173488.022117 kJ/mol
# GULP energy per Si atom -12392.001580 kJ/mol
# Density = 2.116433 g / cm^3
# Si number density = 21.212616 Si / 1000 Ang^3
#
#
#
# Elastic Constant Matrix: (Units=GPa)
#
#
# Indices 1 2 3 4 5 6 
#
# 1 90.1624 44.5033 38.9199 0.0000 -4.7791 0.0000
# 2 44.5033 138.9877 46.1388 0.0000 -3.5546 0.0000
# 3 38.9199 46.1388 93.3591 0.0000 -7.5722 0.0000
# 4 0.0000 0.0000 0.0000 20.0818 0.0000 -5.4921
# 5 -4.7791 -3.5546 -7.5722 0.0000 26.3933 0.0000
# 6 0.0000 0.0000 0.0000 -5.4921 0.0000 40.7634
#
#
#
# Elastic Compliance Matrix: (Units=1/GPa)
#
#
# Indices 1 2 3 4 5 6 
#
# 1 0.014634 -0.003184 -0.004450 0.000000 0.000944 0.000000
# 2 -0.003184 0.009300 -0.003290 0.000000 -0.000268 0.000000
# 3 -0.004450 -0.003290 0.014427 0.000000 0.002890 0.000000
# 4 0.000000 0.000000 0.000000 0.051701 0.000000 0.006966
# 5 0.000944 -0.000268 0.002890 0.000000 0.038852 0.000000
# 6 0.000000 0.000000 0.000000 0.006966 0.000000 0.025470
#
#
# Mechanical properties :
#
#
# Convention : Reuss Voigt Hill
#
# Bulk Modulus (GPa) = 60.56568 64.62591 62.59579
# Shear Modulus (GPa) = 27.51205 30.31086 28.91146
#
# Velocity S-wave (km/s) = 3.60525 3.78419 3.69580
# Velocity P-wave (km/s) = 6.77821 7.04453 6.91265
#
# Compressibility (1/GPa) = 0.01651100
#
# Stress axis : x y z
#
# Youngs Moduli (GPa) = 68.33440 107.52825 69.31365
#
# Poissons Ratio (x) = 0.34239 0.30847
# Poissons Ratio (y) = 0.21759 0.22807
# Poissons Ratio (z) = 0.30412 0.35381
#
# Static dielectric constant tensor:
#      x y z
#    x 3.738930 0.000000 -0.081330 
#    y 0.000000 4.006800 0.000000 
#    z -0.081330 0.000000 3.634260 
# 
# 
# High freq. dielectric constant tensor:
#      x y z
#    x 1.823770 0.000000 -0.008100 
#    y 0.000000 1.844660 0.000000 
#    z -0.008100 0.000000 1.824850 
# 
# From -- ./inp_files/2382.got.cif
#   From: 2010.03.12/outbox.cif.g09.slc.cpg/sg4_2_cif.got.tgz:2382.got - 2010.03.31 09:31:35.
