data_PCOD8046735
_publ_section_title
;
Structure prediction by ZEFSAII (Michael W. Deem and Ramdas Pophale) SiO2 
 PCOD8046735
Probable space group: P 21
;
_chemical_formula_sum "Si O2"
_cell_formula_units_Z 14
_cell_length_a 10.752000
_cell_length_b 8.340207
_cell_length_c 15.031528
_cell_angle_alpha 90.000000
_cell_angle_beta 154.263499
_cell_angle_gamma 90.000000
_cell_volume 585.318269
_symmetry_space_group_name_H-M "P 21"
_symmetry_group_IT_number 4
_symmetry_cell_setting 'monoclinic'
loop_
_space_group_symop_operation_xyz
x,y,z
-x,1/2+y,-z
loop_
_atom_site_type_symbol
_atom_site_label
_atom_site_fract_x
_atom_site_fract_y
_atom_site_fract_z
Si Si1 0.865061 0.682970 0.373516
Si Si2 0.912203 0.097016 0.295664
Si Si3 0.537440 0.707182 0.438450
Si Si4 0.547066 0.401000 0.089217
Si Si5 0.594849 0.386523 0.824217
Si Si6 0.753771 0.888711 0.743508
Si Si7 0.478529 0.758078 0.742466
O O1 0.755757 0.554784 0.231252
O O2 0.612302 0.801611 0.239052
O O3 0.981969 0.585638 0.534820
O O4 0.135153 0.778639 0.505268
O O5 0.725499 0.257983 0.160346
O O6 0.178783 0.104566 0.400417
O O7 0.719188 0.941948 0.147031
O O8 0.472342 0.833843 0.319280
O O9 0.564392 0.803912 0.546797
O O10 0.278808 0.581037 0.283051
O O11 0.426422 0.355950 0.108789
O O12 0.553018 0.574323 0.805395
O O13 0.917161 0.340588 0.058210
O O14 0.652377 0.832091 0.774317
#
# Coordination Sequence:
#
# PCOD8046735 Si02
#       7
#     2   2   2   2   2   2   2
#     4  10  22  45  70  96 132 170 219 275 326 384
#     4  10  24  42  65  99 133 174 218 268 326 386
#     4  11  25  43  66  96 133 173 220 272 323 387
#     4  11  24  41  67  98 132 172 217 271 329 389
#     4  11  24  45  69  96 132 174 220 270 326 387
#     4  12  26  44  68  97 134 177 219 268 326 389
#     4  11  23  42  69  98 130 174 219 270 330 384
#
# _framework density 23.918610999999999
#
# number of rings (size 3 to 8) (size 9 to 14) (size 15 to 20)
#    0.000    1.143    0.000    6.857    0.000   12.571 
#    0.000    2.857    0.000    0.000    0.000    0.000 
#    0.000    0.000    0.000    0.000    0.000    0.000 
#
# Total GULP energy -173710.442386 kJ/mol
# GULP energy per Si atom -12407.888742 kJ/mol
# Density = 2.386417 g / cm^3
# Si number density = 23.918611 Si / 1000 Ang^3
#
#
#
# Elastic Constant Matrix: (Units=GPa)
#
#
# Indices 1 2 3 4 5 6 
#
# 1 50.1228 -8.7849 25.7315 0.0000 16.4929 0.0000
# 2 -8.7849 66.3570 24.7204 0.0000 12.9632 0.0000
# 3 25.7315 24.7204 120.7198 0.0000 12.8322 0.0000
# 4 0.0000 0.0000 0.0000 44.2356 0.0000 -2.5018
# 5 16.4929 12.9632 12.8322 0.0000 33.1219 0.0000
# 6 0.0000 0.0000 0.0000 -2.5018 0.0000 40.9371
#
#
#
# Elastic Compliance Matrix: (Units=1/GPa)
#
#
# Indices 1 2 3 4 5 6 
#
# 1 0.030534 0.009767 -0.006765 0.000000 -0.016406 0.000000
# 2 0.009767 0.020386 -0.005102 0.000000 -0.010866 0.000000
# 3 -0.006765 -0.005102 0.010638 0.000000 0.001244 0.000000
# 4 0.000000 0.000000 0.000000 0.022685 0.000000 0.001386
# 5 -0.016406 -0.010866 0.001244 0.000000 0.042132 0.000000
# 6 0.000000 0.000000 0.000000 0.001386 0.000000 0.024512
#
#
# Mechanical properties :
#
#
# Convention : Reuss Voigt Hill
#
# Bulk Modulus (GPa) = 17.43336 35.61485 26.52410
# Shear Modulus (GPa) = 28.70181 36.69444 32.69813
#
# Velocity S-wave (km/s) = 3.46783 3.92106 3.70139
# Velocity P-wave (km/s) = 4.83103 5.95163 5.42037
#
# Compressibility (1/GPa) = 0.05736128
#
# Stress axis : x y z
#
# Youngs Moduli (GPa) = 32.75020 49.05250 94.00282
#
# Poissons Ratio (x) = -0.47912 0.63589
# Poissons Ratio (y) = -0.31989 0.47956
# Poissons Ratio (z) = 0.22154 0.25024
#
# Static dielectric constant tensor:
#      x y z
#    x 4.310170 0.000000 0.124870 
#    y 0.000000 4.410840 0.000000 
#    z 0.124870 0.000000 4.581700 
# 
# 
# High freq. dielectric constant tensor:
#      x y z
#    x 1.946090 0.000000 -0.002040 
#    y 0.000000 1.963870 0.000000 
#    z -0.002040 0.000000 1.957130 
# 
# From -- ./inp_files/15139.got.cif
#   From: 2010.03.12/outbox.cif.g09.slc.cpg/sg4_8_cif.got.tgz:15139.got - 2010.03.31 09:31:35.
