data_PCOD8046182
_publ_section_title
;
Structure prediction by ZEFSAII (Michael W. Deem and Ramdas Pophale) SiO2 
 PCOD8046182
Probable space group: P 21
;
_chemical_formula_sum "Si O2"
_cell_formula_units_Z 14
_cell_length_a 15.536542
_cell_length_b 4.973881
_cell_length_c 21.351267
_cell_angle_alpha 90.000000
_cell_angle_beta 158.993377
_cell_angle_gamma 90.000000
_cell_volume 591.470820
_symmetry_space_group_name_H-M "P 21"
_symmetry_group_IT_number 4
_symmetry_cell_setting 'monoclinic'
loop_
_space_group_symop_operation_xyz
x,y,z
-x,1/2+y,-z
loop_
_atom_site_type_symbol
_atom_site_label
_atom_site_fract_x
_atom_site_fract_y
_atom_site_fract_z
Si Si1 0.245905 0.845810 0.374969
Si Si2 0.994210 0.334328 0.379177
Si Si3 0.436396 0.885776 0.830341
Si Si4 0.501303 0.880917 0.212651
Si Si5 0.146436 0.335330 0.797075
Si Si6 0.529394 0.348037 0.596856
Si Si7 0.857450 0.364225 0.924458
O O1 0.306018 0.534635 0.427697
O O2 0.252752 0.893915 0.305012
O O3 0.988411 0.904279 0.229378
O O4 0.442955 0.040235 0.541058
O O5 0.843240 0.384208 0.340051
O O6 0.935512 0.550018 0.285649
O O7 0.275128 0.333683 0.588304
O O8 0.916453 0.046576 0.299382
O O9 0.487770 0.674534 0.810337
O O10 0.498287 0.175635 0.844615
O O11 0.578014 0.835665 0.992401
O O12 0.243255 0.850537 0.073045
O O13 0.624279 0.453061 0.727166
O O14 0.066846 0.579030 0.054614
#
# Coordination Sequence:
#
# PCOD8046182 Si02
#       7
#     2   2   2   2   2   2   2
#     4  10  21  38  65  90 127 168 214 267 320 390
#     4  12  25  47  72  99 137 182 228 278 339 412
#     4  12  26  46  70 106 137 175 227 288 342 397
#     4  12  26  45  72 100 139 183 227 275 343 409
#     4  12  24  41  72 100 140 172 228 279 345 396
#     4  10  22  41  60  92 126 170 219 264 316 387
#     4  12  26  42  65  95 136 174 219 269 327 395
#
# _framework density 23.669803999999999
#
# number of rings (size 3 to 8) (size 9 to 14) (size 15 to 20)
#    0.000    0.571    0.000    8.571    4.000    0.000 
#    0.000    0.000    0.000    0.000    0.000    0.000 
#    0.000    0.000    0.000    0.000    0.000    0.000 
#
# Total GULP energy -173614.091082 kJ/mol
# GULP energy per Si atom -12401.006506 kJ/mol
# Density = 2.361593 g / cm^3
# Si number density = 23.669804 Si / 1000 Ang^3
#
#
#
# Elastic Constant Matrix: (Units=GPa)
#
#
# Indices 1 2 3 4 5 6 
#
# 1 117.1257 15.3467 12.0486 0.0000 34.4600 0.0000
# 2 15.3467 86.6921 9.5868 0.0000 4.7527 0.0000
# 3 12.0486 9.5868 76.3978 0.0000 -5.1364 0.0000
# 4 0.0000 0.0000 0.0000 28.4980 0.0000 -5.2076
# 5 34.4600 4.7527 -5.1364 0.0000 52.9084 0.0000
# 6 0.0000 0.0000 0.0000 -5.2076 0.0000 47.9769
#
#
#
# Elastic Compliance Matrix: (Units=1/GPa)
#
#
# Indices 1 2 3 4 5 6 
#
# 1 0.011070 -0.001331 -0.002069 0.000000 -0.007292 0.000000
# 2 -0.001331 0.011934 -0.001310 0.000000 -0.000332 0.000000
# 3 -0.002069 -0.001310 0.013768 0.000000 0.002802 0.000000
# 4 0.000000 0.000000 0.000000 0.035800 0.000000 0.003886
# 5 -0.007292 -0.000332 0.002802 0.000000 0.023952 0.000000
# 6 0.000000 0.000000 0.000000 0.003886 0.000000 0.021265
#
#
# Mechanical properties :
#
#
# Convention : Reuss Voigt Hill
#
# Bulk Modulus (GPa) = 36.56003 39.35332 37.95668
# Shear Modulus (GPa) = 36.67640 42.09222 39.38431
#
# Velocity S-wave (km/s) = 3.94064 4.22157 4.08352
# Velocity P-wave (km/s) = 6.01534 6.35801 6.18905
#
# Compressibility (1/GPa) = 0.02735227
#
# Stress axis : x y z
#
# Youngs Moduli (GPa) = 90.33102 83.79562 72.62981
#
# Poissons Ratio (x) = 0.11155 0.15028
# Poissons Ratio (y) = 0.12025 0.09514
# Poissons Ratio (z) = 0.18690 0.10976
#
# Static dielectric constant tensor:
#      x y z
#    x 4.380670 0.000000 0.211450 
#    y 0.000000 4.241490 0.000000 
#    z 0.211450 0.000000 4.042620 
# 
# 
# High freq. dielectric constant tensor:
#      x y z
#    x 1.953120 0.000000 0.007890 
#    y 0.000000 1.946080 0.000000 
#    z 0.007890 0.000000 1.927090 
# 
# From -- ./inp_files/14408.got.cif
#   From: 2010.03.12/outbox.cif.g09.slc.cpg/sg4_8_cif.got.tgz:14408.got - 2010.03.31 09:31:35.
