data_PCOD8046552
_publ_section_title
;
Structure prediction by ZEFSAII (Michael W. Deem and Ramdas Pophale) SiO2 
 PCOD8046552
Probable space group: P 21
;
_chemical_formula_sum "Si O2"
_cell_formula_units_Z 14
_cell_length_a 8.763133
_cell_length_b 8.118711
_cell_length_c 9.601227
_cell_angle_alpha 90.000000
_cell_angle_beta 122.787928
_cell_angle_gamma 90.000000
_cell_volume 574.254373
_symmetry_space_group_name_H-M "P 21"
_symmetry_group_IT_number 4
_symmetry_cell_setting 'monoclinic'
loop_
_space_group_symop_operation_xyz
x,y,z
-x,1/2+y,-z
loop_
_atom_site_type_symbol
_atom_site_label
_atom_site_fract_x
_atom_site_fract_y
_atom_site_fract_z
Si Si1 0.249252 0.897640 0.682460
Si Si2 0.626268 0.764088 0.874558
Si Si3 0.400555 0.229304 0.819310
Si Si4 0.533505 0.984535 0.370328
Si Si5 0.186364 0.731720 0.934746
Si Si6 0.995384 0.908724 0.055368
Si Si7 0.751984 0.281265 0.598278
O O1 0.454473 0.861773 0.732225
O O2 0.183369 0.771984 0.769162
O O3 0.147013 0.863519 0.486784
O O4 0.250987 0.085709 0.730699
O O5 0.601517 0.578962 0.803731
O O6 0.632285 0.797985 0.043320
O O7 0.809502 0.835505 0.903224
O O8 0.355938 0.359496 0.675356
O O9 0.613113 0.173698 0.916301
O O10 0.414694 0.890264 0.425797
O O11 0.679085 0.098327 0.524226
O O12 0.038465 0.589425 0.896995
O O13 0.129265 0.900168 0.987356
O O14 0.085713 0.779519 0.209567
#
# Coordination Sequence:
#
# PCOD8046552 Si02
#       7
#     2   2   2   2   2   2   2
#     4  10  23  45  70 100 139 197 247 290 367 452
#     4  10  22  40  73 103 140 188 249 306 354 433
#     4  11  21  43  75 103 133 195 254 298 346 455
#     4  11  23  43  72 107 144 199 247 294 371 453
#     4  11  25  44  73 106 147 192 248 308 367 438
#     4  12  25  44  69 109 150 184 245 317 373 421
#     4  11  25  43  70 104 153 189 242 305 374 442
#
# _framework density 24.379439000000001
#
# number of rings (size 3 to 8) (size 9 to 14) (size 15 to 20)
#    0.000    1.143    2.857    3.429    6.000    0.000 
#    2.571    1.429    0.000    0.000    0.000    0.000 
#    0.000    0.000    0.000    0.000    0.000    0.000 
#
# Total GULP energy -173490.973399 kJ/mol
# GULP energy per Si atom -12392.212386 kJ/mol
# Density = 2.432395 g / cm^3
# Si number density = 24.379439 Si / 1000 Ang^3
#
#
#
# Elastic Constant Matrix: (Units=GPa)
#
#
# Indices 1 2 3 4 5 6 
#
# 1 59.9916 13.8006 20.9473 0.0000 -18.5940 0.0000
# 2 13.8006 95.4687 13.4146 0.0000 -11.1291 0.0000
# 3 20.9473 13.4146 79.2536 0.0000 -25.5255 0.0000
# 4 0.0000 0.0000 0.0000 47.3995 0.0000 -7.4370
# 5 -18.5940 -11.1291 -25.5255 0.0000 36.3948 0.0000
# 6 0.0000 0.0000 0.0000 -7.4370 0.0000 41.4836
#
#
#
# Elastic Compliance Matrix: (Units=1/GPa)
#
#
# Indices 1 2 3 4 5 6 
#
# 1 0.020460 -0.001652 -0.002486 0.000000 0.008204 0.000000
# 2 -0.001652 0.011056 -0.000798 0.000000 0.001977 0.000000
# 3 -0.002486 -0.000798 0.016693 0.000000 0.010194 0.000000
# 4 0.000000 0.000000 0.000000 0.021708 0.000000 0.003892
# 5 0.008204 0.001977 0.010194 0.000000 0.039422 0.000000
# 6 0.000000 0.000000 0.000000 0.003892 0.000000 0.024804
#
#
# Mechanical properties :
#
#
# Convention : Reuss Voigt Hill
#
# Bulk Modulus (GPa) = 26.08396 36.78210 31.43303
# Shear Modulus (GPa) = 31.88928 37.49234 34.69081
#
# Velocity S-wave (km/s) = 3.62061 3.92582 3.77630
# Velocity P-wave (km/s) = 5.31044 5.97240 5.65112
#
# Compressibility (1/GPa) = 0.03833774
#
# Stress axis : x y z
#
# Youngs Moduli (GPa) = 48.87628 90.44832 59.90576
#
# Poissons Ratio (x) = 0.14941 0.14890
# Poissons Ratio (y) = 0.08074 0.04780
# Poissons Ratio (z) = 0.12149 0.07217
#
# Static dielectric constant tensor:
#      x y z
#    x 4.361650 0.000000 -0.110970 
#    y 0.000000 4.318910 0.000000 
#    z -0.110970 0.000000 4.475870 
# 
# 
# High freq. dielectric constant tensor:
#      x y z
#    x 1.965320 0.000000 -0.019500 
#    y 0.000000 1.962770 0.000000 
#    z -0.019500 0.000000 1.964010 
# 
# From -- ./inp_files/5292.got.cif
#   From: 2010.03.12/outbox.cif.g09.slc.cpg/sg4_3_cif.got.tgz:5292.got - 2010.03.31 09:31:35.
