data_PCOD8046799
_publ_section_title
;
Structure prediction by ZEFSAII (Michael W. Deem and Ramdas Pophale) SiO2 
 PCOD8046799
Probable space group: P 21
;
_chemical_formula_sum "Si O2"
_cell_formula_units_Z 14
_cell_length_a 14.706170
_cell_length_b 8.690091
_cell_length_c 6.864470
_cell_angle_alpha 90.000000
_cell_angle_beta 49.490937
_cell_angle_gamma 90.000000
_cell_volume 666.987587
_symmetry_space_group_name_H-M "P 21"
_symmetry_group_IT_number 4
_symmetry_cell_setting 'monoclinic'
loop_
_space_group_symop_operation_xyz
x,y,z
-x,1/2+y,-z
loop_
_atom_site_type_symbol
_atom_site_label
_atom_site_fract_x
_atom_site_fract_y
_atom_site_fract_z
Si Si1 0.997667 0.462070 0.266349
Si Si2 0.365597 0.619180 0.086224
Si Si3 0.839917 0.898276 0.609098
Si Si4 0.692941 0.356120 0.158460
Si Si5 0.752226 0.566813 0.744812
Si Si6 0.419952 0.897002 0.283441
Si Si7 0.045941 0.791721 0.048870
O O1 0.885084 0.495247 0.562001
O O2 0.107678 0.413507 0.247222
O O3 0.030121 0.610831 0.095564
O O4 0.968684 0.323627 0.159910
O O5 0.239645 0.547126 0.333773
O O6 0.417155 0.732031 0.179624
O O7 0.342929 0.707243 0.916143
O O8 0.454060 0.477796 0.927926
O O9 0.753918 0.750080 0.732976
O O10 0.944587 0.884887 0.306398
O O11 0.596527 0.372614 0.463618
O O12 0.685477 0.507552 0.031972
O O13 0.824654 0.343260 0.061923
O O14 0.685471 0.507053 0.645438
#
# Coordination Sequence:
#
# PCOD8046799 Si02
#       7
#     2   2   2   2   2   2   2
#     4  11  23  38  62  97 136 169 214 264 323 391
#     4  11  26  45  68  96 129 176 215 272 326 380
#     4  11  24  40  65  96 139 169 215 264 327 390
#     4  11  23  43  69  94 131 169 219 266 324 380
#     4  10  23  40  64  96 129 175 211 266 321 384
#     4  11  25  46  69  93 131 168 226 268 321 385
#     4  11  24  38  65 100 131 174 212 262 328 388
#
# _framework density 20.989896000000002
#
# number of rings (size 3 to 8) (size 9 to 14) (size 15 to 20)
#    0.000    1.143    4.286    0.857    4.000    3.429 
#    0.000    0.000    0.000    0.000    0.000    0.000 
#    0.000    0.000    0.000    0.000    0.000    0.000 
#
# Total GULP energy -173675.369537 kJ/mol
# GULP energy per Si atom -12405.383538 kJ/mol
# Density = 2.094212 g / cm^3
# Si number density = 20.989896 Si / 1000 Ang^3
#
#
#
# Elastic Constant Matrix: (Units=GPa)
#
#
# Indices 1 2 3 4 5 6 
#
# 1 59.7562 25.3798 17.3137 0.0000 1.9011 0.0000
# 2 25.3798 87.5194 42.2407 0.0000 7.8112 0.0000
# 3 17.3137 42.2407 96.2188 0.0000 14.1454 0.0000
# 4 0.0000 0.0000 0.0000 30.8387 0.0000 -6.5697
# 5 1.9011 7.8112 14.1454 0.0000 28.8523 0.0000
# 6 0.0000 0.0000 0.0000 -6.5697 0.0000 41.1492
#
#
#
# Elastic Compliance Matrix: (Units=1/GPa)
#
#
# Indices 1 2 3 4 5 6 
#
# 1 0.019225 -0.004973 -0.001388 0.000000 0.000760 0.000000
# 2 -0.004973 0.015804 -0.005887 0.000000 -0.001065 0.000000
# 3 -0.001388 -0.005887 0.013988 0.000000 -0.005172 0.000000
# 4 0.000000 0.000000 0.000000 0.033568 0.000000 0.005359
# 5 0.000760 -0.001065 -0.005172 0.000000 0.037433 0.000000
# 6 0.000000 0.000000 0.000000 0.005359 0.000000 0.025157
#
#
# Mechanical properties :
#
#
# Convention : Reuss Voigt Hill
#
# Bulk Modulus (GPa) = 40.78092 45.92919 43.35506
# Shear Modulus (GPa) = 28.11433 30.73872 29.42652
#
# Velocity S-wave (km/s) = 3.66378 3.83097 3.74831
# Velocity P-wave (km/s) = 6.11300 6.44186 6.27958
#
# Compressibility (1/GPa) = 0.02452127
#
# Stress axis : x y z
#
# Youngs Moduli (GPa) = 52.01631 63.27330 71.49231
#
# Poissons Ratio (x) = 0.31466 0.09922
# Poissons Ratio (y) = 0.25867 0.42087
# Poissons Ratio (z) = 0.07219 0.37248
#
# Static dielectric constant tensor:
#      x y z
#    x 3.789820 0.000000 -0.015490 
#    y 0.000000 3.797340 0.000000 
#    z -0.015490 0.000000 3.703480 
# 
# 
# High freq. dielectric constant tensor:
#      x y z
#    x 1.827200 0.000000 0.000010 
#    y 0.000000 1.828920 0.000000 
#    z 0.000010 0.000000 1.818870 
# 
# From -- ./inp_files/2366.got.cif
#   From: 2010.03.12/outbox.cif.g09.slc.cpg/sg4_2_cif.got.tgz:2366.got - 2010.03.31 09:31:35.
