data_PCOD8046412
_publ_section_title
;
Structure prediction by ZEFSAII (Michael W. Deem and Ramdas Pophale) SiO2 
 PCOD8046412
Probable space group: P 21
;
_chemical_formula_sum "Si O2"
_cell_formula_units_Z 16
_cell_length_a 5.377164
_cell_length_b 8.818643
_cell_length_c 13.317325
_cell_angle_alpha 90.000000
_cell_angle_beta 56.556400
_cell_angle_gamma 90.000000
_cell_volume 526.940148
_symmetry_space_group_name_H-M "P 21"
_symmetry_group_IT_number 4
_symmetry_cell_setting 'monoclinic'
loop_
_space_group_symop_operation_xyz
x,y,z
-x,1/2+y,-z
loop_
_atom_site_type_symbol
_atom_site_label
_atom_site_fract_x
_atom_site_fract_y
_atom_site_fract_z
Si Si1 0.723166 0.413030 0.024735
Si Si2 0.378071 0.932210 0.549771
Si Si3 0.781664 0.047560 0.714161
Si Si4 0.649875 0.376681 0.754068
Si Si5 0.843751 0.985873 0.248808
Si Si6 0.741351 0.056668 0.001881
Si Si7 0.865228 0.142836 0.467784
Si Si8 0.477489 0.258008 0.299662
O O1 0.403052 0.505287 0.074700
O O2 0.897255 0.424739 0.880901
O O3 0.913824 0.501868 0.069258
O O4 0.688891 0.231280 0.046685
O O5 0.607827 0.059675 0.451669
O O6 0.116601 0.010252 0.676626
O O7 0.219784 0.820839 0.505597
O O8 0.578895 0.836044 0.581301
O O9 0.656054 0.201525 0.788746
O O10 0.842381 0.074099 0.581981
O O11 0.550030 0.899173 0.777884
O O12 0.469391 0.391854 0.687462
O O13 0.421779 0.466559 0.874433
O O14 0.990389 0.445415 0.680096
O O15 0.789961 0.165702 0.233779
O O16 0.201898 0.139936 0.345939
#
# Coordination Sequence:
#
# PCOD8046412 Si02
#       8
#     2   2   2   2   2   2   2   2
#     4  10  21  43  73 105 141 179 227 281 347 426
#     4  10  22  40  62  88 126 172 236 288 348 398
#     4  10  23  42  62  91 134 178 238 288 349 409
#     4  10  24  43  66 100 137 178 228 283 350 413
#     4  10  24  43  66 100 137 178 228 283 350 413
#     4  10  21  43  73 105 141 179 227 281 347 426
#     4  10  22  40  60  94 120 180 228 294 336 408
#     4  10  23  42  62  91 134 178 238 288 349 409
#
# _framework density 30.363980000000002
#
# number of rings (size 3 to 8) (size 9 to 14) (size 15 to 20)
#    0.000    2.000    0.000    1.500    7.000    5.000 
#    2.250   15.000    0.000    0.000    0.000    0.000 
#    0.000    0.000    0.000    0.000    0.000    0.000 
#
# Total GULP energy -198241.319639 kJ/mol
# GULP energy per Si atom -12390.082477 kJ/mol
# Density = 3.029487 g / cm^3
# Si number density = 30.363980 Si / 1000 Ang^3
#
#
#
# Elastic Constant Matrix: (Units=GPa)
#
#
# Indices 1 2 3 4 5 6 
#
# 1 241.3667 95.9730 26.0177 0.0000 -21.8569 0.0000
# 2 95.9730 224.4194 40.0501 0.0000 -24.7580 0.0000
# 3 26.0177 40.0501 55.9852 0.0000 -28.8942 0.0000
# 4 0.0000 0.0000 0.0000 58.7039 0.0000 -9.5130
# 5 -21.8569 -24.7580 -28.8942 0.0000 49.6495 0.0000
# 6 0.0000 0.0000 0.0000 -9.5130 0.0000 60.6876
#
#
#
# Elastic Compliance Matrix: (Units=1/GPa)
#
#
# Indices 1 2 3 4 5 6 
#
# 1 0.005067 -0.001981 -0.000423 0.000000 0.000996 0.000000
# 2 -0.001981 0.005895 -0.003187 0.000000 0.000213 0.000000
# 3 -0.000423 -0.003187 0.027760 0.000000 0.014380 0.000000
# 4 0.000000 0.000000 0.000000 0.017479 0.000000 0.002740
# 5 0.000996 0.000213 0.014380 0.000000 0.029055 0.000000
# 6 0.000000 0.000000 0.000000 0.002740 0.000000 0.016907
#
#
# Mechanical properties :
#
#
# Convention : Reuss Voigt Hill
#
# Bulk Modulus (GPa) = 36.31141 93.98367 65.14754
# Shear Modulus (GPa) = 40.80820 57.79024 49.29922
#
# Velocity S-wave (km/s) = 3.66999 4.36736 4.03377
# Velocity P-wave (km/s) = 5.47203 7.51341 6.57246
#
# Compressibility (1/GPa) = 0.02753955
#
# Stress axis : x y z
#
# Youngs Moduli (GPa) = 197.36563 169.62126 36.02358
#
# Poissons Ratio (x) = 0.33609 0.01524
# Poissons Ratio (y) = 0.39106 0.11480
# Poissons Ratio (z) = 0.08349 0.54054
#
# Static dielectric constant tensor:
#      x y z
#    x 7.229250 0.000000 0.359040 
#    y 0.000000 6.370360 0.000000 
#    z 0.359040 0.000000 5.767270 
# 
# 
# High freq. dielectric constant tensor:
#      x y z
#    x 2.273310 0.000000 0.005600 
#    y 0.000000 2.262920 0.000000 
#    z 0.005600 0.000000 2.261170 
# 
# From -- ./inp_files/14182.got.cif
#   From: 2010.03.12/outbox.cif.g09.slc.cpg/sg4_8_cif.got.tgz:14182.got - 2010.03.31 09:31:35.
