data_PCOD8046276
_publ_section_title
;
Structure prediction by ZEFSAII (Michael W. Deem and Ramdas Pophale) SiO2 
 PCOD8046276
Probable space group: P 21
;
_chemical_formula_sum "Si O2"
_cell_formula_units_Z 14
_cell_length_a 5.072135
_cell_length_b 12.517589
_cell_length_c 10.110461
_cell_angle_alpha 90.000000
_cell_angle_beta 102.937292
_cell_angle_gamma 90.000000
_cell_volume 625.627522
_symmetry_space_group_name_H-M "P 21"
_symmetry_group_IT_number 4
_symmetry_cell_setting 'monoclinic'
loop_
_space_group_symop_operation_xyz
x,y,z
-x,1/2+y,-z
loop_
_atom_site_type_symbol
_atom_site_label
_atom_site_fract_x
_atom_site_fract_y
_atom_site_fract_z
Si Si1 0.407536 0.931580 0.307312
Si Si2 0.158401 0.383519 0.849326
Si Si3 0.650179 0.142439 0.346272
Si Si4 0.924150 0.030571 0.622399
Si Si5 0.094168 0.151627 0.901064
Si Si6 0.583836 0.385058 0.404451
Si Si7 0.661283 0.093233 0.050684
O O1 0.698503 0.905091 0.275728
O O2 0.385007 0.863891 0.437170
O O3 0.164192 0.894572 0.189366
O O4 0.396493 0.060159 0.333285
O O5 0.230716 0.267179 0.907026
O O6 0.262937 0.469470 0.966793
O O7 0.861913 0.103537 0.484908
O O8 0.553212 0.265120 0.344126
O O9 0.761193 0.128899 0.208390
O O10 0.021960 0.109644 0.747903
O O11 0.671673 0.962237 0.649633
O O12 0.153240 0.943348 0.621544
O O13 0.336983 0.088915 0.999226
O O14 0.823701 0.159794 0.959135
#
# Coordination Sequence:
#
# PCOD8046276 Si02
#       7
#     2   2   2   2   2   2   2
#     4  10  21  40  65  98 127 170 220 256 313 400
#     4  11  23  43  66  90 131 177 212 255 321 393
#     4  10  24  44  68  95 131 171 215 268 321 377
#     4  11  26  43  66  99 130 168 220 261 318 393
#     4  12  26  45  67  95 133 172 210 268 324 377
#     4  11  23  40  67  99 132 164 211 279 323 359
#     4  11  25  43  65  98 128 168 220 261 316 391
#
# _framework density 22.377531999999999
#
# number of rings (size 3 to 8) (size 9 to 14) (size 15 to 20)
#    0.000    1.143    0.000    6.857    0.000   12.571 
#    0.000    0.000    0.000    0.000    0.000    0.000 
#    0.000    0.000    0.000    0.000    0.000    0.000 
#
# Total GULP energy -173510.147851 kJ/mol
# GULP energy per Si atom -12393.581989 kJ/mol
# Density = 2.232660 g / cm^3
# Si number density = 22.377532 Si / 1000 Ang^3
#
#
#
# Elastic Constant Matrix: (Units=GPa)
#
#
# Indices 1 2 3 4 5 6 
#
# 1 102.3351 19.3655 28.9079 0.0000 2.2879 0.0000
# 2 19.3655 123.6701 33.6516 0.0000 4.7832 0.0000
# 3 28.9079 33.6516 119.1164 0.0000 -0.0723 0.0000
# 4 0.0000 0.0000 0.0000 25.9892 0.0000 -1.3903
# 5 2.2879 4.7832 -0.0723 0.0000 31.5039 0.0000
# 6 0.0000 0.0000 0.0000 -1.3903 0.0000 29.1871
#
#
#
# Elastic Compliance Matrix: (Units=1/GPa)
#
#
# Indices 1 2 3 4 5 6 
#
# 1 0.010625 -0.001016 -0.002292 0.000000 -0.000623 0.000000
# 2 -0.001016 0.008913 -0.002272 0.000000 -0.001285 0.000000
# 3 -0.002292 -0.002272 0.009594 0.000000 0.000533 0.000000
# 4 0.000000 0.000000 0.000000 0.038576 0.000000 0.001838
# 5 -0.000623 -0.001285 0.000533 0.000000 0.031984 0.000000
# 6 0.000000 0.000000 0.000000 0.001838 0.000000 0.034349
#
#
# Mechanical properties :
#
#
# Convention : Reuss Voigt Hill
#
# Bulk Modulus (GPa) = 55.64332 56.55241 56.09787
# Shear Modulus (GPa) = 33.07051 34.88247 33.97649
#
# Velocity S-wave (km/s) = 3.84844 3.95247 3.90080
# Velocity P-wave (km/s) = 6.68334 6.79383 6.73881
#
# Compressibility (1/GPa) = 0.01797161
#
# Stress axis : x y z
#
# Youngs Moduli (GPa) = 94.11350 112.19417 104.23581
#
# Poissons Ratio (x) = 0.11400 0.23891
# Poissons Ratio (y) = 0.09563 0.23685
# Poissons Ratio (z) = 0.21571 0.25493
#
# Static dielectric constant tensor:
#      x y z
#    x 4.040430 0.000000 -0.063010 
#    y 0.000000 4.170100 0.000000 
#    z -0.063010 0.000000 4.000090 
# 
# 
# High freq. dielectric constant tensor:
#      x y z
#    x 1.885030 0.000000 -0.002940 
#    y 0.000000 1.888780 0.000000 
#    z -0.002940 0.000000 1.879490 
# 
# From -- ./inp_files/4641.got.cif
#   From: 2010.03.12/outbox.cif.g09.slc.cpg/sg4_3_cif.got.tgz:4641.got - 2010.03.31 09:31:35.
