data_PCOD8046043
_publ_section_title
;
Structure prediction by ZEFSAII (Michael W. Deem and Ramdas Pophale) SiO2 
 PCOD8046043
Probable space group: P 21
;
_chemical_formula_sum "Si O2"
_cell_formula_units_Z 16
_cell_length_a 19.255739
_cell_length_b 8.752794
_cell_length_c 7.565389
_cell_angle_alpha 90.000000
_cell_angle_beta 34.189891
_cell_angle_gamma 90.000000
_cell_volume 716.516396
_symmetry_space_group_name_H-M "P 21"
_symmetry_group_IT_number 4
_symmetry_cell_setting 'monoclinic'
loop_
_space_group_symop_operation_xyz
x,y,z
-x,1/2+y,-z
loop_
_atom_site_type_symbol
_atom_site_label
_atom_site_fract_x
_atom_site_fract_y
_atom_site_fract_z
Si Si1 0.143359 0.746380 0.688882
Si Si2 0.901183 0.836996 0.759094
Si Si3 0.255519 0.124579 0.104654
Si Si4 0.412860 0.672104 0.073176
Si Si5 0.976182 0.504109 0.209702
Si Si6 0.864732 0.163828 0.701022
Si Si7 0.616296 0.318813 0.240943
Si Si8 0.430020 0.314903 0.956146
O O1 0.287157 0.729856 0.435208
O O2 0.130404 0.697579 0.514690
O O3 0.092043 0.920724 0.811984
O O4 0.052973 0.651354 0.000664
O O5 0.781384 0.727374 0.988823
O O6 0.023433 0.747509 0.431735
O O7 0.875861 0.983241 0.692029
O O8 0.923021 0.888148 0.915337
O O9 0.130551 0.040201 0.425501
O O10 0.302933 0.232745 0.164861
O O11 0.356347 0.999109 0.838120
O O12 0.521016 0.720881 0.978235
O O13 0.433744 0.753541 0.840304
O O14 0.407913 0.489853 0.057578
O O15 0.736486 0.225294 0.052196
O O16 0.515803 0.300334 0.603674
#
# Coordination Sequence:
#
# PCOD8046043 Si02
#       8
#     2   2   2   2   2   2   2   2
#     4  10  24  43  65  99 139 178 219 285 348 409
#     4  11  21  39  66  99 132 177 218 280 344 407
#     4  12  23  45  71 101 140 178 233 290 340 418
#     4  11  25  50  68 106 143 178 245 286 342 421
#     4  11  24  43  69 102 135 179 222 283 357 414
#     4  10  20  40  65  98 141 170 230 280 336 420
#     4  11  23  49  70 100 140 187 233 289 343 406
#     4  12  28  45  76 101 138 195 230 293 346 407
#
# _framework density 22.330264
#
# number of rings (size 3 to 8) (size 9 to 14) (size 15 to 20)
#    0.000    1.000    5.000    3.000    5.250    0.000 
#    9.000    0.000    0.000    0.000    0.000    0.000 
#    0.000    0.000    0.000    0.000    0.000    0.000 
#
# Total GULP energy -198340.429299 kJ/mol
# GULP energy per Si atom -12396.276831 kJ/mol
# Density = 2.227944 g / cm^3
# Si number density = 22.330264 Si / 1000 Ang^3
#
#
#
# Elastic Constant Matrix: (Units=GPa)
#
#
# Indices 1 2 3 4 5 6 
#
# 1 92.3750 40.9413 17.6390 0.0000 -23.1510 0.0000
# 2 40.9413 115.3628 0.7844 0.0000 -7.8401 0.0000
# 3 17.6390 0.7844 43.5740 0.0000 3.3125 0.0000
# 4 0.0000 0.0000 0.0000 30.3138 0.0000 -5.0685
# 5 -23.1510 -7.8401 3.3125 0.0000 27.2103 0.0000
# 6 0.0000 0.0000 0.0000 -5.0685 0.0000 48.1934
#
#
#
# Elastic Compliance Matrix: (Units=1/GPa)
#
#
# Indices 1 2 3 4 5 6 
#
# 1 0.018837 -0.005574 -0.008702 0.000000 0.015480 0.000000
# 2 -0.005574 0.010496 0.002219 0.000000 -0.001988 0.000000
# 3 -0.008702 0.002219 0.027198 0.000000 -0.010076 0.000000
# 4 0.000000 0.000000 0.000000 0.033579 0.000000 0.003531
# 5 0.015480 -0.001988 -0.010076 0.000000 0.050575 0.000000
# 6 0.000000 0.000000 0.000000 0.003531 0.000000 0.021121
#
#
# Mechanical properties :
#
#
# Convention : Reuss Voigt Hill
#
# Bulk Modulus (GPa) = 30.84806 41.11569 35.98188
# Shear Modulus (GPa) = 25.41596 33.93999 29.67797
#
# Velocity S-wave (km/s) = 3.37736 3.90283 3.64956
# Velocity P-wave (km/s) = 5.39010 6.22591 5.82302
#
# Compressibility (1/GPa) = 0.03241694
#
# Stress axis : x y z
#
# Youngs Moduli (GPa) = 53.08668 95.27223 36.76735
#
# Poissons Ratio (x) = 0.53104 0.31994
# Poissons Ratio (y) = 0.29590 -0.08157
# Poissons Ratio (z) = 0.46195 -0.21137
#
# Static dielectric constant tensor:
#      x y z
#    x 4.127030 0.000000 -0.364160 
#    y 0.000000 4.479560 0.000000 
#    z -0.364160 0.000000 3.958160 
# 
# 
# High freq. dielectric constant tensor:
#      x y z
#    x 1.882230 0.000000 -0.020670 
#    y 0.000000 1.900810 0.000000 
#    z -0.020670 0.000000 1.859330 
# 
# From -- ./inp_files/9906.got.cif
#   From: 2010.03.12/outbox.cif.g09.slc.cpg/sg4_5_cif.got.tgz:9906.got - 2010.03.31 09:31:35.
