data_PCOD8046128
_publ_section_title
;
Structure prediction by ZEFSAII (Michael W. Deem and Ramdas Pophale) SiO2 
 PCOD8046128
Probable space group: P 21
;
_chemical_formula_sum "Si O2"
_cell_formula_units_Z 12
_cell_length_a 23.473804
_cell_length_b 5.145198
_cell_length_c 12.031589
_cell_angle_alpha 90.000000
_cell_angle_beta 159.709522
_cell_angle_gamma 90.000000
_cell_volume 503.920840
_symmetry_space_group_name_H-M "P 21"
_symmetry_group_IT_number 4
_symmetry_cell_setting 'monoclinic'
loop_
_space_group_symop_operation_xyz
x,y,z
-x,1/2+y,-z
loop_
_atom_site_type_symbol
_atom_site_label
_atom_site_fract_x
_atom_site_fract_y
_atom_site_fract_z
Si Si1 0.116468 0.959050 0.719432
Si Si2 0.086941 0.913673 0.291605
Si Si3 0.628685 0.446829 0.612956
Si Si4 0.900651 0.415406 0.949365
Si Si5 0.550920 0.455791 0.776936
Si Si6 0.546638 0.468083 0.018260
O O1 0.996012 0.713717 0.492302
O O2 0.225584 0.954459 0.030842
O O3 0.249083 0.954617 0.860576
O O4 0.989740 0.668540 0.160802
O O5 0.996926 0.167326 0.173689
O O6 0.268666 0.889084 0.669143
O O7 0.097778 0.912590 0.179269
O O8 0.515852 0.701397 0.407385
O O9 0.511196 0.196927 0.411794
O O10 0.713868 0.418722 0.648039
O O11 0.473718 0.478856 0.760185
O O12 0.458401 0.247875 0.930586
#
# Coordination Sequence:
#
# PCOD8046128 Si02
#       6
#     2   2   2   2   2   2
#     4  12  28  48  76 107 139 182 242 297 358 418
#     4  10  21  37  57  93 132 173 228 274 325 404
#     4  12  25  46  74 100 144 184 237 288 361 422
#     4  10  21  36  63  90 130 177 219 276 341 396
#     4  12  26  46  73 105 145 188 234 291 357 419
#     4  12  25  41  67  99 144 186 236 280 348 417
#
# _framework density 23.813265999999999
#
# number of rings (size 3 to 8) (size 9 to 14) (size 15 to 20)
#    0.000    0.667    0.000    8.000    4.667    2.667 
#    0.000    0.000    0.000    0.000    0.000    0.000 
#    0.000    0.000    0.000    0.000    0.000    0.000 
#
# Total GULP energy -148815.129874 kJ/mol
# GULP energy per Si atom -12401.260823 kJ/mol
# Density = 2.375907 g / cm^3
# Si number density = 23.813266 Si / 1000 Ang^3
#
#
#
# Elastic Constant Matrix: (Units=GPa)
#
#
# Indices 1 2 3 4 5 6 
#
# 1 92.2744 32.3650 22.0242 0.0000 6.7956 0.0000
# 2 32.3650 200.5804 64.2127 0.0000 2.1997 0.0000
# 3 22.0242 64.2127 125.0860 0.0000 8.2004 0.0000
# 4 0.0000 0.0000 0.0000 44.4552 0.0000 -2.2690
# 5 6.7956 2.1997 8.2004 0.0000 42.3442 0.0000
# 6 0.0000 0.0000 0.0000 -2.2690 0.0000 -14.7611
#
#
#
# Elastic Compliance Matrix: (Units=1/GPa)
#
#
# Indices 1 2 3 4 5 6 
#
# 1 0.011765 -0.001497 -0.001200 0.000000 -0.001578 0.000000
# 2 -0.001497 0.006160 -0.002931 0.000000 0.000488 0.000000
# 3 -0.001200 -0.002931 0.009812 0.000000 -0.001555 0.000000
# 4 0.000000 0.000000 0.000000 0.022319 0.000000 -0.003431
# 5 -0.001578 0.000488 -0.001555 0.000000 0.024145 0.000000
# 6 0.000000 0.000000 0.000000 -0.003431 0.000000 -0.067218
#
#
# Mechanical properties :
#
#
# Convention : Reuss Voigt Hill
#
# Bulk Modulus (GPa) = 60.67002 72.79383 66.73193
# Shear Modulus (GPa) = 210.68834 34.36359 122.52597
#
# Velocity S-wave (km/s) = 9.41633 3.80286 7.18084
# Velocity P-wave (km/s) = 11.98982 7.06522 9.84056
#
# Compressibility (1/GPa) = 0.01648260
#
# Stress axis : x y z
#
# Youngs Moduli (GPa) = 84.99906 162.33985 101.91517
#
# Poissons Ratio (x) = 0.24303 0.12225
# Poissons Ratio (y) = 0.12725 0.29867
# Poissons Ratio (z) = 0.10196 0.47575
#
# Static dielectric constant tensor:
#      x y z
#    x 4.446040 0.000000 0.099480 
#    y 0.000000 4.588710 0.000000 
#    z 0.099480 0.000000 4.322960 
# 
# 
# High freq. dielectric constant tensor:
#      x y z
#    x 1.954430 0.000000 0.007500 
#    y 0.000000 1.958260 0.000000 
#    z 0.007500 0.000000 1.946510 
# 
# From -- ./inp_files/13094.got.cif
#   From: 2010.03.12/outbox.cif.g09.slc.cpg/sg4_7_cif.got.tgz:13094.got - 2010.03.31 09:31:35.
