data_PCOD8046296
_publ_section_title
;
Structure prediction by ZEFSAII (Michael W. Deem and Ramdas Pophale) SiO2 
 PCOD8046296
Probable space group: P 21
;
_chemical_formula_sum "Si O2"
_cell_formula_units_Z 16
_cell_length_a 15.522739
_cell_length_b 5.016315
_cell_length_c 19.639576
_cell_angle_alpha 90.000000
_cell_angle_beta 25.882787
_cell_angle_gamma 90.000000
_cell_volume 667.576240
_symmetry_space_group_name_H-M "P 21"
_symmetry_group_IT_number 4
_symmetry_cell_setting 'monoclinic'
loop_
_space_group_symop_operation_xyz
x,y,z
-x,1/2+y,-z
loop_
_atom_site_type_symbol
_atom_site_label
_atom_site_fract_x
_atom_site_fract_y
_atom_site_fract_z
Si Si1 0.521778 0.795800 0.030884
Si Si2 0.785450 0.617928 0.680192
Si Si3 0.503193 0.835794 0.267440
Si Si4 0.127262 0.594967 0.168638
Si Si5 0.947484 0.447287 0.429464
Si Si6 0.275319 0.087544 0.615046
Si Si7 0.495310 0.098356 0.591553
Si Si8 0.571304 0.345457 0.134965
O O1 0.341563 0.853412 0.211614
O O2 0.493464 0.502079 0.021528
O O3 0.730544 0.835479 0.922523
O O4 0.943007 0.582753 0.506994
O O5 0.635466 0.836070 0.757148
O O6 0.894882 0.708029 0.671913
O O7 0.265236 0.834296 0.441221
O O8 0.584742 0.712079 0.279894
O O9 0.590273 0.641176 0.149082
O O10 0.582922 0.127861 0.188719
O O11 0.025756 0.648784 0.314950
O O12 0.956655 0.581239 0.233635
O O13 0.264049 0.827094 0.041196
O O14 0.312096 0.124910 0.669550
O O15 0.332826 0.789781 0.555428
O O16 0.404378 0.302447 0.478772
#
# Coordination Sequence:
#
# PCOD8046296 Si02
#       8
#     2   2   2   2   2   2   2   2
#     4  11  25  43  63  89 131 173 210 265 336 389
#     4  10  23  38  60  92 125 166 217 272 320 381
#     4  11  22  43  66  94 129 178 213 277 335 399
#     4  11  24  43  68  97 133 179 227 276 336 415
#     4  11  22  40  68  96 128 174 236 280 324 402
#     4  10  22  40  66 104 131 168 221 285 329 407
#     4  10  21  40  69  98 136 166 219 281 348 386
#     4  10  25  43  62  92 139 170 217 268 344 395
#
# _framework density 23.967300999999999
#
# number of rings (size 3 to 8) (size 9 to 14) (size 15 to 20)
#    0.000    1.500    2.500    1.500    3.500    9.000 
#    0.000    1.250    0.000    0.000    0.000    0.000 
#    0.000    0.000    0.000    0.000    0.000    0.000 
#
# Total GULP energy -198224.218879 kJ/mol
# GULP energy per Si atom -12389.013680 kJ/mol
# Density = 2.391275 g / cm^3
# Si number density = 23.967301 Si / 1000 Ang^3
#
#
#
# Elastic Constant Matrix: (Units=GPa)
#
#
# Indices 1 2 3 4 5 6 
#
# 1 123.5750 26.9511 49.0572 0.0000 0.6995 0.0000
# 2 26.9511 46.6710 20.8563 0.0000 -5.2283 0.0000
# 3 49.0572 20.8563 124.0689 0.0000 18.9537 0.0000
# 4 0.0000 0.0000 0.0000 10.8325 0.0000 17.2258
# 5 0.6995 -5.2283 18.9537 0.0000 40.0358 0.0000
# 6 0.0000 0.0000 0.0000 17.2258 0.0000 28.4922
#
#
#
# Elastic Compliance Matrix: (Units=1/GPa)
#
#
# Indices 1 2 3 4 5 6 
#
# 1 0.010439 -0.004343 -0.003539 0.000000 0.000926 0.000000
# 2 -0.004343 0.026044 -0.003441 0.000000 0.005106 0.000000
# 3 -0.003539 -0.003441 0.010884 0.000000 -0.005540 0.000000
# 4 0.000000 0.000000 0.000000 2.391084 0.000000 -1.445595
# 5 0.000926 0.005106 -0.005540 0.000000 0.028251 0.000000
# 6 0.000000 0.000000 0.000000 -1.445595 0.000000 0.909071
#
#
# Mechanical properties :
#
#
# Convention : Reuss Voigt Hill
#
# Bulk Modulus (GPa) = 40.45042 54.22712 47.33877
# Shear Modulus (GPa) = 1.46771 29.03545 15.25158
#
# Velocity S-wave (km/s) = 0.78340 3.48438 2.52533
# Velocity P-wave (km/s) = 4.21097 6.23398 5.31953
#
# Compressibility (1/GPa) = 0.02472162
#
# Stress axis : x y z
#
# Youngs Moduli (GPa) = 95.79327 38.39616 91.87639
#
# Poissons Ratio (x) = 0.16676 0.32515
# Poissons Ratio (y) = 0.41604 0.31614
# Poissons Ratio (z) = 0.33902 0.13212
#
# Static dielectric constant tensor:
#      x y z
#    x 4.895730 0.000000 0.056960 
#    y 0.000000 4.174870 0.000000 
#    z 0.056960 0.000000 4.437220 
# 
# 
# High freq. dielectric constant tensor:
#      x y z
#    x 1.951480 0.000000 0.016100 
#    y 0.000000 1.943870 0.000000 
#    z 0.016100 0.000000 1.946310 
# 
# From -- ./inp_files/13442.got.cif
#   From: 2010.03.12/outbox.cif.g09.slc.cpg/sg4_7_cif.got.tgz:13442.got - 2010.03.31 09:31:35.
