data_PCOD8046348
_publ_section_title
;
Structure prediction by ZEFSAII (Michael W. Deem and Ramdas Pophale) SiO2 
 PCOD8046348
Probable space group: P 21
;
_chemical_formula_sum "Si O2"
_cell_formula_units_Z 14
_cell_length_a 11.855770
_cell_length_b 8.496396
_cell_length_c 9.380752
_cell_angle_alpha 90.000000
_cell_angle_beta 37.023774
_cell_angle_gamma 90.000000
_cell_volume 568.989466
_symmetry_space_group_name_H-M "P 21"
_symmetry_group_IT_number 4
_symmetry_cell_setting 'monoclinic'
loop_
_space_group_symop_operation_xyz
x,y,z
-x,1/2+y,-z
loop_
_atom_site_type_symbol
_atom_site_label
_atom_site_fract_x
_atom_site_fract_y
_atom_site_fract_z
Si Si1 0.455977 0.495510 0.236133
Si Si2 0.732005 0.350864 0.166615
Si Si3 0.957454 0.001065 0.308322
Si Si4 0.143361 0.852655 0.656270
Si Si5 0.856901 0.562984 0.596036
Si Si6 0.814254 0.047001 0.929152
Si Si7 0.431529 0.309783 0.996989
O O1 0.577454 0.466516 0.254608
O O2 0.248594 0.426875 0.466926
O O3 0.544565 0.406587 0.007306
O O4 0.442446 0.684626 0.219467
O O5 0.710374 0.349805 0.359795
O O6 0.703924 0.176281 0.132321
O O7 0.941126 0.411637 0.922860
O O8 0.938016 0.183771 0.296697
O O9 0.089062 0.974464 0.312685
O O10 0.239203 0.937041 0.419629
O O11 0.955859 0.950564 0.888477
O O12 0.727607 0.711063 0.759322
O O13 0.054408 0.624444 0.327724
O O14 0.658920 0.934456 0.017915
#
# Coordination Sequence:
#
# PCOD8046348 Si02
#       7
#     2   2   2   2   2   2   2
#     4  12  27  40  71 107 140 188 235 296 358 423
#     4  12  25  47  69 104 147 189 233 292 369 436
#     4  12  24  47  72 103 140 185 246 295 353 420
#     4  10  24  43  72 103 139 190 235 291 365 421
#     4  10  21  41  75  99 130 184 239 301 345 412
#     4  10  22  39  73 100 137 187 235 293 354 416
#     4  12  23  43  68 110 141 179 245 306 348 418
#
# _framework density 24.605025000000001
#
# number of rings (size 3 to 8) (size 9 to 14) (size 15 to 20)
#    0.857    0.000    4.286    2.571    4.000    0.000 
#    2.571    1.429    0.000    0.000    0.000    0.000 
#    0.000    0.000    0.000    0.000    0.000    0.000 
#
# Total GULP energy -173584.677710 kJ/mol
# GULP energy per Si atom -12398.905551 kJ/mol
# Density = 2.454902 g / cm^3
# Si number density = 24.605025 Si / 1000 Ang^3
#
#
#
# Elastic Constant Matrix: (Units=GPa)
#
#
# Indices 1 2 3 4 5 6 
#
# 1 159.4085 52.9657 17.3501 0.0000 29.2945 0.0000
# 2 52.9657 109.3933 21.9854 0.0000 11.3662 0.0000
# 3 17.3501 21.9854 39.7993 0.0000 19.3169 0.0000
# 4 0.0000 0.0000 0.0000 18.9225 0.0000 -4.2984
# 5 29.2945 11.3662 19.3169 0.0000 31.0276 0.0000
# 6 0.0000 0.0000 0.0000 -4.2984 0.0000 36.8158
#
#
#
# Elastic Compliance Matrix: (Units=1/GPa)
#
#
# Indices 1 2 3 4 5 6 
#
# 1 0.008853 -0.003889 0.002371 0.000000 -0.008410 0.000000
# 2 -0.003889 0.011994 -0.006563 0.000000 0.003364 0.000000
# 3 0.002371 -0.006563 0.039605 0.000000 -0.024491 0.000000
# 4 0.000000 0.000000 0.000000 0.054287 0.000000 0.006338
# 5 -0.008410 0.003364 -0.024491 0.000000 0.054184 0.000000
# 6 0.000000 0.000000 0.000000 0.006338 0.000000 0.027902
#
#
# Mechanical properties :
#
#
# Convention : Reuss Voigt Hill
#
# Bulk Modulus (GPa) = 22.57888 54.80039 38.68964
# Shear Modulus (GPa) = 21.95388 31.77317 26.86352
#
# Velocity S-wave (km/s) = 2.99030 3.59740 3.30781
# Velocity P-wave (km/s) = 4.59554 6.29090 5.50883
#
# Compressibility (1/GPa) = 0.04428917
#
# Stress axis : x y z
#
# Youngs Moduli (GPa) = 112.95932 83.37696 25.24940
#
# Poissons Ratio (x) = 0.32425 -0.05986
# Poissons Ratio (y) = 0.43930 0.16571
# Poissons Ratio (z) = -0.26779 0.54719
#
# Static dielectric constant tensor:
#      x y z
#    x 4.293100 0.000000 -0.042560 
#    y 0.000000 4.365090 0.000000 
#    z -0.042560 0.000000 4.231210 
# 
# 
# High freq. dielectric constant tensor:
#      x y z
#    x 1.975260 0.000000 -0.006610 
#    y 0.000000 1.987630 0.000000 
#    z -0.006610 0.000000 1.969770 
# 
# From -- ./inp_files/7913.got.cif
#   From: 2010.03.12/outbox.cif.g09.slc.cpg/sg4_4_cif.got.tgz:7913.got - 2010.03.31 09:31:35.
