data_PCOD8046587
_publ_section_title
;
Structure prediction by ZEFSAII (Michael W. Deem and Ramdas Pophale) SiO2 
 PCOD8046587
Probable space group: P 21
;
_chemical_formula_sum "Si O2"
_cell_formula_units_Z 14
_cell_length_a 9.724723
_cell_length_b 14.220514
_cell_length_c 5.161072
_cell_angle_alpha 90.000000
_cell_angle_beta 103.022915
_cell_angle_gamma 90.000000
_cell_volume 695.370477
_symmetry_space_group_name_H-M "P 21"
_symmetry_group_IT_number 4
_symmetry_cell_setting 'monoclinic'
loop_
_space_group_symop_operation_xyz
x,y,z
-x,1/2+y,-z
loop_
_atom_site_type_symbol
_atom_site_label
_atom_site_fract_x
_atom_site_fract_y
_atom_site_fract_z
Si Si1 0.167743 0.817880 0.688546
Si Si2 0.655378 0.176309 0.504340
Si Si3 0.357137 0.989447 0.847933
Si Si4 0.633843 0.774302 0.542377
Si Si5 0.071490 0.738018 0.154966
Si Si6 0.535701 0.977034 0.412871
Si Si7 0.235926 0.189474 0.895905
O O1 0.296918 0.742010 0.718485
O O2 0.224776 0.921478 0.760011
O O3 0.076790 0.816958 0.384879
O O4 0.065195 0.790039 0.878473
O O5 0.517974 0.225255 0.571658
O O6 0.786311 0.174059 0.764765
O O7 0.629855 0.069602 0.401668
O O8 0.429452 0.001473 0.600494
O O9 0.304327 0.087869 0.932381
O O10 0.459063 0.948578 0.113128
O O11 0.627708 0.887243 0.530577
O O12 0.741027 0.739105 0.369446
O O13 0.691625 0.750163 0.849716
O O14 0.930898 0.676512 0.126772
#
# Coordination Sequence:
#
# PCOD8046587 Si02
#       7
#     2   2   2   2   2   2   2
#     4  10  22  41  67  89 129 175 215 252 324 399
#     4  10  23  41  67  92 129 170 212 267 319 387
#     4  12  22  40  69  99 127 171 222 264 329 398
#     4  12  24  42  69  95 134 166 219 281 323 375
#     4  10  24  43  64  89 137 172 209 262 327 389
#     4  12  24  38  68 102 126 167 223 271 331 381
#     4  12  25  45  64 100 134 171 214 279 325 379
#
# _framework density 20.133154999999999
#
# number of rings (size 3 to 8) (size 9 to 14) (size 15 to 20)
#    0.857    0.000    4.286    3.429    4.000    0.000 
#    5.143    0.000    0.000    0.000    0.000    0.000 
#    0.000    0.000    0.000    0.000    0.000    0.000 
#
# Total GULP energy -173579.623209 kJ/mol
# GULP energy per Si atom -12398.544515 kJ/mol
# Density = 2.008733 g / cm^3
# Si number density = 20.133155 Si / 1000 Ang^3
#
#
#
# Elastic Constant Matrix: (Units=GPa)
#
#
# Indices 1 2 3 4 5 6 
#
# 1 81.4560 0.9466 14.3848 0.0000 -5.4009 0.0000
# 2 0.9466 104.2530 9.2673 0.0000 -3.0157 0.0000
# 3 14.3848 9.2673 94.4724 0.0000 -19.5646 0.0000
# 4 0.0000 0.0000 0.0000 28.0119 0.0000 0.8525
# 5 -5.4009 -3.0157 -19.5646 0.0000 31.7511 0.0000
# 6 0.0000 0.0000 0.0000 0.8525 0.0000 13.8246
#
#
#
# Elastic Compliance Matrix: (Units=1/GPa)
#
#
# Indices 1 2 3 4 5 6 
#
# 1 0.012650 0.000069 -0.001703 0.000000 0.001109 0.000000
# 2 0.000069 0.009681 -0.000879 0.000000 0.000389 0.000000
# 3 -0.001703 -0.000879 0.012441 0.000000 0.007293 0.000000
# 4 0.000000 0.000000 0.000000 0.035766 0.000000 -0.002206
# 5 0.001109 0.000389 0.007293 0.000000 0.036214 0.000000
# 6 0.000000 0.000000 0.000000 -0.002206 0.000000 0.072471
#
#
# Mechanical properties :
#
#
# Convention : Reuss Voigt Hill
#
# Bulk Modulus (GPa) = 33.62061 36.59765 35.10913
# Shear Modulus (GPa) = 25.75113 31.75636 28.75375
#
# Velocity S-wave (km/s) = 3.58025 3.97585 3.78323
# Velocity P-wave (km/s) = 5.81604 6.26848 6.04649
#
# Compressibility (1/GPa) = 0.02974366
#
# Stress axis : x y z
#
# Youngs Moduli (GPa) = 79.05093 103.29651 80.37945
#
# Poissons Ratio (x) = -0.00709 0.13691
# Poissons Ratio (y) = -0.00542 0.07069
# Poissons Ratio (z) = 0.13465 0.09085
#
# Static dielectric constant tensor:
#      x y z
#    x 3.545230 0.000000 -0.074680 
#    y 0.000000 3.563380 0.000000 
#    z -0.074680 0.000000 3.700690 
# 
# 
# High freq. dielectric constant tensor:
#      x y z
#    x 1.776110 0.000000 -0.008460 
#    y 0.000000 1.778930 0.000000 
#    z -0.008460 0.000000 1.796760 
# 
# From -- ./inp_files/1711.got.cif
#   From: 2010.03.12/outbox.cif.g09.slc.cpg/sg4_1_cif.got.tgz:1711.got - 2010.03.31 09:31:35.
