data_PCOD8046577
_publ_section_title
;
Structure prediction by ZEFSAII (Michael W. Deem and Ramdas Pophale) SiO2 
 PCOD8046577
Probable space group: P 21
;
_chemical_formula_sum "Si O2"
_cell_formula_units_Z 16
_cell_length_a 9.157988
_cell_length_b 9.570069
_cell_length_c 17.664014
_cell_angle_alpha 90.000000
_cell_angle_beta 152.439226
_cell_angle_gamma 90.000000
_cell_volume 716.298287
_symmetry_space_group_name_H-M "P 21"
_symmetry_group_IT_number 4
_symmetry_cell_setting 'monoclinic'
loop_
_space_group_symop_operation_xyz
x,y,z
-x,1/2+y,-z
loop_
_atom_site_type_symbol
_atom_site_label
_atom_site_fract_x
_atom_site_fract_y
_atom_site_fract_z
Si Si1 0.560853 0.196480 0.471091
Si Si2 0.662396 0.834874 0.305528
Si Si3 0.616374 0.602395 0.773518
Si Si4 0.754861 0.325208 0.334475
Si Si5 0.469135 0.061977 0.958647
Si Si6 0.877806 0.907720 0.647733
Si Si7 0.220475 0.342012 0.807973
Si Si8 0.664301 0.069489 0.875473
O O1 0.438400 0.189369 0.328533
O O2 0.282011 0.269483 0.390882
O O3 0.868473 0.292577 0.625327
O O4 0.629151 0.036081 0.526672
O O5 0.596142 0.865452 0.186623
O O6 0.523686 0.682874 0.260431
O O7 0.032979 0.835424 0.492835
O O8 0.486982 0.942035 0.280919
O O9 0.395511 0.670147 0.737958
O O10 0.971387 0.602843 0.965720
O O11 0.447401 0.421312 0.208144
O O12 0.973722 0.363569 0.364362
O O13 0.384293 0.224106 0.938457
O O14 0.560019 0.068559 0.913736
O O15 0.163226 0.963156 0.831731
O O16 0.757740 0.992044 0.138614
#
# Coordination Sequence:
#
# PCOD8046577 Si02
#       8
#     2   2   2   2   2   2   2   2
#     4  11  24  43  67 100 136 176 227 279 336 398
#     4  11  22  42  68  97 136 183 227 280 345 407
#     4  12  24  42  69 100 136 176 227 287 337 402
#     4  11  22  46  70  99 137 181 226 277 347 412
#     4   9  22  41  67  94 138 174 224 278 337 403
#     4  10  24  44  65 100 134 177 226 278 339 405
#     4  10  22  41  65  99 132 181 227 277 340 403
#     4  10  24  43  67  97 137 176 228 282 339 402
#
# _framework density 22.337063000000001
#
# number of rings (size 3 to 8) (size 9 to 14) (size 15 to 20)
#    0.000    1.500    2.500    2.250    5.250    3.000 
#    2.250    1.250    0.000    0.000    0.000    0.000 
#    0.000    0.000    0.000    0.000    0.000    0.000 
#
# Total GULP energy -198272.003764 kJ/mol
# GULP energy per Si atom -12392.000235 kJ/mol
# Density = 2.228622 g / cm^3
# Si number density = 22.337063 Si / 1000 Ang^3
#
#
#
# Elastic Constant Matrix: (Units=GPa)
#
#
# Indices 1 2 3 4 5 6 
#
# 1 66.5773 55.4202 34.7582 0.0000 13.3578 0.0000
# 2 55.4202 93.8614 43.1645 0.0000 1.5535 0.0000
# 3 34.7582 43.1645 118.2376 0.0000 0.3181 0.0000
# 4 0.0000 0.0000 0.0000 52.3969 0.0000 6.7879
# 5 13.3578 1.5535 0.3181 0.0000 21.5463 0.0000
# 6 0.0000 0.0000 0.0000 6.7879 0.0000 40.7060
#
#
#
# Elastic Compliance Matrix: (Units=1/GPa)
#
#
# Indices 1 2 3 4 5 6 
#
# 1 0.038842 -0.020836 -0.003751 0.000000 -0.022522 0.000000
# 2 -0.020836 0.023997 -0.002665 0.000000 0.011227 0.000000
# 3 -0.003751 -0.002665 0.010527 0.000000 0.002362 0.000000
# 4 0.000000 0.000000 0.000000 0.019506 0.000000 -0.003253
# 5 -0.022522 0.011227 0.002362 0.000000 0.059530 0.000000
# 6 0.000000 0.000000 0.000000 -0.003253 0.000000 0.025109
#
#
# Mechanical properties :
#
#
# Convention : Reuss Voigt Hill
#
# Bulk Modulus (GPa) = 53.02236 60.59580 56.80908
# Shear Modulus (GPa) = 20.98175 32.61874 26.80025
#
# Velocity S-wave (km/s) = 3.06817 3.82553 3.46759
# Velocity P-wave (km/s) = 6.02830 6.83372 6.44361
#
# Compressibility (1/GPa) = 0.01885997
#
# Stress axis : x y z
#
# Youngs Moduli (GPa) = 25.74558 41.67263 94.99451
#
# Poissons Ratio (x) = 0.86830 0.35633
# Poissons Ratio (y) = 0.53644 0.25319
# Poissons Ratio (z) = 0.09657 0.11107
#
# Static dielectric constant tensor:
#      x y z
#    x 3.659700 0.000000 0.124720 
#    y 0.000000 4.321240 0.000000 
#    z 0.124720 0.000000 4.180540 
# 
# 
# High freq. dielectric constant tensor:
#      x y z
#    x 1.850230 0.000000 0.004290 
#    y 0.000000 1.893340 0.000000 
#    z 0.004290 0.000000 1.887660 
# 
# From -- ./inp_files/10849.got.cif
#   From: 2010.03.12/outbox.cif.g09.slc.cpg/sg4_6_cif.got.tgz:10849.got - 2010.03.31 09:31:35.
