data_PCOD8046217
_publ_section_title
;
Structure prediction by ZEFSAII (Michael W. Deem and Ramdas Pophale) SiO2 
 PCOD8046217
Probable space group: P 21
;
_chemical_formula_sum "Si O2"
_cell_formula_units_Z 16
_cell_length_a 14.903643
_cell_length_b 9.271841
_cell_length_c 14.901550
_cell_angle_alpha 90.000000
_cell_angle_beta 20.123802
_cell_angle_gamma 90.000000
_cell_volume 708.453176
_symmetry_space_group_name_H-M "P 21"
_symmetry_group_IT_number 4
_symmetry_cell_setting 'monoclinic'
loop_
_space_group_symop_operation_xyz
x,y,z
-x,1/2+y,-z
loop_
_atom_site_type_symbol
_atom_site_label
_atom_site_fract_x
_atom_site_fract_y
_atom_site_fract_z
Si Si1 0.781220 0.170250 0.281195
Si Si2 0.078600 0.025588 0.585627
Si Si3 0.596682 0.373026 0.105144
Si Si4 0.537774 0.103768 0.044822
Si Si5 0.885447 0.231081 0.383645
Si Si6 0.756205 0.829751 0.256082
Si Si7 0.137699 0.308648 0.646338
Si Si8 0.441736 0.152879 0.940042
O O1 0.834707 0.151466 0.337181
O O2 0.520463 0.266068 0.515756
O O3 0.759214 0.007536 0.258712
O O4 0.017084 0.265864 0.019844
O O5 0.288600 0.008034 0.307218
O O6 0.103065 0.176097 0.612256
O O7 0.120436 0.904618 0.622494
O O8 0.799038 0.006947 0.797693
O O9 0.579260 0.211440 0.088227
O O10 0.377792 0.405653 0.386036
O O11 0.557326 0.478620 0.058460
O O12 0.875335 0.404003 0.890388
O O13 0.492502 0.194209 0.995847
O O14 0.667881 0.200627 0.661668
O O15 0.165798 0.200638 0.161921
O O16 0.806926 0.759277 0.305145
#
# Coordination Sequence:
#
# PCOD8046217 Si02
#       8
#     2   2   2   2   2   2   2   2
#     4  12  28  47  74 109 146 186 246 294 370 424
#     4  10  23  42  67  95 135 169 224 279 336 409
#     4  10  21  39  65  90 128 164 225 269 329 406
#     4  10  23  41  62 100 123 175 220 276 324 411
#     4  12  27  44  68  98 142 179 226 284 357 403
#     4  12  26  47  76 105 144 184 243 299 357 438
#     4  10  22  43  69  92 128 176 223 272 346 398
#     4  12  24  41  67  93 134 179 219 277 343 405
#
# _framework density 22.584412
#
# number of rings (size 3 to 8) (size 9 to 14) (size 15 to 20)
#    0.000    1.000    0.000    6.000    7.000    0.000 
#    0.000    0.000    0.000    0.000    0.000    0.000 
#    0.000    0.000    0.000    0.000    0.000    0.000 
#
# Total GULP energy -198286.206706 kJ/mol
# GULP energy per Si atom -12392.887919 kJ/mol
# Density = 2.253301 g / cm^3
# Si number density = 22.584412 Si / 1000 Ang^3
#
#
#
# Elastic Constant Matrix: (Units=GPa)
#
#
# Indices 1 2 3 4 5 6 
#
# 1 127.9768 12.5608 61.8690 0.0000 -2.3596 0.0000
# 2 12.5608 97.8411 41.6289 0.0000 -5.2392 0.0000
# 3 61.8690 41.6289 207.4023 0.0000 -22.1055 0.0000
# 4 0.0000 0.0000 0.0000 5.7485 0.0000 5.0444
# 5 -2.3596 -5.2392 -22.1055 0.0000 34.4208 0.0000
# 6 0.0000 0.0000 0.0000 5.0444 0.0000 32.8151
#
#
#
# Elastic Compliance Matrix: (Units=1/GPa)
#
#
# Indices 1 2 3 4 5 6 
#
# 1 0.009178 -0.000026 -0.002862 0.000000 -0.001213 0.000000
# 2 -0.000026 0.011178 -0.002206 0.000000 0.000283 0.000000
# 3 -0.002862 -0.002206 0.006507 0.000000 0.003647 0.000000
# 4 0.000000 0.000000 0.000000 0.201082 0.000000 -0.030911
# 5 -0.001213 0.000283 0.003647 0.000000 0.031354 0.000000
# 6 0.000000 0.000000 0.000000 -0.030911 0.000000 0.035225
#
#
# Mechanical properties :
#
#
# Convention : Reuss Voigt Hill
#
# Bulk Modulus (GPa) = 59.96773 73.92640 66.94707
# Shear Modulus (GPa) = 16.11508 35.74099 25.92803
#
# Velocity S-wave (km/s) = 2.67413 3.98244 3.39196
# Velocity P-wave (km/s) = 6.01207 7.34513 6.71178
#
# Compressibility (1/GPa) = 0.01667563
#
# Stress axis : x y z
#
# Youngs Moduli (GPa) = 108.96110 89.46489 153.68880
#
# Poissons Ratio (x) = 0.00228 0.43983
# Poissons Ratio (y) = 0.00278 0.33900
# Poissons Ratio (z) = 0.31183 0.19734
#
# Static dielectric constant tensor:
#      x y z
#    x 3.899880 0.000000 -0.167710 
#    y 0.000000 4.164820 0.000000 
#    z -0.167710 0.000000 4.827580 
# 
# 
# High freq. dielectric constant tensor:
#      x y z
#    x 1.880230 0.000000 -0.006890 
#    y 0.000000 1.898440 0.000000 
#    z -0.006890 0.000000 1.918120 
# 
# From -- ./inp_files/13279.got.cif
#   From: 2010.03.12/outbox.cif.g09.slc.cpg/sg4_7_cif.got.tgz:13279.got - 2010.03.31 09:31:35.
