data_PCOD8046651
_publ_section_title
;
Structure prediction by ZEFSAII (Michael W. Deem and Ramdas Pophale) SiO2 
 PCOD8046651
Probable space group: P 21
;
_chemical_formula_sum "Si O2"
_cell_formula_units_Z 16
_cell_length_a 16.647091
_cell_length_b 8.650413
_cell_length_c 13.443635
_cell_angle_alpha 90.000000
_cell_angle_beta 156.802608
_cell_angle_gamma 90.000000
_cell_volume 762.566933
_symmetry_space_group_name_H-M "P 21"
_symmetry_group_IT_number 4
_symmetry_cell_setting 'monoclinic'
loop_
_space_group_symop_operation_xyz
x,y,z
-x,1/2+y,-z
loop_
_atom_site_type_symbol
_atom_site_label
_atom_site_fract_x
_atom_site_fract_y
_atom_site_fract_z
Si Si1 0.348608 0.826520 0.695141
Si Si2 0.425255 0.619563 0.364863
Si Si3 0.349373 0.404979 0.453493
Si Si4 0.241625 0.339122 0.723343
Si Si5 0.967940 0.223816 0.026346
Si Si6 0.452190 0.481743 0.783833
Si Si7 0.252344 0.933885 0.370281
Si Si8 0.147281 0.995100 0.642407
O O1 0.335720 0.645168 0.657573
O O2 0.277694 0.919921 0.517255
O O3 0.193103 0.875451 0.605257
O O4 0.579394 0.864073 0.991759
O O5 0.383485 0.561157 0.430387
O O6 0.577136 0.763858 0.532263
O O7 0.518840 0.477924 0.407995
O O8 0.198670 0.683657 0.075776
O O9 0.470796 0.417668 0.693917
O O10 0.114171 0.369548 0.217029
O O11 0.326296 0.366356 0.709626
O O12 0.144945 0.170586 0.602949
O O13 0.071078 0.461601 0.559227
O O14 0.834697 0.276116 0.777051
O O15 0.100143 0.069793 0.162574
O O16 0.685059 0.486063 0.081354
#
# Coordination Sequence:
#
# PCOD8046651 Si02
#       8
#     2   2   2   2   2   2   2   2
#     4  10  23  43  67  92 134 173 216 269 337 386
#     4  11  23  42  62  92 130 170 219 273 327 395
#     4  11  24  42  66  93 131 176 220 275 333 395
#     4  10  22  43  66  99 132 170 219 273 330 397
#     4  11  23  42  62  93 129 168 221 275 326 390
#     4  10  23  43  67  92 133 175 214 271 337 389
#     4  11  24  42  66  93 131 176 219 276 331 394
#     4  10  22  43  68 100 130 170 222 274 325 398
#
# _framework density 20.981764999999999
#
# number of rings (size 3 to 8) (size 9 to 14) (size 15 to 20)
#    0.000    1.500    2.500    1.500    3.500    3.000 
#    0.000    1.250    0.000    0.000    0.000    0.000 
#    0.000    0.000    0.000    0.000    0.000    0.000 
#
# Total GULP energy -198256.452080 kJ/mol
# GULP energy per Si atom -12391.028255 kJ/mol
# Density = 2.093401 g / cm^3
# Si number density = 20.981765 Si / 1000 Ang^3
#
#
#
# Elastic Constant Matrix: (Units=GPa)
#
#
# Indices 1 2 3 4 5 6 
#
# 1 78.5503 36.8405 43.4493 0.0000 -8.3655 0.0000
# 2 36.8405 99.4103 39.3264 0.0000 -6.7008 0.0000
# 3 43.4493 39.3264 76.3777 0.0000 9.3458 0.0000
# 4 0.0000 0.0000 0.0000 38.2188 0.0000 12.4300
# 5 -8.3655 -6.7008 9.3458 0.0000 34.4155 0.0000
# 6 0.0000 0.0000 0.0000 12.4300 0.0000 32.9591
#
#
#
# Elastic Compliance Matrix: (Units=1/GPa)
#
#
# Indices 1 2 3 4 5 6 
#
# 1 0.021301 -0.002758 -0.011652 0.000000 0.007805 0.000000
# 2 -0.002758 0.013659 -0.005903 0.000000 0.003592 0.000000
# 3 -0.011652 -0.005903 0.024048 0.000000 -0.010512 0.000000
# 4 0.000000 0.000000 0.000000 0.029823 0.000000 -0.011247
# 5 0.007805 0.003592 -0.010512 0.000000 0.034508 0.000000
# 6 0.000000 0.000000 0.000000 -0.011247 0.000000 0.034582
#
#
# Mechanical properties :
#
#
# Convention : Reuss Voigt Hill
#
# Bulk Modulus (GPa) = 54.40872 54.84120 54.62496
# Shear Modulus (GPa) = 24.42894 30.10015 27.26454
#
# Velocity S-wave (km/s) = 3.41588 3.79170 3.60869
# Velocity P-wave (km/s) = 6.44557 6.73525 6.59200
#
# Compressibility (1/GPa) = 0.01837941
#
# Stress axis : x y z
#
# Youngs Moduli (GPa) = 46.94631 73.21196 41.58436
#
# Poissons Ratio (x) = 0.20193 0.48456
# Poissons Ratio (y) = 0.12949 0.24549
# Poissons Ratio (z) = 0.54704 0.43220
#
# Static dielectric constant tensor:
#      x y z
#    x 3.692220 0.000000 0.260390 
#    y 0.000000 3.941760 0.000000 
#    z 0.260390 0.000000 3.893460 
# 
# 
# High freq. dielectric constant tensor:
#      x y z
#    x 1.808610 0.000000 0.017210 
#    y 0.000000 1.838910 0.000000 
#    z 0.017210 0.000000 1.819900 
# 
# From -- ./inp_files/14312.got.cif
#   From: 2010.03.12/outbox.cif.g09.slc.cpg/sg4_8_cif.got.tgz:14312.got - 2010.03.31 09:31:35.
