data_PCOD8046241
_publ_section_title
;
Structure prediction by ZEFSAII (Michael W. Deem and Ramdas Pophale) SiO2 
 PCOD8046241
Probable space group: P 21
;
_chemical_formula_sum "Si O2"
_cell_formula_units_Z 16
_cell_length_a 13.571163
_cell_length_b 8.843972
_cell_length_c 16.447046
_cell_angle_alpha 90.000000
_cell_angle_beta 155.541078
_cell_angle_gamma 90.000000
_cell_volume 817.326183
_symmetry_space_group_name_H-M "P 21"
_symmetry_group_IT_number 4
_symmetry_cell_setting 'monoclinic'
loop_
_space_group_symop_operation_xyz
x,y,z
-x,1/2+y,-z
loop_
_atom_site_type_symbol
_atom_site_label
_atom_site_fract_x
_atom_site_fract_y
_atom_site_fract_z
Si Si1 0.441644 0.988770 0.284933
Si Si2 0.211310 0.832637 0.242059
Si Si3 0.523899 0.327816 0.399485
Si Si4 0.074129 0.499827 0.088270
Si Si5 0.237727 0.983424 0.566359
Si Si6 0.756545 0.823689 0.226608
Si Si7 0.315104 0.976963 0.811804
Si Si8 0.825092 0.830419 0.464748
O O1 0.450896 0.891590 0.375695
O O2 0.645191 0.934284 0.378749
O O3 0.481179 0.163017 0.333534
O O4 0.171083 0.969065 0.043956
O O5 0.255347 0.824591 0.371394
O O6 0.147601 0.672097 0.154319
O O7 0.000683 0.954075 0.061927
O O8 0.294001 0.390556 0.275936
O O9 0.573563 0.437325 0.360579
O O10 0.342114 0.960099 0.734969
O O11 0.179731 0.158604 0.509862
O O12 0.007038 0.879547 0.379026
O O13 0.726481 0.646667 0.188901
O O14 0.744490 0.858400 0.312542
O O15 0.553684 0.916352 0.029869
O O16 0.094825 0.881772 0.680540
#
# Coordination Sequence:
#
# PCOD8046241 Si02
#       8
#     2   2   2   2   2   2   2   2
#     4  10  21  40  59  89 121 159 197 249 302 348
#     4  10  22  40  62  86 120 160 200 248 299 357
#     4  12  22  39  64  90 119 164 202 248 303 363
#     4  10  21  42  59  86 124 156 200 253 296 351
#     4  10  23  38  63  87 124 154 200 248 297 354
#     4  10  21  40  61  92 114 159 201 244 302 358
#     4  10  21  40  64  86 123 155 198 251 298 356
#     4  10  21  41  60  88 121 159 196 247 301 351
#
# _framework density 19.576028000000001
#
# number of rings (size 3 to 8) (size 9 to 14) (size 15 to 20)
#    0.750    1.000    1.250    3.000    0.000    4.000 
#    6.750    1.250    0.000    0.000    0.000    0.000 
#    0.000    0.000    0.000    0.000    0.000    0.000 
#
# Total GULP energy -198269.827119 kJ/mol
# GULP energy per Si atom -12391.864195 kJ/mol
# Density = 1.953147 g / cm^3
# Si number density = 19.576028 Si / 1000 Ang^3
#
#
#
# Elastic Constant Matrix: (Units=GPa)
#
#
# Indices 1 2 3 4 5 6 
#
# 1 59.4848 29.7246 17.1256 0.0000 1.1412 0.0000
# 2 29.7246 95.9011 30.2909 0.0000 -13.4775 0.0000
# 3 17.1256 30.2909 95.0241 0.0000 -13.3790 0.0000
# 4 0.0000 0.0000 0.0000 33.5462 0.0000 10.2223
# 5 1.1412 -13.4775 -13.3790 0.0000 14.8619 0.0000
# 6 0.0000 0.0000 0.0000 10.2223 0.0000 23.0560
#
#
#
# Elastic Compliance Matrix: (Units=1/GPa)
#
#
# Indices 1 2 3 4 5 6 
#
# 1 0.021541 -0.007239 -0.003128 0.000000 -0.011035 0.000000
# 2 -0.007239 0.014979 -0.001694 0.000000 0.012615 0.000000
# 3 -0.003128 -0.001694 0.013106 0.000000 0.010502 0.000000
# 4 0.000000 0.000000 0.000000 0.034466 0.000000 -0.015281
# 5 -0.011035 0.012615 0.010502 0.000000 0.089028 0.000000
# 6 0.000000 0.000000 0.000000 -0.015281 0.000000 0.050148
#
#
# Mechanical properties :
#
#
# Convention : Reuss Voigt Hill
#
# Bulk Modulus (GPa) = 39.21135 44.96581 42.08858
# Shear Modulus (GPa) = 19.53947 25.84408 22.69177
#
# Velocity S-wave (km/s) = 3.16275 3.63738 3.40834
# Velocity P-wave (km/s) = 5.78023 6.37655 6.08570
#
# Compressibility (1/GPa) = 0.02550282
#
# Stress axis : x y z
#
# Youngs Moduli (GPa) = 46.42339 66.75931 76.30010
#
# Poissons Ratio (x) = 0.48330 0.23868
# Poissons Ratio (y) = 0.33608 0.12926
# Poissons Ratio (z) = 0.14522 0.11310
#
# Static dielectric constant tensor:
#      x y z
#    x 3.439640 0.000000 0.139250 
#    y 0.000000 3.686110 0.000000 
#    z 0.139250 0.000000 3.649850 
# 
# 
# High freq. dielectric constant tensor:
#      x y z
#    x 1.741200 0.000000 0.007720 
#    y 0.000000 1.781470 0.000000 
#    z 0.007720 0.000000 1.765320 
# 
# From -- ./inp_files/13248.got.cif
#   From: 2010.03.12/outbox.cif.g09.slc.cpg/sg4_7_cif.got.tgz:13248.got - 2010.03.31 09:31:35.
