data_PCOD8046945
_publ_section_title
;
Structure prediction by ZEFSAII (Michael W. Deem and Ramdas Pophale) SiO2 
 PCOD8046945
Probable space group: P 21
;
_chemical_formula_sum "Si O2"
_cell_formula_units_Z 16
_cell_length_a 26.601121
_cell_length_b 5.155666
_cell_length_c 11.358633
_cell_angle_alpha 90.000000
_cell_angle_beta 157.054766
_cell_angle_gamma 90.000000
_cell_volume 607.308741
_symmetry_space_group_name_H-M "P 21"
_symmetry_group_IT_number 4
_symmetry_cell_setting 'monoclinic'
loop_
_space_group_symop_operation_xyz
x,y,z
-x,1/2+y,-z
loop_
_atom_site_type_symbol
_atom_site_label
_atom_site_fract_x
_atom_site_fract_y
_atom_site_fract_z
Si Si1 0.598198 0.235060 0.327286
Si Si2 0.845197 0.968658 0.898758
Si Si3 0.535795 0.231905 0.921292
Si Si4 0.818198 0.650505 0.051816
Si Si5 0.260437 0.393334 0.755518
Si Si6 0.973050 0.818814 0.605022
Si Si7 0.087558 0.199507 0.179772
Si Si8 0.418250 0.138159 0.301389
O O1 0.749966 0.190779 0.647527
O O2 0.569394 0.505289 0.332038
O O3 0.520801 0.012579 0.235656
O O4 0.552118 0.238741 0.095166
O O5 0.850112 0.736975 0.814723
O O6 0.990996 0.080811 0.229282
O O7 0.786442 0.891273 0.899020
O O8 0.665598 0.151284 0.130220
O O9 0.889126 0.452797 0.116865
O O10 0.925132 0.723573 0.377042
O O11 0.690271 0.547298 0.839034
O O12 0.206526 0.224721 0.529153
O O13 0.138197 0.489473 0.570873
O O14 0.352769 0.213447 0.035782
O O15 0.022342 0.917910 0.037934
O O16 0.490992 0.386382 0.515540
#
# Coordination Sequence:
#
# PCOD8046945 Si02
#       8
#     2   2   2   2   2   2   2   2
#     4  10  24  41  68  99 136 190 230 289 353 427
#     4  12  25  43  74 104 143 192 246 301 370 444
#     4  10  23  45  65  99 143 182 235 284 359 426
#     4  11  26  46  75 102 150 191 252 308 369 446
#     4  11  25  49  75 110 153 195 246 318 371 452
#     4  11  24  48  71 107 141 197 244 308 379 438
#     4  12  27  47  72 112 154 195 246 305 382 457
#     4  11  30  51  78 113 148 202 255 311 379 440
#
# _framework density 26.345742000000001
#
# number of rings (size 3 to 8) (size 9 to 14) (size 15 to 20)
#    0.000    1.000    3.750    0.750    7.000    2.000 
#    2.250    0.000    0.000    0.000    0.000    0.000 
#    0.000    0.000    0.000    0.000    0.000    0.000 
#
# Total GULP energy -198332.843436 kJ/mol
# GULP energy per Si atom -12395.802715 kJ/mol
# Density = 2.628578 g / cm^3
# Si number density = 26.345742 Si / 1000 Ang^3
#
#
#
# Elastic Constant Matrix: (Units=GPa)
#
#
# Indices 1 2 3 4 5 6 
#
# 1 83.7337 25.3209 39.8507 0.0000 28.6133 0.0000
# 2 25.3209 67.4483 14.0939 0.0000 -6.3537 0.0000
# 3 39.8507 14.0939 94.0935 0.0000 -3.8626 0.0000
# 4 0.0000 0.0000 0.0000 30.9521 0.0000 11.7216
# 5 28.6133 -6.3537 -3.8626 0.0000 39.0221 0.0000
# 6 0.0000 0.0000 0.0000 11.7216 0.0000 28.7950
#
#
#
# Elastic Compliance Matrix: (Units=1/GPa)
#
#
# Indices 1 2 3 4 5 6 
#
# 1 0.028992 -0.010722 -0.011664 0.000000 -0.024159 0.000000
# 2 -0.010722 0.019475 0.002086 0.000000 0.011240 0.000000
# 3 -0.011664 0.002086 0.015684 0.000000 0.010445 0.000000
# 4 0.000000 0.000000 0.000000 0.038196 0.000000 -0.015548
# 5 -0.024159 0.011240 0.010445 0.000000 0.046205 0.000000
# 6 0.000000 0.000000 0.000000 -0.015548 0.000000 0.041058
#
#
# Mechanical properties :
#
#
# Convention : Reuss Voigt Hill
#
# Bulk Modulus (GPa) = 42.46605 44.86738 43.66672
# Shear Modulus (GPa) = 21.00292 30.82117 25.91204
#
# Velocity S-wave (km/s) = 2.82654 3.42405 3.13954
# Velocity P-wave (km/s) = 5.17747 5.71834 5.45461
#
# Compressibility (1/GPa) = 0.02354822
#
# Stress axis : x y z
#
# Youngs Moduli (GPa) = 34.49216 51.34917 63.75809
#
# Poissons Ratio (x) = 0.55059 0.74370
# Poissons Ratio (y) = 0.36984 -0.13297
# Poissons Ratio (z) = 0.40233 -0.10709
#
# Static dielectric constant tensor:
#      x y z
#    x 4.919540 0.000000 -0.054220 
#    y 0.000000 4.821830 0.000000 
#    z -0.054220 0.000000 4.873740 
# 
# 
# High freq. dielectric constant tensor:
#      x y z
#    x 2.072270 0.000000 -0.006380 
#    y 0.000000 2.035560 0.000000 
#    z -0.006380 0.000000 2.069920 
# 
# From -- ./inp_files/13129.got.cif
#   From: 2010.03.12/outbox.cif.g09.slc.cpg/sg4_7_cif.got.tgz:13129.got - 2010.03.31 09:31:35.
