data_PCOD8046721
_publ_section_title
;
Structure prediction by ZEFSAII (Michael W. Deem and Ramdas Pophale) SiO2 
 PCOD8046721
Probable space group: P 21
;
_chemical_formula_sum "Si O2"
_cell_formula_units_Z 14
_cell_length_a 5.185747
_cell_length_b 17.002778
_cell_length_c 8.628394
_cell_angle_alpha 90.000000
_cell_angle_beta 60.904334
_cell_angle_gamma 90.000000
_cell_volume 664.779617
_symmetry_space_group_name_H-M "P 21"
_symmetry_group_IT_number 4
_symmetry_cell_setting 'monoclinic'
loop_
_space_group_symop_operation_xyz
x,y,z
-x,1/2+y,-z
loop_
_atom_site_type_symbol
_atom_site_label
_atom_site_fract_x
_atom_site_fract_y
_atom_site_fract_z
Si Si1 0.647614 0.578410 0.624258
Si Si2 0.190678 0.479367 0.568401
Si Si3 0.208164 0.149415 0.721066
Si Si4 0.638716 0.769295 0.106705
Si Si5 0.876196 0.370415 0.887744
Si Si6 0.585381 0.137911 0.006310
Si Si7 0.555299 0.503100 0.174164
O O1 0.454658 0.514418 0.592241
O O2 0.773199 0.643731 0.469423
O O3 0.916629 0.539260 0.638956
O O4 0.437374 0.623588 0.805016
O O5 0.309516 0.462262 0.358684
O O6 0.089430 0.401410 0.688187
O O7 0.436678 0.216810 0.715661
O O8 0.254247 0.062608 0.777680
O O9 0.890019 0.180897 0.870771
O O10 0.387099 0.829091 0.128080
O O11 0.673948 0.699376 0.967486
O O12 0.941558 0.815911 0.047138
O O13 0.757077 0.438407 0.034456
O O14 0.593510 0.053836 0.917761
#
# Coordination Sequence:
#
# PCOD8046721 Si02
#       7
#     2   2   2   2   2   2   2
#     4  11  23  38  72  97 120 160 221 270 315 371
#     4  11  23  41  64 102 121 163 214 271 321 374
#     4  10  22  45  66  97 128 168 223 266 315 380
#     4  11  26  43  65  90 139 176 208 262 327 392
#     4  12  24  44  64  95 135 172 210 265 333 378
#     4  11  21  44  68  95 126 171 217 268 316 375
#     4  10  23  39  73  94 125 168 219 272 311 380
#
# _framework density 21.059608999999998
#
# number of rings (size 3 to 8) (size 9 to 14) (size 15 to 20)
#    0.000    1.143    4.286    1.714    4.000    0.000 
#    2.571    2.857    0.000    0.000    0.000    0.000 
#    0.000    0.000    0.000    0.000    0.000    0.000 
#
# Total GULP energy -173494.698513 kJ/mol
# GULP energy per Si atom -12392.478465 kJ/mol
# Density = 2.101168 g / cm^3
# Si number density = 21.059609 Si / 1000 Ang^3
#
#
#
# Elastic Constant Matrix: (Units=GPa)
#
#
# Indices 1 2 3 4 5 6 
#
# 1 87.2030 22.7388 28.2867 0.0000 3.1850 0.0000
# 2 22.7388 85.2152 45.1854 0.0000 6.0441 0.0000
# 3 28.2867 45.1854 147.5901 0.0000 5.3495 0.0000
# 4 0.0000 0.0000 0.0000 12.1583 0.0000 -1.7833
# 5 3.1850 6.0441 5.3495 0.0000 25.7335 0.0000
# 6 0.0000 0.0000 0.0000 -1.7833 0.0000 42.1869
#
#
#
# Elastic Compliance Matrix: (Units=1/GPa)
#
#
# Indices 1 2 3 4 5 6 
#
# 1 0.012668 -0.002459 -0.001652 0.000000 -0.000647 0.000000
# 2 -0.002459 0.014637 -0.003926 0.000000 -0.002317 0.000000
# 3 -0.001652 -0.003926 0.008316 0.000000 -0.000602 0.000000
# 4 0.000000 0.000000 0.000000 0.082762 0.000000 0.003499
# 5 -0.000647 -0.002317 -0.000602 0.000000 0.039609 0.000000
# 6 0.000000 0.000000 0.000000 0.003499 0.000000 0.023852
#
#
# Mechanical properties :
#
#
# Convention : Reuss Voigt Hill
#
# Bulk Modulus (GPa) = 51.15524 56.93667 54.04595
# Shear Modulus (GPa) = 24.45788 30.93556 27.69672
#
# Velocity S-wave (km/s) = 3.41158 3.83685 3.63045
# Velocity P-wave (km/s) = 6.31363 6.83544 6.57971
#
# Compressibility (1/GPa) = 0.01954834
#
# Stress axis : x y z
#
# Youngs Moduli (GPa) = 78.93893 68.31905 120.25161
#
# Poissons Ratio (x) = 0.16797 0.19863
# Poissons Ratio (y) = 0.19408 0.47211
# Poissons Ratio (z) = 0.13039 0.26822
#
# Static dielectric constant tensor:
#      x y z
#    x 3.897230 0.000000 0.094540 
#    y 0.000000 3.828690 0.000000 
#    z 0.094540 0.000000 3.923120 
# 
# 
# High freq. dielectric constant tensor:
#      x y z
#    x 1.837690 0.000000 0.013400 
#    y 0.000000 1.819380 0.000000 
#    z 0.013400 0.000000 1.814500 
# 
# From -- ./inp_files/1781.got.cif
#   From: 2010.03.12/outbox.cif.g09.slc.cpg/sg4_1_cif.got.tgz:1781.got - 2010.03.31 09:31:35.
