data_PCOD8046060
_publ_section_title
;
Structure prediction by ZEFSAII (Michael W. Deem and Ramdas Pophale) SiO2 
 PCOD8046060
Probable space group: P 21
;
_chemical_formula_sum "Si O2"
_cell_formula_units_Z 10
_cell_length_a 5.202093
_cell_length_b 14.511712
_cell_length_c 6.878072
_cell_angle_alpha 90.000000
_cell_angle_beta 103.087275
_cell_angle_gamma 90.000000
_cell_volume 505.747979
_symmetry_space_group_name_H-M "P 21"
_symmetry_group_IT_number 4
_symmetry_cell_setting 'monoclinic'
loop_
_space_group_symop_operation_xyz
x,y,z
-x,1/2+y,-z
loop_
_atom_site_type_symbol
_atom_site_label
_atom_site_fract_x
_atom_site_fract_y
_atom_site_fract_z
Si Si1 0.555085 0.719080 0.207239
Si Si2 0.882065 0.139357 0.594875
Si Si3 0.074865 0.480236 0.127746
Si Si4 0.286038 0.597792 0.851732
Si Si5 0.481010 0.915283 0.038497
O O1 0.368582 0.688170 0.351068
O O2 0.540586 0.828848 0.184289
O O3 0.853646 0.693158 0.306404
O O4 0.468525 0.672921 0.989996
O O5 0.846004 0.143468 0.357522
O O6 0.898941 0.031756 0.661061
O O7 0.058114 0.562478 0.962265
O O8 0.330742 0.416908 0.122054
O O9 0.821131 0.414490 0.083913
O O10 0.465024 0.508372 0.826960
#
# Coordination Sequence:
#
# PCOD8046060 Si02
#       5
#     2   2   2   2   2
#     4  11  23  40  59  91 121 150 204 240 288 352
#     4  11  21  39  62  85 117 161 194 241 294 347
#     4   9  19  39  59  81 117 157 190 241 293 344
#     4   9  23  39  63  82 124 156 189 245 297 340
#     4  10  20  41  59  85 123 154 189 253 284 343
#
# _framework density 19.772693
#
# number of rings (size 3 to 8) (size 9 to 14) (size 15 to 20)
#    1.200    0.800    2.000    1.200    2.800    0.000 
#    7.200    0.000    0.000    0.000    0.000    0.000 
#    0.000    0.000    0.000    0.000    0.000    0.000 
#
# Total GULP energy -123938.007522 kJ/mol
# GULP energy per Si atom -12393.800752 kJ/mol
# Density = 1.972769 g / cm^3
# Si number density = 19.772693 Si / 1000 Ang^3
#
#
#
# Elastic Constant Matrix: (Units=GPa)
#
#
# Indices 1 2 3 4 5 6 
#
# 1 97.1369 5.2688 -3.1186 0.0000 -0.6489 0.0000
# 2 5.2688 69.6144 13.1409 0.0000 4.1422 0.0000
# 3 -3.1186 13.1409 98.4742 0.0000 2.3357 0.0000
# 4 0.0000 0.0000 0.0000 6.4240 0.0000 2.5168
# 5 -0.6489 4.1422 2.3357 0.0000 15.9714 0.0000
# 6 0.0000 0.0000 0.0000 2.5168 0.0000 29.5937
#
#
#
# Elastic Compliance Matrix: (Units=1/GPa)
#
#
# Indices 1 2 3 4 5 6 
#
# 1 0.010362 -0.000901 0.000434 0.000000 0.000591 0.000000
# 2 -0.000901 0.015017 -0.001946 0.000000 -0.003647 0.000000
# 3 0.000434 -0.001946 0.010452 0.000000 -0.001006 0.000000
# 4 0.000000 0.000000 0.000000 0.161032 0.000000 -0.013695
# 5 0.000591 -0.003647 -0.001006 0.000000 0.063729 0.000000
# 6 0.000000 0.000000 0.000000 -0.013695 0.000000 0.034956
#
#
# Mechanical properties :
#
#
# Convention : Reuss Voigt Hill
#
# Bulk Modulus (GPa) = 32.25273 32.86752 32.56012
# Shear Modulus (GPa) = 16.09225 27.06013 21.57619
#
# Velocity S-wave (km/s) = 2.85592 3.70342 3.30693
# Velocity P-wave (km/s) = 5.21749 5.91150 5.57531
#
# Compressibility (1/GPa) = 0.03100513
#
# Stress axis : x y z
#
# Youngs Moduli (GPa) = 96.51078 66.58944 95.67315
#
# Poissons Ratio (x) = 0.06002 -0.04156
# Poissons Ratio (y) = 0.08699 0.18618
# Poissons Ratio (z) = -0.04192 0.12959
#
# Static dielectric constant tensor:
#      x y z
#    x 3.586830 0.000000 -0.032610 
#    y 0.000000 3.425830 0.000000 
#    z -0.032610 0.000000 3.243140 
# 
# 
# High freq. dielectric constant tensor:
#      x y z
#    x 1.781040 0.000000 0.001820 
#    y 0.000000 1.760630 0.000000 
#    z 0.001820 0.000000 1.742110 
# 
# From -- ./inp_files/240.got.cif
#   From: 2010.03.12/outbox.cif.g09.slc.cpg/sg4_1_cif.got.tgz:240.got - 2010.03.31 09:31:35.
