data_PCOD8046022
_publ_section_title
;
Structure prediction by ZEFSAII (Michael W. Deem and Ramdas Pophale) SiO2 
 PCOD8046022
Probable space group: P 21
;
_chemical_formula_sum "Si O2"
_cell_formula_units_Z 10
_cell_length_a 17.030373
_cell_length_b 5.013090
_cell_length_c 11.795946
_cell_angle_alpha 90.000000
_cell_angle_beta 22.315917
_cell_angle_gamma 90.000000
_cell_volume 382.400191
_symmetry_space_group_name_H-M "P 21"
_symmetry_group_IT_number 4
_symmetry_cell_setting 'monoclinic'
loop_
_space_group_symop_operation_xyz
x,y,z
-x,1/2+y,-z
loop_
_atom_site_type_symbol
_atom_site_label
_atom_site_fract_x
_atom_site_fract_y
_atom_site_fract_z
Si Si1 0.818949 0.613740 0.134446
Si Si2 0.637693 0.456354 0.824165
Si Si3 0.824095 0.756179 0.375154
Si Si4 0.637283 0.985923 0.216512
Si Si5 0.621611 0.476992 0.088627
O O1 0.887379 0.607563 0.174243
O O2 0.797123 0.908862 0.104896
O O3 0.593012 0.477849 0.421377
O O4 0.992397 0.454059 0.832966
O O5 0.794283 0.542403 0.515820
O O6 0.748561 0.459178 0.800108
O O7 0.443159 0.659508 0.092319
O O8 0.615772 0.915527 0.625375
O O9 0.646057 0.771328 0.104055
O O10 0.702111 0.266386 0.074453
#
# Coordination Sequence:
#
# PCOD8046022 Si02
#       5
#     2   2   2   2   2
#     4  11  22  40  64 104 142 177 221 276 343 408
#     4  10  20  39  67 100 135 174 226 283 336 391
#     4  10  22  37  67 102 136 172 227 283 329 396
#     4  11  23  39  65  94 140 184 216 268 344 411
#     4  10  21  41  65  96 131 181 228 272 332 400
#
# _framework density 26.150615999999999
#
# number of rings (size 3 to 8) (size 9 to 14) (size 15 to 20)
#    0.000    1.600    0.000    7.200    0.000    3.200 
#    0.000    0.000    0.000   21.600    0.000    5.600 
#    0.000    0.000    0.000    0.000    0.000    0.000 
#
# Total GULP energy -124009.959495 kJ/mol
# GULP energy per Si atom -12400.995950 kJ/mol
# Density = 2.609110 g / cm^3
# Si number density = 26.150616 Si / 1000 Ang^3
#
#
#
# Elastic Constant Matrix: (Units=GPa)
#
#
# Indices 1 2 3 4 5 6 
#
# 1 132.3651 12.5649 42.1233 0.0000 32.1145 0.0000
# 2 12.5649 66.7916 11.5996 0.0000 1.5084 0.0000
# 3 42.1233 11.5996 61.6786 0.0000 11.3887 0.0000
# 4 0.0000 0.0000 0.0000 36.8640 0.0000 6.8333
# 5 32.1145 1.5084 11.3887 0.0000 39.3975 0.0000
# 6 0.0000 0.0000 0.0000 6.8333 0.0000 54.6515
#
#
#
# Elastic Compliance Matrix: (Units=1/GPa)
#
#
# Indices 1 2 3 4 5 6 
#
# 1 0.011452 -0.000896 -0.006270 0.000000 -0.007488 0.000000
# 2 -0.000896 0.015550 -0.002469 0.000000 0.000849 0.000000
# 3 -0.006270 -0.002469 0.021126 0.000000 -0.000902 0.000000
# 4 0.000000 0.000000 0.000000 0.027770 0.000000 -0.003472
# 5 -0.007488 0.000849 -0.000902 0.000000 0.031714 0.000000
# 6 0.000000 0.000000 0.000000 -0.003472 0.000000 0.018732
#
#
# Mechanical properties :
#
#
# Convention : Reuss Voigt Hill
#
# Bulk Modulus (GPa) = 34.65303 43.71233 39.18268
# Shear Modulus (GPa) = 32.20930 39.15244 35.68087
#
# Velocity S-wave (km/s) = 3.51334 3.87355 3.69784
# Velocity P-wave (km/s) = 5.45327 6.06282 5.76611
#
# Compressibility (1/GPa) = 0.02885750
#
# Stress axis : x y z
#
# Youngs Moduli (GPa) = 87.32045 64.30792 47.33524
#
# Poissons Ratio (x) = 0.05764 0.29679
# Poissons Ratio (y) = 0.07827 0.11687
# Poissons Ratio (z) = 0.54749 0.15878
#
# Static dielectric constant tensor:
#      x y z
#    x 5.173810 0.000000 0.579540 
#    y 0.000000 4.686700 0.000000 
#    z 0.579540 0.000000 4.590270 
# 
# 
# High freq. dielectric constant tensor:
#      x y z
#    x 2.064430 0.000000 0.023590 
#    y 0.000000 2.054770 0.000000 
#    z 0.023590 0.000000 2.019990 
# 
# From -- ./inp_files/12715.got.cif
#   From: 2010.03.12/outbox.cif.g09.slc.cpg/sg4_7_cif.got.tgz:12715.got - 2010.03.31 09:31:35.
