data_PCOD8046050
_publ_section_title
;
Structure prediction by ZEFSAII (Michael W. Deem and Ramdas Pophale) SiO2 
 PCOD8046050
Probable space group: P 21
;
_chemical_formula_sum "Si O2"
_cell_formula_units_Z 14
_cell_length_a 30.479914
_cell_length_b 4.949260
_cell_length_c 24.071092
_cell_angle_alpha 90.000000
_cell_angle_beta 169.919062
_cell_angle_gamma 90.000000
_cell_volume 635.601719
_symmetry_space_group_name_H-M "P 21"
_symmetry_group_IT_number 4
_symmetry_cell_setting 'monoclinic'
loop_
_space_group_symop_operation_xyz
x,y,z
-x,1/2+y,-z
loop_
_atom_site_type_symbol
_atom_site_label
_atom_site_fract_x
_atom_site_fract_y
_atom_site_fract_z
Si Si1 0.163578 0.144610 0.707223
Si Si2 0.347688 0.582594 0.434763
Si Si3 0.070854 0.939952 0.175971
Si Si4 0.453785 0.705093 0.236644
Si Si5 0.636855 0.388600 0.151040
Si Si6 0.806321 0.712517 0.134696
Si Si7 0.379878 0.296150 0.321473
O O1 0.295464 0.247112 0.928675
O O2 0.030840 0.409117 0.515515
O O3 0.350759 0.013644 0.895775
O O4 0.484123 0.301548 0.622632
O O5 0.562751 0.760097 0.672456
O O6 0.243498 0.713789 0.361501
O O7 0.123600 0.549267 0.111947
O O8 0.265603 0.169412 0.440255
O O9 0.917468 0.839703 0.038578
O O10 0.319731 0.415328 0.066230
O O11 0.267923 0.910557 0.974708
O O12 0.898011 0.267729 0.498200
O O13 0.554397 0.636011 0.088125
O O14 0.551235 0.533694 0.557615
#
# Coordination Sequence:
#
# PCOD8046050 Si02
#       7
#     2   2   2   2   2   2   2
#     4  10  20  40  68  94 123 167 214 255 314 406
#     4  11  22  41  68  93 130 181 238 282 333 393
#     4  11  22  41  68  93 128 182 241 278 331 406
#     4  12  24  39  65  92 134 176 221 279 339 386
#     4  11  22  41  71 100 129 168 217 269 322 403
#     4  11  24  42  64  98 133 171 214 267 337 395
#     4  10  24  38  64  96 123 159 233 304 330 381
#
# _framework density 22.02637
#
# number of rings (size 3 to 8) (size 9 to 14) (size 15 to 20)
#    0.000    1.143    2.857    5.143    4.000    0.000 
#    0.000    4.286    3.143    0.000    0.000    0.000 
#    0.000    0.000    0.000    0.000    0.000    0.000 
#
# Total GULP energy -173455.253479 kJ/mol
# GULP energy per Si atom -12389.660963 kJ/mol
# Density = 2.197624 g / cm^3
# Si number density = 22.026370 Si / 1000 Ang^3
#
#
#
# Elastic Constant Matrix: (Units=GPa)
#
#
# Indices 1 2 3 4 5 6 
#
# 1 50.5319 17.8581 44.5021 0.0000 22.6732 0.0000
# 2 17.8581 112.1724 38.5434 0.0000 7.1320 0.0000
# 3 44.5021 38.5434 98.0728 0.0000 12.6453 0.0000
# 4 0.0000 0.0000 0.0000 43.8410 0.0000 3.0997
# 5 22.6732 7.1320 12.6453 0.0000 36.9819 0.0000
# 6 0.0000 0.0000 0.0000 3.0997 0.0000 38.7349
#
#
#
# Elastic Compliance Matrix: (Units=1/GPa)
#
#
# Indices 1 2 3 4 5 6 
#
# 1 0.045003 0.000310 -0.017760 0.000000 -0.021578 0.000000
# 2 0.000310 0.010323 -0.004097 0.000000 -0.000780 0.000000
# 3 -0.017760 -0.004097 0.019207 0.000000 0.005111 0.000000
# 4 0.000000 0.000000 0.000000 0.022940 0.000000 -0.001836
# 5 -0.021578 -0.000780 0.005111 0.000000 0.038672 0.000000
# 6 0.000000 0.000000 0.000000 -0.001836 0.000000 0.025963
#
#
# Mechanical properties :
#
#
# Convention : Reuss Voigt Hill
#
# Bulk Modulus (GPa) = 31.80919 51.39825 41.60372
# Shear Modulus (GPa) = 23.18236 34.56978 28.87607
#
# Velocity S-wave (km/s) = 3.24772 3.96595 3.62467
# Velocity P-wave (km/s) = 5.34194 6.66012 6.03712
#
# Compressibility (1/GPa) = 0.03143745
#
# Stress axis : x y z
#
# Youngs Moduli (GPa) = 22.22085 96.87225 52.06523
#
# Poissons Ratio (x) = -0.03003 0.92470
# Poissons Ratio (y) = -0.00689 0.21332
# Poissons Ratio (z) = 0.39465 0.39689
#
# Static dielectric constant tensor:
#      x y z
#    x 4.040510 0.000000 0.190110 
#    y 0.000000 4.205490 0.000000 
#    z 0.190110 0.000000 4.056770 
# 
# 
# High freq. dielectric constant tensor:
#      x y z
#    x 1.846220 0.000000 0.007450 
#    y 0.000000 1.891140 0.000000 
#    z 0.007450 0.000000 1.852450 
# 
# From -- ./inp_files/16260.got.cif
#   From: 2010.03.12/outbox.cif.g09.slc.cpg/sg4_9_cif.got.tgz:16260.got - 2010.03.31 09:31:35.
