data_PCOD8046122
_publ_section_title
;
Structure prediction by ZEFSAII (Michael W. Deem and Ramdas Pophale) SiO2 
 PCOD8046122
Probable space group: P 21
;
_chemical_formula_sum "Si O2"
_cell_formula_units_Z 16
_cell_length_a 11.375626
_cell_length_b 9.138718
_cell_length_c 11.757291
_cell_angle_alpha 90.000000
_cell_angle_beta 141.619389
_cell_angle_gamma 90.000000
_cell_volume 758.887321
_symmetry_space_group_name_H-M "P 21"
_symmetry_group_IT_number 4
_symmetry_cell_setting 'monoclinic'
loop_
_space_group_symop_operation_xyz
x,y,z
-x,1/2+y,-z
loop_
_atom_site_type_symbol
_atom_site_label
_atom_site_fract_x
_atom_site_fract_y
_atom_site_fract_z
Si Si1 0.662820 0.927780 0.529144
Si Si2 0.980949 0.280831 0.417261
Si Si3 0.318323 0.986376 0.419322
Si Si4 0.915849 0.737367 0.862747
Si Si5 0.386171 0.180632 0.671998
Si Si6 0.930136 0.100448 0.588617
Si Si7 0.216157 0.620883 0.941276
Si Si8 0.957429 0.814331 0.150602
O O1 0.527379 0.965393 0.530025
O O2 0.857138 0.868389 0.733324
O O3 0.554445 0.807472 0.371345
O O4 0.731282 0.059566 0.499602
O O5 0.880692 0.223584 0.456099
O O6 0.879758 0.202854 0.235947
O O7 0.200070 0.232391 0.597887
O O8 0.971063 0.456903 0.393461
O O9 0.183582 0.845046 0.318755
O O10 0.224081 0.103623 0.264876
O O11 0.337629 0.035454 0.564350
O O12 0.128888 0.687376 0.992077
O O13 0.889538 0.779176 0.972860
O O14 0.558338 0.146959 0.888755
O O15 0.071427 0.174730 0.788477
O O16 0.165044 0.449408 0.893588
#
# Coordination Sequence:
#
# PCOD8046122 Si02
#       8
#     2   2   2   2   2   2   2   2
#     4  10  21  39  61  99 136 175 217 278 343 406
#     4  11  23  48  66  95 133 178 239 273 332 401
#     4  10  21  36  60  97 138 166 219 276 340 410
#     4  10  21  36  60 100 133 170 218 275 337 416
#     4  10  21  40  66  91 129 177 222 281 333 393
#     4  11  25  42  72  91 140 184 224 281 337 399
#     4  11  21  42  68  91 131 179 222 285 338 395
#     4  11  23  37  65 100 136 179 221 275 356 404
#
# _framework density 21.083499
#
# number of rings (size 3 to 8) (size 9 to 14) (size 15 to 20)
#    0.000    1.500    5.000    2.250    8.750    1.000 
#    0.000    5.000    0.000    0.000    0.000    0.000 
#    0.000    0.000    0.000    0.000    0.000    0.000 
#
# Total GULP energy -198347.203834 kJ/mol
# GULP energy per Si atom -12396.700240 kJ/mol
# Density = 2.103551 g / cm^3
# Si number density = 21.083499 Si / 1000 Ang^3
#
#
#
# Elastic Constant Matrix: (Units=GPa)
#
#
# Indices 1 2 3 4 5 6 
#
# 1 62.7551 40.8833 28.2581 0.0000 -3.7783 0.0000
# 2 40.8833 105.0229 43.9897 0.0000 -5.4758 0.0000
# 3 28.2581 43.9897 109.3804 0.0000 6.3900 0.0000
# 4 0.0000 0.0000 0.0000 15.6462 0.0000 -9.4850
# 5 -3.7783 -5.4758 6.3900 0.0000 32.9306 0.0000
# 6 0.0000 0.0000 0.0000 -9.4850 0.0000 33.5915
#
#
#
# Elastic Compliance Matrix: (Units=1/GPa)
#
#
# Indices 1 2 3 4 5 6 
#
# 1 0.022101 -0.007297 -0.002885 0.000000 0.001882 0.000000
# 2 -0.007297 0.014127 -0.003929 0.000000 0.002274 0.000000
# 3 -0.002885 -0.003929 0.011658 0.000000 -0.003246 0.000000
# 4 0.000000 0.000000 0.000000 0.077113 0.000000 0.021774
# 5 0.001882 0.002274 -0.003246 0.000000 0.031591 0.000000
# 6 0.000000 0.000000 0.000000 0.021774 0.000000 0.035918
#
#
# Mechanical properties :
#
#
# Convention : Reuss Voigt Hill
#
# Bulk Modulus (GPa) = 50.85651 55.93560 53.39605
# Shear Modulus (GPa) = 21.99900 27.36882 24.68391
#
# Velocity S-wave (km/s) = 3.23371 3.60685 3.42536
# Velocity P-wave (km/s) = 6.17384 6.62826 6.40509
#
# Compressibility (1/GPa) = 0.01966317
#
# Stress axis : x y z
#
# Youngs Moduli (GPa) = 45.24639 70.78861 85.78129
#
# Poissons Ratio (x) = 0.51654 0.24749
# Poissons Ratio (y) = 0.33016 0.33704
# Poissons Ratio (z) = 0.13054 0.27813
#
# Static dielectric constant tensor:
#      x y z
#    x 3.985890 0.000000 0.033330 
#    y 0.000000 3.996220 0.000000 
#    z 0.033330 0.000000 3.626440 
# 
# 
# High freq. dielectric constant tensor:
#      x y z
#    x 1.813650 0.000000 -0.010660 
#    y 0.000000 1.833730 0.000000 
#    z -0.010660 0.000000 1.811540 
# 
# From -- ./inp_files/11967.got.cif
#   From: 2010.03.12/outbox.cif.g09.slc.cpg/sg4_6_cif.got.tgz:11967.got - 2010.03.31 09:31:35.
