data_PCOD8046028
_publ_section_title
;
Structure prediction by ZEFSAII (Michael W. Deem and Ramdas Pophale) SiO2 
 PCOD8046028
Probable space group: P 21
;
_chemical_formula_sum "Si O2"
_cell_formula_units_Z 16
_cell_length_a 13.850576
_cell_length_b 8.468553
_cell_length_c 8.962990
_cell_angle_alpha 90.000000
_cell_angle_beta 132.885402
_cell_angle_gamma 90.000000
_cell_volume 770.310497
_symmetry_space_group_name_H-M "P 21"
_symmetry_group_IT_number 4
_symmetry_cell_setting 'monoclinic'
loop_
_space_group_symop_operation_xyz
x,y,z
-x,1/2+y,-z
loop_
_atom_site_type_symbol
_atom_site_label
_atom_site_fract_x
_atom_site_fract_y
_atom_site_fract_z
Si Si1 0.008869 0.230670 0.930526
Si Si2 0.334449 0.034551 0.039501
Si Si3 0.582175 0.716940 0.140163
Si Si4 0.388166 0.403490 0.562659
Si Si5 0.271490 0.360654 0.131293
Si Si6 0.672642 0.039292 0.091386
Si Si7 0.847370 0.066719 0.540127
Si Si8 0.083843 0.910834 0.907028
O O1 0.913484 0.224504 0.682635
O O2 0.925528 0.258842 0.994724
O O3 0.082954 0.061588 0.019363
O O4 0.120937 0.365809 0.032924
O O5 0.216975 0.908658 0.946808
O O6 0.467730 0.970244 0.250670
O O7 0.348896 0.072825 0.877026
O O8 0.295773 0.199823 0.070542
O O9 0.425894 0.686301 0.993795
O O10 0.638695 0.743080 0.367756
O O11 0.599725 0.883604 0.076001
O O12 0.376345 0.369213 0.375617
O O13 0.281505 0.533941 0.496244
O O14 0.290394 0.510729 0.042169
O O15 0.805282 0.083230 0.323221
O O16 0.954986 0.923734 0.663894
#
# Coordination Sequence:
#
# PCOD8046028 Si02
#       8
#     2   2   2   2   2   2   2   2
#     4   9  18  38  62  89 119 164 204 259 304 362
#     4  10  21  38  60  92 124 159 207 258 297 376
#     4  10  20  40  61  88 124 161 199 256 311 366
#     4  11  21  38  65  89 122 165 202 253 322 358
#     4  10  21  37  64  88 128 160 206 256 314 360
#     4  10  21  40  63  86 127 164 208 254 314 371
#     4   9  19  38  66  76 125 171 197 245 321 357
#     4   9  19  37  65  86 129 158 207 259 301 362
#
# _framework density 20.770844
#
# number of rings (size 3 to 8) (size 9 to 14) (size 15 to 20)
#    0.750    1.500    3.750    0.000    1.750    1.000 
#    2.250    1.250    8.250    0.000    0.000    0.000 
#    0.000    0.000    0.000    0.000    0.000    0.000 
#
# Total GULP energy -198218.090508 kJ/mol
# GULP energy per Si atom -12388.630657 kJ/mol
# Density = 2.072357 g / cm^3
# Si number density = 20.770844 Si / 1000 Ang^3
#
#
#
# Elastic Constant Matrix: (Units=GPa)
#
#
# Indices 1 2 3 4 5 6 
#
# 1 97.4225 5.9822 49.3988 0.0000 13.6177 0.0000
# 2 5.9822 19.4171 23.3510 0.0000 5.3615 0.0000
# 3 49.3988 23.3510 149.4828 0.0000 -7.3970 0.0000
# 4 0.0000 0.0000 0.0000 33.8713 0.0000 -0.0639
# 5 13.6177 5.3615 -7.3970 0.0000 41.1384 0.0000
# 6 0.0000 0.0000 0.0000 -0.0639 0.0000 25.8995
#
#
#
# Elastic Compliance Matrix: (Units=1/GPa)
#
#
# Indices 1 2 3 4 5 6 
#
# 1 0.013603 0.003973 -0.005413 0.000000 -0.005994 0.000000
# 2 0.003973 0.069060 -0.012725 0.000000 -0.012604 0.000000
# 3 -0.005413 -0.012725 0.010732 0.000000 0.005380 0.000000
# 4 0.000000 0.000000 0.000000 0.029524 0.000000 0.000073
# 5 -0.005994 -0.012604 0.005380 0.000000 0.028902 0.000000
# 6 0.000000 0.000000 0.000000 0.000073 0.000000 0.038611
#
#
# Mechanical properties :
#
#
# Convention : Reuss Voigt Hill
#
# Bulk Modulus (GPa) = 15.36871 47.08738 31.22804
# Shear Modulus (GPa) = 20.79443 32.68787 26.74115
#
# Velocity S-wave (km/s) = 3.16751 3.97134 3.59198
# Velocity P-wave (km/s) = 4.55990 6.61422 5.68069
#
# Compressibility (1/GPa) = 0.06506727
#
# Stress axis : x y z
#
# Youngs Moduli (GPa) = 73.51379 14.48018 93.17610
#
# Poissons Ratio (x) = -0.05753 0.50432
# Poissons Ratio (y) = -0.29209 1.18564
# Poissons Ratio (z) = 0.39790 0.18426
#
# Static dielectric constant tensor:
#      x y z
#    x 4.119000 0.000000 -0.089270 
#    y 0.000000 3.496640 0.000000 
#    z -0.089270 0.000000 3.765500 
# 
# 
# High freq. dielectric constant tensor:
#      x y z
#    x 1.822670 0.000000 0.002250 
#    y 0.000000 1.784220 0.000000 
#    z 0.002250 0.000000 1.799270 
# 
# From -- ./inp_files/9258.got.cif
#   From: 2010.03.12/outbox.cif.g09.slc.cpg/sg4_5_cif.got.tgz:9258.got - 2010.03.31 09:31:35.
