data_PCOD8046319
_publ_section_title
;
Structure prediction by ZEFSAII (Michael W. Deem and Ramdas Pophale) SiO2 
 PCOD8046319
Probable space group: P 21
;
_chemical_formula_sum "Si O2"
_cell_formula_units_Z 16
_cell_length_a 16.676223
_cell_length_b 8.835480
_cell_length_c 5.308638
_cell_angle_alpha 90.000000
_cell_angle_beta 76.118462
_cell_angle_gamma 90.000000
_cell_volume 759.342949
_symmetry_space_group_name_H-M "P 21"
_symmetry_group_IT_number 4
_symmetry_cell_setting 'monoclinic'
loop_
_space_group_symop_operation_xyz
x,y,z
-x,1/2+y,-z
loop_
_atom_site_type_symbol
_atom_site_label
_atom_site_fract_x
_atom_site_fract_y
_atom_site_fract_z
Si Si1 0.269150 0.407380 0.924984
Si Si2 0.994401 0.568242 0.832729
Si Si3 0.959371 0.297935 0.566841
Si Si4 0.741951 0.727263 0.569984
Si Si5 0.450209 0.186189 0.284962
Si Si6 0.538656 0.868790 0.217967
Si Si7 0.139275 0.986313 0.717382
Si Si8 0.158313 0.689421 0.973195
O O1 0.241797 0.324853 0.691265
O O2 0.367119 0.422198 0.870200
O O3 0.235035 0.577407 0.935996
O O4 0.233518 0.320019 0.196961
O O5 0.981142 0.669915 0.591233
O O6 0.078917 0.615387 0.899499
O O7 0.003867 0.388471 0.761303
O O8 0.909098 0.594476 0.048808
O O9 0.938101 0.423343 0.378065
O O10 0.872210 0.225725 0.721632
O O11 0.648022 0.674255 0.658265
O O12 0.796986 0.576606 0.505264
O O13 0.482475 0.016211 0.268149
O O14 0.478444 0.272344 0.516952
O O15 0.485290 0.271213 0.011000
O O16 0.186826 0.845072 0.815343
#
# Coordination Sequence:
#
# PCOD8046319 Si02
#       8
#     2   2   2   2   2   2   2   2
#     4  10  24  42  63  93 128 164 208 256 310 373
#     4  10  22  40  58  84 114 154 210 260 306 368
#     4  10  22  40  58  82 116 152 210 262 310 364
#     4  10  24  42  63  93 128 164 208 256 310 373
#     4  10  21  41  65  98 131 165 210 255 308 376
#     4  10  21  41  65  98 131 165 210 255 308 376
#     4  10  23  41  58  87 121 160 212 260 313 370
#     4  10  23  41  58  87 121 160 212 260 313 370
#
# _framework density 21.070846
#
# number of rings (size 3 to 8) (size 9 to 14) (size 15 to 20)
#    0.000    2.000    0.000    1.500    7.000    6.000 
#    4.500    0.000    0.000    0.000    0.000    0.000 
#    0.000    0.000    0.000    0.000    0.000    0.000 
#
# Total GULP energy -198354.400468 kJ/mol
# GULP energy per Si atom -12397.150029 kJ/mol
# Density = 2.102289 g / cm^3
# Si number density = 21.070846 Si / 1000 Ang^3
#
#
#
# Elastic Constant Matrix: (Units=GPa)
#
#
# Indices 1 2 3 4 5 6 
#
# 1 29.5109 21.1104 19.3516 0.0000 -0.4697 0.0000
# 2 21.1104 80.1155 42.2787 0.0000 -8.1949 0.0000
# 3 19.3516 42.2787 130.7997 0.0000 10.9072 0.0000
# 4 0.0000 0.0000 0.0000 42.9127 0.0000 -4.9943
# 5 -0.4697 -8.1949 10.9072 0.0000 21.5713 0.0000
# 6 0.0000 0.0000 0.0000 -4.9943 0.0000 41.1907
#
#
#
# Elastic Compliance Matrix: (Units=1/GPa)
#
#
# Indices 1 2 3 4 5 6 
#
# 1 0.042898 -0.009809 -0.003073 0.000000 -0.001238 0.000000
# 2 -0.009809 0.018965 -0.005493 0.000000 0.009769 0.000000
# 3 -0.003073 -0.005493 0.010498 0.000000 -0.007462 0.000000
# 4 0.000000 0.000000 0.000000 0.023637 0.000000 0.002866
# 5 -0.001238 0.009769 -0.007462 0.000000 0.053815 0.000000
# 6 0.000000 0.000000 0.000000 0.002866 0.000000 0.024625
#
#
# Mechanical properties :
#
#
# Convention : Reuss Voigt Hill
#
# Bulk Modulus (GPa) = 28.08174 45.10084 36.59129
# Shear Modulus (GPa) = 22.41583 31.64731 27.03157
#
# Velocity S-wave (km/s) = 3.26518 3.87970 3.58563
# Velocity P-wave (km/s) = 5.25085 6.44362 5.87757
#
# Compressibility (1/GPa) = 0.03561033
#
# Stress axis : x y z
#
# Youngs Moduli (GPa) = 23.31133 52.72927 95.25782
#
# Poissons Ratio (x) = 0.51720 0.29272
# Poissons Ratio (y) = 0.22865 0.52330
# Poissons Ratio (z) = 0.07163 0.28967
#
# Static dielectric constant tensor:
#      x y z
#    x 3.476250 0.000000 0.162210 
#    y 0.000000 3.917210 0.000000 
#    z 0.162210 0.000000 4.244340 
# 
# 
# High freq. dielectric constant tensor:
#      x y z
#    x 1.797630 0.000000 0.008860 
#    y 0.000000 1.836110 0.000000 
#    z 0.008860 0.000000 1.848410 
# 
# From -- ./inp_files/3504.got.cif
#   From: 2010.03.12/outbox.cif.g09.slc.cpg/sg4_2_cif.got.tgz:3504.got - 2010.03.31 09:31:35.
