data_PCOD8046885
_publ_section_title
;
Structure prediction by ZEFSAII (Michael W. Deem and Ramdas Pophale) SiO2 
 PCOD8046885
Probable space group: P 21
;
_chemical_formula_sum "Si O2"
_cell_formula_units_Z 10
_cell_length_a 5.896099
_cell_length_b 4.694695
_cell_length_c 18.414209
_cell_angle_alpha 90.000000
_cell_angle_beta 50.818731
_cell_angle_gamma 90.000000
_cell_volume 395.104129
_symmetry_space_group_name_H-M "P 21"
_symmetry_group_IT_number 4
_symmetry_cell_setting 'monoclinic'
loop_
_space_group_symop_operation_xyz
x,y,z
-x,1/2+y,-z
loop_
_atom_site_type_symbol
_atom_site_label
_atom_site_fract_x
_atom_site_fract_y
_atom_site_fract_z
Si Si1 0.412972 0.504740 0.763987
Si Si2 0.725912 0.002258 0.641788
Si Si3 0.674084 0.780926 0.490552
Si Si4 0.478776 0.342360 0.909037
Si Si5 0.828837 0.831022 0.887324
O O1 0.670479 0.742413 0.709616
O O2 0.383115 0.322929 0.844718
O O3 0.131561 0.694160 0.800332
O O4 0.479186 0.252080 0.693297
O O5 0.733594 0.869905 0.560665
O O6 0.034603 0.140482 0.601831
O O7 0.409047 0.554773 0.540717
O O8 0.562790 0.669919 0.902571
O O9 0.768812 0.154174 0.872058
O O10 0.204951 0.283763 0.018368
#
# Coordination Sequence:
#
# PCOD8046885 Si02
#       5
#     2   2   2   2   2
#     4  12  25  43  72 104 142 178 226 297 341 390
#     4  12  27  47  72 110 136 172 242 283 339 436
#     4  12  26  50  78  98 138 188 220 282 362 418
#     4  10  23  43  67  99 140 188 235 275 334 408
#     4  10  23  43  67  99 140 188 235 275 334 408
#
# _framework density 25.309782999999999
#
# number of rings (size 3 to 8) (size 9 to 14) (size 15 to 20)
#    0.000    0.800    0.000    7.200    0.000   12.800 
#    0.000    4.000    0.000    0.000    0.000    0.000 
#    0.000    0.000    0.000    0.000    0.000    0.000 
#
# Total GULP energy -123959.427150 kJ/mol
# GULP energy per Si atom -12395.942715 kJ/mol
# Density = 2.525218 g / cm^3
# Si number density = 25.309783 Si / 1000 Ang^3
#
#
#
# Elastic Constant Matrix: (Units=GPa)
#
#
# Indices 1 2 3 4 5 6 
#
# 1 48.6331 7.0940 2.3687 0.0000 -1.2137 0.0000
# 2 7.0940 128.5235 25.3287 0.0000 -4.1507 0.0000
# 3 2.3687 25.3287 70.2377 0.0000 -10.8016 0.0000
# 4 0.0000 0.0000 0.0000 56.2302 0.0000 -0.9897
# 5 -1.2137 -4.1507 -10.8016 0.0000 20.1052 0.0000
# 6 0.0000 0.0000 0.0000 -0.9897 0.0000 50.4141
#
#
#
# Elastic Compliance Matrix: (Units=1/GPa)
#
#
# Indices 1 2 3 4 5 6 
#
# 1 0.020752 -0.001083 -0.000165 0.000000 0.000941 0.000000
# 2 -0.001083 0.008433 -0.002994 0.000000 0.000067 0.000000
# 3 -0.000165 -0.002994 0.016597 0.000000 0.008289 0.000000
# 4 0.000000 0.000000 0.000000 0.017790 0.000000 0.000349
# 5 0.000941 0.000067 0.008289 0.000000 0.054262 0.000000
# 6 0.000000 0.000000 0.000000 0.000349 0.000000 0.019843
#
#
# Mechanical properties :
#
#
# Convention : Reuss Voigt Hill
#
# Bulk Modulus (GPa) = 26.81063 35.21968 31.01515
# Shear Modulus (GPa) = 31.52740 39.52344 35.52542
#
# Velocity S-wave (km/s) = 3.53322 3.95598 3.75056
# Velocity P-wave (km/s) = 5.22119 5.90017 5.57104
#
# Compressibility (1/GPa) = 0.03729864
#
# Stress axis : x y z
#
# Youngs Moduli (GPa) = 48.18921 118.58659 60.25053
#
# Poissons Ratio (x) = 0.12837 0.00993
# Poissons Ratio (y) = 0.05217 0.18040
# Poissons Ratio (z) = 0.00794 0.35506
#
# Static dielectric constant tensor:
#      x y z
#    x 3.989960 0.000000 -0.099180 
#    y 0.000000 4.996990 0.000000 
#    z -0.099180 0.000000 4.668520 
# 
# 
# High freq. dielectric constant tensor:
#      x y z
#    x 1.976030 0.000000 -0.007010 
#    y 0.000000 2.043940 0.000000 
#    z -0.007010 0.000000 2.009150 
# 
# From -- ./inp_files/14636.got.cif
#   From: 2010.03.12/outbox.cif.g09.slc.cpg/sg4_8_cif.got.tgz:14636.got - 2010.03.31 09:31:35.
