data_PCOD8046264
_publ_section_title
;
Structure prediction by ZEFSAII (Michael W. Deem and Ramdas Pophale) SiO2 
 PCOD8046264
Probable space group: P 21
;
_chemical_formula_sum "Si O2"
_cell_formula_units_Z 14
_cell_length_a 27.383358
_cell_length_b 5.012211
_cell_length_c 8.853503
_cell_angle_alpha 90.000000
_cell_angle_beta 31.467668
_cell_angle_gamma 90.000000
_cell_volume 634.331261
_symmetry_space_group_name_H-M "P 21"
_symmetry_group_IT_number 4
_symmetry_cell_setting 'monoclinic'
loop_
_space_group_symop_operation_xyz
x,y,z
-x,1/2+y,-z
loop_
_atom_site_type_symbol
_atom_site_label
_atom_site_fract_x
_atom_site_fract_y
_atom_site_fract_z
Si Si1 0.279702 0.359100 0.209253
Si Si2 0.289294 0.672542 0.459740
Si Si3 0.743892 0.868284 0.077043
Si Si4 0.366667 0.859796 0.532773
Si Si5 0.821986 0.678165 0.257775
Si Si6 0.477414 0.197726 0.655016
Si Si7 0.056780 0.316802 0.310532
O O1 0.311139 0.626566 0.222848
O O2 0.188568 0.230732 0.534013
O O3 0.251451 0.415361 0.114947
O O4 0.368904 0.159182 0.985618
O O5 0.376072 0.804615 0.325257
O O6 0.254249 0.384266 0.620470
O O7 0.202322 0.873632 0.712301
O O8 0.664799 0.653343 0.333166
O O9 0.717712 0.160648 0.203538
O O10 0.846276 0.774169 0.856790
O O11 0.464335 0.788549 0.352486
O O12 0.923521 0.745707 0.919073
O O13 0.480680 0.423141 0.516556
O O14 0.979781 0.116962 0.580272
#
# Coordination Sequence:
#
# PCOD8046264 Si02
#       7
#     2   2   2   2   2   2   2
#     4  10  25  41  67  95 137 181 215 278 337 392
#     4  10  21  40  64  90 129 176 220 257 338 397
#     4  12  23  41  71  97 128 181 222 264 357 401
#     4  12  21  42  66  94 136 182 225 272 321 410
#     4  10  22  42  64  94 131 173 207 275 343 405
#     4  12  24  40  62 102 137 171 237 281 314 389
#     4  12  24  44  70 102 126 164 228 289 334 422
#
# _framework density 22.070487
#
# number of rings (size 3 to 8) (size 9 to 14) (size 15 to 20)
#    0.857    0.000    5.714    1.714    4.000    0.000 
#    2.571    1.429    0.000    0.000    0.000    0.000 
#    0.000    0.000    0.000    0.000    0.000    0.000 
#
# Total GULP energy -173442.822387 kJ/mol
# GULP energy per Si atom -12388.773028 kJ/mol
# Density = 2.202025 g / cm^3
# Si number density = 22.070487 Si / 1000 Ang^3
#
#
#
# Elastic Constant Matrix: (Units=GPa)
#
#
# Indices 1 2 3 4 5 6 
#
# 1 78.5696 7.0946 7.1325 0.0000 12.9760 0.0000
# 2 7.0946 90.6102 8.0574 0.0000 11.4586 0.0000
# 3 7.1325 8.0574 74.3800 0.0000 10.6427 0.0000
# 4 0.0000 0.0000 0.0000 29.2003 0.0000 -5.5193
# 5 12.9760 11.4586 10.6427 0.0000 32.4479 0.0000
# 6 0.0000 0.0000 0.0000 -5.5193 0.0000 26.5610
#
#
#
# Elastic Compliance Matrix: (Units=1/GPa)
#
#
# Indices 1 2 3 4 5 6 
#
# 1 0.013661 -0.000370 -0.000532 0.000000 -0.005158 0.000000
# 2 -0.000370 0.011597 -0.000688 0.000000 -0.003722 0.000000
# 3 -0.000532 -0.000688 0.014170 0.000000 -0.004192 0.000000
# 4 0.000000 0.000000 0.000000 0.035646 0.000000 0.007407
# 5 -0.005158 -0.003722 -0.004192 0.000000 0.035570 0.000000
# 6 0.000000 0.000000 0.000000 0.007407 0.000000 0.039188
#
#
# Mechanical properties :
#
#
# Convention : Reuss Voigt Hill
#
# Bulk Modulus (GPa) = 27.58802 32.01432 29.80117
# Shear Modulus (GPa) = 30.28538 32.39354 31.33946
#
# Velocity S-wave (km/s) = 3.70836 3.83525 3.77234
# Velocity P-wave (km/s) = 5.55545 5.84373 5.70141
#
# Compressibility (1/GPa) = 0.03624761
#
# Stress axis : x y z
#
# Youngs Moduli (GPa) = 73.20041 86.22842 70.57245
#
# Poissons Ratio (x) = 0.03191 0.03754
# Poissons Ratio (y) = 0.02709 0.04857
# Poissons Ratio (z) = 0.03893 0.05935
#
# Static dielectric constant tensor:
#      x y z
#    x 4.067100 0.000000 0.383130 
#    y 0.000000 3.947280 0.000000 
#    z 0.383130 0.000000 3.833660 
# 
# 
# High freq. dielectric constant tensor:
#      x y z
#    x 1.856610 0.000000 0.027560 
#    y 0.000000 1.879470 0.000000 
#    z 0.027560 0.000000 1.847870 
# 
# From -- ./inp_files/10112.got.cif
#   From: 2010.03.12/outbox.cif.g09.slc.cpg/sg4_6_cif.got.tgz:10112.got - 2010.03.31 09:31:35.
