data_PCOD8046395
_publ_section_title
;
Structure prediction by ZEFSAII (Michael W. Deem and Ramdas Pophale) SiO2 
 PCOD8046395
Probable space group: P 21
;
_chemical_formula_sum "Si O2"
_cell_formula_units_Z 16
_cell_length_a 14.273832
_cell_length_b 9.491611
_cell_length_c 10.788489
_cell_angle_alpha 90.000000
_cell_angle_beta 30.962263
_cell_angle_gamma 90.000000
_cell_volume 751.976143
_symmetry_space_group_name_H-M "P 21"
_symmetry_group_IT_number 4
_symmetry_cell_setting 'monoclinic'
loop_
_space_group_symop_operation_xyz
x,y,z
-x,1/2+y,-z
loop_
_atom_site_type_symbol
_atom_site_label
_atom_site_fract_x
_atom_site_fract_y
_atom_site_fract_z
Si Si1 0.365504 0.635870 0.955152
Si Si2 0.393717 0.401461 0.382537
Si Si3 0.450199 0.619311 0.506491
Si Si4 0.731881 0.138460 0.651541
Si Si5 0.103180 0.569158 0.055865
Si Si6 0.904286 0.758179 0.857721
Si Si7 0.480875 0.322587 0.774773
Si Si8 0.207427 0.192484 0.746802
O O1 0.495621 0.770719 0.798690
O O2 0.187255 0.664468 0.071604
O O3 0.467302 0.491916 0.795936
O O4 0.300612 0.616431 0.167921
O O5 0.516820 0.506860 0.326527
O O6 0.305650 0.489041 0.370682
O O7 0.235779 0.346196 0.654485
O O8 0.253073 0.571682 0.777253
O O9 0.437746 0.773394 0.452455
O O10 0.591033 0.624062 0.461609
O O11 0.604821 0.264019 0.744764
O O12 0.941301 0.179917 0.394413
O O13 0.054321 0.420870 0.170360
O O14 0.909288 0.612814 0.223027
O O15 0.717407 0.747694 0.992047
O O16 0.892113 0.691444 0.008543
#
# Coordination Sequence:
#
# PCOD8046395 Si02
#       8
#     2   2   2   2   2   2   2   2
#     4  11  24  44  66  98 136 178 234 274 324 419
#     4  11  23  43  69 100 130 175 225 280 342 398
#     4  10  21  43  66  97 142 161 218 286 338 411
#     4  11  24  47  65  93 138 183 224 279 330 400
#     4  11  23  41  63 101 131 171 222 268 341 400
#     4  10  23  41  66  97 129 175 217 272 337 405
#     4   9  22  44  70  93 129 184 221 278 349 393
#     4  11  22  39  67  97 129 167 213 273 347 392
#
# _framework density 21.277270999999999
#
# number of rings (size 3 to 8) (size 9 to 14) (size 15 to 20)
#    0.000    1.500    2.500    2.250    1.750    1.000 
#   13.500    0.000    0.000    0.000    0.000    0.000 
#    0.000    0.000    0.000    0.000    0.000    0.000 
#
# Total GULP energy -198293.600614 kJ/mol
# GULP energy per Si atom -12393.350038 kJ/mol
# Density = 2.122884 g / cm^3
# Si number density = 21.277271 Si / 1000 Ang^3
#
#
#
# Elastic Constant Matrix: (Units=GPa)
#
#
# Indices 1 2 3 4 5 6 
#
# 1 76.3381 15.4376 23.9592 0.0000 7.9656 0.0000
# 2 15.4376 95.9557 43.6454 0.0000 11.9583 0.0000
# 3 23.9592 43.6454 64.9250 0.0000 15.1773 0.0000
# 4 0.0000 0.0000 0.0000 32.5295 0.0000 0.4820
# 5 7.9656 11.9583 15.1773 0.0000 34.3208 0.0000
# 6 0.0000 0.0000 0.0000 0.4820 0.0000 22.0913
#
#
#
# Elastic Compliance Matrix: (Units=1/GPa)
#
#
# Indices 1 2 3 4 5 6 
#
# 1 0.014858 0.000180 -0.005334 0.000000 -0.001152 0.000000
# 2 0.000180 0.015036 -0.009971 0.000000 -0.000872 0.000000
# 3 -0.005334 -0.009971 0.025621 0.000000 -0.006618 0.000000
# 4 0.000000 0.000000 0.000000 0.030751 0.000000 -0.000671
# 5 -0.001152 -0.000872 -0.006618 0.000000 0.032634 0.000000
# 6 0.000000 0.000000 0.000000 -0.000671 0.000000 0.045281
#
#
# Mechanical properties :
#
#
# Convention : Reuss Voigt Hill
#
# Bulk Modulus (GPa) = 39.58218 44.81148 42.19683
# Shear Modulus (GPa) = 24.64831 28.06676 26.35753
#
# Velocity S-wave (km/s) = 3.40727 3.63588 3.52343
# Velocity P-wave (km/s) = 5.84147 6.22355 6.03553
#
# Compressibility (1/GPa) = 0.02526390
#
# Stress axis : x y z
#
# Youngs Moduli (GPa) = 67.30502 66.50571 39.03112
#
# Poissons Ratio (x) = -0.01194 0.20820
# Poissons Ratio (y) = -0.01208 0.38916
# Poissons Ratio (z) = 0.35903 0.66310
#
# Static dielectric constant tensor:
#      x y z
#    x 3.988260 0.000000 -0.059110 
#    y 0.000000 3.983550 0.000000 
#    z -0.059110 0.000000 3.730800 
# 
# 
# High freq. dielectric constant tensor:
#      x y z
#    x 1.840800 0.000000 -0.000400 
#    y 0.000000 1.837780 0.000000 
#    z -0.000400 0.000000 1.817650 
# 
# From -- ./inp_files/12638.got.cif
#   From: 2010.03.12/outbox.cif.g09.slc.cpg/sg4_7_cif.got.tgz:12638.got - 2010.03.31 09:31:35.
