data_PCOD8046968
_publ_section_title
;
Structure prediction by ZEFSAII (Michael W. Deem and Ramdas Pophale) SiO2 
 PCOD8046968
Probable space group: P 21
;
_chemical_formula_sum "Si O2"
_cell_formula_units_Z 14
_cell_length_a 20.663188
_cell_length_b 5.044229
_cell_length_c 26.663647
_cell_angle_alpha 90.000000
_cell_angle_beta 11.436397
_cell_angle_gamma 90.000000
_cell_volume 551.049505
_symmetry_space_group_name_H-M "P 21"
_symmetry_group_IT_number 4
_symmetry_cell_setting 'monoclinic'
loop_
_space_group_symop_operation_xyz
x,y,z
-x,1/2+y,-z
loop_
_atom_site_type_symbol
_atom_site_label
_atom_site_fract_x
_atom_site_fract_y
_atom_site_fract_z
Si Si1 0.575782 0.492450 0.594388
Si Si2 0.113517 0.193549 0.442664
Si Si3 0.714146 0.194578 0.396006
Si Si4 0.048475 0.969427 0.874868
Si Si5 0.695467 0.229157 0.851825
Si Si6 0.750806 0.999244 0.516135
Si Si7 0.288435 0.839573 0.951796
O O1 0.688048 0.457248 0.451190
O O2 0.801353 0.295231 0.456438
O O3 0.585120 0.802417 0.601063
O O4 0.209493 0.386062 0.886380
O O5 0.499446 0.206905 0.164267
O O6 0.965364 0.476931 0.539280
O O7 0.926621 0.103456 0.634320
O O8 0.348227 0.088653 0.677717
O O9 0.799298 0.226063 0.272279
O O10 0.003691 0.005045 0.196394
O O11 0.877003 0.135746 0.960825
O O12 0.896332 0.371736 0.743279
O O13 0.519244 0.969972 0.008141
O O14 0.536354 0.020216 0.730128
#
# Coordination Sequence:
#
# PCOD8046968 Si02
#       7
#     2   2   2   2   2   2   2
#     4  11  26  43  71 102 140 183 237 287 344 418
#     4  11  26  45  70 104 141 183 238 298 350 418
#     4  12  25  43  75 102 138 196 234 286 358 423
#     4  11  25  46  68 103 147 184 236 293 351 425
#     4  11  23  42  69  98 139 186 228 292 363 413
#     4  10  23  46  66  97 141 186 229 293 352 417
#     4  10  24  45  71  94 144 190 230 291 364 412
#
# _framework density 25.406064000000001
#
# number of rings (size 3 to 8) (size 9 to 14) (size 15 to 20)
#    0.000    1.143    2.857    1.714    4.000    9.143 
#    0.000    0.000    0.000    0.000    0.000    0.000 
#    0.000    0.000    0.000    0.000    0.000    0.000 
#
# Total GULP energy -173510.425701 kJ/mol
# GULP energy per Si atom -12393.601836 kJ/mol
# Density = 2.534824 g / cm^3
# Si number density = 25.406064 Si / 1000 Ang^3
#
#
#
# Elastic Constant Matrix: (Units=GPa)
#
#
# Indices 1 2 3 4 5 6 
#
# 1 68.0799 2.5637 34.4731 0.0001 -10.1885 -0.0002
# 2 2.5637 61.9569 4.5316 0.0002 1.3696 -0.0002
# 3 34.4731 4.5316 104.5817 0.0004 -9.3275 -0.0005
# 4 0.0001 0.0002 0.0004 34.4495 -0.0003 1.9242
# 5 -10.1885 1.3696 -9.3275 -0.0003 39.4182 0.0004
# 6 -0.0002 -0.0002 -0.0005 1.9242 0.0004 39.2372
#
#
#
# Elastic Compliance Matrix: (Units=1/GPa)
#
#
# Indices 1 2 3 4 5 6 
#
# 1 0.018059 -0.000409 -0.005636 0.000000 0.003348 0.000000
# 2 -0.000409 0.016222 -0.000641 0.000000 -0.000821 0.000000
# 3 -0.005636 -0.000641 0.011564 0.000000 0.001302 0.000000
# 4 0.000000 0.000000 0.000000 0.029108 0.000000 -0.001427
# 5 0.003348 -0.000821 0.001302 0.000000 0.026571 0.000000
# 6 0.000000 0.000000 0.000000 -0.001427 0.000000 0.025556
#
#
# Mechanical properties :
#
#
# Convention : Reuss Voigt Hill
#
# Bulk Modulus (GPa) = 30.79623 35.30614 33.05118
# Shear Modulus (GPa) = 33.05184 35.49097 34.27141
#
# Velocity S-wave (km/s) = 3.61077 3.74163 3.67678
# Velocity P-wave (km/s) = 5.43429 5.70906 5.57337
#
# Compressibility (1/GPa) = 0.03247151
#
# Stress axis : x y z
#
# Youngs Moduli (GPa) = 55.37343 61.64374 86.47725
#
# Poissons Ratio (x) = 0.02521 0.48743
# Poissons Ratio (y) = 0.02265 0.05546
# Poissons Ratio (z) = 0.31211 0.03953
#
# Static dielectric constant tensor:
#      x y z
#    x 4.354500 0.000000 -0.037280 
#    y 0.000000 4.344220 0.000000 
#    z -0.037280 0.000000 4.981210 
# 
# 
# High freq. dielectric constant tensor:
#      x y z
#    x 2.002960 0.000000 -0.000710 
#    y 0.000000 2.002120 0.000000 
#    z -0.000710 0.000000 2.029130 
# 
# From -- ./inp_files/9797.got.cif
#   From: 2010.03.12/outbox.cif.g09.slc.cpg/sg4_5_cif.got.tgz:9797.got - 2010.03.31 09:31:35.
