data_PCOD8046418
_publ_section_title
;
Structure prediction by ZEFSAII (Michael W. Deem and Ramdas Pophale) SiO2 
 PCOD8046418
Probable space group: P 21
;
_chemical_formula_sum "Si O2"
_cell_formula_units_Z 16
_cell_length_a 11.362437
_cell_length_b 13.029872
_cell_length_c 8.854557
_cell_angle_alpha 90.000000
_cell_angle_beta 38.116249
_cell_angle_gamma 90.000000
_cell_volume 809.181460
_symmetry_space_group_name_H-M "P 21"
_symmetry_group_IT_number 4
_symmetry_cell_setting 'monoclinic'
loop_
_space_group_symop_operation_xyz
x,y,z
-x,1/2+y,-z
loop_
_atom_site_type_symbol
_atom_site_label
_atom_site_fract_x
_atom_site_fract_y
_atom_site_fract_z
Si Si1 0.952622 0.558680 0.880046
Si Si2 0.494802 0.175085 0.165512
Si Si3 0.910871 0.176398 0.758613
Si Si4 0.276476 0.725778 0.579042
Si Si5 0.795865 0.547983 0.702831
Si Si6 0.006714 0.328371 0.929088
Si Si7 0.329096 0.193218 0.654309
Si Si8 0.711516 0.313741 0.754775
O O1 0.864645 0.565418 0.802852
O O2 0.144606 0.625276 0.695761
O O3 0.008251 0.441847 0.860799
O O4 0.794334 0.597889 0.158041
O O5 0.399788 0.108854 0.128143
O O6 0.356341 0.180882 0.447360
O O7 0.701048 0.127516 0.004241
O O8 0.537722 0.287635 0.047518
O O9 0.899705 0.254341 0.626479
O O10 0.048556 0.083660 0.576635
O O11 0.982060 0.239673 0.829599
O O12 0.467337 0.695737 0.473025
O O13 0.341553 0.771465 0.354940
O O14 0.165216 0.816482 0.778718
O O15 0.752522 0.431964 0.709407
O O16 0.210420 0.299573 0.801221
#
# Coordination Sequence:
#
# PCOD8046418 Si02
#       8
#     2   2   2   2   2   2   2   2
#     4  11  24  41  67  96 126 179 220 273 334 396
#     4  10  22  43  62  97 130 167 220 268 324 391
#     4  10  21  44  64  93 131 169 217 272 319 391
#     4  11  23  44  62  96 139 166 224 276 317 409
#     4  12  22  43  71  93 132 175 221 269 337 380
#     4  11  23  43  68  91 132 178 219 269 337 387
#     4  11  24  42  67  92 136 175 213 274 330 398
#     4  10  23  42  65  96 130 169 218 277 316 392
#
# _framework density 19.773067999999999
#
# number of rings (size 3 to 8) (size 9 to 14) (size 15 to 20)
#    0.750    0.500    5.000    0.750    1.750    1.000 
#    6.750    0.000    0.000    0.000    0.000    0.000 
#    0.000    0.000    0.000    0.000    0.000    0.000 
#
# Total GULP energy -198305.850750 kJ/mol
# GULP energy per Si atom -12394.115672 kJ/mol
# Density = 1.972806 g / cm^3
# Si number density = 19.773068 Si / 1000 Ang^3
#
#
#
# Elastic Constant Matrix: (Units=GPa)
#
#
# Indices 1 2 3 4 5 6 
#
# 1 100.7447 37.1187 46.4595 0.0000 -14.7383 0.0000
# 2 37.1187 78.8739 55.0411 0.0000 -15.8797 0.0000
# 3 46.4595 55.0411 121.5928 0.0000 1.1542 0.0000
# 4 0.0000 0.0000 0.0000 28.7535 0.0000 1.5094
# 5 -14.7383 -15.8797 1.1542 0.0000 39.9134 0.0000
# 6 0.0000 0.0000 0.0000 1.5094 0.0000 29.5639
#
#
#
# Elastic Compliance Matrix: (Units=1/GPa)
#
#
# Indices 1 2 3 4 5 6 
#
# 1 0.013304 -0.002775 -0.003864 0.000000 0.003920 0.000000
# 2 -0.002775 0.021758 -0.008864 0.000000 0.007888 0.000000
# 3 -0.003864 -0.008864 0.013764 0.000000 -0.005351 0.000000
# 4 0.000000 0.000000 0.000000 0.034872 0.000000 -0.001780
# 5 0.003920 0.007888 -0.005351 0.000000 0.029795 0.000000
# 6 0.000000 0.000000 0.000000 -0.001780 0.000000 0.033916
#
#
# Mechanical properties :
#
#
# Convention : Reuss Voigt Hill
#
# Bulk Modulus (GPa) = 56.11783 64.27223 60.19503
# Shear Modulus (GPa) = 27.12162 30.48562 28.80362
#
# Velocity S-wave (km/s) = 3.70759 3.93080 3.82083
# Velocity P-wave (km/s) = 6.83892 7.29226 7.06923
#
# Compressibility (1/GPa) = 0.01781965
#
# Stress axis : x y z
#
# Youngs Moduli (GPa) = 75.16430 45.96038 72.65414
#
# Poissons Ratio (x) = 0.12754 0.28077
# Poissons Ratio (y) = 0.20858 0.64398
# Poissons Ratio (z) = 0.29047 0.40738
#
# Static dielectric constant tensor:
#      x y z
#    x 3.776310 0.000000 0.073480 
#    y 0.000000 3.500720 0.000000 
#    z 0.073480 0.000000 3.629720 
# 
# 
# High freq. dielectric constant tensor:
#      x y z
#    x 1.790450 0.000000 0.002150 
#    y 0.000000 1.751750 0.000000 
#    z 0.002150 0.000000 1.775390 
# 
# From -- ./inp_files/8317.got.cif
#   From: 2010.03.12/outbox.cif.g09.slc.cpg/sg4_5_cif.got.tgz:8317.got - 2010.03.31 09:31:35.
