data_PCOD8046206
_publ_section_title
;
Structure prediction by ZEFSAII (Michael W. Deem and Ramdas Pophale) SiO2 
 PCOD8046206
Probable space group: P 21
;
_chemical_formula_sum "Si O2"
_cell_formula_units_Z 16
_cell_length_a 32.345250
_cell_length_b 4.993652
_cell_length_c 25.467812
_cell_angle_alpha 90.000000
_cell_angle_beta 169.763007
_cell_angle_gamma 90.000000
_cell_volume 731.066847
_symmetry_space_group_name_H-M "P 21"
_symmetry_group_IT_number 4
_symmetry_cell_setting 'monoclinic'
loop_
_space_group_symop_operation_xyz
x,y,z
-x,1/2+y,-z
loop_
_atom_site_type_symbol
_atom_site_label
_atom_site_fract_x
_atom_site_fract_y
_atom_site_fract_z
Si Si1 0.880945 0.541790 0.084780
Si Si2 0.521191 0.575040 0.725827
Si Si3 0.017736 0.471864 0.058182
Si Si4 0.896675 0.540913 0.591101
Si Si5 0.740517 0.071080 0.045188
Si Si6 0.655686 0.492697 0.694773
Si Si7 0.534835 0.194937 0.009048
Si Si8 0.008799 0.895619 0.476966
O O1 0.995577 0.252245 0.233888
O O2 0.646323 0.563116 0.825779
O O3 0.814619 0.590427 0.941680
O O4 0.074832 0.754409 0.345607
O O5 0.251143 0.517286 0.382508
O O6 0.544151 0.870265 0.778419
O O7 0.638595 0.369206 0.913431
O O8 0.944422 0.730654 0.934177
O O9 0.812431 0.403752 0.841790
O O10 0.025387 0.543229 0.696079
O O11 0.627929 0.602023 0.242750
O O12 0.800718 0.004027 0.180318
O O13 0.506319 0.237292 0.525883
O O14 0.780657 0.283950 0.294020
O O15 0.418108 0.444239 0.893604
O O16 0.906990 0.649856 0.383674
#
# Coordination Sequence:
#
# PCOD8046206 Si02
#       8
#     2   2   2   2   2   2   2   2
#     4  10  21  39  63  96 132 164 216 269 334 379
#     4  10  21  39  66  94 125 175 218 266 319 397
#     4  12  25  44  70 102 134 174 226 264 320 401
#     4  10  21  39  66  94 123 172 222 271 316 393
#     4  10  21  41  65  89 130 175 220 261 329 397
#     4  12  25  44  70 100 137 174 214 275 334 385
#     4  12  24  42  72  96 129 175 234 274 321 394
#     4  12  26  44  64  99 136 177 218 280 341 388
#
# _framework density 21.885826000000002
#
# number of rings (size 3 to 8) (size 9 to 14) (size 15 to 20)
#    0.000    1.000    1.250    6.000    3.500    2.000 
#    6.750    0.000    0.000    0.000    0.000    0.000 
#    0.000    0.000    0.000    0.000    0.000    0.000 
#
# Total GULP energy -198524.678577 kJ/mol
# GULP energy per Si atom -12407.792411 kJ/mol
# Density = 2.183601 g / cm^3
# Si number density = 21.885826 Si / 1000 Ang^3
#
#
#
# Elastic Constant Matrix: (Units=GPa)
#
#
# Indices 1 2 3 4 5 6 
#
# 1 87.2973 25.7951 31.5429 0.0000 -9.1609 0.0000
# 2 25.7951 105.7452 6.0528 0.0000 -1.2871 0.0000
# 3 31.5429 6.0528 83.4503 0.0000 -9.7690 0.0000
# 4 0.0000 0.0000 0.0000 28.3143 0.0000 2.0803
# 5 -9.1609 -1.2871 -9.7690 0.0000 23.1395 0.0000
# 6 0.0000 0.0000 0.0000 2.0803 0.0000 28.1627
#
#
#
# Elastic Compliance Matrix: (Units=1/GPa)
#
#
# Indices 1 2 3 4 5 6 
#
# 1 0.014528 -0.003224 -0.004845 0.000000 0.003527 0.000000
# 2 -0.003224 0.010213 0.000415 0.000000 -0.000533 0.000000
# 3 -0.004845 0.000415 0.014268 0.000000 0.004128 0.000000
# 4 0.000000 0.000000 0.000000 0.035511 0.000000 -0.002623
# 5 0.003527 -0.000533 0.004128 0.000000 0.046326 0.000000
# 6 0.000000 0.000000 0.000000 -0.002623 0.000000 0.035702
#
#
# Mechanical properties :
#
#
# Convention : Reuss Voigt Hill
#
# Bulk Modulus (GPa) = 42.18961 44.80828 43.49894
# Shear Modulus (GPa) = 27.81580 30.13011 28.97296
#
# Velocity S-wave (km/s) = 3.56891 3.71441 3.64238
# Velocity P-wave (km/s) = 6.02510 6.23810 6.13252
#
# Compressibility (1/GPa) = 0.02370252
#
# Stress axis : x y z
#
# Youngs Moduli (GPa) = 68.83086 97.91615 70.08890
#
# Poissons Ratio (x) = 0.31566 0.33957
# Poissons Ratio (y) = 0.22189 -0.02911
# Poissons Ratio (z) = 0.33347 -0.04067
#
# Static dielectric constant tensor:
#      x y z
#    x 3.829810 0.000000 -0.110790 
#    y 0.000000 4.188890 0.000000 
#    z -0.110790 0.000000 3.755250 
# 
# 
# High freq. dielectric constant tensor:
#      x y z
#    x 1.851520 0.000000 -0.015830 
#    y 0.000000 1.880810 0.000000 
#    z -0.015830 0.000000 1.855630 
# 
# From -- ./inp_files/16271.got.cif
#   From: 2010.03.12/outbox.cif.g09.slc.cpg/sg4_9_cif.got.tgz:16271.got - 2010.03.31 09:31:35.
