data_PCOD8046656
_publ_section_title
;
Structure prediction by ZEFSAII (Michael W. Deem and Ramdas Pophale) SiO2 
 PCOD8046656
Probable space group: P 21
;
_chemical_formula_sum "Si O2"
_cell_formula_units_Z 14
_cell_length_a 15.820715
_cell_length_b 4.983916
_cell_length_c 14.512649
_cell_angle_alpha 90.000000
_cell_angle_beta 152.404844
_cell_angle_gamma 90.000000
_cell_volume 530.068329
_symmetry_space_group_name_H-M "P 21"
_symmetry_group_IT_number 4
_symmetry_cell_setting 'monoclinic'
loop_
_space_group_symop_operation_xyz
x,y,z
-x,1/2+y,-z
loop_
_atom_site_type_symbol
_atom_site_label
_atom_site_fract_x
_atom_site_fract_y
_atom_site_fract_z
Si Si1 0.739785 0.805080 0.673429
Si Si2 0.702613 0.883930 0.133210
Si Si3 0.593815 0.614216 0.717564
Si Si4 0.382105 0.002738 0.614413
Si Si5 0.009764 0.795256 0.300952
Si Si6 0.088294 0.798547 0.906711
Si Si7 0.486536 0.382185 0.867505
O O1 0.721184 0.747302 0.763253
O O2 0.690681 0.558110 0.558895
O O3 0.952297 0.870258 0.860229
O O4 0.602043 0.046024 0.515777
O O5 0.681275 0.845094 0.222505
O O6 0.911476 0.837015 0.304782
O O7 0.563308 0.685080 0.943209
O O8 0.649776 0.185387 0.054983
O O9 0.560224 0.815452 0.771597
O O10 0.702974 0.353549 0.860683
O O11 0.226938 0.842035 0.522559
O O12 0.421816 0.287703 0.703301
O O13 0.971434 0.491252 0.234548
O O14 0.925463 0.994240 0.141988
#
# Coordination Sequence:
#
# PCOD8046656 Si02
#       7
#     2   2   2   2   2   2   2
#     4  11  26  45  66 105 141 181 246 291 343 423
#     4  10  22  43  68 102 138 177 235 290 341 431
#     4  12  25  45  73  97 145 191 235 294 354 410
#     4  11  25  44  69 101 141 186 235 292 353 417
#     4  11  24  45  69 103 142 177 241 292 342 429
#     4  11  27  44  71 103 141 189 235 289 356 414
#     4  10  23  42  70 101 136 183 233 284 357 418
#
# _framework density 26.411688999999999
#
# number of rings (size 3 to 8) (size 9 to 14) (size 15 to 20)
#    0.000    1.143    2.857    1.714    8.000    3.429 
#    0.000    7.143    0.000    0.000    0.000    0.000 
#    0.000    0.000    0.000    0.000    0.000    0.000 
#
# Total GULP energy -173617.292752 kJ/mol
# GULP energy per Si atom -12401.235197 kJ/mol
# Density = 2.635157 g / cm^3
# Si number density = 26.411689 Si / 1000 Ang^3
#
#
#
# Elastic Constant Matrix: (Units=GPa)
#
#
# Indices 1 2 3 4 5 6 
#
# 1 165.2491 3.9510 28.8589 0.0000 41.6292 0.0000
# 2 3.9510 61.3812 -4.0270 0.0000 2.6447 0.0000
# 3 28.8589 -4.0270 66.9428 0.0000 15.9364 0.0000
# 4 0.0000 0.0000 0.0000 31.7248 0.0000 4.2597
# 5 41.6292 2.6447 15.9364 0.0000 46.4900 0.0000
# 6 0.0000 0.0000 0.0000 4.2597 0.0000 39.8345
#
#
#
# Elastic Compliance Matrix: (Units=1/GPa)
#
#
# Indices 1 2 3 4 5 6 
#
# 1 0.008039 -0.000364 -0.001937 0.000000 -0.006514 0.000000
# 2 -0.000364 0.016454 0.001407 0.000000 -0.001092 0.000000
# 3 -0.001937 0.001407 0.016838 0.000000 -0.004118 0.000000
# 4 0.000000 0.000000 0.000000 0.031980 0.000000 -0.003420
# 5 -0.006514 -0.001092 -0.004118 0.000000 0.028817 0.000000
# 6 0.000000 0.000000 0.000000 -0.003420 0.000000 0.025470
#
#
# Mechanical properties :
#
#
# Convention : Reuss Voigt Hill
#
# Bulk Modulus (GPa) = 25.28839 39.01543 32.15191
# Shear Modulus (GPa) = 35.07102 41.26253 38.16678
#
# Velocity S-wave (km/s) = 3.64793 3.95686 3.80553
# Velocity P-wave (km/s) = 5.22864 5.97325 5.61331
#
# Compressibility (1/GPa) = 0.03954383
#
# Stress axis : x y z
#
# Youngs Moduli (GPa) = 124.38608 60.77395 59.38950
#
# Poissons Ratio (x) = 0.02211 0.11503
# Poissons Ratio (y) = 0.04526 -0.08355
# Poissons Ratio (z) = 0.24093 -0.08550
#
# Static dielectric constant tensor:
#      x y z
#    x 5.139800 0.000000 0.446260 
#    y 0.000000 4.629050 0.000000 
#    z 0.446260 0.000000 4.339530 
# 
# 
# High freq. dielectric constant tensor:
#      x y z
#    x 2.080950 0.000000 0.027080 
#    y 0.000000 2.063170 0.000000 
#    z 0.027080 0.000000 2.026870 
# 
# From -- ./inp_files/14089.got.cif
#   From: 2010.03.12/outbox.cif.g09.slc.cpg/sg4_8_cif.got.tgz:14089.got - 2010.03.31 09:31:35.
