data_PCOD8046666
_publ_section_title
;
Structure prediction by ZEFSAII (Michael W. Deem and Ramdas Pophale) SiO2 
 PCOD8046666
Probable space group: P 21
;
_chemical_formula_sum "Si O2"
_cell_formula_units_Z 16
_cell_length_a 6.067057
_cell_length_b 21.723780
_cell_length_c 5.055137
_cell_angle_alpha 90.000000
_cell_angle_beta 84.792631
_cell_angle_gamma 90.000000
_cell_volume 663.514233
_symmetry_space_group_name_H-M "P 21"
_symmetry_group_IT_number 4
_symmetry_cell_setting 'monoclinic'
loop_
_space_group_symop_operation_xyz
x,y,z
-x,1/2+y,-z
loop_
_atom_site_type_symbol
_atom_site_label
_atom_site_fract_x
_atom_site_fract_y
_atom_site_fract_z
Si Si1 0.652752 0.986000 0.944469
Si Si2 0.376601 0.248776 0.123196
Si Si3 0.785586 0.205536 0.784428
Si Si4 0.886374 0.936580 0.432148
Si Si5 0.860887 0.630982 0.966572
Si Si6 0.528973 0.095681 0.648895
Si Si7 0.151180 0.296203 0.635420
Si Si8 0.732430 0.517184 0.703235
O O1 0.707854 0.943067 0.685726
O O2 0.675282 0.057588 0.848893
O O3 0.813057 0.967696 0.165584
O O4 0.392266 0.977550 0.053057
O O5 0.289250 0.179536 0.179706
O O6 0.351916 0.283385 0.407053
O O7 0.625924 0.247059 0.985685
O O8 0.229088 0.285126 0.925240
O O9 0.655108 0.161066 0.588530
O O10 0.946224 0.249887 0.598831
O O11 0.911033 0.161077 0.973603
O O12 0.935238 0.865179 0.381610
O O13 0.117909 0.970698 0.486834
O O14 0.900341 0.570265 0.786550
O O15 0.720218 0.611074 0.236507
O O16 0.483498 0.049881 0.408706
#
# Coordination Sequence:
#
# PCOD8046666 Si02
#       8
#     2   2   2   2   2   2   2   2
#     4  11  25  47  68 105 138 186 226 292 355 413
#     4  10  24  46  70 100 140 177 235 289 344 418
#     4  10  23  46  72 102 141 192 216 299 361 406
#     4  12  27  44  75  96 140 190 241 288 347 409
#     4   9  22  40  69 106 141 169 232 283 353 429
#     4  10  22  43  70 111 140 178 232 287 361 429
#     4  11  26  48  66 103 135 187 247 287 334 423
#     4  11  25  44  72 109 143 181 229 293 353 429
#
# _framework density 24.114028000000001
#
# number of rings (size 3 to 8) (size 9 to 14) (size 15 to 20)
#    0.000    1.500    1.250    1.500   10.500    4.000 
#    9.000    0.000    0.000    0.000    0.000    0.000 
#    0.000    0.000    0.000    0.000    0.000    0.000 
#
# Total GULP energy -198303.704036 kJ/mol
# GULP energy per Si atom -12393.981502 kJ/mol
# Density = 2.405914 g / cm^3
# Si number density = 24.114028 Si / 1000 Ang^3
#
#
#
# Elastic Constant Matrix: (Units=GPa)
#
#
# Indices 1 2 3 4 5 6 
#
# 1 91.6633 60.6727 28.0883 0.0000 -6.5729 0.0000
# 2 60.6727 135.8222 43.4801 0.0000 -9.6053 0.0000
# 3 28.0883 43.4801 98.4589 0.0000 -11.5467 0.0000
# 4 0.0000 0.0000 0.0000 29.3736 0.0000 -8.8022
# 5 -6.5729 -9.6053 -11.5467 0.0000 27.9146 0.0000
# 6 0.0000 0.0000 0.0000 -8.8022 0.0000 31.2548
#
#
#
# Elastic Compliance Matrix: (Units=1/GPa)
#
#
# Indices 1 2 3 4 5 6 
#
# 1 0.015724 -0.006476 -0.001527 0.000000 0.000843 0.000000
# 2 -0.006476 0.011298 -0.003011 0.000000 0.001117 0.000000
# 3 -0.001527 -0.003011 0.012358 0.000000 0.003716 0.000000
# 4 0.000000 0.000000 0.000000 0.037182 0.000000 0.010472
# 5 0.000843 0.001117 0.003716 0.000000 0.037944 0.000000
# 6 0.000000 0.000000 0.000000 0.010472 0.000000 0.034944
#
#
# Mechanical properties :
#
#
# Convention : Reuss Voigt Hill
#
# Bulk Modulus (GPa) = 57.62919 65.60295 61.61607
# Shear Modulus (GPa) = 28.20690 30.62215 29.41452
#
# Velocity S-wave (km/s) = 3.42384 3.56742 3.49637
# Velocity P-wave (km/s) = 6.29132 6.65079 6.47355
#
# Compressibility (1/GPa) = 0.01735232
#
# Stress axis : x y z
#
# Youngs Moduli (GPa) = 63.59644 88.51007 80.92131
#
# Poissons Ratio (x) = 0.57315 0.12359
# Poissons Ratio (y) = 0.41182 0.24365
# Poissons Ratio (z) = 0.09713 0.26650
#
# Static dielectric constant tensor:
#      x y z
#    x 4.207230 0.000000 -0.157600 
#    y 0.000000 4.359730 0.000000 
#    z -0.157600 0.000000 4.164990 
# 
# 
# High freq. dielectric constant tensor:
#      x y z
#    x 1.949980 0.000000 -0.010040 
#    y 0.000000 1.950730 0.000000 
#    z -0.010040 0.000000 1.948900 
# 
# From -- ./inp_files/764.got.cif
#   From: 2010.03.12/outbox.cif.g09.slc.cpg/sg4_1_cif.got.tgz:764.got - 2010.03.31 09:31:35.
