data_PCOD8046116
_publ_section_title
;
Structure prediction by ZEFSAII (Michael W. Deem and Ramdas Pophale) SiO2 
 PCOD8046116
Probable space group: P 21
;
_chemical_formula_sum "Si O2"
_cell_formula_units_Z 16
_cell_length_a 12.258397
_cell_length_b 8.738308
_cell_length_c 17.892939
_cell_angle_alpha 90.000000
_cell_angle_beta 26.044849
_cell_angle_gamma 90.000000
_cell_volume 841.552049
_symmetry_space_group_name_H-M "P 21"
_symmetry_group_IT_number 4
_symmetry_cell_setting 'monoclinic'
loop_
_space_group_symop_operation_xyz
x,y,z
-x,1/2+y,-z
loop_
_atom_site_type_symbol
_atom_site_label
_atom_site_fract_x
_atom_site_fract_y
_atom_site_fract_z
Si Si1 0.245201 0.196880 0.025827
Si Si2 0.273695 0.647357 0.352344
Si Si3 0.096350 0.388724 0.350777
Si Si4 0.905873 0.989885 0.809812
Si Si5 0.764198 0.046866 0.324313
Si Si6 0.149549 0.483468 0.569072
Si Si7 0.702799 0.733462 0.420421
Si Si8 0.632732 0.620471 0.883924
O O1 0.090356 0.352251 0.133402
O O2 0.377631 0.150199 0.021496
O O3 0.040789 0.074910 0.121115
O O4 0.458602 0.215652 0.833001
O O5 0.169943 0.541411 0.349546
O O6 0.314297 0.537351 0.398397
O O7 0.098463 0.791209 0.480002
O O8 0.987689 0.440855 0.337191
O O9 0.329240 0.277559 0.186911
O O10 0.086748 0.115200 0.734037
O O11 0.624827 0.048574 0.980961
O O12 0.561349 0.150839 0.408122
O O13 0.785137 0.092095 0.399972
O O14 0.691584 0.866780 0.363848
O O15 0.216597 0.307854 0.549039
O O16 0.857542 0.501800 0.727715
#
# Coordination Sequence:
#
# PCOD8046116 Si02
#       8
#     2   2   2   2   2   2   2   2
#     4  10  21  35  59  84 120 158 200 250 287 352
#     4  11  22  38  56  88 129 167 188 241 313 365
#     4  10  24  34  57  84 132 160 194 234 304 370
#     4  11  22  35  61  91 120 155 208 241 294 351
#     4   9  20  39  62  88 109 155 212 253 289 340
#     4   8  21  36  59  83 122 152 190 248 299 354
#     4  10  21  37  70  85 117 152 209 253 299 343
#     4   9  19  36  54  89 117 155 203 240 281 349
#
# _framework density 19.01249
#
# number of rings (size 3 to 8) (size 9 to 14) (size 15 to 20)
#    0.750    1.500    1.250    1.500   10.500    0.000 
#    0.000    0.000    5.500    0.000    0.000    0.000 
#    0.000    0.000    0.000    0.000    0.000    0.000 
#
# Total GULP energy -198276.452541 kJ/mol
# GULP energy per Si atom -12392.278284 kJ/mol
# Density = 1.896922 g / cm^3
# Si number density = 19.012490 Si / 1000 Ang^3
#
#
#
# Elastic Constant Matrix: (Units=GPa)
#
#
# Indices 1 2 3 4 5 6 
#
# 1 27.4032 12.9378 34.6403 0.0000 -5.2053 0.0000
# 2 12.9378 93.8870 42.4400 0.0000 -4.0012 0.0000
# 3 34.6403 42.4400 118.1207 0.0000 3.6295 0.0000
# 4 0.0000 0.0000 0.0000 34.4712 0.0000 -2.1138
# 5 -5.2053 -4.0012 3.6295 0.0000 27.5171 0.0000
# 6 0.0000 0.0000 0.0000 -2.1138 0.0000 36.7553
#
#
#
# Elastic Compliance Matrix: (Units=1/GPa)
#
#
# Indices 1 2 3 4 5 6 
#
# 1 0.063277 0.000589 -0.019217 0.000000 0.014590 0.000000
# 2 0.000589 0.012890 -0.004885 0.000000 0.002630 0.000000
# 3 -0.019217 -0.004885 0.016055 0.000000 -0.006463 0.000000
# 4 0.000000 0.000000 0.000000 0.029112 0.000000 0.001674
# 5 0.014590 0.002630 -0.006463 0.000000 0.040336 0.000000
# 6 0.000000 0.000000 0.000000 0.001674 0.000000 0.027303
#
#
# Mechanical properties :
#
#
# Convention : Reuss Voigt Hill
#
# Bulk Modulus (GPa) = 22.12543 46.60525 34.36534
# Shear Modulus (GPa) = 19.91517 29.70825 24.81171
#
# Velocity S-wave (km/s) = 3.23999 3.95722 3.61643
# Velocity P-wave (km/s) = 5.06550 6.74134 5.96259
#
# Compressibility (1/GPa) = 0.04519685
#
# Stress axis : x y z
#
# Youngs Moduli (GPa) = 15.80351 77.57858 62.28571
#
# Poissons Ratio (x) = -0.04566 1.19692
# Poissons Ratio (y) = -0.00930 0.30425
# Poissons Ratio (z) = 0.30369 0.37895
#
# Static dielectric constant tensor:
#      x y z
#    x 3.150120 0.000000 0.040570 
#    y 0.000000 3.614000 0.000000 
#    z 0.040570 0.000000 3.400990 
# 
# 
# High freq. dielectric constant tensor:
#      x y z
#    x 1.699180 0.000000 -0.005900 
#    y 0.000000 1.748950 0.000000 
#    z -0.005900 0.000000 1.732910 
# 
# From -- ./inp_files/10941.got.cif
#   From: 2010.03.12/outbox.cif.g09.slc.cpg/sg4_6_cif.got.tgz:10941.got - 2010.03.31 09:31:35.
