data_PCOD8046313
_publ_section_title
;
Structure prediction by ZEFSAII (Michael W. Deem and Ramdas Pophale) SiO2 
 PCOD8046313
Probable space group: P 21
;
_chemical_formula_sum "Si O2"
_cell_formula_units_Z 16
_cell_length_a 29.347146
_cell_length_b 4.863043
_cell_length_c 6.803242
_cell_angle_alpha 90.000000
_cell_angle_beta 134.717710
_cell_angle_gamma 90.000000
_cell_volume 689.928551
_symmetry_space_group_name_H-M "P 21"
_symmetry_group_IT_number 4
_symmetry_cell_setting 'monoclinic'
loop_
_space_group_symop_operation_xyz
x,y,z
-x,1/2+y,-z
loop_
_atom_site_type_symbol
_atom_site_label
_atom_site_fract_x
_atom_site_fract_y
_atom_site_fract_z
Si Si1 0.743211 0.811470 0.377691
Si Si2 0.885025 0.756118 0.777363
Si Si3 0.617417 0.180216 0.486382
Si Si4 0.495285 0.187534 0.362237
Si Si5 0.737870 0.322860 0.106793
Si Si6 0.375156 0.184099 0.738571
Si Si7 0.879678 0.258859 0.484918
Si Si8 0.959823 0.037232 0.365983
O O1 0.814293 0.706404 0.654627
O O2 0.717977 0.625328 0.119744
O O3 0.696123 0.773345 0.416932
O O4 0.744125 0.128634 0.317071
O O5 0.909425 0.479145 0.735194
O O6 0.879587 0.966946 0.585300
O O7 0.928047 0.874768 0.085277
O O8 0.554548 0.281419 0.408574
O O9 0.622328 0.362844 0.304442
O O10 0.608515 0.862082 0.404468
O O11 0.682920 0.211086 0.802076
O O12 0.498810 0.366265 0.571171
O O13 0.426925 0.253720 0.060594
O O14 0.806733 0.341617 0.206169
O O15 0.916475 0.209835 0.390086
O O16 0.003269 0.287345 0.410218
#
# Coordination Sequence:
#
# PCOD8046313 Si02
#       8
#     2   2   2   2   2   2   2   2
#     4  10  21  41  64  92 127 169 217 262 329 397
#     4  10  23  44  69  99 138 180 226 286 339 409
#     4  12  24  39  61  96 127 164 212 273 325 381
#     4  12  24  42  64  84 126 176 216 262 318 388
#     4  10  21  41  64  92 127 169 217 262 329 397
#     4  12  24  39  61  96 127 164 212 273 325 381
#     4  10  23  44  69  99 138 180 226 286 339 409
#     4  12  26  44  70 106 138 182 234 284 346 428
#
# _framework density 23.190805999999998
#
# number of rings (size 3 to 8) (size 9 to 14) (size 15 to 20)
#    0.000    1.000    0.000    6.750    1.750    2.000 
#    2.250    0.000    0.000    0.000    0.000    0.000 
#    0.000    0.000    0.000    0.000    0.000    0.000 
#
# Total GULP energy -198331.236187 kJ/mol
# GULP energy per Si atom -12395.702262 kJ/mol
# Density = 2.313802 g / cm^3
# Si number density = 23.190806 Si / 1000 Ang^3
#
#
#
# Elastic Constant Matrix: (Units=GPa)
#
#
# Indices 1 2 3 4 5 6 
#
# 1 90.4935 20.1906 14.5376 0.0000 5.5233 0.0000
# 2 20.1906 98.9827 7.1531 0.0000 4.0687 0.0000
# 3 14.5376 7.1531 55.8580 0.0000 8.3340 0.0000
# 4 0.0000 0.0000 0.0000 40.6287 0.0000 -9.2018
# 5 5.5233 4.0687 8.3340 0.0000 22.8673 0.0000
# 6 0.0000 0.0000 0.0000 -9.2018 0.0000 39.3849
#
#
#
# Elastic Compliance Matrix: (Units=1/GPa)
#
#
# Indices 1 2 3 4 5 6 
#
# 1 0.012060 -0.002206 -0.002623 0.000000 -0.001564 0.000000
# 2 -0.002206 0.010644 -0.000620 0.000000 -0.001135 0.000000
# 3 -0.002623 -0.000620 0.019620 0.000000 -0.006407 0.000000
# 4 0.000000 0.000000 0.000000 0.025988 0.000000 0.006072
# 5 -0.001564 -0.001135 -0.006407 0.000000 0.046645 0.000000
# 6 0.000000 0.000000 0.000000 0.006072 0.000000 0.026809
#
#
# Mechanical properties :
#
#
# Convention : Reuss Voigt Hill
#
# Bulk Modulus (GPa) = 31.81931 36.56631 34.19281
# Shear Modulus (GPa) = 30.64865 34.13972 32.39419
#
# Velocity S-wave (km/s) = 3.63931 3.84099 3.74151
# Velocity P-wave (km/s) = 5.60445 5.95590 5.78284
#
# Compressibility (1/GPa) = 0.03142746
#
# Stress axis : x y z
#
# Youngs Moduli (GPa) = 82.92183 93.94776 50.96747
#
# Poissons Ratio (x) = 0.20726 0.13367
# Poissons Ratio (y) = 0.18293 0.03158
# Poissons Ratio (z) = 0.21748 0.05821
#
# Static dielectric constant tensor:
#      x y z
#    x 4.221450 0.000000 0.300750 
#    y 0.000000 4.520180 0.000000 
#    z 0.300750 0.000000 3.941500 
# 
# 
# High freq. dielectric constant tensor:
#      x y z
#    x 1.917840 0.000000 0.014340 
#    y 0.000000 1.939570 0.000000 
#    z 0.014340 0.000000 1.902440 
# 
# From -- ./inp_files/4454.got.cif
#   From: 2010.03.12/outbox.cif.g09.slc.cpg/sg4_3_cif.got.tgz:4454.got - 2010.03.31 09:31:35.
