data_PCOD8046081
_publ_section_title
;
Structure prediction by ZEFSAII (Michael W. Deem and Ramdas Pophale) SiO2 
 PCOD8046081
Probable space group: P 21
;
_chemical_formula_sum "Si O2"
_cell_formula_units_Z 16
_cell_length_a 10.425949
_cell_length_b 13.923279
_cell_length_c 5.613891
_cell_angle_alpha 90.000000
_cell_angle_beta 121.481731
_cell_angle_gamma 90.000000
_cell_volume 694.979050
_symmetry_space_group_name_H-M "P 21"
_symmetry_group_IT_number 4
_symmetry_cell_setting 'monoclinic'
loop_
_space_group_symop_operation_xyz
x,y,z
-x,1/2+y,-z
loop_
_atom_site_type_symbol
_atom_site_label
_atom_site_fract_x
_atom_site_fract_y
_atom_site_fract_z
Si Si1 0.622246 0.432150 0.103868
Si Si2 0.361001 0.645581 0.173379
Si Si3 0.837134 0.495684 0.692030
Si Si4 0.624508 0.605027 0.788138
Si Si5 0.421675 0.261562 0.907728
Si Si6 0.163479 0.467646 0.907309
Si Si7 0.844889 0.314170 0.007262
Si Si8 0.829371 0.852488 0.585427
O O1 0.697465 0.498393 0.376516
O O2 0.559867 0.510773 0.859545
O O3 0.483574 0.365520 0.060848
O O4 0.750250 0.363204 0.124386
O O5 0.490025 0.632075 0.487714
O O6 0.435140 0.697175 0.019334
O O7 0.229948 0.714559 0.150560
O O8 0.294045 0.545906 0.020241
O O9 0.786926 0.574909 0.836653
O O10 0.849505 0.386249 0.791095
O O11 0.000806 0.521310 0.746165
O O12 0.666135 0.700963 0.977532
O O13 0.310557 0.278350 0.572251
O O14 0.176643 0.408161 0.675640
O O15 0.185666 0.412535 0.183419
O O16 0.014161 0.294558 0.261574
#
# Coordination Sequence:
#
# PCOD8046081 Si02
#       8
#     2   2   2   2   2   2   2   2
#     4  10  20  42  66  95 137 184 225 297 353 427
#     4  11  25  43  65 104 139 183 237 301 352 425
#     4  10  21  43  69  95 137 186 233 289 358 420
#     4  11  24  40  67 102 138 184 242 288 366 421
#     4  11  26  41  69 103 143 185 239 292 365 425
#     4  11  26  47  75 103 142 187 241 295 356 427
#     4   9  21  43  67  95 135 180 236 287 354 415
#     4  11  25  49  72 105 141 193 237 291 360 428
#
# _framework density 23.022275
#
# number of rings (size 3 to 8) (size 9 to 14) (size 15 to 20)
#    0.000    1.500    1.250    2.250    7.000    2.000 
#    2.250    0.000    0.000    0.000    0.000    0.000 
#    0.000    0.000    0.000    0.000    0.000    0.000 
#
# Total GULP energy -198288.479750 kJ/mol
# GULP energy per Si atom -12393.029984 kJ/mol
# Density = 2.296988 g / cm^3
# Si number density = 23.022275 Si / 1000 Ang^3
#
#
#
# Elastic Constant Matrix: (Units=GPa)
#
#
# Indices 1 2 3 4 5 6 
#
# 1 64.7395 31.3328 25.2230 0.0000 3.8491 0.0000
# 2 31.3328 80.6556 28.8640 0.0000 4.9857 0.0000
# 3 25.2230 28.8640 107.3033 0.0000 6.0416 0.0000
# 4 0.0000 0.0000 0.0000 40.5599 0.0000 7.5810
# 5 3.8491 4.9857 6.0416 0.0000 42.3620 0.0000
# 6 0.0000 0.0000 0.0000 7.5810 0.0000 35.9562
#
#
#
# Elastic Compliance Matrix: (Units=1/GPa)
#
#
# Indices 1 2 3 4 5 6 
#
# 1 0.019801 -0.006640 -0.002834 0.000000 -0.000614 0.000000
# 2 -0.006640 0.015997 -0.002692 0.000000 -0.000895 0.000000
# 3 -0.002834 -0.002692 0.010764 0.000000 -0.000961 0.000000
# 4 0.000000 0.000000 0.000000 0.025666 0.000000 -0.005412
# 5 -0.000614 -0.000895 -0.000961 0.000000 0.023904 0.000000
# 6 0.000000 0.000000 0.000000 -0.005412 0.000000 0.028953
#
#
# Mechanical properties :
#
#
# Convention : Reuss Voigt Hill
#
# Bulk Modulus (GPa) = 44.98460 47.05977 46.02218
# Shear Modulus (GPa) = 31.88266 34.92754 33.40510
#
# Velocity S-wave (km/s) = 3.72541 3.89925 3.81332
# Velocity P-wave (km/s) = 6.17146 6.38416 6.27871
#
# Compressibility (1/GPa) = 0.02222983
#
# Stress axis : x y z
#
# Youngs Moduli (GPa) = 50.50322 62.51353 92.90538
#
# Poissons Ratio (x) = 0.41510 0.26327
# Poissons Ratio (y) = 0.33535 0.25008
# Poissons Ratio (z) = 0.14311 0.16827
#
# Static dielectric constant tensor:
#      x y z
#    x 4.349800 0.000000 0.192100 
#    y 0.000000 4.216420 0.000000 
#    z 0.192100 0.000000 4.197210 
# 
# 
# High freq. dielectric constant tensor:
#      x y z
#    x 1.914170 0.000000 0.012780 
#    y 0.000000 1.909180 0.000000 
#    z 0.012780 0.000000 1.908340 
# 
# From -- ./inp_files/1719.got.cif
#   From: 2010.03.12/outbox.cif.g09.slc.cpg/sg4_1_cif.got.tgz:1719.got - 2010.03.31 09:31:35.
