data_PCOD8046365
_publ_section_title
;
Structure prediction by ZEFSAII (Michael W. Deem and Ramdas Pophale) SiO2 
 PCOD8046365
Probable space group: P 21
;
_chemical_formula_sum "Si O2"
_cell_formula_units_Z 16
_cell_length_a 5.297166
_cell_length_b 8.781746
_cell_length_c 16.101687
_cell_angle_alpha 90.000000
_cell_angle_beta 75.026928
_cell_angle_gamma 90.000000
_cell_volume 723.592826
_symmetry_space_group_name_H-M "P 21"
_symmetry_group_IT_number 4
_symmetry_cell_setting 'monoclinic'
loop_
_space_group_symop_operation_xyz
x,y,z
-x,1/2+y,-z
loop_
_atom_site_type_symbol
_atom_site_label
_atom_site_fract_x
_atom_site_fract_y
_atom_site_fract_z
Si Si1 0.303625 0.985480 0.900621
Si Si2 0.975691 0.967449 0.659574
Si Si3 0.601900 0.822542 0.163278
Si Si4 0.158621 0.369062 0.514185
Si Si5 0.849015 0.820760 0.837208
Si Si6 0.158828 0.984714 0.100212
Si Si7 0.718000 0.275571 0.655471
Si Si8 0.435647 0.096704 0.547091
O O1 0.569796 0.890129 0.885542
O O2 0.081597 0.891761 0.871506
O O3 0.352963 0.143002 0.849584
O O4 0.198025 0.021975 0.000743
O O5 0.912990 0.907107 0.573488
O O6 0.904776 0.845974 0.735229
O O7 0.832318 0.126578 0.692443
O O8 0.286897 0.998472 0.631096
O O9 0.397142 0.879137 0.111223
O O10 0.478928 0.857506 0.264399
O O11 0.880035 0.904491 0.135203
O O12 0.235163 0.189011 0.505262
O O13 0.387125 0.485042 0.522843
O O14 0.941263 0.392174 0.604523
O O15 0.839151 0.640774 0.849474
O O16 0.590805 0.229427 0.579556
#
# Coordination Sequence:
#
# PCOD8046365 Si02
#       8
#     2   2   2   2   2   2   2   2
#     4  12  24  47  80  98 141 199 239 286 367 445
#     4  10  22  43  67 100 132 184 241 279 351 426
#     4  12  26  47  73 108 144 190 238 301 356 436
#     4  10  22  41  68  99 134 178 234 290 336 421
#     4  12  26  47  73 108 145 190 237 302 356 435
#     4  12  27  46  68 114 147 176 240 309 368 415
#     4  10  22  43  67  99 132 185 241 279 350 427
#     4  10  21  42  66  94 133 182 236 282 346 409
#
# _framework density 22.111882000000001
#
# number of rings (size 3 to 8) (size 9 to 14) (size 15 to 20)
#    0.000    1.000    1.250    5.250    5.250    0.000 
#   11.250    0.000    0.000    0.000    0.000    0.000 
#    0.000    0.000    0.000    0.000    0.000    0.000 
#
# Total GULP energy -198376.074620 kJ/mol
# GULP energy per Si atom -12398.504664 kJ/mol
# Density = 2.206155 g / cm^3
# Si number density = 22.111882 Si / 1000 Ang^3
#
#
#
# Elastic Constant Matrix: (Units=GPa)
#
#
# Indices 1 2 3 4 5 6 
#
# 1 129.3787 41.6123 24.4553 0.0000 -27.7797 0.0000
# 2 41.6123 66.8753 22.6901 0.0000 -10.0804 0.0000
# 3 24.4553 22.6901 93.5407 0.0000 -22.0625 0.0000
# 4 0.0000 0.0000 0.0000 36.7612 0.0000 -1.9182
# 5 -27.7797 -10.0804 -22.0625 0.0000 31.3375 0.0000
# 6 0.0000 0.0000 0.0000 -1.9182 0.0000 40.2591
#
#
#
# Elastic Compliance Matrix: (Units=1/GPa)
#
#
# Indices 1 2 3 4 5 6 
#
# 1 0.011384 -0.005963 0.000477 0.000000 0.008509 0.000000
# 2 -0.005963 0.019648 -0.003553 0.000000 -0.001467 0.000000
# 3 0.000477 -0.003553 0.013499 0.000000 0.008784 0.000000
# 4 0.000000 0.000000 0.000000 0.027270 0.000000 0.001299
# 5 0.008509 -0.001467 0.008784 0.000000 0.045166 0.000000
# 6 0.000000 0.000000 0.000000 0.001299 0.000000 0.024901
#
#
# Mechanical properties :
#
#
# Convention : Reuss Voigt Hill
#
# Bulk Modulus (GPa) = 37.80161 51.92334 44.86248
# Shear Modulus (GPa) = 29.62711 35.07402 32.35057
#
# Velocity S-wave (km/s) = 3.66440 3.98704 3.82912
# Velocity P-wave (km/s) = 5.91916 6.68793 6.31526
#
# Compressibility (1/GPa) = 0.02645390
#
# Stress axis : x y z
#
# Youngs Moduli (GPa) = 87.84268 50.89617 74.07698
#
# Poissons Ratio (x) = 0.30348 -0.03535
# Poissons Ratio (y) = 0.52379 0.26320
# Poissons Ratio (z) = -0.04192 0.18084
#
# Static dielectric constant tensor:
#      x y z
#    x 4.364640 0.000000 -0.226920 
#    y 0.000000 4.037430 0.000000 
#    z -0.226920 0.000000 3.934130 
# 
# 
# High freq. dielectric constant tensor:
#      x y z
#    x 1.890940 0.000000 -0.013260 
#    y 0.000000 1.868090 0.000000 
#    z -0.013260 0.000000 1.871350 
# 
# From -- ./inp_files/13335.got.cif
#   From: 2010.03.12/outbox.cif.g09.slc.cpg/sg4_7_cif.got.tgz:13335.got - 2010.03.31 09:31:35.
