data_PCOD8046640
_publ_section_title
;
Structure prediction by ZEFSAII (Michael W. Deem and Ramdas Pophale) SiO2 
 PCOD8046640
Probable space group: P 21
;
_chemical_formula_sum "Si O2"
_cell_formula_units_Z 16
_cell_length_a 13.403297
_cell_length_b 8.617964
_cell_length_c 9.377150
_cell_angle_alpha 90.000000
_cell_angle_beta 45.594340
_cell_angle_gamma 90.000000
_cell_volume 773.803678
_symmetry_space_group_name_H-M "P 21"
_symmetry_group_IT_number 4
_symmetry_cell_setting 'monoclinic'
loop_
_space_group_symop_operation_xyz
x,y,z
-x,1/2+y,-z
loop_
_atom_site_type_symbol
_atom_site_label
_atom_site_fract_x
_atom_site_fract_y
_atom_site_fract_z
Si Si1 0.162288 0.750000 0.722755
Si Si2 0.458082 0.657423 0.476986
Si Si3 0.662282 0.831304 0.452585
Si Si4 0.633390 0.915638 0.805272
Si Si5 0.041931 0.423865 0.893167
Si Si6 0.891764 0.454817 0.751093
Si Si7 0.133710 0.665557 0.427517
Si Si8 0.391521 0.126384 0.965600
O O1 0.321006 0.768286 0.620362
O O2 0.091829 0.599066 0.862635
O O3 0.165460 0.738385 0.549732
O O4 0.066070 0.892001 0.870315
O O5 0.566015 0.689330 0.497586
O O6 0.408170 0.482239 0.546365
O O7 0.532591 0.684647 0.251949
O O8 0.665542 0.842955 0.619174
O O9 0.820993 0.813011 0.237482
O O10 0.749637 0.040803 0.731239
O O11 0.484874 0.002228 0.958248
O O12 0.638092 0.777541 0.912165
O O13 0.967536 0.396533 0.817015
O O14 0.861751 0.303613 0.688685
O O15 0.985424 0.578502 0.571191
O O16 0.750255 0.540887 0.935287
#
# Coordination Sequence:
#
# PCOD8046640 Si02
#       8
#     2   2   2   2   2   2   2   2
#     4  10  22  43  64  89 129 163 208 264 312 374
#     4  10  23  42  62  92 126 165 209 259 315 374
#     4  10  22  43  64  89 129 163 208 264 312 374
#     4  11  22  46  63  92 133 165 210 271 313 379
#     4  10  23  42  62  92 126 165 209 259 315 374
#     4  11  24  40  68  94 126 170 214 259 323 379
#     4  11  22  46  63  92 133 165 210 271 313 379
#     4  11  24  40  68  94 126 170 214 259 323 379
#
# _framework density 20.67708
#
# number of rings (size 3 to 8) (size 9 to 14) (size 15 to 20)
#    0.000    1.500    5.000    1.500    7.000    2.000 
#    4.500    0.000    0.000    0.000    0.000    0.000 
#    0.000    0.000    0.000    0.000    0.000    0.000 
#
# Total GULP energy -198433.457174 kJ/mol
# GULP energy per Si atom -12402.091073 kJ/mol
# Density = 2.063002 g / cm^3
# Si number density = 20.677080 Si / 1000 Ang^3
#
#
#
# Elastic Constant Matrix: (Units=GPa)
#
#
# Indices 1 2 3 4 5 6 
#
# 1 84.6886 36.8161 42.7175 0.0000 -26.6688 0.0000
# 2 36.8161 61.4666 36.5925 0.0000 0.8999 0.0000
# 3 42.7175 36.5925 80.3413 0.0000 -25.4353 0.0000
# 4 0.0000 0.0000 0.0000 40.7227 0.0000 -5.9859
# 5 -26.6688 0.8999 -25.4353 0.0000 34.4018 0.0000
# 6 0.0000 0.0000 0.0000 -5.9859 0.0000 41.0659
#
#
#
# Elastic Compliance Matrix: (Units=1/GPa)
#
#
# Indices 1 2 3 4 5 6 
#
# 1 0.024326 -0.014756 -0.000157 0.000000 0.019127 0.000000
# 2 -0.014756 0.034669 -0.015475 0.000000 -0.023788 0.000000
# 3 -0.000157 -0.015475 0.025680 0.000000 0.019269 0.000000
# 4 0.000000 0.000000 0.000000 0.025094 0.000000 0.003658
# 5 0.019127 -0.023788 0.019269 0.000000 0.058765 0.000000
# 6 0.000000 0.000000 0.000000 0.003658 0.000000 0.024884
#
#
# Mechanical properties :
#
#
# Convention : Reuss Voigt Hill
#
# Bulk Modulus (GPa) = 41.84935 50.97208 46.41071
# Shear Modulus (GPa) = 19.07228 30.59612 24.83420
#
# Velocity S-wave (km/s) = 3.04038 3.85088 3.46938
# Velocity P-wave (km/s) = 5.71040 6.66913 6.20830
#
# Compressibility (1/GPa) = 0.02389523
#
# Stress axis : x y z
#
# Youngs Moduli (GPa) = 41.10903 28.84449 38.94151
#
# Poissons Ratio (x) = 0.42564 0.00613
# Poissons Ratio (y) = 0.60662 0.60264
# Poissons Ratio (z) = 0.00647 0.44638
#
# Static dielectric constant tensor:
#      x y z
#    x 3.869240 0.000000 -0.325170 
#    y 0.000000 3.800690 0.000000 
#    z -0.325170 0.000000 3.845880 
# 
# 
# High freq. dielectric constant tensor:
#      x y z
#    x 1.816440 0.000000 -0.020540 
#    y 0.000000 1.800640 0.000000 
#    z -0.020540 0.000000 1.814960 
# 
# From -- ./inp_files/5681.got.cif
#   From: 2010.03.12/outbox.cif.g09.slc.cpg/sg4_3_cif.got.tgz:5681.got - 2010.03.31 09:31:35.
