data_PCOD8046491
_publ_section_title
;
Structure prediction by ZEFSAII (Michael W. Deem and Ramdas Pophale) SiO2 
 PCOD8046491
Probable space group: P 21
;
_chemical_formula_sum "Si O2"
_cell_formula_units_Z 14
_cell_length_a 22.876516
_cell_length_b 5.135123
_cell_length_c 9.127651
_cell_angle_alpha 90.000000
_cell_angle_beta 139.039475
_cell_angle_gamma 90.000000
_cell_volume 702.907586
_symmetry_space_group_name_H-M "P 21"
_symmetry_group_IT_number 4
_symmetry_cell_setting 'monoclinic'
loop_
_space_group_symop_operation_xyz
x,y,z
-x,1/2+y,-z
loop_
_atom_site_type_symbol
_atom_site_label
_atom_site_fract_x
_atom_site_fract_y
_atom_site_fract_z
Si Si1 0.991143 0.734280 0.081450
Si Si2 0.801497 0.681910 0.861275
Si Si3 0.262395 0.656844 0.410453
Si Si4 0.171757 0.609372 0.536181
Si Si5 0.557921 0.244273 0.080366
Si Si6 0.260024 0.316956 0.947201
Si Si7 0.671062 0.319484 0.019520
O O1 0.899874 0.757959 0.996756
O O2 0.985144 0.506537 0.950255
O O3 0.067310 0.676086 0.347359
O O4 0.775598 0.394952 0.757590
O O5 0.729806 0.896663 0.672024
O O6 0.800182 0.710948 0.034470
O O7 0.193582 0.565955 0.406412
O O8 0.358681 0.728393 0.653619
O O9 0.195439 0.357756 0.682498
O O10 0.236198 0.843204 0.711618
O O11 0.588337 0.260383 0.968931
O O12 0.502949 0.494298 0.021198
O O13 0.315710 0.587452 0.075937
O O14 0.338048 0.102186 0.069765
#
# Coordination Sequence:
#
# PCOD8046491 Si02
#       7
#     2   2   2   2   2   2   2
#     4  12  23  37  59  90 125 159 213 265 306 349
#     4  12  23  41  60  94 124 172 203 259 308 371
#     4  11  23  39  67  88 127 156 210 251 320 370
#     4   9  22  38  62  85 118 169 208 248 304 356
#     4  11  22  38  67 100 118 147 206 264 303 367
#     4  10  22  39  62  85 125 172 208 237 311 377
#     4   9  21  38  63  86 119 161 198 250 306 368
#
# _framework density 19.917268
#
# number of rings (size 3 to 8) (size 9 to 14) (size 15 to 20)
#    0.857    0.571    2.857    2.571    6.000    0.000 
#    2.571    0.000    0.000   17.143    0.000    0.000 
#    0.000    0.000    0.000    0.000    0.000    0.000 
#
# Total GULP energy -173473.704222 kJ/mol
# GULP energy per Si atom -12390.978873 kJ/mol
# Density = 1.987194 g / cm^3
# Si number density = 19.917268 Si / 1000 Ang^3
#
#
#
# Elastic Constant Matrix: (Units=GPa)
#
#
# Indices 1 2 3 4 5 6 
#
# 1 140.0790 54.7547 38.7628 0.0000 -0.3805 0.0000
# 2 54.7547 125.2240 23.8608 0.0000 -5.2317 0.0000
# 3 38.7628 23.8608 57.9428 0.0000 6.6473 0.0000
# 4 0.0000 0.0000 0.0000 29.2547 0.0000 -1.8350
# 5 -0.3805 -5.2317 6.6473 0.0000 32.0004 0.0000
# 6 0.0000 0.0000 0.0000 -1.8350 0.0000 29.7746
#
#
#
# Elastic Compliance Matrix: (Units=1/GPa)
#
#
# Indices 1 2 3 4 5 6 
#
# 1 0.009905 -0.003282 -0.005355 0.000000 0.000694 0.000000
# 2 -0.003282 0.009908 -0.002117 0.000000 0.002021 0.000000
# 3 -0.005355 -0.002117 0.022290 0.000000 -0.005040 0.000000
# 4 0.000000 0.000000 0.000000 0.034315 0.000000 0.002115
# 5 0.000694 0.002021 -0.005040 0.000000 0.032635 0.000000
# 6 0.000000 0.000000 0.000000 0.002115 0.000000 0.033716
#
#
# Mechanical properties :
#
#
# Convention : Reuss Voigt Hill
#
# Bulk Modulus (GPa) = 48.54838 62.00028 55.27433
# Shear Modulus (GPa) = 29.21545 31.93043 30.57294
#
# Velocity S-wave (km/s) = 3.83409 4.00828 3.92215
# Velocity P-wave (km/s) = 6.63538 7.25384 6.95149
#
# Compressibility (1/GPa) = 0.02059801
#
# Stress axis : x y z
#
# Youngs Moduli (GPa) = 100.95648 100.92427 44.86255
#
# Poissons Ratio (x) = 0.33122 0.24022
# Poissons Ratio (y) = 0.33132 0.09496
# Poissons Ratio (z) = 0.54058 0.21361
#
# Static dielectric constant tensor:
#      x y z
#    x 3.605000 0.000000 0.025000 
#    y 0.000000 3.661650 0.000000 
#    z 0.025000 0.000000 3.419310 
# 
# 
# High freq. dielectric constant tensor:
#      x y z
#    x 1.772880 0.000000 0.003300 
#    y 0.000000 1.792160 0.000000 
#    z 0.003300 0.000000 1.750410 
# 
# From -- ./inp_files/9802.got.cif
#   From: 2010.03.12/outbox.cif.g09.slc.cpg/sg4_5_cif.got.tgz:9802.got - 2010.03.31 09:31:35.
