data_PCOD8046202
_publ_section_title
;
Structure prediction by ZEFSAII (Michael W. Deem and Ramdas Pophale) SiO2 
 PCOD8046202
Probable space group: P 21
;
_chemical_formula_sum "Si O2"
_cell_formula_units_Z 14
_cell_length_a 7.189990
_cell_length_b 7.711637
_cell_length_c 10.506821
_cell_angle_alpha 90.000000
_cell_angle_beta 91.302747
_cell_angle_gamma 90.000000
_cell_volume 582.416845
_symmetry_space_group_name_H-M "P 21"
_symmetry_group_IT_number 4
_symmetry_cell_setting 'monoclinic'
loop_
_space_group_symop_operation_xyz
x,y,z
-x,1/2+y,-z
loop_
_atom_site_type_symbol
_atom_site_label
_atom_site_fract_x
_atom_site_fract_y
_atom_site_fract_z
Si Si1 0.647160 0.291830 0.836045
Si Si2 0.902722 0.675349 0.431445
Si Si3 0.981256 0.601904 0.156459
Si Si4 0.270983 0.336230 0.219304
Si Si5 0.345348 0.017694 0.389637
Si Si6 0.623172 0.622654 0.995736
Si Si7 0.282948 0.522495 0.465630
O O1 0.856760 0.239791 0.873854
O O2 0.631009 0.332408 0.682895
O O3 0.571294 0.458209 0.909983
O O4 0.513593 0.136717 0.884253
O O5 0.799928 0.509336 0.495770
O O6 0.807816 0.847609 0.481917
O O7 0.871456 0.662946 0.280486
O O8 0.124272 0.669680 0.464668
O O9 0.067366 0.409012 0.176346
O O10 0.837114 0.601284 0.039608
O O11 0.393331 0.296086 0.094830
O O12 0.350941 0.482568 0.319806
O O13 0.252650 0.152112 0.289500
O O14 0.545346 0.083583 0.445046
#
# Coordination Sequence:
#
# PCOD8046202 Si02
#       7
#     2   2   2   2   2   2   2
#     4  11  24  40  65  96 128 169 226 268 321 404
#     4  10  22  38  61  93 124 163 219 266 325 398
#     4  11  22  40  65  91 125 169 215 274 332 379
#     4   9  22  40  59  91 126 165 221 262 314 396
#     4  10  22  41  61  91 130 169 214 274 331 388
#     4  11  23  42  63  92 133 175 216 272 326 380
#     4  10  21  39  62  90 128 168 211 272 331 385
#
# _framework density 24.037766999999999
#
# number of rings (size 3 to 8) (size 9 to 14) (size 15 to 20)
#    0.000    1.714    0.000    3.429    0.000   10.286 
#    0.000   18.571    0.000    0.000    0.000    0.000 
#    0.000    0.000    0.000    0.000    0.000    0.000 
#
# Total GULP energy -173510.417482 kJ/mol
# GULP energy per Si atom -12393.601249 kJ/mol
# Density = 2.398306 g / cm^3
# Si number density = 24.037767 Si / 1000 Ang^3
#
#
#
# Elastic Constant Matrix: (Units=GPa)
#
#
# Indices 1 2 3 4 5 6 
#
# 1 95.5500 10.1429 39.7952 0.0000 -1.7090 0.0000
# 2 10.1429 54.2547 19.7975 0.0000 -3.3029 0.0000
# 3 39.7952 19.7975 97.2009 0.0000 -19.4154 0.0000
# 4 0.0000 0.0000 0.0000 25.5967 0.0000 -2.3492
# 5 -1.7090 -3.3029 -19.4154 0.0000 42.5237 0.0000
# 6 0.0000 0.0000 0.0000 -2.3492 0.0000 29.8889
#
#
#
# Elastic Compliance Matrix: (Units=1/GPa)
#
#
# Indices 1 2 3 4 5 6 
#
# 1 0.012792 -0.000492 -0.005548 0.000000 -0.002057 0.000000
# 2 -0.000492 0.019935 -0.003910 0.000000 -0.000257 0.000000
# 3 -0.005548 -0.003910 0.014580 0.000000 0.006130 0.000000
# 4 0.000000 0.000000 0.000000 0.039351 0.000000 0.003093
# 5 -0.002057 -0.000257 0.006130 0.000000 0.026213 0.000000
# 6 0.000000 0.000000 0.000000 0.003093 0.000000 0.033700
#
#
# Mechanical properties :
#
#
# Convention : Reuss Voigt Hill
#
# Bulk Modulus (GPa) = 36.48741 42.94187 39.71464
# Shear Modulus (GPa) = 28.47276 31.41987 29.94632
#
# Velocity S-wave (km/s) = 3.44539 3.61931 3.53342
# Velocity P-wave (km/s) = 5.57134 5.94718 5.76233
#
# Compressibility (1/GPa) = 0.02740671
#
# Stress axis : x y z
#
# Youngs Moduli (GPa) = 78.17548 50.16369 68.58652
#
# Poissons Ratio (x) = 0.02469 0.38050
# Poissons Ratio (y) = 0.03848 0.26817
# Poissons Ratio (z) = 0.43370 0.19614
#
# Static dielectric constant tensor:
#      x y z
#    x 4.043150 0.000000 -0.228260 
#    y 0.000000 4.378710 0.000000 
#    z -0.228260 0.000000 4.873110 
# 
# 
# High freq. dielectric constant tensor:
#      x y z
#    x 1.930740 0.000000 -0.015050 
#    y 0.000000 1.962240 0.000000 
#    z -0.015050 0.000000 1.971170 
# 
# From -- ./inp_files/2395.got.cif
#   From: 2010.03.12/outbox.cif.g09.slc.cpg/sg4_2_cif.got.tgz:2395.got - 2010.03.31 09:31:35.
