data_PCOD8046139
_publ_section_title
;
Structure prediction by ZEFSAII (Michael W. Deem and Ramdas Pophale) SiO2 
 PCOD8046139
Probable space group: P 21
;
_chemical_formula_sum "Si O2"
_cell_formula_units_Z 16
_cell_length_a 11.278517
_cell_length_b 9.404474
_cell_length_c 19.731906
_cell_angle_alpha 90.000000
_cell_angle_beta 159.028630
_cell_angle_gamma 90.000000
_cell_volume 749.064044
_symmetry_space_group_name_H-M "P 21"
_symmetry_group_IT_number 4
_symmetry_cell_setting 'monoclinic'
loop_
_space_group_symop_operation_xyz
x,y,z
-x,1/2+y,-z
loop_
_atom_site_type_symbol
_atom_site_label
_atom_site_fract_x
_atom_site_fract_y
_atom_site_fract_z
Si Si1 0.299169 0.009500 0.599793
Si Si2 0.607616 0.342848 0.227675
Si Si3 0.450386 0.519608 0.778275
Si Si4 0.365128 0.328317 0.613307
Si Si5 0.760717 0.449094 0.580722
Si Si6 0.212042 0.046821 0.905538
Si Si7 0.455289 0.727865 0.433928
Si Si8 0.442109 0.337804 0.994573
O O1 0.374402 0.173653 0.651378
O O2 0.398755 0.948224 0.579611
O O3 0.916750 0.965050 0.401921
O O4 0.505585 0.941230 0.770974
O O5 0.550357 0.188497 0.229211
O O6 0.382898 0.378845 0.042222
O O7 0.980915 0.371583 0.400217
O O8 0.558265 0.440159 0.765765
O O9 0.688301 0.482447 0.968194
O O10 0.546953 0.316335 0.637667
O O11 0.759033 0.616157 0.602185
O O12 0.519058 0.347140 0.494637
O O13 0.134067 0.391927 0.785053
O O14 0.863472 0.125985 0.726025
O O15 0.229518 0.912733 0.862377
O O16 0.471421 0.165303 0.013224
#
# Coordination Sequence:
#
# PCOD8046139 Si02
#       8
#     2   2   2   2   2   2   2   2
#     4   9  17  35  56  84 113 143 192 244 282 337
#     4   9  19  33  59  89 111 142 197 245 287 335
#     4   9  17  35  58  81 111 151 186 243 286 336
#     4   9  19  35  57  81 118 152 186 236 299 347
#     4  10  21  39  58  82 122 156 195 242 293 351
#     4  10  21  37  58  89 118 155 199 240 295 346
#     4  10  23  37  55  88 122 159 192 236 301 360
#     4  10  21  37  59  86 117 152 197 252 277 346
#
# _framework density 21.35999
#
# number of rings (size 3 to 8) (size 9 to 14) (size 15 to 20)
#    0.000    2.500    1.250    0.000    3.500    2.000 
#    9.000    7.500    0.000    1.500    0.000    0.000 
#    0.000    0.000    0.000    0.000    0.000    0.000 
#
# Total GULP energy -198218.953031 kJ/mol
# GULP energy per Si atom -12388.684564 kJ/mol
# Density = 2.131137 g / cm^3
# Si number density = 21.359990 Si / 1000 Ang^3
#
#
#
# Elastic Constant Matrix: (Units=GPa)
#
#
# Indices 1 2 3 4 5 6 
#
# 1 82.9063 32.5984 8.4322 0.0000 -0.8018 0.0000
# 2 32.5984 50.4035 6.3500 0.0000 -6.2816 0.0000
# 3 8.4322 6.3500 22.2090 0.0000 -11.0387 0.0000
# 4 0.0000 0.0000 0.0000 26.5591 0.0000 -7.9823
# 5 -0.8018 -6.2816 -11.0387 0.0000 26.4111 0.0000
# 6 0.0000 0.0000 0.0000 -7.9823 0.0000 56.1548
#
#
#
# Elastic Compliance Matrix: (Units=1/GPa)
#
#
# Indices 1 2 3 4 5 6 
#
# 1 0.016785 -0.010706 -0.005458 0.000000 -0.004318 0.000000
# 2 -0.010706 0.027610 -0.000918 0.000000 0.005858 0.000000
# 3 -0.005458 -0.000918 0.059539 0.000000 0.024501 0.000000
# 4 0.000000 0.000000 0.000000 0.039332 0.000000 0.005591
# 5 -0.004318 0.005858 0.024501 0.000000 0.049365 0.000000
# 6 0.000000 0.000000 0.000000 0.005591 0.000000 0.018603
#
#
# Mechanical properties :
#
#
# Convention : Reuss Voigt Hill
#
# Bulk Modulus (GPa) = 14.33268 27.80888 21.07078
# Shear Modulus (GPa) = 18.61131 29.03420 23.82276
#
# Velocity S-wave (km/s) = 2.95501 3.69084 3.34323
# Velocity P-wave (km/s) = 4.28572 5.58663 4.97885
#
# Compressibility (1/GPa) = 0.06977063
#
# Stress axis : x y z
#
# Youngs Moduli (GPa) = 59.57796 36.21916 16.79567
#
# Poissons Ratio (x) = 0.38776 0.09167
# Poissons Ratio (y) = 0.63784 0.01541
# Poissons Ratio (z) = 0.32516 0.03324
#
# Static dielectric constant tensor:
#      x y z
#    x 4.019320 0.000000 -0.096090 
#    y 0.000000 4.054350 0.000000 
#    z -0.096090 0.000000 3.575700 
# 
# 
# High freq. dielectric constant tensor:
#      x y z
#    x 1.838650 0.000000 -0.009660 
#    y 0.000000 1.836620 0.000000 
#    z -0.009660 0.000000 1.809390 
# 
# From -- ./inp_files/15710.got.cif
#   From: 2010.03.12/outbox.cif.g09.slc.cpg/sg4_8_cif.got.tgz:15710.got - 2010.03.31 09:31:35.
