data_PCOD8046764
_publ_section_title
;
Structure prediction by ZEFSAII (Michael W. Deem and Ramdas Pophale) SiO2 
 PCOD8046764
Probable space group: P 21
;
_chemical_formula_sum "Si O2"
_cell_formula_units_Z 14
_cell_length_a 19.782266
_cell_length_b 5.776662
_cell_length_c 4.797422
_cell_angle_alpha 90.000000
_cell_angle_beta 91.282581
_cell_angle_gamma 90.000000
_cell_volume 548.090274
_symmetry_space_group_name_H-M "P 21"
_symmetry_group_IT_number 4
_symmetry_cell_setting 'monoclinic'
loop_
_space_group_symop_operation_xyz
x,y,z
-x,1/2+y,-z
loop_
_atom_site_type_symbol
_atom_site_label
_atom_site_fract_x
_atom_site_fract_y
_atom_site_fract_z
Si Si1 0.647791 0.926930 0.692230
Si Si2 0.170102 0.043497 0.010234
Si Si3 0.924290 0.921268 0.777762
Si Si4 0.937055 0.212728 0.286148
Si Si5 0.504603 0.826223 0.653764
Si Si6 0.364898 0.723430 0.814877
Si Si7 0.741686 0.546104 0.500913
O O1 0.578234 0.813587 0.810523
O O2 0.709740 0.750847 0.685967
O O3 0.632230 0.993779 0.372812
O O4 0.665574 0.149628 0.888014
O O5 0.212430 0.139097 0.749996
O O6 0.111944 0.884514 0.880851
O O7 0.138346 0.251351 0.187643
O O8 0.215247 0.912721 0.252726
O O9 0.901400 0.129649 0.569674
O O10 0.949110 0.996989 0.083597
O O11 0.989554 0.812351 0.630428
O O12 0.498489 0.585908 0.480773
O O13 0.440730 0.826602 0.861156
O O14 0.316197 0.896223 0.647049
#
# Coordination Sequence:
#
# PCOD8046764 Si02
#       7
#     2   2   2   2   2   2   2
#     4  11  25  46  76 110 154 205 264 328 394 473
#     4  12  28  48  78 116 154 206 252 320 396 476
#     4  12  26  47  79 115 153 195 257 322 386 463
#     4  12  26  47  79 115 153 195 257 322 386 463
#     4  10  22  46  76 122 160 206 278 348 412 480
#     4  11  25  46  76 110 154 205 264 328 394 473
#     4  12  26  50  74 108 164 200 256 314 398 482
#
# _framework density 25.543236
#
# number of rings (size 3 to 8) (size 9 to 14) (size 15 to 20)
#    0.000    0.571    2.857    4.286    2.000    9.143 
#    2.571    0.000    0.000    0.000    0.000    0.000 
#    0.000    0.000    0.000    0.000    0.000    0.000 
#
# Total GULP energy -173461.879760 kJ/mol
# GULP energy per Si atom -12390.134269 kJ/mol
# Density = 2.548510 g / cm^3
# Si number density = 25.543236 Si / 1000 Ang^3
#
#
#
# Elastic Constant Matrix: (Units=GPa)
#
#
# Indices 1 2 3 4 5 6 
#
# 1 167.1540 36.6869 50.5672 0.0000 -24.5350 0.0000
# 2 36.6869 91.4601 24.5423 0.0000 -18.6846 0.0000
# 3 50.5672 24.5423 130.1203 0.0000 -8.1489 0.0000
# 4 0.0000 0.0000 0.0000 53.0127 0.0000 -6.4025
# 5 -24.5350 -18.6846 -8.1489 0.0000 18.7050 0.0000
# 6 0.0000 0.0000 0.0000 -6.4025 0.0000 26.9253
#
#
#
# Elastic Compliance Matrix: (Units=1/GPa)
#
#
# Indices 1 2 3 4 5 6 
#
# 1 0.008216 -0.000815 -0.002483 0.000000 0.008881 0.000000
# 2 -0.000815 0.014231 -0.001587 0.000000 0.012455 0.000000
# 3 -0.002483 -0.001587 0.008889 0.000000 -0.000970 0.000000
# 4 0.000000 0.000000 0.000000 0.019421 0.000000 0.004618
# 5 0.008881 0.012455 -0.000970 0.000000 0.077130 0.000000
# 6 0.000000 0.000000 0.000000 0.004618 0.000000 0.038238
#
#
# Mechanical properties :
#
#
# Convention : Reuss Voigt Hill
#
# Bulk Modulus (GPa) = 46.37149 68.03637 57.20393
# Shear Modulus (GPa) = 27.30988 38.19112 32.75050
#
# Velocity S-wave (km/s) = 3.27335 3.87092 3.58461
# Velocity P-wave (km/s) = 5.69912 6.83171 6.29096
#
# Compressibility (1/GPa) = 0.02156497
#
# Stress axis : x y z
#
# Youngs Moduli (GPa) = 121.71180 70.26874 112.50122
#
# Poissons Ratio (x) = 0.05727 0.27934
# Poissons Ratio (y) = 0.09920 0.17859
# Poissons Ratio (z) = 0.30221 0.11155
#
# Static dielectric constant tensor:
#      x y z
#    x 4.937240 0.000000 -0.133200 
#    y 0.000000 4.431480 0.000000 
#    z -0.133200 0.000000 4.829820 
# 
# 
# High freq. dielectric constant tensor:
#      x y z
#    x 2.039260 0.000000 -0.001490 
#    y 0.000000 2.005590 0.000000 
#    z -0.001490 0.000000 2.026470 
# 
# From -- ./inp_files/4308.got.cif
#   From: 2010.03.12/outbox.cif.g09.slc.cpg/sg4_3_cif.got.tgz:4308.got - 2010.03.31 09:31:35.
