data_PCOD8046562
_publ_section_title
;
Structure prediction by ZEFSAII (Michael W. Deem and Ramdas Pophale) SiO2 
 PCOD8046562
Probable space group: P 21
;
_chemical_formula_sum "Si O2"
_cell_formula_units_Z 16
_cell_length_a 16.379831
_cell_length_b 8.808481
_cell_length_c 8.773010
_cell_angle_alpha 90.000000
_cell_angle_beta 37.288387
_cell_angle_gamma 90.000000
_cell_volume 766.845371
_symmetry_space_group_name_H-M "P 21"
_symmetry_group_IT_number 4
_symmetry_cell_setting 'monoclinic'
loop_
_space_group_symop_operation_xyz
x,y,z
-x,1/2+y,-z
loop_
_atom_site_type_symbol
_atom_site_label
_atom_site_fract_x
_atom_site_fract_y
_atom_site_fract_z
Si Si1 0.361739 0.932010 0.390255
Si Si2 0.591804 0.119170 0.189403
Si Si3 0.117640 0.439434 0.917244
Si Si4 0.610622 0.430066 0.007278
Si Si5 0.882918 0.443049 0.775047
Si Si6 0.384679 0.615984 0.494317
Si Si7 0.879527 0.581243 0.099346
Si Si8 0.103538 0.592167 0.252633
O O1 0.398912 0.932705 0.159069
O O2 0.324771 0.763632 0.500668
O O3 0.490677 0.986342 0.294476
O O4 0.233431 0.039634 0.608403
O O5 0.578299 0.157572 0.387626
O O6 0.554805 0.270218 0.151442
O O7 0.742429 0.063768 0.926203
O O8 0.271249 0.486194 0.656587
O O9 0.105429 0.260125 0.932974
O O10 0.067075 0.498682 0.155815
O O11 0.023078 0.509546 0.927987
O O12 0.763750 0.458115 0.830070
O O13 0.518023 0.563751 0.209301
O O14 0.923306 0.268713 0.741103
O O15 0.011735 0.536327 0.527195
O O16 0.831948 0.513928 0.008608
#
# Coordination Sequence:
#
# PCOD8046562 Si02
#       8
#     2   2   2   2   2   2   2   2
#     4  12  24  40  64  94 128 164 211 265 319 378
#     4  10  22  42  63  90 127 168 212 257 316 382
#     4  11  24  42  64  91 124 162 211 263 320 384
#     4  11  24  41  62  92 128 165 210 262 316 378
#     4  11  23  40  65  92 127 169 213 262 320 383
#     4  11  23  41  66  92 126 167 211 262 319 386
#     4  12  24  41  65  91 125 167 210 262 321 386
#     4  10  22  41  63  92 125 164 212 263 317 379
#
# _framework density 20.864702999999999
#
# number of rings (size 3 to 8) (size 9 to 14) (size 15 to 20)
#    0.000    1.000    0.000    8.250    0.000    8.000 
#    0.000    1.250    0.000    0.000    0.000    0.000 
#    0.000    0.000    0.000    0.000    0.000    0.000 
#
# Total GULP energy -198545.711956 kJ/mol
# GULP energy per Si atom -12409.106997 kJ/mol
# Density = 2.081721 g / cm^3
# Si number density = 20.864703 Si / 1000 Ang^3
#
#
#
# Elastic Constant Matrix: (Units=GPa)
#
#
# Indices 1 2 3 4 5 6 
#
# 1 66.8963 31.9472 39.6834 0.0000 -1.0567 0.0000
# 2 31.9472 151.3608 47.8844 0.0000 -3.3632 0.0000
# 3 39.6834 47.8844 117.3525 0.0000 13.7358 0.0000
# 4 0.0000 0.0000 0.0000 19.9352 0.0000 11.0875
# 5 -1.0567 -3.3632 13.7358 0.0000 29.3000 0.0000
# 6 0.0000 0.0000 0.0000 11.0875 0.0000 29.5078
#
#
#
# Elastic Compliance Matrix: (Units=1/GPa)
#
#
# Indices 1 2 3 4 5 6 
#
# 1 0.019684 -0.002124 -0.006184 0.000000 0.003365 0.000000
# 2 -0.002124 0.007986 -0.002792 0.000000 0.002149 0.000000
# 3 -0.006184 -0.002792 0.012501 0.000000 -0.006404 0.000000
# 4 0.000000 0.000000 0.000000 0.063415 0.000000 -0.023828
# 5 0.003365 0.002149 -0.006404 0.000000 0.037500 0.000000
# 6 0.000000 0.000000 0.000000 -0.023828 0.000000 0.042843
#
#
# Mechanical properties :
#
#
# Convention : Reuss Voigt Hill
#
# Bulk Modulus (GPa) = 55.63999 63.84886 59.74442
# Shear Modulus (GPa) = 23.57178 30.15491 26.86335
#
# Velocity S-wave (km/s) = 3.36481 3.80578 3.59207
# Velocity P-wave (km/s) = 6.46691 7.06964 6.77498
#
# Compressibility (1/GPa) = 0.01797268
#
# Stress axis : x y z
#
# Youngs Moduli (GPa) = 50.80273 125.21940 79.99248
#
# Poissons Ratio (x) = 0.26592 0.49464
# Poissons Ratio (y) = 0.10789 0.22334
# Poissons Ratio (z) = 0.31414 0.34961
#
# Static dielectric constant tensor:
#      x y z
#    x 3.751910 0.000000 0.029600 
#    y 0.000000 3.790400 0.000000 
#    z 0.029600 0.000000 3.778250 
# 
# 
# High freq. dielectric constant tensor:
#      x y z
#    x 1.821620 0.000000 0.000350 
#    y 0.000000 1.826340 0.000000 
#    z 0.000350 0.000000 1.826450 
# 
# From -- ./inp_files/7821.got.cif
#   From: 2010.03.12/outbox.cif.g09.slc.cpg/sg4_4_cif.got.tgz:7821.got - 2010.03.31 09:31:35.
