data_PCOD8046337
_publ_section_title
;
Structure prediction by ZEFSAII (Michael W. Deem and Ramdas Pophale) SiO2 
 PCOD8046337
Probable space group: P 21
;
_chemical_formula_sum "Si O2"
_cell_formula_units_Z 16
_cell_length_a 11.250821
_cell_length_b 9.005006
_cell_length_c 7.682293
_cell_angle_alpha 90.000000
_cell_angle_beta 67.620958
_cell_angle_gamma 90.000000
_cell_volume 719.702600
_symmetry_space_group_name_H-M "P 21"
_symmetry_group_IT_number 4
_symmetry_cell_setting 'monoclinic'
loop_
_space_group_symop_operation_xyz
x,y,z
-x,1/2+y,-z
loop_
_atom_site_type_symbol
_atom_site_label
_atom_site_fract_x
_atom_site_fract_y
_atom_site_fract_z
Si Si1 0.350090 0.716400 0.721574
Si Si2 0.901405 0.392127 0.122770
Si Si3 0.530621 0.802560 0.146988
Si Si4 0.529175 0.484948 0.498040
Si Si5 0.356564 0.560765 0.089304
Si Si6 0.065913 0.499860 0.336675
Si Si7 0.961416 0.814192 0.308609
Si Si8 0.744609 0.676395 0.251176
O O1 0.207920 0.775607 0.750639
O O2 0.397829 0.584534 0.562228
O O3 0.449837 0.858476 0.662696
O O4 0.344811 0.647074 0.914646
O O5 0.847157 0.557403 0.125124
O O6 0.014050 0.396086 0.205901
O O7 0.947731 0.347554 0.905866
O O8 0.457997 0.900627 0.328551
O O9 0.436288 0.665702 0.171763
O O10 0.669884 0.745749 0.130653
O O11 0.560850 0.908737 0.967164
O O12 0.644811 0.601599 0.438348
O O13 0.218084 0.520908 0.241241
O O14 0.027510 0.434096 0.545446
O O15 0.996356 0.656758 0.371271
O O16 0.815543 0.807503 0.317262
#
# Coordination Sequence:
#
# PCOD8046337 Si02
#       8
#     2   2   2   2   2   2   2   2
#     4  10  21  43  69 100 142 181 232 295 353 434
#     4  10  23  47  76  99 145 189 243 297 358 426
#     4  11  25  42  67 102 140 183 230 289 359 427
#     4  10  21  41  69 100 130 182 230 275 362 422
#     4  11  26  43  67 102 147 179 238 291 360 425
#     4  11  26  47  71 110 136 192 246 297 362 422
#     4  11  25  47  71 104 142 189 245 298 355 427
#     4  10  23  44  68 101 142 183 234 292 357 427
#
# _framework density 22.231407000000001
#
# number of rings (size 3 to 8) (size 9 to 14) (size 15 to 20)
#    0.000    1.500    2.500    0.750    3.500    9.000 
#    6.750    0.000    0.000    0.000    0.000    0.000 
#    0.000    0.000    0.000    0.000    0.000    0.000 
#
# Total GULP energy -198298.106252 kJ/mol
# GULP energy per Si atom -12393.631641 kJ/mol
# Density = 2.218081 g / cm^3
# Si number density = 22.231407 Si / 1000 Ang^3
#
#
#
# Elastic Constant Matrix: (Units=GPa)
#
#
# Indices 1 2 3 4 5 6 
#
# 1 107.1473 61.2292 62.2598 0.0000 1.7293 0.0000
# 2 61.2292 115.2327 58.8084 0.0000 -5.0867 0.0000
# 3 62.2598 58.8084 91.6370 0.0000 -18.4792 0.0000
# 4 0.0000 0.0000 0.0000 41.1904 0.0000 3.7283
# 5 1.7293 -5.0867 -18.4792 0.0000 24.3726 0.0000
# 6 0.0000 0.0000 0.0000 3.7283 0.0000 36.2198
#
#
#
# Elastic Compliance Matrix: (Units=1/GPa)
#
#
# Indices 1 2 3 4 5 6 
#
# 1 0.019490 -0.004295 -0.012920 0.000000 -0.012076 0.000000
# 2 -0.004295 0.014232 -0.006557 0.000000 -0.001697 0.000000
# 3 -0.012920 -0.006557 0.028105 0.000000 0.020857 0.000000
# 4 0.000000 0.000000 0.000000 0.024506 0.000000 -0.002522
# 5 -0.012076 -0.001697 0.020857 0.000000 0.057346 0.000000
# 6 0.000000 0.000000 0.000000 -0.002522 0.000000 0.027869
#
#
# Mechanical properties :
#
#
# Convention : Reuss Voigt Hill
#
# Bulk Modulus (GPa) = 70.02225 75.40131 72.71178
# Shear Modulus (GPa) = 22.33593 29.13786 25.73690
#
# Velocity S-wave (km/s) = 3.17314 3.62423 3.40616
# Velocity P-wave (km/s) = 6.70749 7.17660 6.94601
#
# Compressibility (1/GPa) = 0.01428117
#
# Stress axis : x y z
#
# Youngs Moduli (GPa) = 51.30839 70.26437 35.58055
#
# Poissons Ratio (x) = 0.30180 0.45972
# Poissons Ratio (y) = 0.22038 0.23331
# Poissons Ratio (z) = 0.66293 0.46075
#
# Static dielectric constant tensor:
#      x y z
#    x 4.059960 0.000000 -0.221810 
#    y 0.000000 4.466570 0.000000 
#    z -0.221810 0.000000 4.061560 
# 
# 
# High freq. dielectric constant tensor:
#      x y z
#    x 1.863030 0.000000 -0.015370 
#    y 0.000000 1.895440 0.000000 
#    z -0.015370 0.000000 1.875850 
# 
# From -- ./inp_files/8018.got.cif
#   From: 2010.03.12/outbox.cif.g09.slc.cpg/sg4_5_cif.got.tgz:8018.got - 2010.03.31 09:31:35.
