data_PCOD8046707
_publ_section_title
;
Structure prediction by ZEFSAII (Michael W. Deem and Ramdas Pophale) SiO2 
 PCOD8046707
Probable space group: P 21
;
_chemical_formula_sum "Si O2"
_cell_formula_units_Z 16
_cell_length_a 8.490631
_cell_length_b 9.478233
_cell_length_c 9.264010
_cell_angle_alpha 90.000000
_cell_angle_beta 65.973584
_cell_angle_gamma 90.000000
_cell_volume 680.937610
_symmetry_space_group_name_H-M "P 21"
_symmetry_group_IT_number 4
_symmetry_cell_setting 'monoclinic'
loop_
_space_group_symop_operation_xyz
x,y,z
-x,1/2+y,-z
loop_
_atom_site_type_symbol
_atom_site_label
_atom_site_fract_x
_atom_site_fract_y
_atom_site_fract_z
Si Si1 0.627143 0.493430 0.264249
Si Si2 0.910666 0.683170 0.067838
Si Si3 0.274697 0.970693 0.471960
Si Si4 0.445069 0.082196 0.149416
Si Si5 0.742732 0.177383 0.228948
Si Si6 0.304753 0.656172 0.428786
Si Si7 0.931728 0.056220 0.716340
Si Si8 0.326741 0.355132 0.023789
O O1 0.635141 0.549948 0.427140
O O2 0.642755 0.326283 0.261979
O O3 0.442300 0.557939 0.289940
O O4 0.783055 0.547936 0.104550
O O5 0.785638 0.818754 0.080830
O O6 0.056840 0.681221 0.890406
O O7 0.998562 0.673324 0.193609
O O8 0.362075 0.819360 0.407752
O O9 0.295723 0.068497 0.324392
O O10 0.077857 0.953162 0.596771
O O11 0.635095 0.090781 0.152335
O O12 0.383087 0.205854 0.070306
O O13 0.486088 0.933567 0.054731
O O14 0.734530 0.108734 0.391645
O O15 0.135772 0.646323 0.393062
O O16 0.793304 0.949229 0.831044
#
# Coordination Sequence:
#
# PCOD8046707 Si02
#       8
#     2   2   2   2   2   2   2   2
#     4  10  22  44  72 102 141 189 234 306 353 435
#     4  11  24  46  74  98 153 184 242 299 366 430
#     4  10  24  44  69 107 141 184 246 290 369 432
#     4  12  27  47  73 112 149 196 249 302 370 440
#     4  11  24  44  73 109 143 190 242 300 371 435
#     4  11  23  47  72 104 146 188 242 303 360 437
#     4  11  26  49  72 109 145 192 244 307 363 437
#     4  12  28  49  73 111 148 199 249 303 366 442
#
# _framework density 23.497017
#
# number of rings (size 3 to 8) (size 9 to 14) (size 15 to 20)
#    0.000    1.000    2.500    3.750    8.750    0.000 
#    4.500    0.000    0.000    0.000    0.000    0.000 
#    0.000    0.000    0.000    0.000    0.000    0.000 
#
# Total GULP energy -198219.840711 kJ/mol
# GULP energy per Si atom -12388.740044 kJ/mol
# Density = 2.344354 g / cm^3
# Si number density = 23.497017 Si / 1000 Ang^3
#
#
#
# Elastic Constant Matrix: (Units=GPa)
#
#
# Indices 1 2 3 4 5 6 
#
# 1 97.3087 28.8326 43.4170 0.0000 3.8719 0.0000
# 2 28.8326 87.6516 41.8252 0.0000 -0.0561 0.0000
# 3 43.4170 41.8252 98.9208 0.0000 -14.9483 0.0000
# 4 0.0000 0.0000 0.0000 35.7912 0.0000 -1.7168
# 5 3.8719 -0.0561 -14.9483 0.0000 41.7092 0.0000
# 6 0.0000 0.0000 0.0000 -1.7168 0.0000 43.7754
#
#
#
# Elastic Compliance Matrix: (Units=1/GPa)
#
#
# Indices 1 2 3 4 5 6 
#
# 1 0.013447 -0.001719 -0.005671 0.000000 -0.003283 0.000000
# 2 -0.001719 0.014718 -0.005753 0.000000 -0.001882 0.000000
# 3 -0.005671 -0.005753 0.015974 0.000000 0.006244 0.000000
# 4 0.000000 0.000000 0.000000 0.027992 0.000000 0.001098
# 5 -0.003283 -0.001882 0.006244 0.000000 0.026516 0.000000
# 6 0.000000 0.000000 0.000000 0.001098 0.000000 0.022887
#
#
# Mechanical properties :
#
#
# Convention : Reuss Voigt Hill
#
# Bulk Modulus (GPa) = 56.01416 56.89231 56.45324
# Shear Modulus (GPa) = 32.51565 35.57559 34.04562
#
# Velocity S-wave (km/s) = 3.72401 3.89530 3.81062
# Velocity P-wave (km/s) = 6.51011 6.67055 6.59082
#
# Compressibility (1/GPa) = 0.01785263
#
# Stress axis : x y z
#
# Youngs Moduli (GPa) = 74.36617 67.94247 62.60105
#
# Poissons Ratio (x) = 0.11681 0.35502
# Poissons Ratio (y) = 0.12786 0.36014
# Poissons Ratio (z) = 0.42174 0.39087
#
# Static dielectric constant tensor:
#      x y z
#    x 4.403230 0.000000 0.098550 
#    y 0.000000 4.046950 0.000000 
#    z 0.098550 0.000000 4.399140 
# 
# 
# High freq. dielectric constant tensor:
#      x y z
#    x 1.936040 0.000000 0.000110 
#    y 0.000000 1.916980 0.000000 
#    z 0.000110 0.000000 1.939420 
# 
# From -- ./inp_files/5394.got.cif
#   From: 2010.03.12/outbox.cif.g09.slc.cpg/sg4_3_cif.got.tgz:5394.got - 2010.03.31 09:31:35.
