data_PCOD8046013
_publ_section_title
;
Structure prediction by ZEFSAII (Michael W. Deem and Ramdas Pophale) SiO2 
 PCOD8046013
Probable space group: P 21
;
_chemical_formula_sum "Si O2"
_cell_formula_units_Z 16
_cell_length_a 13.510476
_cell_length_b 11.885479
_cell_length_c 6.664085
_cell_angle_alpha 90.000000
_cell_angle_beta 45.083844
_cell_angle_gamma 90.000000
_cell_volume 757.787552
_symmetry_space_group_name_H-M "P 21"
_symmetry_group_IT_number 4
_symmetry_cell_setting 'monoclinic'
loop_
_space_group_symop_operation_xyz
x,y,z
-x,1/2+y,-z
loop_
_atom_site_type_symbol
_atom_site_label
_atom_site_fract_x
_atom_site_fract_y
_atom_site_fract_z
Si Si1 0.286537 0.470230 0.176616
Si Si2 0.127280 0.110261 0.828100
Si Si3 0.884816 0.744694 0.545779
Si Si4 0.664212 0.644596 0.130068
Si Si5 0.474248 0.938375 0.854654
Si Si6 0.510045 0.863083 0.398255
Si Si7 0.748194 0.386778 0.495891
Si Si8 0.103124 0.676555 0.542892
O O1 0.172286 0.371487 0.358222
O O2 0.389351 0.467889 0.217874
O O3 0.212825 0.591296 0.284443
O O4 0.380567 0.458156 0.840444
O O5 0.093680 0.207672 0.714850
O O6 0.269314 0.143731 0.742422
O O7 0.143240 0.989138 0.696294
O O8 0.001241 0.104300 0.167748
O O9 0.028668 0.740922 0.465102
O O10 0.782471 0.652358 0.790313
O O11 0.569490 0.536836 0.234338
O O12 0.561912 0.747226 0.231288
O O13 0.515197 0.844827 0.631480
O O14 0.344247 0.903698 0.174166
O O15 0.351579 0.883019 0.554510
O O16 0.828439 0.269977 0.410975
#
# Coordination Sequence:
#
# PCOD8046013 Si02
#       8
#     2   2   2   2   2   2   2   2
#     4  10  24  42  61  98 127 161 221 261 322 373
#     4  11  23  41  66  90 128 174 210 264 317 382
#     4  10  23  42  63  86 128 174 210 264 308 382
#     4  10  20  39  63  95 124 165 215 249 332 372
#     4  11  21  39  67  92 130 165 203 276 314 383
#     4  10  22  40  68  94 129 167 205 271 315 383
#     4  11  24  42  64  99 127 164 220 258 326 380
#     4  11  27  41  66  96 129 172 214 269 308 387
#
# _framework density 21.114097000000001
#
# number of rings (size 3 to 8) (size 9 to 14) (size 15 to 20)
#    0.000    1.500    2.500    1.500    3.500    3.000 
#    0.000    0.000    0.000    0.000    0.000    0.000 
#    0.000    0.000    0.000    0.000    0.000    0.000 
#
# Total GULP energy -198394.305471 kJ/mol
# GULP energy per Si atom -12399.644092 kJ/mol
# Density = 2.106604 g / cm^3
# Si number density = 21.114097 Si / 1000 Ang^3
#
#
#
# Elastic Constant Matrix: (Units=GPa)
#
#
# Indices 1 2 3 4 5 6 
#
# 1 97.5396 38.7505 53.3628 0.0000 -1.2982 0.0000
# 2 38.7505 88.1470 20.0465 0.0000 -10.7351 0.0000
# 3 53.3628 20.0465 79.4017 0.0000 12.3588 0.0000
# 4 0.0000 0.0000 0.0000 23.3666 0.0000 1.9698
# 5 -1.2982 -10.7351 12.3588 0.0000 33.2024 0.0000
# 6 0.0000 0.0000 0.0000 1.9698 0.0000 31.5340
#
#
#
# Elastic Compliance Matrix: (Units=1/GPa)
#
#
# Indices 1 2 3 4 5 6 
#
# 1 0.018874 -0.005157 -0.011929 0.000000 0.003511 0.000000
# 2 -0.005157 0.014405 -0.000918 0.000000 0.004797 0.000000
# 3 -0.011929 -0.000918 0.022251 0.000000 -0.009046 0.000000
# 4 0.000000 0.000000 0.000000 0.043023 0.000000 -0.002687
# 5 0.003511 0.004797 -0.009046 0.000000 0.035174 0.000000
# 6 0.000000 0.000000 0.000000 -0.002687 0.000000 0.031880
#
#
# Mechanical properties :
#
#
# Convention : Reuss Voigt Hill
#
# Bulk Modulus (GPa) = 51.22331 54.37866 52.80098
# Shear Modulus (GPa) = 24.02464 27.81582 25.92023
#
# Velocity S-wave (km/s) = 3.37686 3.63355 3.50755
# Velocity P-wave (km/s) = 6.28627 6.58894 6.43938
#
# Compressibility (1/GPa) = 0.01952236
#
# Stress axis : x y z
#
# Youngs Moduli (GPa) = 52.98345 69.42219 44.94217
#
# Poissons Ratio (x) = 0.35799 0.53611
# Poissons Ratio (y) = 0.27322 0.04125
# Poissons Ratio (z) = 0.63204 0.06372
#
# Static dielectric constant tensor:
#      x y z
#    x 3.841440 0.000000 0.017580 
#    y 0.000000 3.626500 0.000000 
#    z 0.017580 0.000000 3.853000 
# 
# 
# High freq. dielectric constant tensor:
#      x y z
#    x 1.833140 0.000000 0.004340 
#    y 0.000000 1.820990 0.000000 
#    z 0.004340 0.000000 1.830550 
# 
# From -- ./inp_files/1385.got.cif
#   From: 2010.03.12/outbox.cif.g09.slc.cpg/sg4_1_cif.got.tgz:1385.got - 2010.03.31 09:31:35.
