data_PCOD8046524
_publ_section_title
;
Structure prediction by ZEFSAII (Michael W. Deem and Ramdas Pophale) SiO2 
 PCOD8046524
Probable space group: P 21
;
_chemical_formula_sum "Si O2"
_cell_formula_units_Z 14
_cell_length_a 13.758531
_cell_length_b 8.338946
_cell_length_c 9.427983
_cell_angle_alpha 90.000000
_cell_angle_beta 145.455494
_cell_angle_gamma 90.000000
_cell_volume 613.367110
_symmetry_space_group_name_H-M "P 21"
_symmetry_group_IT_number 4
_symmetry_cell_setting 'monoclinic'
loop_
_space_group_symop_operation_xyz
x,y,z
-x,1/2+y,-z
loop_
_atom_site_type_symbol
_atom_site_label
_atom_site_fract_x
_atom_site_fract_y
_atom_site_fract_z
Si Si1 0.364031 0.447310 0.859320
Si Si2 0.395361 0.603198 0.175505
Si Si3 0.254851 0.914404 0.368268
Si Si4 0.717586 0.437656 0.911044
Si Si5 0.519279 0.165493 0.233771
Si Si6 0.990679 0.817193 0.548984
Si Si7 0.967208 0.988474 0.247999
O O1 0.453941 0.502833 0.823373
O O2 0.176459 0.397919 0.585569
O O3 0.361080 0.597674 0.964436
O O4 0.455141 0.301621 0.049794
O O5 0.571497 0.517576 0.424323
O O6 0.412825 0.786261 0.246014
O O7 0.227899 0.512731 0.045141
O O8 0.185341 0.928518 0.124233
O O9 0.310420 0.733890 0.482781
O O10 0.103749 0.981987 0.285224
O O11 0.618674 0.607249 0.814085
O O12 0.850434 0.415044 0.197414
O O13 0.990469 0.633335 0.594309
O O14 0.985346 0.830575 0.369756
#
# Coordination Sequence:
#
# PCOD8046524 Si02
#       7
#     2   2   2   2   2   2   2
#     4  10  22  40  64 103 120 173 223 282 336 378
#     4   9  22  43  66  93 135 170 223 282 332 392
#     4  11  25  44  66  96 137 186 216 271 341 415
#     4  11  23  44  64  98 136 175 222 274 339 407
#     4  11  24  39  70  96 134 176 226 280 333 400
#     4  10  23  41  65  98 128 167 218 288 329 389
#     4  10  23  43  67  96 132 169 226 279 334 393
#
# _framework density 22.824832000000001
#
# number of rings (size 3 to 8) (size 9 to 14) (size 15 to 20)
#    0.000    1.714    0.000    2.571   16.000    0.000 
#    7.714    0.000    0.000    0.000    0.000    0.000 
#    0.000    0.000    0.000    0.000    0.000    0.000 
#
# Total GULP energy -173502.294734 kJ/mol
# GULP energy per Si atom -12393.021052 kJ/mol
# Density = 2.277288 g / cm^3
# Si number density = 22.824832 Si / 1000 Ang^3
#
#
#
# Elastic Constant Matrix: (Units=GPa)
#
#
# Indices 1 2 3 4 5 6 
#
# 1 138.3824 36.2933 22.7251 0.0000 7.7320 0.0000
# 2 36.2933 67.3799 -4.0838 0.0000 -1.8126 0.0000
# 3 22.7251 -4.0838 45.6554 0.0000 12.6726 0.0000
# 4 0.0000 0.0000 0.0000 21.4272 0.0000 2.5736
# 5 7.7320 -1.8126 12.6726 0.0000 28.7784 0.0000
# 6 0.0000 0.0000 0.0000 2.5736 0.0000 34.5079
#
#
#
# Elastic Compliance Matrix: (Units=1/GPa)
#
#
# Indices 1 2 3 4 5 6 
#
# 1 0.009522 -0.005453 -0.005038 0.000000 -0.000683 0.000000
# 2 -0.005453 0.018048 0.004108 0.000000 0.000793 0.000000
# 3 -0.005038 0.004108 0.027719 0.000000 -0.010594 0.000000
# 4 0.000000 0.000000 0.000000 0.047092 0.000000 -0.003512
# 5 -0.000683 0.000793 -0.010594 0.000000 0.039647 0.000000
# 6 0.000000 0.000000 0.000000 -0.003512 0.000000 0.029241
#
#
# Mechanical properties :
#
#
# Convention : Reuss Voigt Hill
#
# Bulk Modulus (GPa) = 23.51520 40.14298 31.82909
# Shear Modulus (GPa) = 25.22620 30.04156 27.63388
#
# Velocity S-wave (km/s) = 3.32807 3.63185 3.48328
# Velocity P-wave (km/s) = 5.00928 5.93403 5.49116
#
# Compressibility (1/GPa) = 0.04252569
#
# Stress axis : x y z
#
# Youngs Moduli (GPa) = 105.02189 55.40630 36.07680
#
# Poissons Ratio (x) = 0.30210 0.18174
# Poissons Ratio (y) = 0.57263 -0.14822
# Poissons Ratio (z) = 0.52905 -0.22763
#
# Static dielectric constant tensor:
#      x y z
#    x 4.137110 0.000000 0.021370 
#    y 0.000000 4.156490 0.000000 
#    z 0.021370 0.000000 4.089050 
# 
# 
# High freq. dielectric constant tensor:
#      x y z
#    x 1.897780 0.000000 0.005200 
#    y 0.000000 1.899860 0.000000 
#    z 0.005200 0.000000 1.889950 
# 
# From -- ./inp_files/5639.got.cif
#   From: 2010.03.12/outbox.cif.g09.slc.cpg/sg4_3_cif.got.tgz:5639.got - 2010.03.31 09:31:35.
