data_PCOD8046508
_publ_section_title
;
Structure prediction by ZEFSAII (Michael W. Deem and Ramdas Pophale) SiO2 
 PCOD8046508
Probable space group: P 21
;
_chemical_formula_sum "Si O2"
_cell_formula_units_Z 16
_cell_length_a 17.425150
_cell_length_b 8.888715
_cell_length_c 7.896961
_cell_angle_alpha 90.000000
_cell_angle_beta 36.871835
_cell_angle_gamma 90.000000
_cell_volume 733.915956
_symmetry_space_group_name_H-M "P 21"
_symmetry_group_IT_number 4
_symmetry_cell_setting 'monoclinic'
loop_
_space_group_symop_operation_xyz
x,y,z
-x,1/2+y,-z
loop_
_atom_site_type_symbol
_atom_site_label
_atom_site_fract_x
_atom_site_fract_y
_atom_site_fract_z
Si Si1 0.775317 0.458220 0.503286
Si Si2 0.062603 0.489252 0.046000
Si Si3 0.753703 0.627959 0.889147
Si Si4 0.643209 0.467713 0.397952
Si Si5 0.198534 0.701844 0.026739
Si Si6 0.998278 0.710741 0.634924
Si Si7 0.346157 0.457562 0.967984
Si Si8 0.796034 0.106243 0.500570
O O1 0.728581 0.526299 0.766357
O O2 0.696090 0.529347 0.485394
O O3 0.758277 0.278294 0.527454
O O4 0.922864 0.499559 0.210050
O O5 0.081305 0.637892 0.124513
O O6 0.078709 0.338814 0.128703
O O7 0.177746 0.499277 0.706713
O O8 0.901463 0.616214 0.688848
O O9 0.664109 0.580686 0.204851
O O10 0.724756 0.799444 0.898392
O O11 0.494729 0.433323 0.675337
O O12 0.715533 0.313894 0.229878
O O13 0.121213 0.783399 0.316709
O O14 0.287597 0.563423 0.926532
O O15 0.068604 0.595599 0.637628
O O16 0.323473 0.536398 0.189016
#
# Coordination Sequence:
#
# PCOD8046508 Si02
#       8
#     2   2   2   2   2   2   2   2
#     4  11  25  43  67 106 132 174 226 288 348 408
#     4  11  20  41  68 101 133 166 224 284 352 406
#     4  12  24  43  69 102 137 176 230 288 346 409
#     4  12  26  46  68  97 140 189 230 280 339 412
#     4  11  22  44  73  95 137 179 228 285 342 408
#     4  10  22  39  69 102 133 171 222 286 358 400
#     4  11  26  45  66  97 135 190 235 271 338 415
#     4  10  23  41  68  98 135 179 227 282 347 408
#
# _framework density 21.800861000000001
#
# number of rings (size 3 to 8) (size 9 to 14) (size 15 to 20)
#    0.000    1.000    3.750    3.750    0.000    5.000 
#    2.250    0.000    0.000    0.000    0.000    0.000 
#    0.000    0.000    0.000    0.000    0.000    0.000 
#
# Total GULP energy -198335.462583 kJ/mol
# GULP energy per Si atom -12395.966411 kJ/mol
# Density = 2.175124 g / cm^3
# Si number density = 21.800861 Si / 1000 Ang^3
#
#
#
# Elastic Constant Matrix: (Units=GPa)
#
#
# Indices 1 2 3 4 5 6 
#
# 1 66.8104 28.1949 31.3447 0.0000 25.3080 0.0000
# 2 28.1949 91.9378 36.5934 0.0000 8.9680 0.0000
# 3 31.3447 36.5934 107.3029 0.0000 17.6107 0.0000
# 4 0.0000 0.0000 0.0000 31.9050 0.0000 6.8393
# 5 25.3080 8.9680 17.6107 0.0000 34.5132 0.0000
# 6 0.0000 0.0000 0.0000 6.8393 0.0000 19.9110
#
#
#
# Elastic Compliance Matrix: (Units=1/GPa)
#
#
# Indices 1 2 3 4 5 6 
#
# 1 0.023971 -0.004728 -0.002954 0.000000 -0.014842 0.000000
# 2 -0.004728 0.013562 -0.003530 0.000000 0.001744 0.000000
# 3 -0.002954 -0.003530 0.011875 0.000000 -0.002976 0.000000
# 4 0.000000 0.000000 0.000000 0.033834 0.000000 -0.011622
# 5 -0.014842 0.001744 -0.002976 0.000000 0.040923 0.000000
# 6 0.000000 0.000000 0.000000 -0.011622 0.000000 0.054216
#
#
# Mechanical properties :
#
#
# Convention : Reuss Voigt Hill
#
# Bulk Modulus (GPa) = 37.06002 50.92411 43.99207
# Shear Modulus (GPa) = 23.83240 28.59370 26.21305
#
# Velocity S-wave (km/s) = 3.30992 3.62551 3.47131
# Velocity P-wave (km/s) = 5.62527 6.39807 6.02407
#
# Compressibility (1/GPa) = 0.02698325
#
# Stress axis : x y z
#
# Youngs Moduli (GPa) = 41.71726 73.73678 84.21333
#
# Poissons Ratio (x) = 0.34861 0.24878
# Poissons Ratio (y) = 0.19723 0.29729
# Poissons Ratio (z) = 0.12324 0.26030
#
# Static dielectric constant tensor:
#      x y z
#    x 4.090860 0.000000 0.302810 
#    y 0.000000 3.746720 0.000000 
#    z 0.302810 0.000000 3.917250 
# 
# 
# High freq. dielectric constant tensor:
#      x y z
#    x 1.856750 0.000000 0.018480 
#    y 0.000000 1.850470 0.000000 
#    z 0.018480 0.000000 1.858310 
# 
# From -- ./inp_files/9917.got.cif
#   From: 2010.03.12/outbox.cif.g09.slc.cpg/sg4_5_cif.got.tgz:9917.got - 2010.03.31 09:31:35.
