data_PCOD8046487
_publ_section_title
;
Structure prediction by ZEFSAII (Michael W. Deem and Ramdas Pophale) SiO2 
 PCOD8046487
Probable space group: P 21
;
_chemical_formula_sum "Si O2"
_cell_formula_units_Z 16
_cell_length_a 16.496159
_cell_length_b 4.933460
_cell_length_c 9.848833
_cell_angle_alpha 90.000000
_cell_angle_beta 129.097473
_cell_angle_gamma 90.000000
_cell_volume 622.045964
_symmetry_space_group_name_H-M "P 21"
_symmetry_group_IT_number 4
_symmetry_cell_setting 'monoclinic'
loop_
_space_group_symop_operation_xyz
x,y,z
-x,1/2+y,-z
loop_
_atom_site_type_symbol
_atom_site_label
_atom_site_fract_x
_atom_site_fract_y
_atom_site_fract_z
Si Si1 0.388738 0.873430 0.772303
Si Si2 0.090797 0.387041 0.463005
Si Si3 0.953620 0.885187 0.281722
Si Si4 0.521989 0.901140 0.436167
Si Si5 0.270598 0.224242 0.456506
Si Si6 0.625379 0.879840 0.074339
Si Si7 0.785212 0.713994 0.895310
Si Si8 0.320586 0.691426 0.111050
O O1 0.325765 0.949755 0.570086
O O2 0.365926 0.560282 0.780391
O O3 0.351022 0.069646 0.858835
O O4 0.512391 0.910759 0.883774
O O5 0.111933 0.348508 0.647026
O O6 0.198639 0.348484 0.497616
O O7 0.999533 0.186311 0.317203
O O8 0.053380 0.688853 0.390488
O O9 0.887546 0.834501 0.075554
O O10 0.480733 0.192457 0.440796
O O11 0.633765 0.925731 0.480677
O O12 0.438272 0.799793 0.236432
O O13 0.201200 0.142594 0.250330
O O14 0.706210 0.019413 0.054224
O O15 0.699037 0.958384 0.796333
O O16 0.755120 0.447642 0.949111
#
# Coordination Sequence:
#
# PCOD8046487 Si02
#       8
#     2   2   2   2   2   2   2   2
#     4  10  23  39  58  93 137 171 228 284 333 383
#     4  10  25  46  78  97 139 170 242 287 362 416
#     4  10  24  52  69 103 131 186 220 306 359 417
#     4  12  24  44  64  96 154 194 226 274 337 416
#     4  12  26  44  70 113 136 188 231 290 340 428
#     4  10  22  39  60  88 133 188 225 276 324 393
#     4  12  27  42  74 100 143 180 237 274 361 418
#     4  12  23  42  65 100 135 197 227 273 332 417
#
# _framework density 25.721571999999998
#
# number of rings (size 3 to 8) (size 9 to 14) (size 15 to 20)
#    0.000    1.000    3.750    1.500    3.500    6.000 
#    0.000    0.000    0.000    0.000    0.000    0.000 
#    0.000    0.000    0.000    0.000    0.000    0.000 
#
# Total GULP energy -198351.926944 kJ/mol
# GULP energy per Si atom -12396.995434 kJ/mol
# Density = 2.566303 g / cm^3
# Si number density = 25.721572 Si / 1000 Ang^3
#
#
#
# Elastic Constant Matrix: (Units=GPa)
#
#
# Indices 1 2 3 4 5 6 
#
# 1 126.7869 14.4187 24.0594 0.0000 -2.9046 0.0000
# 2 14.4187 82.0898 -9.9456 0.0000 5.4876 0.0000
# 3 24.0594 -9.9456 134.2504 0.0000 5.5435 0.0000
# 4 0.0000 0.0000 0.0000 28.4603 0.0000 4.9444
# 5 -2.9046 5.4876 5.5435 0.0000 16.1998 0.0000
# 6 0.0000 0.0000 0.0000 4.9444 0.0000 21.3660
#
#
#
# Elastic Compliance Matrix: (Units=1/GPa)
#
#
# Indices 1 2 3 4 5 6 
#
# 1 0.008504 -0.001895 -0.001779 0.000000 0.002775 0.000000
# 2 -0.001895 0.013052 0.001525 0.000000 -0.005283 0.000000
# 3 -0.001779 0.001525 0.008028 0.000000 -0.003583 0.000000
# 4 0.000000 0.000000 0.000000 0.036608 0.000000 -0.008472
# 5 0.002775 -0.005283 -0.003583 0.000000 0.065242 0.000000
# 6 0.000000 0.000000 0.000000 -0.008472 0.000000 0.048764
#
#
# Mechanical properties :
#
#
# Convention : Reuss Voigt Hill
#
# Bulk Modulus (GPa) = 39.54641 44.46578 42.00610
# Shear Modulus (GPa) = 25.91662 34.17820 30.04741
#
# Velocity S-wave (km/s) = 3.17769 3.64919 3.42157
# Velocity P-wave (km/s) = 5.37325 5.92287 5.65474
#
# Compressibility (1/GPa) = 0.02528674
#
# Stress axis : x y z
#
# Youngs Moduli (GPa) = 117.59320 76.61387 124.55672
#
# Poissons Ratio (x) = 0.14516 0.22158
# Poissons Ratio (y) = 0.22281 -0.18991
# Poissons Ratio (z) = 0.20920 -0.11681
#
# Static dielectric constant tensor:
#      x y z
#    x 4.413540 0.000000 -0.180360 
#    y 0.000000 4.683980 0.000000 
#    z -0.180360 0.000000 4.539520 
# 
# 
# High freq. dielectric constant tensor:
#      x y z
#    x 2.003830 0.000000 -0.007940 
#    y 0.000000 2.038810 0.000000 
#    z -0.007940 0.000000 2.037100 
# 
# From -- ./inp_files/8963.got.cif
#   From: 2010.03.12/outbox.cif.g09.slc.cpg/sg4_5_cif.got.tgz:8963.got - 2010.03.31 09:31:35.
