data_PCOD8046445
_publ_section_title
;
Structure prediction by ZEFSAII (Michael W. Deem and Ramdas Pophale) SiO2 
 PCOD8046445
Probable space group: P 21
;
_chemical_formula_sum "Si O2"
_cell_formula_units_Z 12
_cell_length_a 23.499725
_cell_length_b 5.265936
_cell_length_c 6.982692
_cell_angle_alpha 90.000000
_cell_angle_beta 142.303365
_cell_angle_gamma 90.000000
_cell_volume 528.377000
_symmetry_space_group_name_H-M "P 21"
_symmetry_group_IT_number 4
_symmetry_cell_setting 'monoclinic'
loop_
_space_group_symop_operation_xyz
x,y,z
-x,1/2+y,-z
loop_
_atom_site_type_symbol
_atom_site_label
_atom_site_fract_x
_atom_site_fract_y
_atom_site_fract_z
Si Si1 0.296545 0.293900 0.188950
Si Si2 0.359350 0.610026 0.019577
Si Si3 0.788210 0.495687 0.352484
Si Si4 0.522419 0.583527 0.179730
Si Si5 0.793175 0.892930 0.660601
Si Si6 0.942694 0.169423 0.862367
O O1 0.369341 0.092435 0.472283
O O2 0.237198 0.410539 0.202398
O O3 0.355250 0.503318 0.226133
O O4 0.215898 0.179424 0.840042
O O5 0.296091 0.449232 0.707793
O O6 0.317359 0.893335 0.906272
O O7 0.464198 0.605686 0.221817
O O8 0.823422 0.622141 0.647393
O O9 0.864591 0.276342 0.504657
O O10 0.504439 0.315453 0.030676
O O11 0.880212 0.087483 0.879617
O O12 0.011116 0.406698 0.094055
#
# Coordination Sequence:
#
# PCOD8046445 Si02
#       6
#     2   2   2   2   2   2
#     4  11  25  42  73 104 145 193 239 293 347 418
#     4  10  24  41  66 101 144 188 241 294 346 407
#     4  10  23  42  75 100 144 182 238 284 369 410
#     4  12  27  45  70 102 145 193 251 287 343 407
#     4  10  21  46  71 102 141 190 230 292 361 417
#     4  11  22  44  81 105 137 186 231 292 362 433
#
# _framework density 22.711055999999999
#
# number of rings (size 3 to 8) (size 9 to 14) (size 15 to 20)
#    0.000    1.333    3.333    1.000    7.000    2.667 
#    0.000    0.000   14.667    0.000    0.000    0.000 
#    0.000    0.000    0.000    0.000    0.000    0.000 
#
# Total GULP energy -148665.099256 kJ/mol
# GULP energy per Si atom -12388.758271 kJ/mol
# Density = 2.265937 g / cm^3
# Si number density = 22.711056 Si / 1000 Ang^3
#
#
#
# Elastic Constant Matrix: (Units=GPa)
#
#
# Indices 1 2 3 4 5 6 
#
# 1 160.7593 44.5650 61.0147 0.0000 -8.0043 0.0000
# 2 44.5650 103.7550 22.5662 0.0000 -7.8102 0.0000
# 3 61.0147 22.5662 54.9090 0.0000 -11.3856 0.0000
# 4 0.0000 0.0000 0.0000 26.4892 0.0000 10.8038
# 5 -8.0043 -7.8102 -11.3856 0.0000 42.6421 0.0000
# 6 0.0000 0.0000 0.0000 10.8038 0.0000 35.1764
#
#
#
# Elastic Compliance Matrix: (Units=1/GPa)
#
#
# Indices 1 2 3 4 5 6 
#
# 1 0.011332 -0.002387 -0.011921 0.000000 -0.001493 0.000000
# 2 -0.002387 0.011114 -0.001679 0.000000 0.001139 0.000000
# 3 -0.011921 -0.001679 0.033474 0.000000 0.006393 0.000000
# 4 0.000000 0.000000 0.000000 0.043157 0.000000 -0.013255
# 5 -0.001493 0.001139 0.006393 0.000000 0.025086 0.000000
# 6 0.000000 0.000000 0.000000 -0.013255 0.000000 0.032499
#
#
# Mechanical properties :
#
#
# Convention : Reuss Voigt Hill
#
# Bulk Modulus (GPa) = 41.75951 63.96836 52.86393
# Shear Modulus (GPa) = 25.42974 33.61337 29.52155
#
# Velocity S-wave (km/s) = 3.34983 3.85131 3.60929
# Velocity P-wave (km/s) = 5.77833 6.92850 6.37939
#
# Compressibility (1/GPa) = 0.02394664
#
# Stress axis : x y z
#
# Youngs Moduli (GPa) = 88.24223 89.97392 29.87381
#
# Poissons Ratio (x) = 0.21478 0.35613
# Poissons Ratio (y) = 0.21065 0.05016
# Poissons Ratio (z) = 1.05194 0.15106
#
# Static dielectric constant tensor:
#      x y z
#    x 4.212560 0.000000 0.187380 
#    y 0.000000 4.499980 0.000000 
#    z 0.187380 0.000000 3.930000 
# 
# 
# High freq. dielectric constant tensor:
#      x y z
#    x 1.892400 0.000000 0.018190 
#    y 0.000000 1.908950 0.000000 
#    z 0.018190 0.000000 1.873380 
# 
# From -- ./inp_files/3923.got.cif
#   From: 2010.03.12/outbox.cif.g09.slc.cpg/sg4_2_cif.got.tgz:3923.got - 2010.03.31 09:31:35.
