data_PCOD8046364
_publ_section_title
;
Structure prediction by ZEFSAII (Michael W. Deem and Ramdas Pophale) SiO2 
 PCOD8046364
Probable space group: P 21
;
_chemical_formula_sum "Si O2"
_cell_formula_units_Z 16
_cell_length_a 8.674544
_cell_length_b 13.003756
_cell_length_c 10.823887
_cell_angle_alpha 90.000000
_cell_angle_beta 140.978387
_cell_angle_gamma 90.000000
_cell_volume 768.728083
_symmetry_space_group_name_H-M "P 21"
_symmetry_group_IT_number 4
_symmetry_cell_setting 'monoclinic'
loop_
_space_group_symop_operation_xyz
x,y,z
-x,1/2+y,-z
loop_
_atom_site_type_symbol
_atom_site_label
_atom_site_fract_x
_atom_site_fract_y
_atom_site_fract_z
Si Si1 0.757326 0.937670 0.802448
Si Si2 0.925687 0.214385 0.534999
Si Si3 0.601092 0.385957 0.224548
Si Si4 0.002771 0.523581 0.576153
Si Si5 0.229567 0.842421 0.140406
Si Si6 0.386364 0.358224 0.830285
Si Si7 0.680710 0.501955 0.607406
Si Si8 0.737745 0.143974 0.671547
O O1 0.657101 0.926832 0.880748
O O2 0.516770 0.917697 0.567631
O O3 0.853697 0.053760 0.830533
O O4 0.966469 0.851681 0.906952
O O5 0.697742 0.287613 0.361245
O O6 0.876205 0.149190 0.627509
O O7 0.963833 0.141061 0.441381
O O8 0.172374 0.276457 0.713645
O O9 0.807216 0.474145 0.359944
O O10 0.560874 0.357898 0.057445
O O11 0.909805 0.514723 0.658884
O O12 0.267296 0.469497 0.731640
O O13 0.449680 0.826433 0.183852
O O14 0.233083 0.954394 0.209744
O O15 0.236114 0.751208 0.242323
O O16 0.545907 0.612962 0.534931
#
# Coordination Sequence:
#
# PCOD8046364 Si02
#       8
#     2   2   2   2   2   2   2   2
#     4   9  22  41  64  90 122 164 215 261 310 377
#     4  11  23  42  65  96 127 170 210 264 323 381
#     4  10  22  43  64  89 130 170 203 271 318 370
#     4  10  21  42  66  89 129 164 210 262 319 375
#     4  12  22  43  62  93 131 166 213 266 319 374
#     4  11  25  38  65  95 128 168 209 261 321 386
#     4   9  21  42  65  92 124 165 211 266 306 380
#     4  10  22  41  65  92 123 169 215 259 316 381
#
# _framework density 20.813600000000001
#
# number of rings (size 3 to 8) (size 9 to 14) (size 15 to 20)
#    0.750    1.000    0.000    5.250    1.750    2.000 
#   11.250    0.000    0.000    0.000    0.000    0.000 
#    0.000    0.000    0.000    0.000    0.000    0.000 
#
# Total GULP energy -198333.135546 kJ/mol
# GULP energy per Si atom -12395.820972 kJ/mol
# Density = 2.076623 g / cm^3
# Si number density = 20.813600 Si / 1000 Ang^3
#
#
#
# Elastic Constant Matrix: (Units=GPa)
#
#
# Indices 1 2 3 4 5 6 
#
# 1 113.8386 28.0723 36.4495 0.0000 -7.1359 0.0000
# 2 28.0723 92.5532 25.8965 0.0000 -1.7274 0.0000
# 3 36.4495 25.8965 62.8756 0.0000 1.8806 0.0000
# 4 0.0000 0.0000 0.0000 21.7158 0.0000 -2.2571
# 5 -7.1359 -1.7274 1.8806 0.0000 28.2451 0.0000
# 6 0.0000 0.0000 0.0000 -2.2571 0.0000 39.1466
#
#
#
# Elastic Compliance Matrix: (Units=1/GPa)
#
#
# Indices 1 2 3 4 5 6 
#
# 1 0.011306 -0.001707 -0.005945 0.000000 0.003148 0.000000
# 2 -0.001707 0.012503 -0.004178 0.000000 0.000612 0.000000
# 3 -0.005945 -0.004178 0.021167 0.000000 -0.003167 0.000000
# 4 0.000000 0.000000 0.000000 0.046327 0.000000 0.002671
# 5 0.003148 0.000612 -0.003167 0.000000 0.036448 0.000000
# 6 0.000000 0.000000 0.000000 0.002671 0.000000 0.025699
#
#
# Mechanical properties :
#
#
# Convention : Reuss Voigt Hill
#
# Bulk Modulus (GPa) = 46.91667 50.01154 48.46410
# Shear Modulus (GPa) = 27.14205 29.74476 28.44340
#
# Velocity S-wave (km/s) = 3.61509 3.78445 3.70074
# Velocity P-wave (km/s) = 6.32577 6.57088 6.44949
#
# Compressibility (1/GPa) = 0.02131439
#
# Stress axis : x y z
#
# Youngs Moduli (GPa) = 88.44645 79.98178 47.24412
#
# Poissons Ratio (x) = 0.13653 0.28089
# Poissons Ratio (y) = 0.15098 0.19740
# Poissons Ratio (z) = 0.52585 0.33418
#
# Static dielectric constant tensor:
#      x y z
#    x 3.642810 0.000000 0.063590 
#    y 0.000000 3.638480 0.000000 
#    z 0.063590 0.000000 3.641790 
# 
# 
# High freq. dielectric constant tensor:
#      x y z
#    x 1.819160 0.000000 0.004620 
#    y 0.000000 1.804640 0.000000 
#    z 0.004620 0.000000 1.809640 
# 
# From -- ./inp_files/11296.got.cif
#   From: 2010.03.12/outbox.cif.g09.slc.cpg/sg4_6_cif.got.tgz:11296.got - 2010.03.31 09:31:35.
