data_PCOD8046634
_publ_section_title
;
Structure prediction by ZEFSAII (Michael W. Deem and Ramdas Pophale) SiO2 
 PCOD8046634
Probable space group: P 21
;
_chemical_formula_sum "Si O2"
_cell_formula_units_Z 16
_cell_length_a 10.867385
_cell_length_b 8.618681
_cell_length_c 8.388485
_cell_angle_alpha 90.000000
_cell_angle_beta 55.700418
_cell_angle_gamma 90.000000
_cell_volume 649.057659
_symmetry_space_group_name_H-M "P 21"
_symmetry_group_IT_number 4
_symmetry_cell_setting 'monoclinic'
loop_
_space_group_symop_operation_xyz
x,y,z
-x,1/2+y,-z
loop_
_atom_site_type_symbol
_atom_site_label
_atom_site_fract_x
_atom_site_fract_y
_atom_site_fract_z
Si Si1 0.317161 0.648570 0.347310
Si Si2 0.159143 0.935250 0.304840
Si Si3 0.873314 0.894513 0.347591
Si Si4 0.564819 0.201978 0.397807
Si Si5 0.349206 0.161630 0.991672
Si Si6 0.688049 0.514061 0.290736
Si Si7 0.238973 0.469362 0.921940
Si Si8 0.947062 0.551195 0.306043
O O1 0.231151 0.767173 0.292117
O O2 0.225723 0.490096 0.450330
O O3 0.344613 0.716794 0.502749
O O4 0.475523 0.621866 0.144292
O O5 0.045531 0.965162 0.532405
O O6 0.049337 0.937690 0.232269
O O7 0.281394 0.074585 0.197102
O O8 0.821363 0.906002 0.202112
O O9 0.867898 0.714631 0.394832
O O10 0.566547 0.379845 0.339118
O O11 0.396274 0.149467 0.548850
O O12 0.635567 0.095412 0.209426
O O13 0.311005 0.343880 0.992407
O O14 0.259225 0.080363 0.914861
O O15 0.834528 0.453998 0.274295
O O16 0.109486 0.558694 0.110437
#
# Coordination Sequence:
#
# PCOD8046634 Si02
#       8
#     2   2   2   2   2   2   2   2
#     4  10  24  48  72 103 146 188 240 295 367 438
#     4  12  27  48  69 105 148 194 232 300 370 439
#     4  11  26  47  73 105 141 193 243 299 361 434
#     4  10  22  42  73 103 140 181 241 306 357 427
#     4  11  26  47  74 104 145 190 247 302 360 436
#     4  11  22  43  72 105 137 186 245 302 365 424
#     4  11  26  45  74 107 141 188 244 304 356 432
#     4  12  27  42  71 104 146 190 240 294 368 434
#
# _framework density 24.651121
#
# number of rings (size 3 to 8) (size 9 to 14) (size 15 to 20)
#    0.000    1.000    2.500    3.000   10.500    1.000 
#    2.250    0.000    0.000    0.000    0.000    0.000 
#    0.000    0.000    0.000    0.000    0.000    0.000 
#
# Total GULP energy -198239.938396 kJ/mol
# GULP energy per Si atom -12389.996150 kJ/mol
# Density = 2.459501 g / cm^3
# Si number density = 24.651121 Si / 1000 Ang^3
#
#
#
# Elastic Constant Matrix: (Units=GPa)
#
#
# Indices 1 2 3 4 5 6 
#
# 1 73.2064 10.2464 31.5571 0.0000 -18.1588 0.0000
# 2 10.2464 83.6537 11.9630 0.0000 -7.5127 0.0000
# 3 31.5571 11.9630 92.0832 0.0000 -12.9780 0.0000
# 4 0.0000 0.0000 0.0000 40.8106 0.0000 -3.5469
# 5 -18.1588 -7.5127 -12.9780 0.0000 25.3887 0.0000
# 6 0.0000 0.0000 0.0000 -3.5469 0.0000 35.4082
#
#
#
# Elastic Compliance Matrix: (Units=1/GPa)
#
#
# Indices 1 2 3 4 5 6 
#
# 1 0.018410 -0.000629 -0.004739 0.000000 0.010559 0.000000
# 2 -0.000629 0.012419 -0.001017 0.000000 0.002705 0.000000
# 3 -0.004739 -0.001017 0.013035 0.000000 0.002973 0.000000
# 4 0.000000 0.000000 0.000000 0.024719 0.000000 0.002476
# 5 0.010559 0.002705 0.002973 0.000000 0.049260 0.000000
# 6 0.000000 0.000000 0.000000 0.002476 0.000000 0.028490
#
#
# Mechanical properties :
#
#
# Convention : Reuss Voigt Hill
#
# Bulk Modulus (GPa) = 32.15989 39.60848 35.88419
# Shear Modulus (GPa) = 29.50416 33.33328 31.41872
#
# Velocity S-wave (km/s) = 3.46333 3.68122 3.57394
# Velocity P-wave (km/s) = 5.39140 5.84560 5.62309
#
# Compressibility (1/GPa) = 0.03109463
#
# Stress axis : x y z
#
# Youngs Moduli (GPa) = 54.31791 80.51892 76.71691
#
# Poissons Ratio (x) = 0.05064 0.36359
# Poissons Ratio (y) = 0.03416 0.07799
# Poissons Ratio (z) = 0.25743 0.08186
#
# Static dielectric constant tensor:
#      x y z
#    x 4.491760 0.000000 0.014300 
#    y 0.000000 4.474840 0.000000 
#    z 0.014300 0.000000 4.288600 
# 
# 
# High freq. dielectric constant tensor:
#      x y z
#    x 1.980540 0.000000 -0.009490 
#    y 0.000000 1.981140 0.000000 
#    z -0.009490 0.000000 1.977570 
# 
# From -- ./inp_files/5588.got.cif
#   From: 2010.03.12/outbox.cif.g09.slc.cpg/sg4_3_cif.got.tgz:5588.got - 2010.03.31 09:31:35.
