data_PCOD8046845
_publ_section_title
;
Structure prediction by ZEFSAII (Michael W. Deem and Ramdas Pophale) SiO2 
 PCOD8046845
Probable space group: P 21
;
_chemical_formula_sum "Si O2"
_cell_formula_units_Z 16
_cell_length_a 8.486206
_cell_length_b 9.891751
_cell_length_c 17.465678
_cell_angle_alpha 90.000000
_cell_angle_beta 27.449201
_cell_angle_gamma 90.000000
_cell_volume 675.829771
_symmetry_space_group_name_H-M "P 21"
_symmetry_group_IT_number 4
_symmetry_cell_setting 'monoclinic'
loop_
_space_group_symop_operation_xyz
x,y,z
-x,1/2+y,-z
loop_
_atom_site_type_symbol
_atom_site_label
_atom_site_fract_x
_atom_site_fract_y
_atom_site_fract_z
Si Si1 0.209712 0.553200 0.995859
Si Si2 0.401113 0.974687 0.628705
Si Si3 0.723082 0.576744 0.074208
Si Si4 0.877587 0.071240 0.547362
Si Si5 0.346450 0.249216 0.581510
Si Si6 0.443401 0.812775 0.102213
Si Si7 0.845185 0.339573 0.483845
Si Si8 0.538889 0.830455 0.892120
O O1 0.917177 0.494271 0.177608
O O2 0.074916 0.592871 0.969631
O O3 0.495625 0.435601 0.864152
O O4 0.390416 0.680693 0.955049
O O5 0.744196 0.993636 0.530051
O O6 0.424150 0.824619 0.581801
O O7 0.398193 0.086529 0.560636
O O8 0.415388 0.596149 0.265074
O O9 0.675224 0.686688 0.028333
O O10 0.729992 0.429169 0.033174
O O11 0.170845 0.979132 0.460907
O O12 0.007037 0.220152 0.467165
O O13 0.467235 0.302498 0.614350
O O14 0.953331 0.279266 0.735076
O O15 0.588730 0.868021 0.959043
O O16 0.092440 0.351159 0.304355
#
# Coordination Sequence:
#
# PCOD8046845 Si02
#       8
#     2   2   2   2   2   2   2   2
#     4  11  23  45  69  98 139 177 232 282 343 410
#     4  10  23  45  64  99 137 180 223 285 333 406
#     4  10  24  45  68  94 137 181 223 282 344 403
#     4   9  22  41  67  92 129 174 229 272 329 398
#     4  11  25  42  68 100 136 178 228 279 341 400
#     4  12  25  42  72 104 134 182 226 286 343 413
#     4  10  23  42  67  96 134 177 224 283 330 405
#     4  11  23  44  67 101 136 181 227 279 349 403
#
# _framework density 23.674600999999999
#
# number of rings (size 3 to 8) (size 9 to 14) (size 15 to 20)
#    0.000    1.500    1.250    2.250    8.750    0.000 
#    4.500    0.000    0.000    0.000    0.000    0.000 
#    0.000    0.000    0.000    0.000    0.000    0.000 
#
# Total GULP energy -198362.853220 kJ/mol
# GULP energy per Si atom -12397.678326 kJ/mol
# Density = 2.362072 g / cm^3
# Si number density = 23.674601 Si / 1000 Ang^3
#
#
#
# Elastic Constant Matrix: (Units=GPa)
#
#
# Indices 1 2 3 4 5 6 
#
# 1 116.9863 26.3468 30.8933 0.0000 -14.7388 0.0000
# 2 26.3468 71.9193 12.5289 0.0000 -9.8094 0.0000
# 3 30.8933 12.5289 44.0404 0.0000 1.9767 0.0000
# 4 0.0000 0.0000 0.0000 32.8523 0.0000 4.2051
# 5 -14.7388 -9.8094 1.9767 0.0000 35.9754 0.0000
# 6 0.0000 0.0000 0.0000 4.2051 0.0000 47.8117
#
#
#
# Elastic Compliance Matrix: (Units=1/GPa)
#
#
# Indices 1 2 3 4 5 6 
#
# 1 0.011693 -0.002307 -0.007752 0.000000 0.004587 0.000000
# 2 -0.002307 0.015756 -0.003022 0.000000 0.003517 0.000000
# 3 -0.007752 -0.003022 0.029255 0.000000 -0.005607 0.000000
# 4 0.000000 0.000000 0.000000 0.030786 0.000000 -0.002708
# 5 0.004587 0.003517 -0.005607 0.000000 0.030943 0.000000
# 6 0.000000 0.000000 0.000000 -0.002708 0.000000 0.021154
#
#
# Mechanical properties :
#
#
# Convention : Reuss Voigt Hill
#
# Bulk Modulus (GPa) = 32.74120 41.38712 37.06416
# Shear Modulus (GPa) = 28.42073 34.20635 31.31354
#
# Velocity S-wave (km/s) = 3.46854 3.80525 3.64079
# Velocity P-wave (km/s) = 5.46816 6.06846 5.77611
#
# Compressibility (1/GPa) = 0.03054256
#
# Stress axis : x y z
#
# Youngs Moduli (GPa) = 85.52444 63.46854 34.18198
#
# Poissons Ratio (x) = 0.14645 0.26496
# Poissons Ratio (y) = 0.19734 0.10328
# Poissons Ratio (z) = 0.66294 0.19178
#
# Static dielectric constant tensor:
#      x y z
#    x 4.633190 0.000000 0.019810 
#    y 0.000000 4.297120 0.000000 
#    z 0.019810 0.000000 3.908840 
# 
# 
# High freq. dielectric constant tensor:
#      x y z
#    x 1.957670 0.000000 -0.001900 
#    y 0.000000 1.942450 0.000000 
#    z -0.001900 0.000000 1.906740 
# 
# From -- ./inp_files/14939.got.cif
#   From: 2010.03.12/outbox.cif.g09.slc.cpg/sg4_8_cif.got.tgz:14939.got - 2010.03.31 09:31:35.
