data_PCOD8046973
_publ_section_title
;
Structure prediction by ZEFSAII (Michael W. Deem and Ramdas Pophale) SiO2 
 PCOD8046973
Probable space group: P 21
;
_chemical_formula_sum "Si O2"
_cell_formula_units_Z 16
_cell_length_a 8.501744
_cell_length_b 12.476383
_cell_length_c 9.679590
_cell_angle_alpha 90.000000
_cell_angle_beta 138.169668
_cell_angle_gamma 90.000000
_cell_volume 684.749938
_symmetry_space_group_name_H-M "P 21"
_symmetry_group_IT_number 4
_symmetry_cell_setting 'monoclinic'
loop_
_space_group_symop_operation_xyz
x,y,z
-x,1/2+y,-z
loop_
_atom_site_type_symbol
_atom_site_label
_atom_site_fract_x
_atom_site_fract_y
_atom_site_fract_z
Si Si1 0.975004 0.917690 0.906477
Si Si2 0.899929 0.680074 0.375134
Si Si3 0.770511 0.511392 0.689316
Si Si4 0.570278 0.150285 0.366570
Si Si5 0.512460 0.382791 0.313872
Si Si6 0.489444 0.319684 0.985803
Si Si7 0.681512 0.536460 0.035914
Si Si8 0.954457 0.209219 0.221532
O O1 0.154966 0.918664 0.154236
O O2 0.059896 0.011360 0.858986
O O3 0.722708 0.947655 0.804218
O O4 0.956902 0.804577 0.817190
O O5 0.778258 0.782267 0.217902
O O6 0.906540 0.706092 0.541213
O O7 0.149928 0.651688 0.472211
O O8 0.728916 0.579506 0.222995
O O9 0.526601 0.564515 0.586076
O O10 0.726582 0.453957 0.513836
O O11 0.983645 0.597394 0.813242
O O12 0.498238 0.266512 0.377502
O O13 0.447225 0.129559 0.136333
O O14 0.549968 0.358642 0.178495
O O15 0.528661 0.428170 0.923615
O O16 0.674741 0.225927 0.062931
#
# Coordination Sequence:
#
# PCOD8046973 Si02
#       8
#     2   2   2   2   2   2   2   2
#     4  10  25  44  72  98 144 178 237 293 341 416
#     4  12  23  43  74  97 144 189 219 306 344 412
#     4  11  26  46  75 101 142 188 229 297 344 418
#     4  11  24  47  69 103 141 177 242 282 358 417
#     4  12  23  46  69 110 134 183 238 282 351 428
#     4  11  26  44  71 104 143 183 236 287 350 424
#     4  10  23  46  68 103 139 189 231 288 357 410
#     4  11  24  46  68 108 137 181 240 281 353 419
#
# _framework density 23.366197
#
# number of rings (size 3 to 8) (size 9 to 14) (size 15 to 20)
#    0.000    1.000    3.750    1.500    1.750    8.000 
#    2.250    0.000    0.000    0.000    0.000    0.000 
#    0.000    0.000    0.000    0.000    0.000    0.000 
#
# Total GULP energy -198282.298000 kJ/mol
# GULP energy per Si atom -12392.643625 kJ/mol
# Density = 2.331301 g / cm^3
# Si number density = 23.366197 Si / 1000 Ang^3
#
#
#
# Elastic Constant Matrix: (Units=GPa)
#
#
# Indices 1 2 3 4 5 6 
#
# 1 106.1410 39.1154 43.3497 0.0000 4.5361 0.0000
# 2 39.1154 114.6143 68.0196 0.0000 7.7650 0.0000
# 3 43.3497 68.0196 107.6534 0.0000 -8.5714 0.0000
# 4 0.0000 0.0000 0.0000 49.8891 0.0000 -2.9971
# 5 4.5361 7.7650 -8.5714 0.0000 38.4956 0.0000
# 6 0.0000 0.0000 0.0000 -2.9971 0.0000 27.4223
#
#
#
# Elastic Compliance Matrix: (Units=1/GPa)
#
#
# Indices 1 2 3 4 5 6 
#
# 1 0.011654 -0.001554 -0.003864 0.000000 -0.001920 0.000000
# 2 -0.001554 0.015123 -0.009323 0.000000 -0.004943 0.000000
# 3 -0.003864 -0.009323 0.017227 0.000000 0.006172 0.000000
# 4 0.000000 0.000000 0.000000 0.020177 0.000000 0.002205
# 5 -0.001920 -0.004943 0.006172 0.000000 0.028575 0.000000
# 6 0.000000 0.000000 0.000000 0.002205 0.000000 0.036708
#
#
# Mechanical properties :
#
#
# Convention : Reuss Voigt Hill
#
# Bulk Modulus (GPa) = 68.86013 69.93089 69.39551
# Shear Modulus (GPa) = 30.52749 35.02300 32.77524
#
# Velocity S-wave (km/s) = 3.61845 3.87573 3.74930
# Velocity P-wave (km/s) = 6.85504 7.07259 6.96466
#
# Compressibility (1/GPa) = 0.01452219
#
# Stress axis : x y z
#
# Youngs Moduli (GPa) = 85.80528 66.12343 58.04823
#
# Poissons Ratio (x) = 0.10277 0.22428
# Poissons Ratio (y) = 0.13336 0.54119
# Poissons Ratio (z) = 0.33153 0.61648
#
# Static dielectric constant tensor:
#      x y z
#    x 4.151380 0.000000 -0.043390 
#    y 0.000000 4.322790 0.000000 
#    z -0.043390 0.000000 4.072420 
# 
# 
# High freq. dielectric constant tensor:
#      x y z
#    x 1.926770 0.000000 -0.001160 
#    y 0.000000 1.927270 0.000000 
#    z -0.001160 0.000000 1.918150 
# 
# From -- ./inp_files/6499.got.cif
#   From: 2010.03.12/outbox.cif.g09.slc.cpg/sg4_4_cif.got.tgz:6499.got - 2010.03.31 09:31:35.
