data_PCOD8046117
_publ_section_title
;
Structure prediction by ZEFSAII (Michael W. Deem and Ramdas Pophale) SiO2 
 PCOD8046117
Probable space group: P 21
;
_chemical_formula_sum "Si O2"
_cell_formula_units_Z 16
_cell_length_a 12.311164
_cell_length_b 8.702963
_cell_length_c 10.879659
_cell_angle_alpha 90.000000
_cell_angle_beta 39.821917
_cell_angle_gamma 90.000000
_cell_volume 746.509366
_symmetry_space_group_name_H-M "P 21"
_symmetry_group_IT_number 4
_symmetry_cell_setting 'monoclinic'
loop_
_space_group_symop_operation_xyz
x,y,z
-x,1/2+y,-z
loop_
_atom_site_type_symbol
_atom_site_label
_atom_site_fract_x
_atom_site_fract_y
_atom_site_fract_z
Si Si1 0.136997 0.503340 0.306040
Si Si2 0.287782 0.190312 0.204340
Si Si3 0.848428 0.637289 0.428896
Si Si4 0.744559 0.504269 0.998833
Si Si5 0.384073 0.688529 0.955658
Si Si6 0.115250 0.498192 0.606640
Si Si7 0.528134 0.502097 0.607600
Si Si8 0.542780 0.137673 0.585861
O O1 0.164320 0.323056 0.262646
O O2 0.069316 0.533592 0.503772
O O3 0.032828 0.559955 0.274576
O O4 0.307285 0.600767 0.139758
O O5 0.202535 0.092659 0.386883
O O6 0.450358 0.269063 0.129197
O O7 0.337119 0.078296 0.051511
O O8 0.845591 0.818793 0.406930
O O9 0.725359 0.555251 0.438540
O O10 0.946893 0.545015 0.832065
O O11 0.733939 0.320032 0.999486
O O12 0.629857 0.561706 0.211243
O O13 0.430611 0.563709 0.811521
O O14 0.282624 0.593020 0.497515
O O15 0.517969 0.319376 0.611391
O O16 0.437534 0.576778 0.569174
#
# Coordination Sequence:
#
# PCOD8046117 Si02
#       8
#     2   2   2   2   2   2   2   2
#     4  11  21  38  63  99 140 172 217 273 327 395
#     4  10  21  35  60  97 135 174 218 261 330 395
#     4  10  21  41  65  93 137 173 214 275 325 387
#     4  12  23  41  66 101 136 175 222 271 335 396
#     4  11  22  41  65  96 133 179 219 274 333 391
#     4  11  24  42  68 103 137 177 221 273 332 397
#     4  11  26  48  70  93 127 175 226 280 335 395
#     4  12  26  48  71  94 131 175 225 281 335 396
#
# _framework density 21.433084999999998
#
# number of rings (size 3 to 8) (size 9 to 14) (size 15 to 20)
#    0.000    1.000    2.500    6.000    1.750    3.000 
#    2.250    0.000    0.000    0.000    0.000    0.000 
#    0.000    0.000    0.000    0.000    0.000    0.000 
#
# Total GULP energy -198302.163327 kJ/mol
# GULP energy per Si atom -12393.885208 kJ/mol
# Density = 2.138430 g / cm^3
# Si number density = 21.433085 Si / 1000 Ang^3
#
#
#
# Elastic Constant Matrix: (Units=GPa)
#
#
# Indices 1 2 3 4 5 6 
#
# 1 79.1419 34.0979 16.4545 0.0000 -13.5183 0.0000
# 2 34.0979 123.1009 23.8257 0.0000 -0.5265 0.0000
# 3 16.4545 23.8257 90.7931 0.0000 -13.5183 0.0000
# 4 0.0000 0.0000 0.0000 28.9921 0.0000 1.3259
# 5 -13.5183 -0.5265 -13.5183 0.0000 21.1257 0.0000
# 6 0.0000 0.0000 0.0000 1.3259 0.0000 35.2695
#
#
#
# Elastic Compliance Matrix: (Units=1/GPa)
#
#
# Indices 1 2 3 4 5 6 
#
# 1 0.016338 -0.004427 -0.000286 0.000000 0.010161 0.000000
# 2 -0.004427 0.009793 -0.002380 0.000000 -0.004111 0.000000
# 3 -0.000286 -0.002380 0.012882 0.000000 0.008000 0.000000
# 4 0.000000 0.000000 0.000000 0.034552 0.000000 -0.001299
# 5 0.010161 -0.004111 0.008000 0.000000 0.058855 0.000000
# 6 0.000000 0.000000 0.000000 -0.001299 0.000000 0.028402
#
#
# Mechanical properties :
#
#
# Convention : Reuss Voigt Hill
#
# Bulk Modulus (GPa) = 40.27919 49.08802 44.68360
# Shear Modulus (GPa) = 27.28055 31.65465 29.46760
#
# Velocity S-wave (km/s) = 3.57154 3.84722 3.71194
# Velocity P-wave (km/s) = 5.98679 6.53356 6.26614
#
# Compressibility (1/GPa) = 0.02482672
#
# Stress axis : x y z
#
# Youngs Moduli (GPa) = 61.20760 102.11885 77.63019
#
# Poissons Ratio (x) = 0.45203 0.02224
# Poissons Ratio (y) = 0.27094 0.18473
# Poissons Ratio (z) = 0.01753 0.24300
#
# Static dielectric constant tensor:
#      x y z
#    x 3.752910 0.000000 -0.200420 
#    y 0.000000 3.735080 0.000000 
#    z -0.200420 0.000000 4.017840 
# 
# 
# High freq. dielectric constant tensor:
#      x y z
#    x 1.828830 0.000000 -0.017590 
#    y 0.000000 1.845010 0.000000 
#    z -0.017590 0.000000 1.844510 
# 
# From -- ./inp_files/7513.got.cif
#   From: 2010.03.12/outbox.cif.g09.slc.cpg/sg4_4_cif.got.tgz:7513.got - 2010.03.31 09:31:35.
