data_PCOD8046942
_publ_section_title
;
Structure prediction by ZEFSAII (Michael W. Deem and Ramdas Pophale) SiO2 
 PCOD8046942
Probable space group: P 21
;
_chemical_formula_sum "Si O2"
_cell_formula_units_Z 16
_cell_length_a 15.658851
_cell_length_b 5.197564
_cell_length_c 26.956365
_cell_angle_alpha 90.000000
_cell_angle_beta 160.739255
_cell_angle_gamma 90.000000
_cell_volume 723.703786
_symmetry_space_group_name_H-M "P 21"
_symmetry_group_IT_number 4
_symmetry_cell_setting 'monoclinic'
loop_
_space_group_symop_operation_xyz
x,y,z
-x,1/2+y,-z
loop_
_atom_site_type_symbol
_atom_site_label
_atom_site_fract_x
_atom_site_fract_y
_atom_site_fract_z
Si Si1 0.725794 0.550790 0.507282
Si Si2 0.867484 0.894968 0.733956
Si Si3 0.937616 0.038918 0.028789
Si Si4 0.248972 0.539482 0.179759
Si Si5 0.766268 0.768861 0.027398
Si Si6 0.687612 0.011435 0.178212
Si Si7 0.426891 0.566066 0.517780
Si Si8 0.331560 0.635364 0.944290
O O1 0.538220 0.495332 0.358312
O O2 0.727572 0.311292 0.545744
O O3 0.016128 0.561486 0.644902
O O4 0.634471 0.809978 0.484868
O O5 0.735201 0.644241 0.688020
O O6 0.105573 0.844649 0.827909
O O7 0.646673 0.036083 0.580491
O O8 0.981576 0.081520 0.839700
O O9 0.159184 0.824297 0.145291
O O10 0.772269 0.985904 0.988067
O O11 0.059222 0.322276 0.098235
O O12 0.742904 0.013885 0.875407
O O13 0.780369 0.883050 0.090856
O O14 0.488975 0.622580 0.873822
O O15 0.620013 0.139732 0.087676
O O16 0.597515 0.715492 0.119371
#
# Coordination Sequence:
#
# PCOD8046942 Si02
#       8
#     2   2   2   2   2   2   2   2
#     4  12  26  41  68  96 132 180 217 276 338 400
#     4  11  26  39  58  98 134 178 217 280 326 394
#     4  10  23  45  71 102 125 169 213 278 345 401
#     4  10  23  44  72  99 134 157 214 283 349 402
#     4  11  25  41  68  89 130 177 232 269 319 398
#     4  11  24  41  61  91 132 182 230 262 322 379
#     4  12  26  40  61  96 140 173 220 266 339 400
#     4  11  23  41  61  87 131 182 229 270 308 392
#
# _framework density 22.108491999999998
#
# number of rings (size 3 to 8) (size 9 to 14) (size 15 to 20)
#    0.000    1.000    2.500    3.000   14.000    0.000 
#    0.000    0.000    2.750    0.000    0.000    0.000 
#    0.000    0.000    0.000    0.000    0.000    0.000 
#
# Total GULP energy -198308.466722 kJ/mol
# GULP energy per Si atom -12394.279170 kJ/mol
# Density = 2.205817 g / cm^3
# Si number density = 22.108492 Si / 1000 Ang^3
#
#
#
# Elastic Constant Matrix: (Units=GPa)
#
#
# Indices 1 2 3 4 5 6 
#
# 1 71.8265 21.0468 39.8113 -0.0001 2.0751 0.0000
# 2 21.0468 103.4804 30.9838 0.0000 0.8214 0.0000
# 3 39.8113 30.9838 144.9344 -0.0002 2.9654 -0.0001
# 4 -0.0001 0.0000 -0.0002 25.2130 -0.0001 1.6733
# 5 2.0751 0.8214 2.9654 -0.0001 23.9027 0.0000
# 6 0.0000 0.0000 -0.0001 1.6733 0.0000 33.6345
#
#
#
# Elastic Compliance Matrix: (Units=1/GPa)
#
#
# Indices 1 2 3 4 5 6 
#
# 1 0.016891 -0.002184 -0.004155 0.000000 -0.000876 0.000000
# 2 -0.002184 0.010607 -0.001668 0.000000 0.000032 0.000000
# 3 -0.004155 -0.001668 0.008410 0.000000 -0.000625 0.000000
# 4 0.000000 0.000000 0.000000 0.039794 0.000000 -0.001980
# 5 -0.000876 0.000032 -0.000625 0.000000 0.041989 0.000000
# 6 0.000000 0.000000 0.000000 -0.001980 0.000000 0.029830
#
#
# Mechanical properties :
#
#
# Convention : Reuss Voigt Hill
#
# Bulk Modulus (GPa) = 50.26772 55.99167 53.12970
# Shear Modulus (GPa) = 29.38302 31.77665 30.57984
#
# Velocity S-wave (km/s) = 3.64955 3.79529 3.72314
# Velocity P-wave (km/s) = 6.36751 6.67731 6.52425
#
# Compressibility (1/GPa) = 0.01989348
#
# Stress axis : x y z
#
# Youngs Moduli (GPa) = 59.20429 94.27561 118.90140
#
# Poissons Ratio (x) = 0.20594 0.49400
# Poissons Ratio (y) = 0.12933 0.19835
# Poissons Ratio (z) = 0.24598 0.15727
#
# Static dielectric constant tensor:
#      x y z
#    x 3.914290 0.000000 0.069070 
#    y 0.000000 4.316200 0.000000 
#    z 0.069070 0.000000 4.042640 
# 
# 
# High freq. dielectric constant tensor:
#      x y z
#    x 1.850170 0.000000 0.012310 
#    y 0.000000 1.891520 0.000000 
#    z 0.012310 0.000000 1.855200 
# 
# From -- ./inp_files/16385.got.cif
#   From: 2010.03.12/outbox.cif.g09.slc.cpg/sg4_9_cif.got.tgz:16385.got - 2010.03.31 09:31:35.
