data_PCOD8046672
_publ_section_title
;
Structure prediction by ZEFSAII (Michael W. Deem and Ramdas Pophale) SiO2 
 PCOD8046672
Probable space group: P 21
;
_chemical_formula_sum "Si O2"
_cell_formula_units_Z 16
_cell_length_a 11.663093
_cell_length_b 8.114979
_cell_length_c 9.586448
_cell_angle_alpha 90.000000
_cell_angle_beta 135.534557
_cell_angle_gamma 90.000000
_cell_volume 635.556185
_symmetry_space_group_name_H-M "P 21"
_symmetry_group_IT_number 4
_symmetry_cell_setting 'monoclinic'
loop_
_space_group_symop_operation_xyz
x,y,z
-x,1/2+y,-z
loop_
_atom_site_type_symbol
_atom_site_label
_atom_site_fract_x
_atom_site_fract_y
_atom_site_fract_z
Si Si1 0.385267 0.626090 0.712381
Si Si2 0.702814 0.456280 0.022784
Si Si3 0.546050 0.363388 0.466591
Si Si4 0.173191 0.306822 0.489342
Si Si5 0.501165 0.689836 0.297298
Si Si6 0.108840 0.855433 0.566958
Si Si7 0.998162 0.002433 0.885055
Si Si8 0.908309 0.373111 0.758697
O O1 0.554531 0.577961 0.935149
O O2 0.444804 0.696682 0.615549
O O3 0.267818 0.472424 0.605686
O O4 0.279632 0.757732 0.704052
O O5 0.627788 0.272095 0.923146
O O6 0.834933 0.479491 0.262685
O O7 0.807498 0.514604 0.979314
O O8 0.440874 0.509848 0.298712
O O9 0.471686 0.320500 0.552336
O O10 0.728637 0.432331 0.645326
O O11 0.313450 0.165932 0.602709
O O12 0.047042 0.256787 0.504274
O O13 0.075869 0.343667 0.260978
O O14 0.054127 0.930066 0.368911
O O15 0.911956 0.173835 0.769825
O O16 0.971080 0.961939 0.026612
#
# Coordination Sequence:
#
# PCOD8046672 Si02
#       8
#     2   2   2   2   2   2   2   2
#     4  10  22  46  70  96 145 182 240 290 360 419
#     4  10  23  45  72 102 142 188 235 297 357 431
#     4  11  23  41  70 105 143 188 240 301 357 422
#     4  10  22  43  73  98 144 189 228 299 357 430
#     4  11  23  41  73 104 143 186 244 294 368 421
#     4  10  23  44  69 103 143 181 234 288 367 424
#     4  11  23  45  69 101 141 181 238 293 354 424
#     4  11  25  45  70 105 137 187 233 300 350 425
#
# _framework density 25.174802
#
# number of rings (size 3 to 8) (size 9 to 14) (size 15 to 20)
#    0.000    1.500    3.750    1.500    1.750    4.000 
#    6.750    0.000    0.000    0.000    0.000    0.000 
#    0.000    0.000    0.000    0.000    0.000    0.000 
#
# Total GULP energy -198216.265725 kJ/mol
# GULP energy per Si atom -12388.516608 kJ/mol
# Density = 2.511750 g / cm^3
# Si number density = 25.174802 Si / 1000 Ang^3
#
#
#
# Elastic Constant Matrix: (Units=GPa)
#
#
# Indices 1 2 3 4 5 6 
#
# 1 105.6459 -7.3187 51.9421 0.0000 -9.5853 0.0000
# 2 -7.3187 27.0077 5.3828 0.0000 0.9237 0.0000
# 3 51.9421 5.3828 117.3577 0.0000 -22.6393 0.0000
# 4 0.0000 0.0000 0.0000 28.8657 0.0000 2.4000
# 5 -9.5853 0.9237 -22.6393 0.0000 40.7230 0.0000
# 6 0.0000 0.0000 0.0000 2.4000 0.0000 24.0503
#
#
#
# Elastic Compliance Matrix: (Units=1/GPa)
#
#
# Indices 1 2 3 4 5 6 
#
# 1 0.012642 0.004612 -0.005884 0.000000 -0.000400 0.000000
# 2 0.004612 0.039199 -0.004258 0.000000 -0.002171 0.000000
# 3 -0.005884 -0.004258 0.012402 0.000000 0.005606 0.000000
# 4 0.000000 0.000000 0.000000 0.034933 0.000000 -0.003486
# 5 -0.000400 -0.002171 0.005606 0.000000 0.027628 0.000000
# 6 0.000000 0.000000 0.000000 -0.003486 0.000000 0.041927
#
#
# Mechanical properties :
#
#
# Convention : Reuss Voigt Hill
#
# Bulk Modulus (GPa) = 18.80290 38.89153 28.84721
# Shear Modulus (GPa) = 25.31410 32.06148 28.68779
#
# Velocity S-wave (km/s) = 3.17445 3.57256 3.37938
# Velocity P-wave (km/s) = 4.57399 5.70085 5.16822
#
# Compressibility (1/GPa) = 0.05318328
#
# Stress axis : x y z
#
# Youngs Moduli (GPa) = 79.10346 25.51074 80.63254
#
# Poissons Ratio (x) = -0.11766 0.47443
# Poissons Ratio (y) = -0.36483 0.34333
# Poissons Ratio (z) = 0.46544 0.10862
#
# Static dielectric constant tensor:
#      x y z
#    x 5.038780 0.000000 0.019790 
#    y 0.000000 4.382570 0.000000 
#    z 0.019790 0.000000 4.414240 
# 
# 
# High freq. dielectric constant tensor:
#      x y z
#    x 2.012800 0.000000 -0.000150 
#    y 0.000000 1.983920 0.000000 
#    z -0.000150 0.000000 1.997950 
# 
# From -- ./inp_files/8062.got.cif
#   From: 2010.03.12/outbox.cif.g09.slc.cpg/sg4_5_cif.got.tgz:8062.got - 2010.03.31 09:31:35.
