data_PCOD8047626
_publ_section_title
;
Structure prediction by ZEFSAII (Michael W. Deem and Ramdas Pophale) SiO2 
 PCOD8047626
Probable space group: P 21
;
_chemical_formula_sum "Si O2"
_cell_formula_units_Z 14
_cell_length_a 6.691255
_cell_length_b 6.895608
_cell_length_c 20.127889
_cell_angle_alpha 90.000000
_cell_angle_beta 132.683105
_cell_angle_gamma 90.000000
_cell_volume 682.705472
_symmetry_space_group_name_H-M "P 21"
_symmetry_group_IT_number 4
_symmetry_cell_setting 'monoclinic'
loop_
_space_group_symop_operation_xyz
x,y,z
-x,1/2+y,-z
loop_
_atom_site_type_symbol
_atom_site_label
_atom_site_fract_x
_atom_site_fract_y
_atom_site_fract_z
Si Si1 0.801385 0.064770 0.514175
Si Si2 0.535056 0.662115 0.912974
Si Si3 0.793278 0.498877 0.102351
Si Si4 0.785354 0.425827 0.599872
Si Si5 0.178177 0.720756 0.624861
Si Si6 0.253442 0.195353 0.179804
Si Si7 0.970165 0.896462 0.205136
O O1 0.876629 0.256113 0.571586
O O2 0.749594 0.105524 0.425372
O O3 0.532927 0.964597 0.483126
O O4 0.063615 0.930274 0.580219
O O5 0.744056 0.677114 0.899127
O O6 0.279471 0.534755 0.832135
O O7 0.443254 0.877346 0.914342
O O8 0.689764 0.554346 0.006614
O O9 0.858670 0.687950 0.159450
O O10 0.061506 0.370474 0.157797
O O11 0.955153 0.615535 0.619720
O O12 0.840905 0.366773 0.688234
O O13 0.449022 0.749603 0.727880
O O14 0.146877 0.992161 0.185870
#
# Coordination Sequence:
#
# PCOD8047626 Si02
#       7
#     2   2   2   2   2   2   2
#     4  12  26  42  71  97 134 182 222 273 336 395
#     4  11  24  46  67 100 138 175 215 278 330 395
#     4  11  26  43  69 101 133 175 226 266 334 403
#     4  12  25  43  69  99 136 177 222 278 333 392
#     4  12  25  45  65 103 138 170 228 278 331 391
#     4  11  27  42  69 100 137 171 221 282 325 398
#     4  11  25  45  68  98 136 176 220 273 335 396
#
# _framework density 20.506648999999999
#
# number of rings (size 3 to 8) (size 9 to 14) (size 15 to 20)
#    0.000    0.571    7.143    0.000    4.000    4.571 
#    0.000    0.000    0.000    0.000    0.000    0.000 
#    0.000    0.000    0.000    0.000    0.000    0.000 
#
# Total GULP energy -173710.623655 kJ/mol
# GULP energy per Si atom -12407.901690 kJ/mol
# Density = 2.045997 g / cm^3
# Si number density = 20.506649 Si / 1000 Ang^3
#
#
#
# Elastic Constant Matrix: (Units=GPa)
#
#
# Indices 1 2 3 4 5 6 
#
# 1 90.5825 23.0354 12.4335 0.0000 -14.0291 0.0000
# 2 23.0354 94.8276 28.9274 0.0000 -3.9655 0.0000
# 3 12.4335 28.9274 83.4816 0.0000 -8.1800 0.0000
# 4 0.0000 0.0000 0.0000 34.4414 0.0000 -1.8780
# 5 -14.0291 -3.9655 -8.1800 0.0000 41.7913 0.0000
# 6 0.0000 0.0000 0.0000 -1.8780 0.0000 26.5916
#
#
#
# Elastic Compliance Matrix: (Units=1/GPa)
#
#
# Indices 1 2 3 4 5 6 
#
# 1 0.012385 -0.002684 -0.000542 0.000000 0.003797 0.000000
# 2 -0.002684 0.012378 -0.003938 0.000000 -0.000497 0.000000
# 3 -0.000542 -0.003938 0.013631 0.000000 0.002112 0.000000
# 4 0.000000 0.000000 0.000000 0.029147 0.000000 0.002059
# 5 0.003797 -0.000497 0.002112 0.000000 0.025569 0.000000
# 6 0.000000 0.000000 0.000000 0.002059 0.000000 0.037751
#
#
# Mechanical properties :
#
#
# Convention : Reuss Voigt Hill
#
# Bulk Modulus (GPa) = 41.55532 44.18714 42.87123
# Shear Modulus (GPa) = 32.63446 34.19788 33.41617
#
# Velocity S-wave (km/s) = 3.99357 4.08812 4.04112
# Velocity P-wave (km/s) = 6.44772 6.62405 6.53648
#
# Compressibility (1/GPa) = 0.02406431
#
# Stress axis : x y z
#
# Youngs Moduli (GPa) = 80.74461 80.78830 73.36201
#
# Poissons Ratio (x) = 0.21686 0.03979
# Poissons Ratio (y) = 0.21674 0.28891
# Poissons Ratio (z) = 0.04380 0.31815
#
# Static dielectric constant tensor:
#      x y z
#    x 3.744330 0.000000 -0.017200 
#    y 0.000000 3.733330 0.000000 
#    z -0.017200 0.000000 3.738640 
# 
# 
# High freq. dielectric constant tensor:
#      x y z
#    x 1.808550 0.000000 -0.002590 
#    y 0.000000 1.807450 0.000000 
#    z -0.002590 0.000000 1.813500 
# 
# From -- ./inp_files/3298.got.cif
#   From: 2010.03.12/outbox.cif.g09.slc.cpg/sg4_2_cif.got.tgz:3298.got - 2010.03.31 09:31:35.
