data_PCOD8047339
_publ_section_title
;
Structure prediction by ZEFSAII (Michael W. Deem and Ramdas Pophale) SiO2 
 PCOD8047339
Probable space group: P 21
;
_chemical_formula_sum "Si O2"
_cell_formula_units_Z 16
_cell_length_a 11.205227
_cell_length_b 8.620888
_cell_length_c 14.367299
_cell_angle_alpha 90.000000
_cell_angle_beta 148.800750
_cell_angle_gamma 90.000000
_cell_volume 718.936957
_symmetry_space_group_name_H-M "P 21"
_symmetry_group_IT_number 4
_symmetry_cell_setting 'monoclinic'
loop_
_space_group_symop_operation_xyz
x,y,z
-x,1/2+y,-z
loop_
_atom_site_type_symbol
_atom_site_label
_atom_site_fract_x
_atom_site_fract_y
_atom_site_fract_z
Si Si1 0.481208 0.931680 0.231604
Si Si2 0.694796 0.752102 0.209747
Si Si3 0.501107 0.930358 0.910740
Si Si4 0.449381 0.711542 0.387155
Si Si5 0.229676 0.732985 0.591741
Si Si6 0.053079 0.126837 0.990697
Si Si7 0.310182 0.899282 0.457067
Si Si8 0.904640 0.944593 0.056898
O O1 0.523642 0.813582 0.175614
O O2 0.476257 0.837625 0.324080
O O3 0.689796 0.056187 0.370103
O O4 0.232443 0.016448 0.054722
O O5 0.638864 0.575794 0.143453
O O6 0.956411 0.750523 0.419165
O O7 0.660224 0.858372 0.096787
O O8 0.333243 0.799006 0.757094
O O9 0.663313 0.000044 0.937451
O O10 0.485679 0.803101 0.508471
O O11 0.642312 0.581998 0.506097
O O12 0.203708 0.621905 0.223218
O O13 0.320777 0.833825 0.567124
O O14 0.147520 0.302451 0.049019
O O15 0.034165 0.079917 0.086866
O O16 0.058789 0.880775 0.244106
#
# Coordination Sequence:
#
# PCOD8047339 Si02
#       8
#     2   2   2   2   2   2   2   2
#     4  12  24  45  72 101 140 185 238 293 356 421
#     4  12  28  48  70 105 138 190 248 289 353 421
#     4  12  26  48  74 100 146 187 239 298 352 416
#     4  11  25  42  67 106 141 181 230 289 356 435
#     4  12  25  47  75  98 141 187 238 304 347 419
#     4  11  22  41  70  99 137 179 227 279 361 417
#     4  11  23  42  67 103 143 178 231 283 357 426
#     4  11  23  43  69 102 142 181 229 287 354 427
#
# _framework density 22.255078999999999
#
# number of rings (size 3 to 8) (size 9 to 14) (size 15 to 20)
#    0.000    0.500    5.000    4.500    0.000    0.000 
#    4.500    0.000    0.000    0.000    0.000    0.000 
#    0.000    0.000    0.000    0.000    0.000    0.000 
#
# Total GULP energy -198411.978835 kJ/mol
# GULP energy per Si atom -12400.748677 kJ/mol
# Density = 2.220443 g / cm^3
# Si number density = 22.255079 Si / 1000 Ang^3
#
#
#
# Elastic Constant Matrix: (Units=GPa)
#
#
# Indices 1 2 3 4 5 6 
#
# 1 86.6652 24.6376 19.5491 0.0000 15.6923 0.0000
# 2 24.6376 108.1405 15.6240 0.0000 11.1997 0.0000
# 3 19.5491 15.6240 70.3165 0.0000 15.2854 0.0000
# 4 0.0000 0.0000 0.0000 36.0252 0.0000 -0.2210
# 5 15.6923 11.1997 15.2854 0.0000 25.7771 0.0000
# 6 0.0000 0.0000 0.0000 -0.2210 0.0000 38.6349
#
#
#
# Elastic Compliance Matrix: (Units=1/GPa)
#
#
# Indices 1 2 3 4 5 6 
#
# 1 0.013739 -0.002199 -0.001975 0.000000 -0.006237 0.000000
# 2 -0.002199 0.010160 -0.001122 0.000000 -0.002410 0.000000
# 3 -0.001975 -0.001122 0.016821 0.000000 -0.008284 0.000000
# 4 0.000000 0.000000 0.000000 0.027759 0.000000 0.000159
# 5 -0.006237 -0.002410 -0.008284 0.000000 0.048551 0.000000
# 6 0.000000 0.000000 0.000000 0.000159 0.000000 0.025884
#
#
# Mechanical properties :
#
#
# Convention : Reuss Voigt Hill
#
# Bulk Modulus (GPa) = 33.19289 42.74929 37.97109
# Shear Modulus (GPa) = 30.57203 33.77489 32.17346
#
# Velocity S-wave (km/s) = 3.71038 3.89990 3.80632
# Velocity P-wave (km/s) = 5.77088 6.28724 6.03459
#
# Compressibility (1/GPa) = 0.03012693
#
# Stress axis : x y z
#
# Youngs Moduli (GPa) = 72.78770 98.42584 59.45036
#
# Poissons Ratio (x) = 0.21641 0.11743
# Poissons Ratio (y) = 0.16004 0.06672
# Poissons Ratio (z) = 0.14377 0.11046
#
# Static dielectric constant tensor:
#      x y z
#    x 4.042760 0.000000 0.075410 
#    y 0.000000 4.176380 0.000000 
#    z 0.075410 0.000000 3.910920 
# 
# 
# High freq. dielectric constant tensor:
#      x y z
#    x 1.879780 0.000000 0.004920 
#    y 0.000000 1.885780 0.000000 
#    z 0.004920 0.000000 1.870990 
# 
# From -- ./inp_files/13978.got.cif
#   From: 2010.03.12/outbox.cif.g09.slc.cpg/sg4_7_cif.got.tgz:13978.got - 2010.03.31 09:31:35.
