data_PCOD8047386
_publ_section_title
;
Structure prediction by ZEFSAII (Michael W. Deem and Ramdas Pophale) SiO2 
 PCOD8047386
Probable space group: P 21
;
_chemical_formula_sum "Si O2"
_cell_formula_units_Z 16
_cell_length_a 20.091063
_cell_length_b 6.652374
_cell_length_c 7.379358
_cell_angle_alpha 90.000000
_cell_angle_beta 131.374002
_cell_angle_gamma 90.000000
_cell_volume 740.111890
_symmetry_space_group_name_H-M "P 21"
_symmetry_group_IT_number 4
_symmetry_cell_setting 'monoclinic'
loop_
_space_group_symop_operation_xyz
x,y,z
-x,1/2+y,-z
loop_
_atom_site_type_symbol
_atom_site_label
_atom_site_fract_x
_atom_site_fract_y
_atom_site_fract_z
Si Si1 0.645529 0.043040 0.328066
Si Si2 0.092593 0.688542 0.838901
Si Si3 0.190138 0.809366 0.378343
Si Si4 0.577964 0.317228 0.521335
Si Si5 0.296819 0.144701 0.391964
Si Si6 0.394329 0.499759 0.137782
Si Si7 0.092779 0.000370 0.529288
Si Si8 0.209144 0.335100 0.908722
O O1 0.745378 0.120775 0.470360
O O2 0.592411 0.177723 0.373732
O O3 0.649263 0.817488 0.409052
O O4 0.589036 0.051375 0.042110
O O5 0.076661 0.883663 0.687209
O O6 0.159636 0.544632 0.852071
O O7 0.000836 0.576876 0.714195
O O8 0.130084 0.761031 0.097640
O O9 0.131278 0.847593 0.449391
O O10 0.249482 0.006310 0.454415
O O11 0.633659 0.520788 0.604219
O O12 0.474520 0.365566 0.358307
O O13 0.613260 0.205890 0.763689
O O14 0.220917 0.232450 0.125352
O O15 0.304580 0.373462 0.992493
O O16 0.156000 0.191049 0.677013
#
# Coordination Sequence:
#
# PCOD8047386 Si02
#       8
#     2   2   2   2   2   2   2   2
#     4  11  25  46  69 102 139 184 232 289 349 421
#     4  12  25  47  68 101 141 181 231 299 349 419
#     4  11  25  44  71 102 136 182 236 288 353 426
#     4  11  27  45  68 104 140 183 234 293 343 413
#     4  11  22  46  71  99 141 180 229 294 351 408
#     4  12  26  46  72 101 143 188 238 284 354 426
#     4  12  27  44  72 102 139 186 236 289 360 420
#     4  12  23  46  73  97 141 184 228 292 353 415
#
# _framework density 21.618354
#
# number of rings (size 3 to 8) (size 9 to 14) (size 15 to 20)
#    0.000    0.500    5.000    3.000    3.500    2.000 
#    4.500    0.000    0.000    0.000    0.000    0.000 
#    0.000    0.000    0.000    0.000    0.000    0.000 
#
# Total GULP energy -198530.200418 kJ/mol
# GULP energy per Si atom -12408.137526 kJ/mol
# Density = 2.156915 g / cm^3
# Si number density = 21.618354 Si / 1000 Ang^3
#
#
#
# Elastic Constant Matrix: (Units=GPa)
#
#
# Indices 1 2 3 4 5 6 
#
# 1 82.1434 34.1409 32.2512 0.0000 3.0373 0.0000
# 2 34.1409 107.0222 31.4134 0.0000 -0.6903 0.0000
# 3 32.2512 31.4134 79.9194 0.0000 -2.0172 0.0000
# 4 0.0000 0.0000 0.0000 36.6447 0.0000 3.6634
# 5 3.0373 -0.6903 -2.0172 0.0000 47.4278 0.0000
# 6 0.0000 0.0000 0.0000 3.6634 0.0000 34.4114
#
#
#
# Elastic Compliance Matrix: (Units=1/GPa)
#
#
# Indices 1 2 3 4 5 6 
#
# 1 0.015636 -0.003544 -0.004949 0.000000 -0.001263 0.000000
# 2 -0.003544 0.011366 -0.003031 0.000000 0.000263 0.000000
# 3 -0.004949 -0.003031 0.015725 0.000000 0.000942 0.000000
# 4 0.000000 0.000000 0.000000 0.027583 0.000000 -0.002936
# 5 -0.001263 0.000263 0.000942 0.000000 0.021209 0.000000
# 6 0.000000 0.000000 0.000000 -0.002936 0.000000 0.029373
#
#
# Mechanical properties :
#
#
# Convention : Reuss Voigt Hill
#
# Bulk Modulus (GPa) = 50.81294 51.63289 51.22292
# Shear Modulus (GPa) = 33.22292 35.11544 34.16918
#
# Velocity S-wave (km/s) = 3.92445 4.03468 3.97994
# Velocity P-wave (km/s) = 6.64008 6.75577 6.69817
#
# Compressibility (1/GPa) = 0.01968003
#
# Stress axis : x y z
#
# Youngs Moduli (GPa) = 63.95296 87.98483 63.59379
#
# Poissons Ratio (x) = 0.31179 0.31473
# Poissons Ratio (y) = 0.22663 0.19273
# Poissons Ratio (z) = 0.31651 0.26666
#
# Static dielectric constant tensor:
#      x y z
#    x 3.814030 0.000000 0.010490 
#    y 0.000000 4.047680 0.000000 
#    z 0.010490 0.000000 3.967050 
# 
# 
# High freq. dielectric constant tensor:
#      x y z
#    x 1.850040 0.000000 -0.000250 
#    y 0.000000 1.862330 0.000000 
#    z -0.000250 0.000000 1.855360 
# 
# From -- ./inp_files/9871.got.cif
#   From: 2010.03.12/outbox.cif.g09.slc.cpg/sg4_5_cif.got.tgz:9871.got - 2010.03.31 09:31:35.
