data_PCOD8047643
_publ_section_title
;
Structure prediction by ZEFSAII (Michael W. Deem and Ramdas Pophale) SiO2 
 PCOD8047643
Probable space group: P 21
;
_chemical_formula_sum "Si O2"
_cell_formula_units_Z 16
_cell_length_a 9.200750
_cell_length_b 12.591475
_cell_length_c 9.077711
_cell_angle_alpha 90.000000
_cell_angle_beta 37.239936
_cell_angle_gamma 90.000000
_cell_volume 636.417648
_symmetry_space_group_name_H-M "P 21"
_symmetry_group_IT_number 4
_symmetry_cell_setting 'monoclinic'
loop_
_space_group_symop_operation_xyz
x,y,z
-x,1/2+y,-z
loop_
_atom_site_type_symbol
_atom_site_label
_atom_site_fract_x
_atom_site_fract_y
_atom_site_fract_z
Si Si1 0.539649 0.378010 0.706490
Si Si2 0.816869 0.668437 0.319520
Si Si3 0.968108 0.612967 0.898000
Si Si4 0.974242 0.886691 0.536764
Si Si5 0.657612 0.708508 0.910376
Si Si6 0.730419 0.054768 0.907178
Si Si7 0.629235 0.275038 0.335398
Si Si8 0.053321 0.884375 0.141870
O O1 0.506693 0.344891 0.563368
O O2 0.821979 0.401094 0.503060
O O3 0.468453 0.281932 0.868622
O O4 0.375577 0.481243 0.875584
O O5 0.543621 0.683102 0.599183
O O6 0.016069 0.609707 0.255355
O O7 0.871870 0.792093 0.251197
O O8 0.792483 0.613569 0.180452
O O9 0.156193 0.707909 0.764723
O O10 0.821729 0.624956 0.864853
O O11 0.072598 0.493721 0.808022
O O12 0.829624 0.775463 0.662525
O O13 0.106786 0.891628 0.273173
O O14 0.784894 0.982390 0.719401
O O15 0.458987 0.646048 0.977650
O O16 0.703699 0.355966 0.144926
#
# Coordination Sequence:
#
# PCOD8047643 Si02
#       8
#     2   2   2   2   2   2   2   2
#     4  11  24  46  81 111 151 211 258 320 395 468
#     4  11  27  48  74 113 157 198 258 332 378 471
#     4  11  25  46  77 109 148 202 256 316 399 458
#     4  11  26  48  79 110 162 201 257 330 385 473
#     4  11  24  48  75 113 155 201 260 318 396 464
#     4  11  28  46  81 118 152 206 265 321 398 467
#     4  11  26  50  77 110 157 205 259 330 389 470
#     4  11  28  46  72 116 152 198 261 321 394 467
#
# _framework density 25.140723999999999
#
# number of rings (size 3 to 8) (size 9 to 14) (size 15 to 20)
#    0.000    1.000    2.500    1.500    5.250   12.000 
#    2.250    0.000    0.000    0.000    0.000    0.000 
#    0.000    0.000    0.000    0.000    0.000    0.000 
#
# Total GULP energy -198298.656015 kJ/mol
# GULP energy per Si atom -12393.666001 kJ/mol
# Density = 2.508350 g / cm^3
# Si number density = 25.140724 Si / 1000 Ang^3
#
#
#
# Elastic Constant Matrix: (Units=GPa)
#
#
# Indices 1 2 3 4 5 6 
#
# 1 114.7976 41.6430 53.0303 0.0000 2.2060 0.0000
# 2 41.6430 147.5894 50.1143 0.0000 16.3301 0.0000
# 3 53.0303 50.1143 121.5125 0.0000 16.8490 0.0000
# 4 0.0000 0.0000 0.0000 40.1938 0.0000 -6.3892
# 5 2.2060 16.3301 16.8490 0.0000 40.8806 0.0000
# 6 0.0000 0.0000 0.0000 -6.3892 0.0000 29.2048
#
#
#
# Elastic Compliance Matrix: (Units=1/GPa)
#
#
# Indices 1 2 3 4 5 6 
#
# 1 0.011439 -0.001930 -0.004473 0.000000 0.001997 0.000000
# 2 -0.001930 0.008349 -0.002284 0.000000 -0.002290 0.000000
# 3 -0.004473 -0.002284 0.011628 0.000000 -0.003639 0.000000
# 4 0.000000 0.000000 0.000000 0.025776 0.000000 0.005639
# 5 0.001997 -0.002290 -0.003639 0.000000 0.026768 0.000000
# 6 0.000000 0.000000 0.000000 0.005639 0.000000 0.035475
#
#
# Mechanical properties :
#
#
# Convention : Reuss Voigt Hill
#
# Bulk Modulus (GPa) = 71.21021 74.83054 73.02037
# Shear Modulus (GPa) = 35.33853 37.99665 36.66759
#
# Velocity S-wave (km/s) = 3.75324 3.89184 3.82317
# Velocity P-wave (km/s) = 6.86794 7.07280 6.97112
#
# Compressibility (1/GPa) = 0.01404293
#
# Stress axis : x y z
#
# Youngs Moduli (GPa) = 87.42021 119.77854 85.99758
#
# Poissons Ratio (x) = 0.23113 0.38469
# Poissons Ratio (y) = 0.16869 0.19638
# Poissons Ratio (z) = 0.39106 0.27353
#
# Static dielectric constant tensor:
#      x y z
#    x 4.268170 0.000000 -0.042790 
#    y 0.000000 4.784420 0.000000 
#    z -0.042790 0.000000 4.867920 
# 
# 
# High freq. dielectric constant tensor:
#      x y z
#    x 1.993410 0.000000 0.002180 
#    y 0.000000 2.017970 0.000000 
#    z 0.002180 0.000000 2.007880 
# 
# From -- ./inp_files/6341.got.cif
#   From: 2010.03.12/outbox.cif.g09.slc.cpg/sg4_4_cif.got.tgz:6341.got - 2010.03.31 09:31:35.
