data_PCOD8047548
_publ_section_title
;
Structure prediction by ZEFSAII (Michael W. Deem and Ramdas Pophale) SiO2 
 PCOD8047548
Probable space group: P 21
;
_chemical_formula_sum "Si O2"
_cell_formula_units_Z 14
_cell_length_a 11.871598
_cell_length_b 8.606627
_cell_length_c 9.408421
_cell_angle_alpha 90.000000
_cell_angle_beta 38.393404
_cell_angle_gamma 90.000000
_cell_volume 597.022579
_symmetry_space_group_name_H-M "P 21"
_symmetry_group_IT_number 4
_symmetry_cell_setting 'monoclinic'
loop_
_space_group_symop_operation_xyz
x,y,z
-x,1/2+y,-z
loop_
_atom_site_type_symbol
_atom_site_label
_atom_site_fract_x
_atom_site_fract_y
_atom_site_fract_z
Si Si1 0.011976 0.871470 0.331916
Si Si2 0.598542 0.660933 0.165263
Si Si3 0.771160 0.599006 0.703627
Si Si4 0.846219 0.144962 0.017834
Si Si5 0.498153 0.497331 0.739260
Si Si6 0.256169 0.511468 0.596965
Si Si7 0.234174 0.163164 0.718966
O O1 0.893715 0.723120 0.499078
O O2 0.889107 0.009766 0.388040
O O3 0.147849 0.811408 0.071028
O O4 0.118010 0.944213 0.360823
O O5 0.452182 0.523745 0.328189
O O6 0.761976 0.637150 0.115624
O O7 0.480498 0.815457 0.307516
O O8 0.689618 0.677015 0.923277
O O9 0.598214 0.549489 0.782817
O O10 0.056006 0.085312 0.823177
O O11 0.717613 0.037197 0.046806
O O12 0.775786 0.147052 0.252123
O O13 0.584739 0.586023 0.520644
O O14 0.238861 0.347314 0.692746
#
# Coordination Sequence:
#
# PCOD8047548 Si02
#       7
#     2   2   2   2   2   2   2
#     4  11  29  50  74 111 153 206 256 309 388 458
#     4  12  27  44  77 111 149 196 251 310 390 449
#     4  12  30  48  75 109 158 204 248 312 385 465
#     4  11  24  46  80 104 152 194 257 320 368 443
#     4  12  27  47  72 110 150 199 246 316 372 456
#     4  11  24  47  75 111 146 192 258 315 371 450
#     4  11  23  50  73 112 146 197 258 314 372 441
#
# _framework density 23.449701000000001
#
# number of rings (size 3 to 8) (size 9 to 14) (size 15 to 20)
#    0.000    0.571    5.714    0.857   10.000    3.429 
#    0.000    0.000    0.000    0.000    0.000    0.000 
#    0.000    0.000    0.000    0.000    0.000    0.000 
#
# Total GULP energy -173527.632174 kJ/mol
# GULP energy per Si atom -12394.830870 kJ/mol
# Density = 2.339633 g / cm^3
# Si number density = 23.449701 Si / 1000 Ang^3
#
#
#
# Elastic Constant Matrix: (Units=GPa)
#
#
# Indices 1 2 3 4 5 6 
#
# 1 190.7948 64.3515 50.7474 0.0000 -0.5272 0.0000
# 2 64.3515 60.5046 34.9640 0.0000 -10.3784 0.0000
# 3 50.7474 34.9640 104.0914 0.0000 0.2537 0.0000
# 4 0.0000 0.0000 0.0000 30.3858 0.0000 1.6032
# 5 -0.5272 -10.3784 0.2537 0.0000 43.4801 0.0000
# 6 0.0000 0.0000 0.0000 1.6032 0.0000 38.8316
#
#
#
# Elastic Compliance Matrix: (Units=1/GPa)
#
#
# Indices 1 2 3 4 5 6 
#
# 1 0.008477 -0.008643 -0.001225 0.000000 -0.001953 0.000000
# 2 -0.008643 0.030438 -0.006028 0.000000 0.007196 0.000000
# 3 -0.001225 -0.006028 0.012232 0.000000 -0.001525 0.000000
# 4 0.000000 0.000000 0.000000 0.032982 0.000000 -0.001362
# 5 -0.001953 0.007196 -0.001525 0.000000 0.024702 0.000000
# 6 0.000000 0.000000 0.000000 -0.001362 0.000000 0.025808
#
#
# Mechanical properties :
#
#
# Convention : Reuss Voigt Hill
#
# Bulk Modulus (GPa) = 51.66373 72.83516 62.24944
# Shear Modulus (GPa) = 28.92150 36.22803 32.57476
#
# Velocity S-wave (km/s) = 3.51571 3.93482 3.73115
# Velocity P-wave (km/s) = 6.20965 7.19523 6.72053
#
# Compressibility (1/GPa) = 0.01935594
#
# Stress axis : x y z
#
# Youngs Moduli (GPa) = 117.97081 32.85407 81.74969
#
# Poissons Ratio (x) = 0.28395 0.10012
# Poissons Ratio (y) = 1.01961 0.49277
# Poissons Ratio (z) = 0.14448 0.19804
#
# Static dielectric constant tensor:
#      x y z
#    x 4.621920 0.000000 -0.026010 
#    y 0.000000 3.998350 0.000000 
#    z -0.026010 0.000000 4.134890 
# 
# 
# High freq. dielectric constant tensor:
#      x y z
#    x 1.954420 0.000000 -0.001450 
#    y 0.000000 1.909770 0.000000 
#    z -0.001450 0.000000 1.923750 
# 
# From -- ./inp_files/7463.got.cif
#   From: 2010.03.12/outbox.cif.g09.slc.cpg/sg4_4_cif.got.tgz:7463.got - 2010.03.31 09:31:35.
