data_PCOD8047441
_publ_section_title
;
Structure prediction by ZEFSAII (Michael W. Deem and Ramdas Pophale) SiO2 
 PCOD8047441
Probable space group: P 21
;
_chemical_formula_sum "Si O2"
_cell_formula_units_Z 16
_cell_length_a 11.642201
_cell_length_b 8.591049
_cell_length_c 11.860370
_cell_angle_alpha 90.000000
_cell_angle_beta 35.831794
_cell_angle_gamma 90.000000
_cell_volume 694.445106
_symmetry_space_group_name_H-M "P 21"
_symmetry_group_IT_number 4
_symmetry_cell_setting 'monoclinic'
loop_
_space_group_symop_operation_xyz
x,y,z
-x,1/2+y,-z
loop_
_atom_site_type_symbol
_atom_site_label
_atom_site_fract_x
_atom_site_fract_y
_atom_site_fract_z
Si Si1 0.097882 0.809560 0.282788
Si Si2 0.265807 0.236952 0.160785
Si Si3 0.113908 0.347949 0.773374
Si Si4 0.567821 0.007247 0.596656
Si Si5 0.108092 0.027669 0.471347
Si Si6 0.505714 0.457280 0.095824
Si Si7 0.860747 0.510699 0.156164
Si Si8 0.849780 0.301711 0.378591
O O1 0.977939 0.879766 0.275152
O O2 0.065464 0.626820 0.331660
O O3 0.018325 0.900244 0.457144
O O4 0.323581 0.837509 0.075379
O O5 0.251984 0.139358 0.288181
O O6 0.337167 0.410121 0.138857
O O7 0.065118 0.245799 0.249400
O O8 0.427313 0.138313 0.961314
O O9 0.342169 0.391607 0.570719
O O10 0.073194 0.171278 0.839819
O O11 0.020159 0.469006 0.934986
O O12 0.347769 0.042729 0.734364
O O13 0.694287 0.164135 0.503074
O O14 0.565219 0.923794 0.720494
O O15 0.226104 0.936458 0.475769
O O16 0.862099 0.370185 0.243607
#
# Coordination Sequence:
#
# PCOD8047441 Si02
#       8
#     2   2   2   2   2   2   2   2
#     4  11  23  46  71 110 151 197 246 311 379 448
#     4  11  27  43  70 114 153 199 244 312 386 450
#     4  12  26  48  78 105 153 197 253 312 375 443
#     4  12  27  50  74 106 149 200 256 315 368 449
#     4  11  23  42  73 107 143 200 242 303 388 450
#     4  11  27  43  72 109 156 193 251 311 375 455
#     4  12  28  51  76 111 146 204 258 310 376 450
#     4  12  27  47  78 106 151 198 252 312 385 445
#
# _framework density 23.039977
#
# number of rings (size 3 to 8) (size 9 to 14) (size 15 to 20)
#    0.000    0.500    3.750    3.750    8.750    0.000 
#    0.000    1.250    0.000    0.000    0.000    0.000 
#    0.000    0.000    0.000    0.000    0.000    0.000 
#
# Total GULP energy -198380.092433 kJ/mol
# GULP energy per Si atom -12398.755777 kJ/mol
# Density = 2.298754 g / cm^3
# Si number density = 23.039977 Si / 1000 Ang^3
#
#
#
# Elastic Constant Matrix: (Units=GPa)
#
#
# Indices 1 2 3 4 5 6 
#
# 1 97.4969 23.6449 35.0143 0.0000 9.2115 0.0000
# 2 23.6449 101.0330 42.9637 0.0000 6.8329 0.0000
# 3 35.0143 42.9637 123.6287 0.0000 17.2474 0.0000
# 4 0.0000 0.0000 0.0000 37.8340 0.0000 8.2546
# 5 9.2115 6.8329 17.2474 0.0000 36.1715 0.0000
# 6 0.0000 0.0000 0.0000 8.2546 0.0000 36.6985
#
#
#
# Elastic Compliance Matrix: (Units=1/GPa)
#
#
# Indices 1 2 3 4 5 6 
#
# 1 0.011693 -0.001544 -0.002571 0.000000 -0.001460 0.000000
# 2 -0.001544 0.011821 -0.003657 0.000000 -0.000096 0.000000
# 3 -0.002571 -0.003657 0.010606 0.000000 -0.003711 0.000000
# 4 0.000000 0.000000 0.000000 0.027795 0.000000 -0.006252
# 5 -0.001460 -0.000096 -0.003711 0.000000 0.029806 0.000000
# 6 0.000000 0.000000 0.000000 -0.006252 0.000000 0.028655
#
#
# Mechanical properties :
#
#
# Convention : Reuss Voigt Hill
#
# Bulk Modulus (GPa) = 53.83987 58.37826 56.10907
# Shear Modulus (GPa) = 35.18344 36.84318 36.01331
#
# Velocity S-wave (km/s) = 3.91200 4.00321 3.95787
# Velocity P-wave (km/s) = 6.61995 6.83816 6.72994
#
# Compressibility (1/GPa) = 0.01857360
#
# Stress axis : x y z
#
# Youngs Moduli (GPa) = 85.52405 84.59610 94.28873
#
# Poissons Ratio (x) = 0.13064 0.24244
# Poissons Ratio (y) = 0.13207 0.34484
# Poissons Ratio (z) = 0.21990 0.30939
#
# Static dielectric constant tensor:
#      x y z
#    x 4.085520 0.000000 0.138000 
#    y 0.000000 4.287550 0.000000 
#    z 0.138000 0.000000 4.433670 
# 
# 
# High freq. dielectric constant tensor:
#      x y z
#    x 1.902660 0.000000 0.010240 
#    y 0.000000 1.921940 0.000000 
#    z 0.010240 0.000000 1.921840 
# 
# From -- ./inp_files/11975.got.cif
#   From: 2010.03.12/outbox.cif.g09.slc.cpg/sg4_6_cif.got.tgz:11975.got - 2010.03.31 09:31:35.
