data_PCOD8047427
_publ_section_title
;
Structure prediction by ZEFSAII (Michael W. Deem and Ramdas Pophale) SiO2 
 PCOD8047427
Probable space group: P 21
;
_chemical_formula_sum "Si O2"
_cell_formula_units_Z 14
_cell_length_a 11.780479
_cell_length_b 9.848251
_cell_length_c 8.875532
_cell_angle_alpha 90.000000
_cell_angle_beta 144.131499
_cell_angle_gamma 90.000000
_cell_volume 603.336942
_symmetry_space_group_name_H-M "P 21"
_symmetry_group_IT_number 4
_symmetry_cell_setting 'monoclinic'
loop_
_space_group_symop_operation_xyz
x,y,z
-x,1/2+y,-z
loop_
_atom_site_type_symbol
_atom_site_label
_atom_site_fract_x
_atom_site_fract_y
_atom_site_fract_z
Si Si1 0.267236 0.302790 0.492046
Si Si2 0.929222 0.393409 0.320524
Si Si3 0.349868 0.660490 0.092864
Si Si4 0.933870 0.581299 0.899792
Si Si5 0.339165 0.569259 0.421614
Si Si6 0.719616 0.626692 0.947295
Si Si7 0.902842 0.911851 0.188714
O O1 0.439759 0.207012 0.746167
O O2 0.102729 0.212531 0.239010
O O3 0.356029 0.405410 0.462952
O O4 0.150893 0.384996 0.496616
O O5 0.942702 0.376861 0.515093
O O6 0.797488 0.282070 0.097928
O O7 0.826822 0.540059 0.190425
O O8 0.389180 0.623901 0.309347
O O9 0.251872 0.525057 0.917209
O O10 0.759214 0.551482 0.827295
O O11 0.983026 0.458480 0.839160
O O12 0.115499 0.610627 0.208463
O O13 0.484962 0.630935 0.704213
O O14 0.786709 0.779724 0.018087
#
# Coordination Sequence:
#
# PCOD8047427 Si02
#       7
#     2   2   2   2   2   2   2
#     4  12  23  45  69 106 137 191 232 290 360 419
#     4  12  25  48  72  99 153 191 233 293 359 434
#     4  11  24  45  73 100 147 186 237 295 351 422
#     4  11  23  44  73  98 139 180 239 289 349 416
#     4  11  23  41  70 109 133 177 240 293 354 399
#     4  12  25  44  75 105 143 182 244 300 350 426
#     4  11  27  49  68 109 146 191 233 294 363 422
#
# _framework density 23.204281999999999
#
# number of rings (size 3 to 8) (size 9 to 14) (size 15 to 20)
#    0.000    0.571    7.143    2.571    0.000    0.000 
#   10.286    0.000    0.000    0.000    0.000    0.000 
#    0.000    0.000    0.000    0.000    0.000    0.000 
#
# Total GULP energy -173455.738725 kJ/mol
# GULP energy per Si atom -12389.695623 kJ/mol
# Density = 2.315147 g / cm^3
# Si number density = 23.204282 Si / 1000 Ang^3
#
#
#
# Elastic Constant Matrix: (Units=GPa)
#
#
# Indices 1 2 3 4 5 6 
#
# 1 41.9474 16.7764 31.7255 0.0000 4.5305 0.0000
# 2 16.7764 134.4947 39.7805 0.0000 5.7091 0.0000
# 3 31.7255 39.7805 113.3382 0.0000 5.5999 0.0000
# 4 0.0000 0.0000 0.0000 44.3723 0.0000 7.3429
# 5 4.5305 5.7091 5.5999 0.0000 27.3449 0.0000
# 6 0.0000 0.0000 0.0000 7.3429 0.0000 22.8658
#
#
#
# Elastic Compliance Matrix: (Units=1/GPa)
#
#
# Indices 1 2 3 4 5 6 
#
# 1 0.030756 -0.001341 -0.007981 0.000000 -0.003181 0.000000
# 2 -0.001341 0.008391 -0.002520 0.000000 -0.001014 0.000000
# 3 -0.007981 -0.002520 0.011971 0.000000 -0.000603 0.000000
# 4 0.000000 0.000000 0.000000 0.023801 0.000000 -0.007643
# 5 -0.003181 -0.001014 -0.000603 0.000000 0.037432 0.000000
# 6 0.000000 0.000000 0.000000 -0.007643 0.000000 0.046188
#
#
# Mechanical properties :
#
#
# Convention : Reuss Voigt Hill
#
# Bulk Modulus (GPa) = 36.45050 51.81610 44.13330
# Shear Modulus (GPa) = 26.12775 32.34980 29.23878
#
# Velocity S-wave (km/s) = 3.35922 3.73786 3.55358
# Velocity P-wave (km/s) = 5.54873 6.40372 5.99150
#
# Compressibility (1/GPa) = 0.02743447
#
# Stress axis : x y z
#
# Youngs Moduli (GPa) = 32.51446 119.17865 83.53187
#
# Poissons Ratio (x) = 0.15977 0.66670
# Poissons Ratio (y) = 0.04359 0.21048
# Poissons Ratio (z) = 0.25951 0.30030
#
# Static dielectric constant tensor:
#      x y z
#    x 4.052680 0.000000 0.304400 
#    y 0.000000 4.168770 0.000000 
#    z 0.304400 0.000000 4.423120 
# 
# 
# High freq. dielectric constant tensor:
#      x y z
#    x 1.883570 0.000000 0.015380 
#    y 0.000000 1.920770 0.000000 
#    z 0.015380 0.000000 1.934360 
# 
# From -- ./inp_files/8088.got.cif
#   From: 2010.03.12/outbox.cif.g09.slc.cpg/sg4_5_cif.got.tgz:8088.got - 2010.03.31 09:31:35.
