data_PCOD8047048
_publ_section_title
;
Structure prediction by ZEFSAII (Michael W. Deem and Ramdas Pophale) SiO2 
 PCOD8047048
Probable space group: P 21
;
_chemical_formula_sum "Si O2"
_cell_formula_units_Z 16
_cell_length_a 9.658045
_cell_length_b 7.820364
_cell_length_c 12.910284
_cell_angle_alpha 90.000000
_cell_angle_beta 46.427122
_cell_angle_gamma 90.000000
_cell_volume 706.462825
_symmetry_space_group_name_H-M "P 21"
_symmetry_group_IT_number 4
_symmetry_cell_setting 'monoclinic'
loop_
_space_group_symop_operation_xyz
x,y,z
-x,1/2+y,-z
loop_
_atom_site_type_symbol
_atom_site_label
_atom_site_fract_x
_atom_site_fract_y
_atom_site_fract_z
Si Si1 0.142008 0.406620 0.954793
Si Si2 0.996463 0.693761 0.156023
Si Si3 0.502639 0.031682 0.341385
Si Si4 0.323571 0.617751 0.131013
Si Si5 0.806343 0.332906 0.616385
Si Si6 0.262586 0.240512 0.090758
Si Si7 0.353242 0.327408 0.550091
Si Si8 0.940277 0.075136 0.385021
O O1 0.298613 0.533681 0.823885
O O2 0.013885 0.331520 0.929815
O O3 0.998748 0.507424 0.103596
O O4 0.244976 0.266289 0.975327
O O5 0.187482 0.727840 0.124364
O O6 0.810022 0.699296 0.324093
O O7 0.339053 0.980031 0.344748
O O8 0.506861 0.887705 0.429805
O O9 0.468180 0.222837 0.403245
O O10 0.295565 0.687754 0.261571
O O11 0.266009 0.419398 0.151757
O O12 0.542807 0.639580 0.983796
O O13 0.899328 0.245230 0.469418
O O14 0.976175 0.423579 0.589040
O O15 0.086608 0.123628 0.218152
O O16 0.257889 0.502439 0.558235
#
# Coordination Sequence:
#
# PCOD8047048 Si02
#       8
#     2   2   2   2   2   2   2   2
#     4  10  24  43  68 101 131 175 226 278 337 407
#     4  10  24  42  67  99 130 177 222 275 341 399
#     4  11  25  45  67 101 138 177 236 281 341 411
#     4  11  23  45  64 102 136 177 227 283 343 404
#     4  12  24  44  66 101 132 180 232 276 348 410
#     4  11  25  43  70  99 138 177 227 287 341 407
#     4  11  25  47  69  97 139 182 226 288 342 402
#     4  12  26  43  71  98 136 181 228 286 343 412
#
# _framework density 22.648043000000001
#
# number of rings (size 3 to 8) (size 9 to 14) (size 15 to 20)
#    0.000    1.000    2.500    3.000    8.750    1.000 
#    0.000    0.000    0.000    0.000    0.000    0.000 
#    0.000    0.000    0.000    0.000    0.000    0.000 
#
# Total GULP energy -198466.025505 kJ/mol
# GULP energy per Si atom -12404.126594 kJ/mol
# Density = 2.259649 g / cm^3
# Si number density = 22.648043 Si / 1000 Ang^3
#
#
#
# Elastic Constant Matrix: (Units=GPa)
#
#
# Indices 1 2 3 4 5 6 
#
# 1 76.6312 17.5851 31.2731 0.0000 6.1827 0.0000
# 2 17.5851 69.2604 24.7109 0.0000 -1.8487 0.0000
# 3 31.2731 24.7109 78.1705 0.0000 4.3657 0.0000
# 4 0.0000 0.0000 0.0000 54.9028 0.0000 2.0381
# 5 6.1827 -1.8487 4.3657 0.0000 26.9919 0.0000
# 6 0.0000 0.0000 0.0000 2.0381 0.0000 33.3505
#
#
#
# Elastic Compliance Matrix: (Units=1/GPa)
#
#
# Indices 1 2 3 4 5 6 
#
# 1 0.016058 -0.002166 -0.005576 0.000000 -0.002925 0.000000
# 2 -0.002166 0.016670 -0.004536 0.000000 0.002371 0.000000
# 3 -0.005576 -0.004536 0.016553 0.000000 -0.001711 0.000000
# 4 0.000000 0.000000 0.000000 0.018255 0.000000 -0.001116
# 5 -0.002925 0.002371 -0.001711 0.000000 0.038157 0.000000
# 6 0.000000 0.000000 0.000000 -0.001116 0.000000 0.030053
#
#
# Mechanical properties :
#
#
# Convention : Reuss Voigt Hill
#
# Bulk Modulus (GPa) = 40.44426 41.24449 40.84437
# Shear Modulus (GPa) = 29.66607 33.08190 31.37399
#
# Velocity S-wave (km/s) = 3.62314 3.82605 3.72598
# Velocity P-wave (km/s) = 5.94974 6.14563 6.04848
#
# Compressibility (1/GPa) = 0.02472539
#
# Stress axis : x y z
#
# Youngs Moduli (GPa) = 62.27373 59.98936 60.41305
#
# Poissons Ratio (x) = 0.12992 0.33688
# Poissons Ratio (y) = 0.13486 0.27401
# Poissons Ratio (z) = 0.34726 0.27209
#
# Static dielectric constant tensor:
#      x y z
#    x 4.269800 0.000000 0.092150 
#    y 0.000000 3.846420 0.000000 
#    z 0.092150 0.000000 4.039910 
# 
# 
# High freq. dielectric constant tensor:
#      x y z
#    x 1.906540 0.000000 0.007510 
#    y 0.000000 1.885140 0.000000 
#    z 0.007510 0.000000 1.890700 
# 
# From -- ./inp_files/11029.got.cif
#   From: 2010.03.12/outbox.cif.g09.slc.cpg/sg4_6_cif.got.tgz:11029.got - 2010.03.31 09:31:35.
