data_PCOD8047409
_publ_section_title
;
Structure prediction by ZEFSAII (Michael W. Deem and Ramdas Pophale) SiO2 
 PCOD8047409
Probable space group: P 21
;
_chemical_formula_sum "Si O2"
_cell_formula_units_Z 10
_cell_length_a 23.364525
_cell_length_b 4.928920
_cell_length_c 12.344970
_cell_angle_alpha 90.000000
_cell_angle_beta 18.858615
_cell_angle_gamma 90.000000
_cell_volume 459.532004
_symmetry_space_group_name_H-M "P 21"
_symmetry_group_IT_number 4
_symmetry_cell_setting 'monoclinic'
loop_
_space_group_symop_operation_xyz
x,y,z
-x,1/2+y,-z
loop_
_atom_site_type_symbol
_atom_site_label
_atom_site_fract_x
_atom_site_fract_y
_atom_site_fract_z
Si Si1 0.289927 0.501190 0.728398
Si Si2 0.101965 0.390772 0.848248
Si Si3 0.450210 0.130272 0.151758
Si Si4 0.118303 0.510512 0.263394
Si Si5 0.518322 0.019836 0.271606
O O1 0.151996 0.402700 0.884908
O O2 0.431085 0.260514 0.499999
O O3 0.392823 0.760514 0.500003
O O4 0.180329 0.577338 0.031020
O O5 0.256577 0.260520 0.500005
O O6 0.064625 0.689693 0.868146
O O7 0.536899 0.118323 0.115102
O O8 0.567228 0.331363 0.868157
O O9 0.014857 0.760511 0.500001
O O10 0.288652 0.443686 0.031020
#
# Coordination Sequence:
#
# PCOD8047409 Si02
#       5
#     2   2   2   2   2
#     4  11  23  44  66  88 123 171 208 242 304 383
#     4  11  23  40  63  93 125 163 207 252 304 364
#     4  11  23  40  63  93 125 163 207 252 304 364
#     4  12  26  42  64  98 124 154 206 268 314 348
#     4  11  23  44  66  88 123 171 208 242 304 383
#
# _framework density 21.761271000000001
#
# number of rings (size 3 to 8) (size 9 to 14) (size 15 to 20)
#    0.000    0.800    0.000    9.600    0.000    4.800 
#    0.000    0.000    0.000    0.000    0.000    0.000 
#    0.000    0.000    0.000    0.000    0.000    0.000 
#
# Total GULP energy -124074.626712 kJ/mol
# GULP energy per Si atom -12407.462671 kJ/mol
# Density = 2.171174 g / cm^3
# Si number density = 21.761271 Si / 1000 Ang^3
#
#
#
# Elastic Constant Matrix: (Units=GPa)
#
#
# Indices 1 2 3 4 5 6 
#
# 1 100.1478 14.0398 51.4284 0.0000 -0.3882 0.0000
# 2 14.0398 106.7112 15.4977 0.0000 -0.1314 0.0000
# 3 51.4284 15.4977 83.0784 0.0000 1.9022 0.0000
# 4 0.0000 0.0000 0.0000 58.0733 0.0000 -2.4166
# 5 -0.3882 -0.1314 1.9022 0.0000 26.3276 0.0000
# 6 0.0000 0.0000 0.0000 -2.4166 0.0000 30.8923
#
#
#
# Elastic Compliance Matrix: (Units=1/GPa)
#
#
# Indices 1 2 3 4 5 6 
#
# 1 0.014699 -0.000625 -0.009002 0.000000 0.000864 0.000000
# 2 -0.000625 0.009659 -0.001418 0.000000 0.000141 0.000000
# 3 -0.009002 -0.001418 0.017907 0.000000 -0.001434 0.000000
# 4 0.000000 0.000000 0.000000 0.017276 0.000000 0.001351
# 5 0.000864 0.000141 -0.001434 0.000000 0.038100 0.000000
# 6 0.000000 0.000000 0.000000 0.001351 0.000000 0.032476
#
#
# Mechanical properties :
#
#
# Convention : Reuss Voigt Hill
#
# Bulk Modulus (GPa) = 49.56885 50.20771 49.88828
# Shear Modulus (GPa) = 31.45954 36.99006 34.22480
#
# Velocity S-wave (km/s) = 3.80632 4.12735 3.97008
# Velocity P-wave (km/s) = 6.49194 6.77019 6.63253
#
# Compressibility (1/GPa) = 0.02017396
#
# Stress axis : x y z
#
# Youngs Moduli (GPa) = 68.03057 103.52516 55.84406
#
# Poissons Ratio (x) = 0.06475 0.50273
# Poissons Ratio (y) = 0.04255 0.07919
# Poissons Ratio (z) = 0.61244 0.14680
#
# Static dielectric constant tensor:
#      x y z
#    x 3.761030 0.000000 -0.016640 
#    y 0.000000 4.133790 0.000000 
#    z -0.016640 0.000000 3.948280 
# 
# 
# High freq. dielectric constant tensor:
#      x y z
#    x 1.854170 0.000000 -0.000380 
#    y 0.000000 1.877100 0.000000 
#    z -0.000380 0.000000 1.858490 
# 
# From -- ./inp_files/13081.got.cif
#   From: 2010.03.12/outbox.cif.g09.slc.cpg/sg4_7_cif.got.tgz:13081.got - 2010.03.31 09:31:35.
