data_PCOD8047615
_publ_section_title
;
Structure prediction by ZEFSAII (Michael W. Deem and Ramdas Pophale) SiO2 
 PCOD8047615
Probable space group: P 21
;
_chemical_formula_sum "Si O2"
_cell_formula_units_Z 16
_cell_length_a 14.248491
_cell_length_b 11.719387
_cell_length_c 11.700206
_cell_angle_alpha 90.000000
_cell_angle_beta 20.931394
_cell_angle_gamma 90.000000
_cell_volume 697.974086
_symmetry_space_group_name_H-M "P 21"
_symmetry_group_IT_number 4
_symmetry_cell_setting 'monoclinic'
loop_
_space_group_symop_operation_xyz
x,y,z
-x,1/2+y,-z
loop_
_atom_site_type_symbol
_atom_site_label
_atom_site_fract_x
_atom_site_fract_y
_atom_site_fract_z
Si Si1 0.592564 0.198820 0.600660
Si Si2 0.037609 0.242954 0.529545
Si Si3 0.447466 0.839290 0.828444
Si Si4 0.987379 0.156823 0.350044
Si Si5 0.657143 0.978628 0.385038
Si Si6 0.320496 0.457851 0.232468
Si Si7 0.649426 0.595643 0.681077
Si Si8 0.258644 0.942987 0.641379
O O1 0.785356 0.207387 0.488885
O O2 0.619068 0.317557 0.505534
O O3 0.693993 0.099591 0.403394
O O4 0.290267 0.177390 0.976940
O O5 0.273454 0.331523 0.236226
O O6 0.117479 0.120965 0.493415
O O7 0.901362 0.221926 0.563447
O O8 0.858683 0.309126 0.824960
O O9 0.535386 0.881412 0.604601
O O10 0.491263 0.940499 0.871546
O O11 0.586834 0.719978 0.701532
O O12 0.938707 0.021590 0.422524
O O13 0.451284 0.000933 0.515710
O O14 0.950221 0.937154 0.021165
O O15 0.425597 0.536569 0.010868
O O16 0.731043 0.511055 0.488673
#
# Coordination Sequence:
#
# PCOD8047615 Si02
#       8
#     2   2   2   2   2   2   2   2
#     4  12  27  49  75 109 152 201 255 316 375 456
#     4  11  26  41  77 109 158 196 238 317 385 469
#     4  11  26  46  75 107 151 200 249 315 379 454
#     4  12  24  45  74 112 154 193 244 302 387 460
#     4  12  29  50  77 105 149 202 264 313 378 447
#     4  11  24  45  72 116 150 198 239 310 386 464
#     4  11  27  47  73 114 153 197 254 313 383 456
#     4  12  31  49  79 108 149 207 257 324 369 448
#
# _framework density 22.923486
#
# number of rings (size 3 to 8) (size 9 to 14) (size 15 to 20)
#    0.000    0.500    2.500    3.750   14.000    0.000 
#    0.000    0.000    0.000    0.000    0.000    0.000 
#    0.000    0.000    0.000    0.000    0.000    0.000 
#
# Total GULP energy -198321.431507 kJ/mol
# GULP energy per Si atom -12395.089469 kJ/mol
# Density = 2.287131 g / cm^3
# Si number density = 22.923486 Si / 1000 Ang^3
#
#
#
# Elastic Constant Matrix: (Units=GPa)
#
#
# Indices 1 2 3 4 5 6 
#
# 1 125.7424 32.6218 59.5967 0.0000 -8.7730 0.0000
# 2 32.6218 116.3038 51.9200 0.0000 13.7930 0.0000
# 3 59.5967 51.9200 133.7403 0.0000 -0.8747 0.0000
# 4 0.0000 0.0000 0.0000 27.2980 0.0000 -2.4169
# 5 -8.7730 13.7930 -0.8747 0.0000 38.2045 0.0000
# 6 0.0000 0.0000 0.0000 -2.4169 0.0000 30.7391
#
#
#
# Elastic Compliance Matrix: (Units=1/GPa)
#
#
# Indices 1 2 3 4 5 6 
#
# 1 0.010460 -0.001448 -0.004080 0.000000 0.002831 0.000000
# 2 -0.001448 0.011199 -0.003732 0.000000 -0.004461 0.000000
# 3 -0.004080 -0.003732 0.010748 0.000000 0.000656 0.000000
# 4 0.000000 0.000000 0.000000 0.036890 0.000000 0.002901
# 5 0.002831 -0.004461 0.000656 0.000000 0.028451 0.000000
# 6 0.000000 0.000000 0.000000 0.002901 0.000000 0.032760
#
#
# Mechanical properties :
#
#
# Convention : Reuss Voigt Hill
#
# Bulk Modulus (GPa) = 72.00772 73.78485 72.89628
# Shear Modulus (GPa) = 32.53994 34.69151 33.61573
#
# Velocity S-wave (km/s) = 3.77172 3.89441 3.83356
# Velocity P-wave (km/s) = 7.10269 7.24426 7.17382
#
# Compressibility (1/GPa) = 0.01388740
#
# Stress axis : x y z
#
# Youngs Moduli (GPa) = 95.60285 89.29151 93.03684
#
# Poissons Ratio (x) = 0.12930 0.37963
# Poissons Ratio (y) = 0.13844 0.34718
# Poissons Ratio (z) = 0.39010 0.33320
#
# Static dielectric constant tensor:
#      x y z
#    x 4.273530 0.000000 -0.071240 
#    y 0.000000 4.319640 0.000000 
#    z -0.071240 0.000000 4.175490 
# 
# 
# High freq. dielectric constant tensor:
#      x y z
#    x 1.912540 0.000000 -0.005340 
#    y 0.000000 1.922380 0.000000 
#    z -0.005340 0.000000 1.907400 
# 
# From -- ./inp_files/10405.got.cif
#   From: 2010.03.12/outbox.cif.g09.slc.cpg/sg4_6_cif.got.tgz:10405.got - 2010.03.31 09:31:35.
