data_PCOD8047823
_publ_section_title
;
Structure prediction by ZEFSAII (Michael W. Deem and Ramdas Pophale) SiO2 
 PCOD8047823
Probable space group: P 21
;
_chemical_formula_sum "Si O2"
_cell_formula_units_Z 16
_cell_length_a 23.955158
_cell_length_b 5.598910
_cell_length_c 10.705856
_cell_angle_alpha 90.000000
_cell_angle_beta 25.069099
_cell_angle_gamma 90.000000
_cell_volume 608.406195
_symmetry_space_group_name_H-M "P 21"
_symmetry_group_IT_number 4
_symmetry_cell_setting 'monoclinic'
loop_
_space_group_symop_operation_xyz
x,y,z
-x,1/2+y,-z
loop_
_atom_site_type_symbol
_atom_site_label
_atom_site_fract_x
_atom_site_fract_y
_atom_site_fract_z
Si Si1 0.304372 0.906470 0.442931
Si Si2 0.930490 0.680174 0.178941
Si Si3 0.418797 0.575171 0.012461
Si Si4 0.697785 0.515466 0.101256
Si Si5 0.456247 0.381946 0.453044
Si Si6 0.763560 0.181679 0.170583
Si Si7 0.930510 0.969383 0.650087
Si Si8 0.797234 0.799726 0.690903
O O1 0.315882 0.707079 0.312845
O O2 0.216188 0.793573 0.734328
O O3 0.218099 0.135119 0.573923
O O4 0.452788 0.978229 0.176266
O O5 0.916744 0.739866 0.354200
O O6 0.008450 0.423902 0.005926
O O7 0.335252 0.370269 0.114569
O O8 0.469736 0.755790 0.807663
O O9 0.551716 0.408738 0.377751
O O10 0.674430 0.753669 0.229306
O O11 0.794049 0.357827 0.990990
O O12 0.760713 0.555694 0.837731
O O13 0.392736 0.620147 0.521099
O O14 0.865634 0.976767 0.922234
O O15 0.033396 0.186840 0.433709
O O16 0.836660 0.998489 0.716045
#
# Coordination Sequence:
#
# PCOD8047823 Si02
#       8
#     2   2   2   2   2   2   2   2
#     4  12  27  51  80 126 165 216 279 340 415 493
#     4  12  31  59  87 120 163 229 283 343 404 494
#     4  12  25  49  83 122 164 215 272 345 417 496
#     4  12  22  44  73 117 157 205 259 328 412 491
#     4  12  22  40  75 114 163 203 261 322 416 495
#     4  12  26  47  73 118 161 210 269 337 412 488
#     4  12  30  54  81 121 162 220 281 345 411 491
#     4  12  27  56  84 116 165 212 282 342 421 490
#
# _framework density 26.298219
#
# number of rings (size 3 to 8) (size 9 to 14) (size 15 to 20)
#    0.000    0.000    3.750    6.000    1.750    4.000 
#    4.500    0.000    0.000    0.000    0.000    0.000 
#    0.000    0.000    0.000    0.000    0.000    0.000 
#
# Total GULP energy -198221.611792 kJ/mol
# GULP energy per Si atom -12388.850737 kJ/mol
# Density = 2.623836 g / cm^3
# Si number density = 26.298219 Si / 1000 Ang^3
#
#
#
# Elastic Constant Matrix: (Units=GPa)
#
#
# Indices 1 2 3 4 5 6 
#
# 1 76.6021 15.3348 24.8511 0.0000 18.2053 0.0000
# 2 15.3348 88.9604 28.2699 0.0000 16.2527 0.0000
# 3 24.8511 28.2699 119.7971 0.0000 41.2455 0.0000
# 4 0.0000 0.0000 0.0000 57.2864 0.0000 -1.3151
# 5 18.2053 16.2527 41.2455 0.0000 56.8090 0.0000
# 6 0.0000 0.0000 0.0000 -1.3151 0.0000 41.9132
#
#
#
# Elastic Compliance Matrix: (Units=1/GPa)
#
#
# Indices 1 2 3 4 5 6 
#
# 1 0.014604 -0.001436 -0.001628 0.000000 -0.003087 0.000000
# 2 -0.001436 0.012443 -0.002095 0.000000 -0.001579 0.000000
# 3 -0.001628 -0.002095 0.011724 0.000000 -0.007391 0.000000
# 4 0.000000 0.000000 0.000000 0.017469 0.000000 0.000548
# 5 -0.003087 -0.001579 -0.007391 0.000000 0.024410 0.000000
# 6 0.000000 0.000000 0.000000 0.000548 0.000000 0.023876
#
#
# Mechanical properties :
#
#
# Convention : Reuss Voigt Hill
#
# Bulk Modulus (GPa) = 35.14487 46.91902 41.03194
# Shear Modulus (GPa) = 40.21651 45.66197 42.93924
#
# Velocity S-wave (km/s) = 3.91480 4.17143 4.04515
# Velocity P-wave (km/s) = 5.81612 6.40944 6.11998
#
# Compressibility (1/GPa) = 0.02845366
#
# Stress axis : x y z
#
# Youngs Moduli (GPa) = 68.47565 80.36907 85.29368
#
# Poissons Ratio (x) = 0.11542 0.13882
# Poissons Ratio (y) = 0.09834 0.17867
# Poissons Ratio (z) = 0.11145 0.16836
#
# Static dielectric constant tensor:
#      x y z
#    x 5.166280 0.000000 -0.117030 
#    y 0.000000 4.875960 0.000000 
#    z -0.117030 0.000000 4.911410 
# 
# 
# High freq. dielectric constant tensor:
#      x y z
#    x 2.059330 0.000000 -0.002190 
#    y 0.000000 2.052720 0.000000 
#    z -0.002190 0.000000 2.075370 
# 
# From -- ./inp_files/9760.got.cif
#   From: 2010.03.12/outbox.cif.g09.slc.cpg/sg4_5_cif.got.tgz:9760.got - 2010.03.31 09:31:35.
