data_PCOD8047609
_publ_section_title
;
Structure prediction by ZEFSAII (Michael W. Deem and Ramdas Pophale) SiO2 
 PCOD8047609
Probable space group: P 21
;
_chemical_formula_sum "Si O2"
_cell_formula_units_Z 16
_cell_length_a 21.531812
_cell_length_b 5.332714
_cell_length_c 9.443755
_cell_angle_alpha 90.000000
_cell_angle_beta 141.113663
_cell_angle_gamma 90.000000
_cell_volume 680.736911
_symmetry_space_group_name_H-M "P 21"
_symmetry_group_IT_number 4
_symmetry_cell_setting 'monoclinic'
loop_
_space_group_symop_operation_xyz
x,y,z
-x,1/2+y,-z
loop_
_atom_site_type_symbol
_atom_site_label
_atom_site_fract_x
_atom_site_fract_y
_atom_site_fract_z
Si Si1 0.169363 0.166150 0.051081
Si Si2 0.185761 0.317823 0.392705
Si Si3 0.699990 0.319145 0.374743
Si Si4 0.106250 0.547358 0.726015
Si Si5 0.308017 0.837864 0.140513
Si Si6 0.564777 0.294675 0.385890
Si Si7 0.016859 0.371586 0.299878
Si Si8 0.444320 0.806389 0.128261
O O1 0.184234 0.331856 0.218367
O O2 0.275293 0.075481 0.178582
O O3 0.116924 0.281778 0.820506
O O4 0.087606 0.961066 0.951130
O O5 0.227776 0.583782 0.518269
O O6 0.077402 0.283562 0.269616
O O7 0.247192 0.083629 0.564197
O O8 0.662852 0.347084 0.469014
O O9 0.603898 0.269741 0.109821
O O10 0.086659 0.550614 0.521949
O O11 0.010495 0.660749 0.633798
O O12 0.210670 0.677556 0.942862
O O13 0.397305 0.716538 0.390191
O O14 0.356605 0.898034 0.076589
O O15 0.494641 0.542335 0.262941
O O16 0.516559 0.041698 0.240185
#
# Coordination Sequence:
#
# PCOD8047609 Si02
#       8
#     2   2   2   2   2   2   2   2
#     4  11  26  45  70 100 148 187 233 298 353 423
#     4  12  28  45  76 104 147 191 244 290 355 436
#     4  12  26  49  71 107 144 191 236 300 360 422
#     4  11  24  45  70 101 146 185 236 297 356 418
#     4  11  26  44  71 105 139 187 235 295 362 421
#     4  12  25  48  71 105 144 185 237 296 362 427
#     4  11  26  44  72 107 142 194 243 292 357 428
#     4  12  27  44  77 105 140 186 240 296 357 435
#
# _framework density 23.50394
#
# number of rings (size 3 to 8) (size 9 to 14) (size 15 to 20)
#    0.000    0.500    2.500    4.500   10.500    0.000 
#    0.000    0.000    0.000    0.000    0.000    0.000 
#    0.000    0.000    0.000    0.000    0.000    0.000 
#
# Total GULP energy -198274.495035 kJ/mol
# GULP energy per Si atom -12392.155940 kJ/mol
# Density = 2.345044 g / cm^3
# Si number density = 23.503940 Si / 1000 Ang^3
#
#
#
# Elastic Constant Matrix: (Units=GPa)
#
#
# Indices 1 2 3 4 5 6 
#
# 1 103.6138 17.0748 -12.4878 0.0000 11.3550 0.0000
# 2 17.0748 94.6296 9.8091 0.0000 8.1983 0.0000
# 3 -12.4878 9.8091 73.2919 0.0000 -1.6859 0.0000
# 4 0.0000 0.0000 0.0000 33.0937 0.0000 2.6231
# 5 11.3550 8.1983 -1.6859 0.0000 35.2887 0.0000
# 6 0.0000 0.0000 0.0000 2.6231 0.0000 28.6521
#
#
#
# Elastic Compliance Matrix: (Units=1/GPa)
#
#
# Indices 1 2 3 4 5 6 
#
# 1 0.010507 -0.001853 0.001973 0.000000 -0.002856 0.000000
# 2 -0.001853 0.011279 -0.001874 0.000000 -0.002114 0.000000
# 3 0.001973 -0.001874 0.014242 0.000000 0.000481 0.000000
# 4 0.000000 0.000000 0.000000 0.030438 0.000000 -0.002787
# 5 -0.002856 -0.002114 0.000481 0.000000 0.029771 0.000000
# 6 0.000000 0.000000 0.000000 -0.002787 0.000000 0.035157
#
#
# Mechanical properties :
#
#
# Convention : Reuss Voigt Hill
#
# Bulk Modulus (GPa) = 30.75025 33.36971 32.05998
# Shear Modulus (GPa) = 34.30705 36.54951 35.42828
#
# Velocity S-wave (km/s) = 3.82465 3.94767 3.88665
# Velocity P-wave (km/s) = 5.71099 5.91669 5.81475
#
# Compressibility (1/GPa) = 0.03252007
#
# Stress axis : x y z
#
# Youngs Moduli (GPa) = 95.17166 88.65855 70.21469
#
# Poissons Ratio (x) = 0.16428 -0.13850
# Poissons Ratio (y) = 0.17635 0.13158
# Poissons Ratio (z) = -0.18773 0.16614
#
# Static dielectric constant tensor:
#      x y z
#    x 4.288600 0.000000 -0.007720 
#    y 0.000000 4.189680 0.000000 
#    z -0.007720 0.000000 4.467740 
# 
# 
# High freq. dielectric constant tensor:
#      x y z
#    x 1.939190 0.000000 0.000840 
#    y 0.000000 1.919930 0.000000 
#    z 0.000840 0.000000 1.948940 
# 
# From -- ./inp_files/9873.got.cif
#   From: 2010.03.12/outbox.cif.g09.slc.cpg/sg4_5_cif.got.tgz:9873.got - 2010.03.31 09:31:35.
