data_PCOD8047252
_publ_section_title
;
Structure prediction by ZEFSAII (Michael W. Deem and Ramdas Pophale) SiO2 
 PCOD8047252
Probable space group: P 21
;
_chemical_formula_sum "Si O2"
_cell_formula_units_Z 14
_cell_length_a 9.185446
_cell_length_b 12.250142
_cell_length_c 8.770763
_cell_angle_alpha 90.000000
_cell_angle_beta 137.274367
_cell_angle_gamma 90.000000
_cell_volume 669.608822
_symmetry_space_group_name_H-M "P 21"
_symmetry_group_IT_number 4
_symmetry_cell_setting 'monoclinic'
loop_
_space_group_symop_operation_xyz
x,y,z
-x,1/2+y,-z
loop_
_atom_site_type_symbol
_atom_site_label
_atom_site_fract_x
_atom_site_fract_y
_atom_site_fract_z
Si Si1 0.144182 0.449980 0.238300
Si Si2 0.052884 0.082099 0.175317
Si Si3 0.498590 0.812410 0.569715
Si Si4 0.347194 0.721840 0.141546
Si Si5 0.487355 0.089643 0.325574
Si Si6 0.702390 0.433940 0.061580
Si Si7 0.658976 0.515254 0.365679
O O1 0.256640 0.332183 0.300768
O O2 0.309904 0.538136 0.433769
O O3 0.950822 0.439116 0.207549
O O4 0.063969 0.487836 0.010555
O O5 0.287519 0.103340 0.286458
O O6 0.103274 0.046927 0.389512
O O7 0.900314 0.186850 0.064580
O O8 0.360478 0.779562 0.315931
O O9 0.466223 0.718095 0.672588
O O10 0.431022 0.929202 0.581772
O O11 0.506694 0.621076 0.237937
O O12 0.394973 0.815047 0.052029
O O13 0.432599 0.026648 0.129971
O O14 0.678824 0.456482 0.220429
#
# Coordination Sequence:
#
# PCOD8047252 Si02
#       7
#     2   2   2   2   2   2   2
#     4  11  21  45  67 102 138 181 233 287 336 411
#     4  11  20  44  69 101 133 180 238 280 338 410
#     4  12  20  45  73  99 136 178 240 288 326 409
#     4  12  24  46  74  99 143 186 235 291 339 413
#     4  11  22  41  72 102 135 181 233 282 343 407
#     4  11  28  43  68 103 146 188 220 285 370 406
#     4  12  27  46  65 112 141 178 237 285 350 422
#
# _framework density 20.907730000000001
#
# number of rings (size 3 to 8) (size 9 to 14) (size 15 to 20)
#    0.000    0.571    7.143    1.714    2.000    1.143 
#    0.000    0.000    0.000    0.000    0.000    0.000 
#    0.000    0.000    0.000    0.000    0.000    0.000 
#
# Total GULP energy -173536.348808 kJ/mol
# GULP energy per Si atom -12395.453486 kJ/mol
# Density = 2.086014 g / cm^3
# Si number density = 20.907730 Si / 1000 Ang^3
#
#
#
# Elastic Constant Matrix: (Units=GPa)
#
#
# Indices 1 2 3 4 5 6 
#
# 1 78.3845 51.6146 55.4892 0.0000 -16.0979 0.0000
# 2 51.6146 142.5565 64.5305 0.0000 -5.8014 0.0000
# 3 55.4892 64.5305 140.3507 0.0000 -1.3088 0.0000
# 4 0.0000 0.0000 0.0000 44.4807 0.0000 -2.1254
# 5 -16.0979 -5.8014 -1.3088 0.0000 34.6430 0.0000
# 6 0.0000 0.0000 0.0000 -2.1254 0.0000 22.7975
#
#
#
# Elastic Compliance Matrix: (Units=1/GPa)
#
#
# Indices 1 2 3 4 5 6 
#
# 1 0.022523 -0.004774 -0.006622 0.000000 0.009416 0.000000
# 2 -0.004774 0.009932 -0.002685 0.000000 -0.000657 0.000000
# 3 -0.006622 -0.002685 0.010949 0.000000 -0.003113 0.000000
# 4 0.000000 0.000000 0.000000 0.022582 0.000000 0.002105
# 5 0.009416 -0.000657 -0.003113 0.000000 0.033014 0.000000
# 6 0.000000 0.000000 0.000000 0.002105 0.000000 0.044061
#
#
# Mechanical properties :
#
#
# Convention : Reuss Voigt Hill
#
# Bulk Modulus (GPa) = 65.61133 78.28446 71.94790
# Shear Modulus (GPa) = 28.36034 33.02806 30.69420
#
# Velocity S-wave (km/s) = 3.68700 3.97886 3.83571
# Velocity P-wave (km/s) = 7.04094 7.65719 7.35552
#
# Compressibility (1/GPa) = 0.01524127
#
# Stress axis : x y z
#
# Youngs Moduli (GPa) = 44.39975 100.68415 91.33589
#
# Poissons Ratio (x) = 0.48067 0.60481
# Poissons Ratio (y) = 0.21196 0.24526
# Poissons Ratio (z) = 0.29401 0.27036
#
# Static dielectric constant tensor:
#      x y z
#    x 3.451030 0.000000 0.148860 
#    y 0.000000 4.119580 0.000000 
#    z 0.148860 0.000000 4.145580 
# 
# 
# High freq. dielectric constant tensor:
#      x y z
#    x 1.782670 0.000000 0.008570 
#    y 0.000000 1.841000 0.000000 
#    z 0.008570 0.000000 1.837090 
# 
# From -- ./inp_files/1131.got.cif
#   From: 2010.03.12/outbox.cif.g09.slc.cpg/sg4_1_cif.got.tgz:1131.got - 2010.03.31 09:31:35.
