data_PCOD8047262
_publ_section_title
;
Structure prediction by ZEFSAII (Michael W. Deem and Ramdas Pophale) SiO2 
 PCOD8047262
Probable space group: P 21
;
_chemical_formula_sum "Si O2"
_cell_formula_units_Z 14
_cell_length_a 12.072149
_cell_length_b 7.220386
_cell_length_c 11.262687
_cell_angle_alpha 90.000000
_cell_angle_beta 44.719418
_cell_angle_gamma 90.000000
_cell_volume 690.772112
_symmetry_space_group_name_H-M "P 21"
_symmetry_group_IT_number 4
_symmetry_cell_setting 'monoclinic'
loop_
_space_group_symop_operation_xyz
x,y,z
-x,1/2+y,-z
loop_
_atom_site_type_symbol
_atom_site_label
_atom_site_fract_x
_atom_site_fract_y
_atom_site_fract_z
Si Si1 0.317028 0.248480 0.519849
Si Si2 0.398338 0.330719 0.808956
Si Si3 0.839297 0.101117 0.122555
Si Si4 0.321485 0.007073 0.036689
Si Si5 0.397714 0.869586 0.562428
Si Si6 0.018966 0.880907 0.161052
Si Si7 0.459150 0.155753 0.165515
O O1 0.452538 0.388128 0.462887
O O2 0.346582 0.198628 0.361247
O O3 0.146006 0.337945 0.651481
O O4 0.322374 0.072224 0.604479
O O5 0.254897 0.415150 0.841136
O O6 0.356912 0.133451 0.895486
O O7 0.547905 0.299906 0.608996
O O8 0.436963 0.475487 0.884479
O O9 0.728417 0.232666 0.284900
O O10 0.900420 0.201825 0.958767
O O11 0.990204 0.038964 0.083931
O O12 0.427449 0.825348 0.950073
O O13 0.349101 0.117059 0.136756
O O14 0.137207 0.954687 0.171840
#
# Coordination Sequence:
#
# PCOD8047262 Si02
#       7
#     2   2   2   2   2   2   2
#     4  11  23  40  63 100 136 172 215 273 332 396
#     4  11  23  40  70 101 126 169 226 276 321 385
#     4  12  23  40  63 103 140 169 215 271 336 405
#     4  12  25  44  71  94 131 177 228 276 323 388
#     4  11  21  39  66  95 136 168 220 262 327 397
#     4  12  25  39  63  99 141 172 209 274 346 383
#     4  11  24  46  68  94 128 179 235 264 315 398
#
# _framework density 20.267175999999999
#
# number of rings (size 3 to 8) (size 9 to 14) (size 15 to 20)
#    0.000    0.571    7.143    1.714    6.000    0.000 
#    0.000    5.714    0.000    0.000    0.000    0.000 
#    0.000    0.000    0.000    0.000    0.000    0.000 
#
# Total GULP energy -173638.140049 kJ/mol
# GULP energy per Si atom -12402.724289 kJ/mol
# Density = 2.022105 g / cm^3
# Si number density = 20.267176 Si / 1000 Ang^3
#
#
#
# Elastic Constant Matrix: (Units=GPa)
#
#
# Indices 1 2 3 4 5 6 
#
# 1 137.5255 46.5434 32.5701 0.0000 -11.1691 0.0000
# 2 46.5434 72.3943 20.4986 0.0000 -9.9249 0.0000
# 3 32.5701 20.4986 60.4780 0.0000 -5.4357 0.0000
# 4 0.0000 0.0000 0.0000 31.9237 0.0000 1.4126
# 5 -11.1691 -9.9249 -5.4357 0.0000 26.2027 0.0000
# 6 0.0000 0.0000 0.0000 1.4126 0.0000 41.5371
#
#
#
# Elastic Compliance Matrix: (Units=1/GPa)
#
#
# Indices 1 2 3 4 5 6 
#
# 1 0.009988 -0.005226 -0.003468 0.000000 0.001559 0.000000
# 2 -0.005226 0.018631 -0.003125 0.000000 0.004181 0.000000
# 3 -0.003468 -0.003125 0.019587 0.000000 0.001402 0.000000
# 4 0.000000 0.000000 0.000000 0.031372 0.000000 -0.001067
# 5 0.001559 0.004181 0.001402 0.000000 0.040703 0.000000
# 6 0.000000 0.000000 0.000000 -0.001067 0.000000 0.024111
#
#
# Mechanical properties :
#
#
# Convention : Reuss Voigt Hill
#
# Bulk Modulus (GPa) = 40.69983 52.18023 46.44003
# Shear Modulus (GPa) = 28.37390 31.31840 29.84615
#
# Velocity S-wave (km/s) = 3.74571 3.93527 3.84166
# Velocity P-wave (km/s) = 6.23156 6.81546 6.53004
#
# Compressibility (1/GPa) = 0.02457012
#
# Stress axis : x y z
#
# Youngs Moduli (GPa) = 100.12258 53.67411 51.05308
#
# Poissons Ratio (x) = 0.28049 0.17703
# Poissons Ratio (y) = 0.52322 0.15953
# Poissons Ratio (z) = 0.34718 0.16772
#
# Static dielectric constant tensor:
#      x y z
#    x 3.786150 0.000000 -0.042510 
#    y 0.000000 3.840570 0.000000 
#    z -0.042510 0.000000 3.651960 
# 
# 
# High freq. dielectric constant tensor:
#      x y z
#    x 1.786130 0.000000 0.000450 
#    y 0.000000 1.805850 0.000000 
#    z 0.000450 0.000000 1.786110 
# 
# From -- ./inp_files/11830.got.cif
#   From: 2010.03.12/outbox.cif.g09.slc.cpg/sg4_6_cif.got.tgz:11830.got - 2010.03.31 09:31:35.
