data_PCOD8047693
_publ_section_title
;
Structure prediction by ZEFSAII (Michael W. Deem and Ramdas Pophale) SiO2 
 PCOD8047693
Probable space group: P 21
;
_chemical_formula_sum "Si O2"
_cell_formula_units_Z 16
_cell_length_a 9.414911
_cell_length_b 5.041070
_cell_length_c 26.471088
_cell_angle_alpha 90.000000
_cell_angle_beta 148.209670
_cell_angle_gamma 90.000000
_cell_volume 661.860839
_symmetry_space_group_name_H-M "P 21"
_symmetry_group_IT_number 4
_symmetry_cell_setting 'monoclinic'
loop_
_space_group_symop_operation_xyz
x,y,z
-x,1/2+y,-z
loop_
_atom_site_type_symbol
_atom_site_label
_atom_site_fract_x
_atom_site_fract_y
_atom_site_fract_z
Si Si1 0.813602 0.866890 0.764414
Si Si2 0.637131 0.375975 0.657576
Si Si3 0.040737 0.312424 0.479704
Si Si4 0.111895 0.465965 0.725830
Si Si5 0.188664 0.344184 0.123169
Si Si6 0.657884 0.596136 0.930115
Si Si7 0.769503 0.485153 0.298117
Si Si8 0.570126 0.404099 0.053350
O O1 0.627961 0.674327 0.675515
O O2 0.783336 0.745603 0.811273
O O3 0.121046 0.847358 0.839165
O O4 0.712131 0.167452 0.724874
O O5 0.341248 0.309178 0.546657
O O6 0.850970 0.375217 0.677325
O O7 0.031957 0.519033 0.523369
O O8 0.827380 0.399661 0.372830
O O9 0.382096 0.424422 0.841937
O O10 0.104620 0.270227 0.675551
O O11 0.112491 0.766438 0.705341
O O12 0.213148 0.125010 0.086774
O O13 0.448744 0.531002 0.192576
O O14 0.892001 0.465217 0.033539
O O15 0.593047 0.862655 0.943218
O O16 0.528289 0.699339 0.019830
#
# Coordination Sequence:
#
# PCOD8047693 Si02
#       8
#     2   2   2   2   2   2   2   2
#     4  12  26  45  71 104 142 183 243 292 357 426
#     4  12  26  46  76 102 140 185 237 298 364 431
#     4  12  26  48  75 106 139 184 239 302 370 433
#     4  11  25  44  69 103 140 185 231 290 356 426
#     4  11  25  41  67 100 138 189 230 290 349 416
#     4  11  25  42  68 101 145 188 241 286 352 422
#     4  11  25  45  69 101 144 180 235 296 355 422
#     4  12  26  45  69 101 142 190 244 298 349 424
#
# _framework density 24.174265999999999
#
# number of rings (size 3 to 8) (size 9 to 14) (size 15 to 20)
#    0.000    0.500    2.500    5.250    3.500    4.000 
#    0.000    0.000    0.000    0.000    0.000    0.000 
#    0.000    0.000    0.000    0.000    0.000    0.000 
#
# Total GULP energy -198351.330755 kJ/mol
# GULP energy per Si atom -12396.958172 kJ/mol
# Density = 2.411924 g / cm^3
# Si number density = 24.174266 Si / 1000 Ang^3
#
#
#
# Elastic Constant Matrix: (Units=GPa)
#
#
# Indices 1 2 3 4 5 6 
#
# 1 85.7237 6.0849 14.8754 0.0000 7.0558 0.0000
# 2 6.0849 76.1774 0.6380 0.0000 2.1680 0.0000
# 3 14.8754 0.6380 96.2322 0.0000 14.2220 0.0000
# 4 0.0000 0.0000 0.0000 27.6094 0.0000 -5.8661
# 5 7.0558 2.1680 14.2220 0.0000 43.7801 0.0000
# 6 0.0000 0.0000 0.0000 -5.8661 0.0000 34.2409
#
#
#
# Elastic Compliance Matrix: (Units=1/GPa)
#
#
# Indices 1 2 3 4 5 6 
#
# 1 0.012132 -0.000916 -0.001667 0.000000 -0.001368 0.000000
# 2 -0.000916 0.013215 0.000135 0.000000 -0.000551 0.000000
# 3 -0.001667 0.000135 0.011145 0.000000 -0.003358 0.000000
# 4 0.000000 0.000000 0.000000 0.037588 0.000000 0.006439
# 5 -0.001368 -0.000551 -0.003358 0.000000 0.024180 0.000000
# 6 0.000000 0.000000 0.000000 0.006439 0.000000 0.030308
#
#
# Mechanical properties :
#
#
# Convention : Reuss Voigt Hill
#
# Bulk Modulus (GPa) = 31.64939 33.48111 32.56525
# Shear Modulus (GPa) = 34.72324 36.89507 35.80916
#
# Velocity S-wave (km/s) = 3.79406 3.91092 3.85293
# Velocity P-wave (km/s) = 5.68452 5.85437 5.77007
#
# Compressibility (1/GPa) = 0.03159618
#
# Stress axis : x y z
#
# Youngs Moduli (GPa) = 82.42440 75.67169 89.72903
#
# Poissons Ratio (x) = 0.06933 0.14959
# Poissons Ratio (y) = 0.07552 -0.01215
# Poissons Ratio (z) = 0.13741 -0.01025
#
# Static dielectric constant tensor:
#      x y z
#    x 4.414650 0.000000 0.190850 
#    y 0.000000 4.115780 0.000000 
#    z 0.190850 0.000000 4.458090 
# 
# 
# High freq. dielectric constant tensor:
#      x y z
#    x 1.971990 0.000000 0.010160 
#    y 0.000000 1.945360 0.000000 
#    z 0.010160 0.000000 1.964450 
# 
# From -- ./inp_files/16070.got.cif
#   From: 2010.03.12/outbox.cif.g09.slc.cpg/sg4_9_cif.got.tgz:16070.got - 2010.03.31 09:31:35.
