data_PCOD8047414
_publ_section_title
;
Structure prediction by ZEFSAII (Michael W. Deem and Ramdas Pophale) SiO2 
 PCOD8047414
Probable space group: P 21
;
_chemical_formula_sum "Si O2"
_cell_formula_units_Z 12
_cell_length_a 15.292706
_cell_length_b 4.967561
_cell_length_c 9.064377
_cell_angle_alpha 90.000000
_cell_angle_beta 137.982856
_cell_angle_gamma 90.000000
_cell_volume 460.914832
_symmetry_space_group_name_H-M "P 21"
_symmetry_group_IT_number 4
_symmetry_cell_setting 'monoclinic'
loop_
_space_group_symop_operation_xyz
x,y,z
-x,1/2+y,-z
loop_
_atom_site_type_symbol
_atom_site_label
_atom_site_fract_x
_atom_site_fract_y
_atom_site_fract_z
Si Si1 0.865592 0.247930 0.741834
Si Si2 0.198861 0.245269 0.506826
Si Si3 0.029920 0.945837 0.608638
Si Si4 0.438684 0.379705 0.995358
Si Si5 0.158990 0.119006 0.033837
Si Si6 0.566747 0.867925 0.655993
O O1 0.781126 0.452160 0.535209
O O2 0.023136 0.268464 0.910815
O O3 0.802808 0.956428 0.631563
O O4 0.833561 0.338769 0.867409
O O5 0.057583 0.244293 0.403443
O O6 0.295650 0.295053 0.762618
O O7 0.058061 0.722695 0.517576
O O8 0.158205 0.027918 0.860389
O O9 0.450024 0.373021 0.187272
O O10 0.461623 0.678030 0.960880
O O11 0.284880 0.306508 0.208180
O O12 0.468454 0.654637 0.458733
#
# Coordination Sequence:
#
# PCOD8047414 Si02
#       6
#     2   2   2   2   2   2
#     4  11  25  44  77 114 141 202 235 336 382 467
#     4  11  25  44  72 106 143 187 256 304 384 455
#     4  11  23  40  69 101 139 186 234 312 385 445
#     4  12  28  51  78 109 153 213 266 313 386 466
#     4  11  26  48  74 110 158 188 266 304 407 446
#     4  12  31  51  78 114 158 212 261 327 378 465
#
# _framework density 26.035174999999999
#
# number of rings (size 3 to 8) (size 9 to 14) (size 15 to 20)
#    0.000    0.667    0.000    7.000    7.000    9.333 
#    0.000    0.000    0.000    0.000    0.000    0.000 
#    0.000    0.000    0.000    0.000    0.000    0.000 
#
# Total GULP energy -148683.803511 kJ/mol
# GULP energy per Si atom -12390.316959 kJ/mol
# Density = 2.597592 g / cm^3
# Si number density = 26.035175 Si / 1000 Ang^3
#
#
#
# Elastic Constant Matrix: (Units=GPa)
#
#
# Indices 1 2 3 4 5 6 
#
# 1 83.9797 12.3128 34.1303 0.0000 -15.2843 0.0000
# 2 12.3128 88.7130 13.1816 0.0000 2.5662 0.0000
# 3 34.1303 13.1816 124.1349 0.0000 -32.6050 0.0000
# 4 0.0000 0.0000 0.0000 36.3509 0.0000 -1.6166
# 5 -15.2843 2.5662 -32.6050 0.0000 15.8858 0.0000
# 6 0.0000 0.0000 0.0000 -1.6166 0.0000 36.4121
#
#
#
# Elastic Compliance Matrix: (Units=1/GPa)
#
#
# Indices 1 2 3 4 5 6 
#
# 1 0.014971 -0.002525 0.000092 0.000000 0.015001 0.000000
# 2 -0.002525 0.012569 -0.003931 0.000000 -0.012529 0.000000
# 3 0.000092 -0.003931 0.018741 0.000000 0.039189 0.000000
# 4 0.000000 0.000000 0.000000 0.027564 0.000000 0.001224
# 5 0.015001 -0.012529 0.039189 0.000000 0.159840 0.000000
# 6 0.000000 0.000000 0.000000 0.001224 0.000000 0.027518
#
#
# Mechanical properties :
#
#
# Convention : Reuss Voigt Hill
#
# Bulk Modulus (GPa) = 29.80413 46.23078 38.01746
# Shear Modulus (GPa) = 17.53671 33.54331 25.54001
#
# Velocity S-wave (km/s) = 2.59815 3.59330 3.13546
# Velocity P-wave (km/s) = 4.52471 5.91704 5.26708
#
# Compressibility (1/GPa) = 0.03355240
#
# Stress axis : x y z
#
# Youngs Moduli (GPa) = 66.79761 79.55862 53.35826
#
# Poissons Ratio (x) = 0.20092 -0.00492
# Poissons Ratio (y) = 0.16869 0.20976
# Poissons Ratio (z) = -0.00616 0.31275
#
# Static dielectric constant tensor:
#      x y z
#    x 4.836620 0.000000 -0.544580 
#    y 0.000000 6.327570 0.000000 
#    z -0.544580 0.000000 5.187140 
# 
# 
# High freq. dielectric constant tensor:
#      x y z
#    x 2.033430 0.000000 -0.023110 
#    y 0.000000 2.059150 0.000000 
#    z -0.023110 0.000000 2.054760 
# 
# From -- ./inp_files/9088.got.cif
#   From: 2010.03.12/outbox.cif.g09.slc.cpg/sg4_5_cif.got.tgz:9088.got - 2010.03.31 09:31:35.
