data_PCOD8047059
_publ_section_title
;
Structure prediction by ZEFSAII (Michael W. Deem and Ramdas Pophale) SiO2 
 PCOD8047059
Probable space group: P 21
;
_chemical_formula_sum "Si O2"
_cell_formula_units_Z 16
_cell_length_a 10.554983
_cell_length_b 8.830648
_cell_length_c 11.923865
_cell_angle_alpha 90.000000
_cell_angle_beta 139.506997
_cell_angle_gamma 90.000000
_cell_volume 721.687982
_symmetry_space_group_name_H-M "P 21"
_symmetry_group_IT_number 4
_symmetry_cell_setting 'monoclinic'
loop_
_space_group_symop_operation_xyz
x,y,z
-x,1/2+y,-z
loop_
_atom_site_type_symbol
_atom_site_label
_atom_site_fract_x
_atom_site_fract_y
_atom_site_fract_z
Si Si1 0.450597 0.361080 0.285519
Si Si2 0.728629 0.090253 0.444145
Si Si3 0.176737 0.041234 0.417660
Si Si4 0.361137 0.357371 0.797635
Si Si5 0.215997 0.843245 0.885622
Si Si6 0.776766 0.994592 0.075523
Si Si7 0.198043 0.359233 0.328057
Si Si8 0.872489 0.569223 0.365533
O O1 0.552943 0.208304 0.306697
O O2 0.620842 0.453960 0.460992
O O3 0.291656 0.320860 0.271984
O O4 0.338791 0.459345 0.116872
O O5 0.947683 0.159542 0.575394
O O6 0.752142 0.962344 0.364851
O O7 0.705179 0.007875 0.549244
O O8 0.012988 0.972951 0.221387
O O9 0.223072 0.217186 0.427656
O O10 0.083649 0.016650 0.478189
O O11 0.314674 0.383094 0.896086
O O12 0.312869 0.180681 0.747246
O O13 0.586310 0.399690 0.923710
O O14 0.245177 0.663929 0.891268
O O15 0.034815 0.885595 0.844778
O O16 0.186172 0.919196 0.743553
#
# Coordination Sequence:
#
# PCOD8047059 Si02
#       8
#     2   2   2   2   2   2   2   2
#     4  12  26  46  67 100 142 194 238 287 346 427
#     4  11  25  41  73 102 136 184 234 295 359 422
#     4  11  22  45  72  97 137 187 231 294 364 415
#     4  12  22  40  66 104 136 170 227 292 367 420
#     4  10  24  43  65 101 133 182 228 291 354 415
#     4  11  26  40  67 104 137 178 225 293 353 430
#     4  10  24  49  66  96 139 189 248 284 342 428
#     4  11  23  42  72 100 142 176 229 300 367 425
#
# _framework density 22.170244
#
# number of rings (size 3 to 8) (size 9 to 14) (size 15 to 20)
#    0.000    1.000    2.500    3.750    5.250    0.000 
#    6.750    0.000    0.000    0.000    0.000    0.000 
#    0.000    0.000    0.000    0.000    0.000    0.000 
#
# Total GULP energy -198324.357389 kJ/mol
# GULP energy per Si atom -12395.272337 kJ/mol
# Density = 2.211978 g / cm^3
# Si number density = 22.170244 Si / 1000 Ang^3
#
#
#
# Elastic Constant Matrix: (Units=GPa)
#
#
# Indices 1 2 3 4 5 6 
#
# 1 114.2977 36.9459 39.2629 0.0000 6.8916 0.0000
# 2 36.9459 102.6025 46.4814 0.0000 3.5591 0.0000
# 3 39.2629 46.4814 110.8242 0.0000 20.3500 0.0000
# 4 0.0000 0.0000 0.0000 36.0131 0.0000 2.4375
# 5 6.8916 3.5591 20.3500 0.0000 33.3869 0.0000
# 6 0.0000 0.0000 0.0000 2.4375 0.0000 28.8716
#
#
#
# Elastic Compliance Matrix: (Units=1/GPa)
#
#
# Indices 1 2 3 4 5 6 
#
# 1 0.010492 -0.002605 -0.002565 0.000000 -0.000325 0.000000
# 2 -0.002605 0.012801 -0.004836 0.000000 0.002120 0.000000
# 3 -0.002565 -0.004836 0.013251 0.000000 -0.007032 0.000000
# 4 0.000000 0.000000 0.000000 0.027927 0.000000 -0.002358
# 5 -0.000325 0.002120 -0.007032 0.000000 0.034079 0.000000
# 6 0.000000 0.000000 0.000000 -0.002358 0.000000 0.034835
#
#
# Mechanical properties :
#
#
# Convention : Reuss Voigt Hill
#
# Bulk Modulus (GPa) = 60.48185 63.67831 62.08008
# Shear Modulus (GPa) = 31.46478 33.32329 32.39403
#
# Velocity S-wave (km/s) = 3.77136 3.88114 3.82664
# Velocity P-wave (km/s) = 6.80471 6.99065 6.89830
#
# Compressibility (1/GPa) = 0.01653389
#
# Stress axis : x y z
#
# Youngs Moduli (GPa) = 95.31344 78.11653 75.46351
#
# Poissons Ratio (x) = 0.20347 0.19356
# Poissons Ratio (y) = 0.24826 0.36492
# Poissons Ratio (z) = 0.24447 0.37775
#
# Static dielectric constant tensor:
#      x y z
#    x 3.873340 0.000000 0.362910 
#    y 0.000000 3.884050 0.000000 
#    z 0.362910 0.000000 4.147300 
# 
# 
# High freq. dielectric constant tensor:
#      x y z
#    x 1.862340 0.000000 0.024720 
#    y 0.000000 1.871940 0.000000 
#    z 0.024720 0.000000 1.874690 
# 
# From -- ./inp_files/12048.got.cif
#   From: 2010.03.12/outbox.cif.g09.slc.cpg/sg4_7_cif.got.tgz:12048.got - 2010.03.31 09:31:35.
