data_PCOD8047174
_publ_section_title
;
Structure prediction by ZEFSAII (Michael W. Deem and Ramdas Pophale) SiO2 
 PCOD8047174
Probable space group: P 21
;
_chemical_formula_sum "Si O2"
_cell_formula_units_Z 14
_cell_length_a 13.301082
_cell_length_b 8.547655
_cell_length_c 9.318772
_cell_angle_alpha 90.000000
_cell_angle_beta 36.169729
_cell_angle_gamma 90.000000
_cell_volume 625.282932
_symmetry_space_group_name_H-M "P 21"
_symmetry_group_IT_number 4
_symmetry_cell_setting 'monoclinic'
loop_
_space_group_symop_operation_xyz
x,y,z
-x,1/2+y,-z
loop_
_atom_site_type_symbol
_atom_site_label
_atom_site_fract_x
_atom_site_fract_y
_atom_site_fract_z
Si Si1 0.366845 0.731710 0.777883
Si Si2 0.189087 0.598824 0.434016
Si Si3 0.537437 0.498572 0.135348
Si Si4 0.880388 0.012996 0.791586
Si Si5 0.165499 0.169126 0.040890
Si Si6 0.330758 0.012294 0.609224
Si Si7 0.750342 0.456041 0.625306
O O1 0.453622 0.824221 0.810515
O O2 0.484949 0.590803 0.588460
O O3 0.328411 0.845861 0.690684
O O4 0.191583 0.656196 0.033339
O O5 0.339069 0.547629 0.370207
O O6 0.205713 0.501562 0.266422
O O7 0.209285 0.780066 0.376087
O O8 0.001511 0.572117 0.717943
O O9 0.660916 0.611464 0.083246
O O10 0.595309 0.512649 0.902865
O O11 0.855194 0.852993 0.909181
O O12 0.079038 0.054611 0.538937
O O13 0.191728 0.129669 0.841412
O O14 0.294050 0.977069 0.487933
#
# Coordination Sequence:
#
# PCOD8047174 Si02
#       7
#     2   2   2   2   2   2   2
#     4  11  25  46  71 102 140 192 235 300 362 433
#     4  11  24  43  71 107 136 188 241 303 348 421
#     4  11  24  44  74 100 137 182 242 292 361 421
#     4  11  23  44  74 100 145 182 244 298 354 417
#     4  10  25  47  68 101 143 187 232 297 363 429
#     4  11  26  46  67 105 145 184 242 289 372 428
#     4  11  25  44  69 107 140 183 242 297 356 429
#
# _framework density 22.389865
#
# number of rings (size 3 to 8) (size 9 to 14) (size 15 to 20)
#    0.000    1.143    2.857    1.714    8.000    2.286 
#   10.286    0.000    0.000    0.000    0.000    0.000 
#    0.000    0.000    0.000    0.000    0.000    0.000 
#
# Total GULP energy -173607.319363 kJ/mol
# GULP energy per Si atom -12400.522812 kJ/mol
# Density = 2.233890 g / cm^3
# Si number density = 22.389865 Si / 1000 Ang^3
#
#
#
# Elastic Constant Matrix: (Units=GPa)
#
#
# Indices 1 2 3 4 5 6 
#
# 1 98.8966 19.6818 43.1098 0.0000 0.7444 0.0000
# 2 19.6818 76.2705 27.8039 0.0000 -3.0669 0.0000
# 3 43.1098 27.8039 97.5383 0.0000 1.0067 0.0000
# 4 0.0000 0.0000 0.0000 43.4372 0.0000 1.3174
# 5 0.7444 -3.0669 1.0067 0.0000 49.1465 0.0000
# 6 0.0000 0.0000 0.0000 1.3174 0.0000 34.1663
#
#
#
# Elastic Compliance Matrix: (Units=1/GPa)
#
#
# Indices 1 2 3 4 5 6 
#
# 1 0.012653 -0.001377 -0.005198 0.000000 -0.000171 0.000000
# 2 -0.001377 0.014831 -0.003629 0.000000 0.001021 0.000000
# 3 -0.005198 -0.003629 0.013589 0.000000 -0.000426 0.000000
# 4 0.000000 0.000000 0.000000 0.023049 0.000000 -0.000889
# 5 -0.000171 0.001021 -0.000426 0.000000 0.020422 0.000000
# 6 0.000000 0.000000 0.000000 -0.000889 0.000000 0.029303
#
#
# Mechanical properties :
#
#
# Convention : Reuss Voigt Hill
#
# Bulk Modulus (GPa) = 48.39513 50.43295 49.41404
# Shear Modulus (GPa) = 35.42512 37.49068 36.45790
#
# Velocity S-wave (km/s) = 3.98200 4.09644 4.03962
# Velocity P-wave (km/s) = 6.54243 6.70435 6.62388
#
# Compressibility (1/GPa) = 0.02066324
#
# Stress axis : x y z
#
# Youngs Moduli (GPa) = 79.03439 67.42751 73.59030
#
# Poissons Ratio (x) = 0.09285 0.38252
# Poissons Ratio (y) = 0.10884 0.26710
# Poissons Ratio (z) = 0.41081 0.24473
#
# Static dielectric constant tensor:
#      x y z
#    x 3.895220 0.000000 0.037550 
#    y 0.000000 3.990600 0.000000 
#    z 0.037550 0.000000 4.523520 
# 
# 
# High freq. dielectric constant tensor:
#      x y z
#    x 1.873860 0.000000 0.003720 
#    y 0.000000 1.876900 0.000000 
#    z 0.003720 0.000000 1.902050 
# 
# From -- ./inp_files/5345.got.cif
#   From: 2010.03.12/outbox.cif.g09.slc.cpg/sg4_3_cif.got.tgz:5345.got - 2010.03.31 09:31:35.
