data_PCOD8047781
_publ_section_title
;
Structure prediction by ZEFSAII (Michael W. Deem and Ramdas Pophale) SiO2 
 PCOD8047781
Probable space group: P 21
;
_chemical_formula_sum "Si O2"
_cell_formula_units_Z 10
_cell_length_a 8.849051
_cell_length_b 9.741984
_cell_length_c 9.202818
_cell_angle_alpha 90.000000
_cell_angle_beta 147.602558
_cell_angle_gamma 90.000000
_cell_volume 425.068396
_symmetry_space_group_name_H-M "P 21"
_symmetry_group_IT_number 4
_symmetry_cell_setting 'monoclinic'
loop_
_space_group_symop_operation_xyz
x,y,z
-x,1/2+y,-z
loop_
_atom_site_type_symbol
_atom_site_label
_atom_site_fract_x
_atom_site_fract_y
_atom_site_fract_z
Si Si1 0.548603 0.773300 0.358862
Si Si2 0.167417 0.719463 0.792181
Si Si3 0.907150 0.948426 0.120365
Si Si4 0.422089 0.047029 0.392448
Si Si5 0.618341 0.275311 0.348478
O O1 0.474379 0.630060 0.380315
O O2 0.847012 0.769121 0.520070
O O3 0.553100 0.894775 0.482060
O O4 0.312553 0.797787 0.045310
O O5 0.178028 0.555220 0.822365
O O6 0.333317 0.756931 0.782427
O O7 0.098502 0.826250 0.342598
O O8 0.624231 0.887725 0.821590
O O9 0.082807 0.027900 0.136236
O O10 0.505593 0.130718 0.316999
#
# Coordination Sequence:
#
# PCOD8047781 Si02
#       5
#     2   2   2   2   2
#     4  11  26  48  73 104 145 185 240 293 355 422
#     4  11  27  46  73 103 146 186 235 297 355 424
#     4  11  26  47  71 105 144 181 246 294 346 427
#     4  11  26  48  74 105 139 193 237 294 353 420
#     4  12  27  45  75 103 142 189 238 292 361 415
#
# _framework density 23.525625000000002
#
# number of rings (size 3 to 8) (size 9 to 14) (size 15 to 20)
#    0.000    0.800    2.000    3.600   11.200    4.800 
#    0.000    0.000    0.000    0.000    0.000    0.000 
#    0.000    0.000    0.000    0.000    0.000    0.000 
#
# Total GULP energy -124024.722892 kJ/mol
# GULP energy per Si atom -12402.472289 kJ/mol
# Density = 2.347208 g / cm^3
# Si number density = 23.525625 Si / 1000 Ang^3
#
#
#
# Elastic Constant Matrix: (Units=GPa)
#
#
# Indices 1 2 3 4 5 6 
#
# 1 125.4140 33.7177 24.7557 0.0000 -12.8821 0.0000
# 2 33.7177 113.0122 13.0194 0.0000 1.8483 0.0000
# 3 24.7557 13.0194 72.5192 0.0000 4.5336 0.0000
# 4 0.0000 0.0000 0.0000 32.2402 0.0000 6.4580
# 5 -12.8821 1.8483 4.5336 0.0000 29.4057 0.0000
# 6 0.0000 0.0000 0.0000 6.4580 0.0000 39.0045
#
#
#
# Elastic Compliance Matrix: (Units=1/GPa)
#
#
# Indices 1 2 3 4 5 6 
#
# 1 0.009824 -0.002645 -0.003189 0.000000 0.004961 0.000000
# 2 -0.002645 0.009750 -0.000744 0.000000 -0.001657 0.000000
# 3 -0.003189 -0.000744 0.015243 0.000000 -0.003700 0.000000
# 4 0.000000 0.000000 0.000000 0.032081 0.000000 -0.005312
# 5 0.004961 -0.001657 -0.003700 0.000000 0.036855 0.000000
# 6 0.000000 0.000000 0.000000 -0.005312 0.000000 0.026518
#
#
# Mechanical properties :
#
#
# Convention : Reuss Voigt Hill
#
# Bulk Modulus (GPa) = 46.16435 50.43680 48.30058
# Shear Modulus (GPa) = 33.19019 36.09359 34.64189
#
# Velocity S-wave (km/s) = 3.76015 3.92117 3.84150
# Velocity P-wave (km/s) = 6.20623 6.47969 6.34443
#
# Compressibility (1/GPa) = 0.02166174
#
# Stress axis : x y z
#
# Youngs Moduli (GPa) = 101.79453 102.55895 65.60415
#
# Poissons Ratio (x) = 0.27124 0.20920
# Poissons Ratio (y) = 0.26922 0.04882
# Poissons Ratio (z) = 0.32461 0.07632
#
# Static dielectric constant tensor:
#      x y z
#    x 4.277180 0.000000 0.217510 
#    y 0.000000 4.329170 0.000000 
#    z 0.217510 0.000000 3.901500 
# 
# 
# High freq. dielectric constant tensor:
#      x y z
#    x 1.941030 0.000000 0.008570 
#    y 0.000000 1.938140 0.000000 
#    z 0.008570 0.000000 1.924500 
# 
# From -- ./inp_files/919.got.cif
#   From: 2010.03.12/outbox.cif.g09.slc.cpg/sg4_1_cif.got.tgz:919.got - 2010.03.31 09:31:35.
