data_PCOD8047735
_publ_section_title
;
Structure prediction by ZEFSAII (Michael W. Deem and Ramdas Pophale) SiO2 
 PCOD8047735
Probable space group: P 21
;
_chemical_formula_sum "Si O2"
_cell_formula_units_Z 12
_cell_length_a 8.018358
_cell_length_b 5.015824
_cell_length_c 14.280985
_cell_angle_alpha 90.000000
_cell_angle_beta 126.522345
_cell_angle_gamma 90.000000
_cell_volume 461.571768
_symmetry_space_group_name_H-M "P 21"
_symmetry_group_IT_number 4
_symmetry_cell_setting 'monoclinic'
loop_
_space_group_symop_operation_xyz
x,y,z
-x,1/2+y,-z
loop_
_atom_site_type_symbol
_atom_site_label
_atom_site_fract_x
_atom_site_fract_y
_atom_site_fract_z
Si Si1 0.407345 0.021810 0.511280
Si Si2 0.763818 0.610140 0.037321
Si Si3 0.632429 0.994836 0.767885
Si Si4 0.892823 0.486694 0.881285
Si Si5 0.979204 0.146863 0.428696
Si Si6 0.643966 0.309219 0.170928
O O1 0.529397 0.296396 0.539866
O O2 0.162738 0.065106 0.419722
O O3 0.460531 0.921270 0.633294
O O4 0.791879 0.464272 0.146923
O O5 0.874494 0.905832 0.077169
O O6 0.882581 0.454254 0.992082
O O7 0.514814 0.610842 0.935849
O O8 0.816959 0.776505 0.824397
O O9 0.513245 0.006278 0.827013
O O10 0.734403 0.278026 0.782278
O O11 0.778986 0.156283 0.294451
O O12 0.044767 0.427346 0.497740
#
# Coordination Sequence:
#
# PCOD8047735 Si02
#       6
#     2   2   2   2   2   2
#     4  12  27  50  78 116 154 202 264 320 391 457
#     4  11  25  48  77 118 155 207 262 320 390 463
#     4  11  25  49  75 111 155 205 252 329 379 465
#     4  11  25  46  77 111 156 201 259 315 395 452
#     4  12  28  53  82 115 157 208 259 320 395 463
#     4  11  26  48  81 113 161 203 264 320 390 464
#
# _framework density 25.998125000000002
#
# number of rings (size 3 to 8) (size 9 to 14) (size 15 to 20)
#    0.000    0.667    1.667    5.000    7.000    2.667 
#    9.000    0.000    0.000    0.000    0.000    0.000 
#    0.000    0.000    0.000    0.000    0.000    0.000 
#
# Total GULP energy -148796.413144 kJ/mol
# GULP energy per Si atom -12399.701095 kJ/mol
# Density = 2.593895 g / cm^3
# Si number density = 25.998125 Si / 1000 Ang^3
#
#
#
# Elastic Constant Matrix: (Units=GPa)
#
#
# Indices 1 2 3 4 5 6 
#
# 1 122.9370 29.0310 18.1631 0.0000 9.3543 0.0000
# 2 29.0310 94.9297 22.0234 0.0000 -5.4929 0.0000
# 3 18.1631 22.0234 121.0966 0.0000 5.8933 0.0000
# 4 0.0000 0.0000 0.0000 36.3247 0.0000 -3.5686
# 5 9.3543 -5.4929 5.8933 0.0000 52.8756 0.0000
# 6 0.0000 0.0000 0.0000 -3.5686 0.0000 39.5318
#
#
#
# Elastic Compliance Matrix: (Units=1/GPa)
#
#
# Indices 1 2 3 4 5 6 
#
# 1 0.009018 -0.002681 -0.000778 0.000000 -0.001787 0.000000
# 2 -0.002681 0.011895 -0.001854 0.000000 0.001917 0.000000
# 3 -0.000778 -0.001854 0.008762 0.000000 -0.001032 0.000000
# 4 0.000000 0.000000 0.000000 0.027776 0.000000 0.002507
# 5 -0.001787 0.001917 -0.001032 0.000000 0.019543 0.000000
# 6 0.000000 0.000000 0.000000 0.002507 0.000000 0.025522
#
#
# Mechanical properties :
#
#
# Convention : Reuss Voigt Hill
#
# Bulk Modulus (GPa) = 52.49744 53.04424 52.77084
# Shear Modulus (GPa) = 41.84362 43.72949 42.78656
#
# Velocity S-wave (km/s) = 4.01619 4.10570 4.06119
# Velocity P-wave (km/s) = 6.46088 6.55157 6.50639
#
# Compressibility (1/GPa) = 0.01904855
#
# Stress axis : x y z
#
# Youngs Moduli (GPa) = 110.88615 84.06830 114.12856
#
# Poissons Ratio (x) = 0.22537 0.08880
# Poissons Ratio (y) = 0.29727 0.21165
# Poissons Ratio (z) = 0.08628 0.15590
#
# Static dielectric constant tensor:
#      x y z
#    x 4.654260 0.000000 0.088320 
#    y 0.000000 4.476700 0.000000 
#    z 0.088320 0.000000 4.641680 
# 
# 
# High freq. dielectric constant tensor:
#      x y z
#    x 2.047140 0.000000 0.008960 
#    y 0.000000 2.032400 0.000000 
#    z 0.008960 0.000000 2.049480 
# 
# From -- ./inp_files/13612.got.cif
#   From: 2010.03.12/outbox.cif.g09.slc.cpg/sg4_7_cif.got.tgz:13612.got - 2010.03.31 09:31:35.
