data_PCOD8047274
_publ_section_title
;
Structure prediction by ZEFSAII (Michael W. Deem and Ramdas Pophale) SiO2 
 PCOD8047274
Probable space group: P 21
;
_chemical_formula_sum "Si O2"
_cell_formula_units_Z 14
_cell_length_a 12.491712
_cell_length_b 5.155202
_cell_length_c 9.180663
_cell_angle_alpha 90.000000
_cell_angle_beta 95.748389
_cell_angle_gamma 90.000000
_cell_volume 588.236901
_symmetry_space_group_name_H-M "P 21"
_symmetry_group_IT_number 4
_symmetry_cell_setting 'monoclinic'
loop_
_space_group_symop_operation_xyz
x,y,z
-x,1/2+y,-z
loop_
_atom_site_type_symbol
_atom_site_label
_atom_site_fract_x
_atom_site_fract_y
_atom_site_fract_z
Si Si1 0.593603 0.150510 0.593756
Si Si2 0.041650 0.605191 0.087563
Si Si3 0.365806 0.294925 0.644283
Si Si4 0.256045 0.347434 0.176095
Si Si5 0.573059 0.744887 0.026566
Si Si6 0.766661 0.507529 0.579507
Si Si7 0.962527 0.162902 0.578683
O O1 0.468079 0.125109 0.606171
O O2 0.647310 0.431619 0.621730
O O3 0.620146 0.073216 0.430210
O O4 0.650545 0.964925 0.714906
O O5 0.170331 0.550634 0.098411
O O6 0.999454 0.632633 0.248789
O O7 0.977203 0.372292 0.001304
O O8 0.368954 0.325421 0.816167
O O9 0.253189 0.166288 0.573280
O O10 0.184140 0.167442 0.276692
O O11 0.323093 0.197454 0.061271
O O12 0.504286 0.481964 0.031668
O O13 0.838571 0.255167 0.557804
O O14 0.031155 0.386602 0.504384
#
# Coordination Sequence:
#
# PCOD8047274 Si02
#       7
#     2   2   2   2   2   2   2
#     4  11  21  41  72  99 141 191 241 290 351 440
#     4  12  27  50  80 112 147 198 253 313 386 465
#     4  11  24  39  69 108 143 191 241 294 354 432
#     4  11  25  47  74 101 144 202 243 295 374 445
#     4  12  28  45  68 106 154 195 241 298 361 433
#     4  11  24  45  75 103 143 193 246 300 368 438
#     4  12  27  51  80 111 148 194 255 324 380 439
#
# _framework density 23.799935000000001
#
# number of rings (size 3 to 8) (size 9 to 14) (size 15 to 20)
#    0.000    0.571    4.286    3.429    6.000    1.143 
#    2.571    1.429    0.000    0.000    0.000    0.000 
#    0.000    0.000    0.000    0.000    0.000    0.000 
#
# Total GULP energy -173488.544055 kJ/mol
# GULP energy per Si atom -12392.038861 kJ/mol
# Density = 2.374576 g / cm^3
# Si number density = 23.799935 Si / 1000 Ang^3
#
#
#
# Elastic Constant Matrix: (Units=GPa)
#
#
# Indices 1 2 3 4 5 6 
#
# 1 83.7228 11.2202 38.8595 0.0000 -3.5969 0.0000
# 2 11.2202 71.8224 25.2559 0.0000 10.0068 0.0000
# 3 38.8595 25.2559 161.0518 0.0000 4.5254 0.0000
# 4 0.0000 0.0000 0.0000 26.8065 0.0000 -6.3566
# 5 -3.5969 10.0068 4.5254 0.0000 25.1398 0.0000
# 6 0.0000 0.0000 0.0000 -6.3566 0.0000 42.2126
#
#
#
# Elastic Compliance Matrix: (Units=1/GPa)
#
#
# Indices 1 2 3 4 5 6 
#
# 1 0.013749 -0.001466 -0.003175 0.000000 0.003122 0.000000
# 2 -0.001466 0.015683 -0.001934 0.000000 -0.006104 0.000000
# 3 -0.003175 -0.001934 0.007307 0.000000 -0.001000 0.000000
# 4 0.000000 0.000000 0.000000 0.038686 0.000000 0.005826
# 5 0.003122 -0.006104 -0.001000 0.000000 0.042834 0.000000
# 6 0.000000 0.000000 0.000000 0.005826 0.000000 0.024567
#
#
# Mechanical properties :
#
#
# Convention : Reuss Voigt Hill
#
# Bulk Modulus (GPa) = 42.39602 51.91870 47.15736
# Shear Modulus (GPa) = 30.51793 34.91587 32.71690
#
# Velocity S-wave (km/s) = 3.58476 3.83437 3.71167
# Velocity P-wave (km/s) = 5.91491 6.43935 6.18270
#
# Compressibility (1/GPa) = 0.02358712
#
# Stress axis : x y z
#
# Youngs Moduli (GPa) = 72.73493 63.76380 136.86108
#
# Poissons Ratio (x) = 0.09350 0.43455
# Poissons Ratio (y) = 0.10665 0.26469
# Poissons Ratio (z) = 0.23094 0.12332
#
# Static dielectric constant tensor:
#      x y z
#    x 4.270400 0.000000 0.004520 
#    y 0.000000 4.617750 0.000000 
#    z 0.004520 0.000000 4.585210 
# 
# 
# High freq. dielectric constant tensor:
#      x y z
#    x 1.938100 0.000000 0.012370 
#    y 0.000000 1.950110 0.000000 
#    z 0.012370 0.000000 1.952000 
# 
# From -- ./inp_files/7407.got.cif
#   From: 2010.03.12/outbox.cif.g09.slc.cpg/sg4_4_cif.got.tgz:7407.got - 2010.03.31 09:31:35.
