data_PCOD8047278
_publ_section_title
;
Structure prediction by ZEFSAII (Michael W. Deem and Ramdas Pophale) SiO2 
 PCOD8047278
Probable space group: P 21
;
_chemical_formula_sum "Si O2"
_cell_formula_units_Z 16
_cell_length_a 10.602762
_cell_length_b 13.240377
_cell_length_c 10.671485
_cell_angle_alpha 90.000000
_cell_angle_beta 26.130036
_cell_angle_gamma 90.000000
_cell_volume 659.783234
_symmetry_space_group_name_H-M "P 21"
_symmetry_group_IT_number 4
_symmetry_cell_setting 'monoclinic'
loop_
_space_group_symop_operation_xyz
x,y,z
-x,1/2+y,-z
loop_
_atom_site_type_symbol
_atom_site_label
_atom_site_fract_x
_atom_site_fract_y
_atom_site_fract_z
Si Si1 0.289444 0.500000 0.998922
Si Si2 0.691877 0.567782 0.205760
Si Si3 0.859768 0.590415 0.549817
Si Si4 0.316002 0.664775 0.332806
Si Si5 0.802457 0.815647 0.544755
Si Si6 0.820500 0.797364 0.807814
Si Si7 0.737205 0.137725 0.215839
Si Si8 0.774877 0.351440 0.045947
O O1 0.297475 0.377712 0.985166
O O2 0.987083 0.514472 0.335629
O O3 0.543481 0.545882 0.860443
O O4 0.271680 0.550784 0.880632
O O5 0.494399 0.592107 0.263352
O O6 0.557996 0.618894 0.448419
O O7 0.741029 0.446893 0.169301
O O8 0.003693 0.618843 0.918036
O O9 0.836153 0.696083 0.498571
O O10 0.075149 0.598908 0.475205
O O11 0.120027 0.745853 0.584874
O O12 0.555733 0.717038 0.028083
O O13 0.897151 0.845595 0.601855
O O14 0.956280 0.866153 0.287282
O O15 0.476801 0.848636 0.829817
O O16 0.768942 0.250276 0.134218
#
# Coordination Sequence:
#
# PCOD8047278 Si02
#       8
#     2   2   2   2   2   2   2   2
#     4  12  24  43  73 111 139 193 241 300 364 436
#     4  12  29  48  74 107 143 202 248 297 369 430
#     4  11  21  42  71 103 146 182 231 307 368 427
#     4  11  25  48  67 106 155 190 237 306 371 434
#     4  11  21  44  70 106 146 183 237 298 372 433
#     4  11  25  43  72 113 151 194 233 304 381 446
#     4  12  26  49  72 105 146 193 252 304 355 432
#     4  12  25  47  75 105 140 193 247 308 352 442
#
# _framework density 24.250388999999998
#
# number of rings (size 3 to 8) (size 9 to 14) (size 15 to 20)
#    0.000    0.500    2.500    6.750    1.750    3.000 
#    2.250    0.000    0.000    0.000    0.000    0.000 
#    0.000    0.000    0.000    0.000    0.000    0.000 
#
# Total GULP energy -198300.413596 kJ/mol
# GULP energy per Si atom -12393.775850 kJ/mol
# Density = 2.419519 g / cm^3
# Si number density = 24.250389 Si / 1000 Ang^3
#
#
#
# Elastic Constant Matrix: (Units=GPa)
#
#
# Indices 1 2 3 4 5 6 
#
# 1 64.8618 36.8993 25.7629 0.0000 -2.7809 0.0000
# 2 36.8993 87.1684 26.0520 0.0000 3.4470 0.0000
# 3 25.7629 26.0520 90.4727 0.0000 -9.7377 0.0000
# 4 0.0000 0.0000 0.0000 37.0440 0.0000 0.7123
# 5 -2.7809 3.4470 -9.7377 0.0000 40.6262 0.0000
# 6 0.0000 0.0000 0.0000 0.7123 0.0000 31.8276
#
#
#
# Elastic Compliance Matrix: (Units=1/GPa)
#
#
# Indices 1 2 3 4 5 6 
#
# 1 0.021515 -0.008062 -0.003668 0.000000 0.001278 0.000000
# 2 -0.008062 0.015731 -0.002502 0.000000 -0.002486 0.000000
# 3 -0.003668 -0.002502 0.013153 0.000000 0.003114 0.000000
# 4 0.000000 0.000000 0.000000 0.027007 0.000000 -0.000604
# 5 0.001278 -0.002486 0.003114 0.000000 0.025659 0.000000
# 6 0.000000 0.000000 0.000000 -0.000604 0.000000 0.031433
#
#
# Mechanical properties :
#
#
# Convention : Reuss Voigt Hill
#
# Bulk Modulus (GPa) = 45.58620 46.65904 46.12262
# Shear Modulus (GPa) = 29.36467 32.15213 30.75840
#
# Velocity S-wave (km/s) = 3.48357 3.64516 3.56528
# Velocity P-wave (km/s) = 5.91771 6.08264 6.00074
#
# Compressibility (1/GPa) = 0.02193646
#
# Stress axis : x y z
#
# Youngs Moduli (GPa) = 46.47836 63.56972 76.02863
#
# Poissons Ratio (x) = 0.51250 0.27885
# Poissons Ratio (y) = 0.37471 0.19019
# Poissons Ratio (z) = 0.17047 0.15903
#
# Static dielectric constant tensor:
#      x y z
#    x 4.097520 0.000000 -0.181590 
#    y 0.000000 4.437430 0.000000 
#    z -0.181590 0.000000 4.750330 
# 
# 
# High freq. dielectric constant tensor:
#      x y z
#    x 1.944240 0.000000 -0.012080 
#    y 0.000000 1.963120 0.000000 
#    z -0.012080 0.000000 1.983580 
# 
# From -- ./inp_files/12353.got.cif
#   From: 2010.03.12/outbox.cif.g09.slc.cpg/sg4_7_cif.got.tgz:12353.got - 2010.03.31 09:31:35.
