data_PCOD8047654
_publ_section_title
;
Structure prediction by ZEFSAII (Michael W. Deem and Ramdas Pophale) SiO2 
 PCOD8047654
Probable space group: P 21
;
_chemical_formula_sum "Si O2"
_cell_formula_units_Z 14
_cell_length_a 8.094170
_cell_length_b 8.532336
_cell_length_c 11.420803
_cell_angle_alpha 90.000000
_cell_angle_beta 137.085169
_cell_angle_gamma 90.000000
_cell_volume 537.065086
_symmetry_space_group_name_H-M "P 21"
_symmetry_group_IT_number 4
_symmetry_cell_setting 'monoclinic'
loop_
_space_group_symop_operation_xyz
x,y,z
-x,1/2+y,-z
loop_
_atom_site_type_symbol
_atom_site_label
_atom_site_fract_x
_atom_site_fract_y
_atom_site_fract_z
Si Si1 0.353690 0.110070 0.058200
Si Si2 0.953580 0.887620 0.366064
Si Si3 0.339169 0.387140 0.389669
Si Si4 0.440677 0.772765 0.059193
Si Si5 0.115787 0.584825 0.077497
Si Si6 0.819632 0.526137 0.719131
Si Si7 0.774044 0.089256 0.456839
O O1 0.504524 0.090729 0.259025
O O2 0.309201 0.939744 0.976430
O O3 0.515937 0.206183 0.049338
O O4 0.079052 0.180545 0.939156
O O5 0.177146 0.769335 0.488649
O O6 0.703459 0.793348 0.254833
O O7 0.952163 0.989062 0.246443
O O8 0.978533 0.019144 0.478422
O O9 0.292832 0.470230 0.240174
O O10 0.617289 0.401386 0.574949
O O11 0.271012 0.204920 0.347322
O O12 0.193970 0.482781 0.411991
O O13 0.270092 0.677210 0.060421
O O14 0.913370 0.487428 0.898152
#
# Coordination Sequence:
#
# PCOD8047654 Si02
#       7
#     2   2   2   2   2   2   2
#     4  11  26  49  76 112 162 207 269 333 400 474
#     4  11  26  47  77 112 162 209 271 342 397 492
#     4  12  28  47  81 118 160 219 269 335 412 487
#     4  11  27  49  77 115 157 213 264 334 398 484
#     4  12  27  49  81 116 163 215 270 334 407 484
#     4  12  28  52  79 118 162 214 276 336 407 486
#     4  11  24  47  73 115 158 207 273 330 407 479
#
# _framework density 26.067602999999998
#
# number of rings (size 3 to 8) (size 9 to 14) (size 15 to 20)
#    0.000    0.571    1.429    5.143    6.000   10.286 
#    0.000    0.000    0.000    0.000    0.000    0.000 
#    0.000    0.000    0.000    0.000    0.000    0.000 
#
# Total GULP energy -173457.678999 kJ/mol
# GULP energy per Si atom -12389.834214 kJ/mol
# Density = 2.600827 g / cm^3
# Si number density = 26.067603 Si / 1000 Ang^3
#
#
#
# Elastic Constant Matrix: (Units=GPa)
#
#
# Indices 1 2 3 4 5 6 
#
# 1 133.9952 24.1096 22.7438 0.0000 0.8336 0.0000
# 2 24.1096 75.6079 9.8655 0.0000 -6.9062 0.0000
# 3 22.7438 9.8655 106.0126 0.0000 -8.5522 0.0000
# 4 0.0000 0.0000 0.0000 24.3349 0.0000 -1.2774
# 5 0.8336 -6.9062 -8.5522 0.0000 40.1981 0.0000
# 6 0.0000 0.0000 0.0000 -1.2774 0.0000 48.9427
#
#
#
# Elastic Compliance Matrix: (Units=1/GPa)
#
#
# Indices 1 2 3 4 5 6 
#
# 1 0.008188 -0.002488 -0.001601 0.000000 -0.000938 0.000000
# 2 -0.002488 0.014316 -0.000606 0.000000 0.002382 0.000000
# 3 -0.001601 -0.000606 0.009999 0.000000 0.002056 0.000000
# 4 0.000000 0.000000 0.000000 0.041150 0.000000 0.001074
# 5 -0.000938 0.002382 0.002056 0.000000 0.025743 0.000000
# 6 0.000000 0.000000 0.000000 0.001074 0.000000 0.020460
#
#
# Mechanical properties :
#
#
# Convention : Reuss Voigt Hill
#
# Bulk Modulus (GPa) = 43.26580 47.67260 45.46920
# Shear Modulus (GPa) = 36.50973 39.95493 38.23233
#
# Velocity S-wave (km/s) = 3.74649 3.91927 3.83386
# Velocity P-wave (km/s) = 5.94546 6.22966 6.08922
#
# Compressibility (1/GPa) = 0.02311295
#
# Stress axis : x y z
#
# Youngs Moduli (GPa) = 122.12806 69.85123 100.01420
#
# Poissons Ratio (x) = 0.17377 0.16010
# Poissons Ratio (y) = 0.30383 0.06064
# Poissons Ratio (z) = 0.19550 0.04236
#
# Static dielectric constant tensor:
#      x y z
#    x 5.262650 0.000000 -0.078040 
#    y 0.000000 4.616180 0.000000 
#    z -0.078040 0.000000 4.711640 
# 
# 
# High freq. dielectric constant tensor:
#      x y z
#    x 2.079100 0.000000 -0.002360 
#    y 0.000000 2.037530 0.000000 
#    z -0.002360 0.000000 2.041250 
# 
# From -- ./inp_files/10826.got.cif
#   From: 2010.03.12/outbox.cif.g09.slc.cpg/sg4_6_cif.got.tgz:10826.got - 2010.03.31 09:31:35.
