data_PCOD8047732
_publ_section_title
;
Structure prediction by ZEFSAII (Michael W. Deem and Ramdas Pophale) SiO2 
 PCOD8047732
Probable space group: P 21
;
_chemical_formula_sum "Si O2"
_cell_formula_units_Z 16
_cell_length_a 11.597141
_cell_length_b 11.453106
_cell_length_c 14.076560
_cell_angle_alpha 90.000000
_cell_angle_beta 20.683039
_cell_angle_gamma 90.000000
_cell_volume 660.372352
_symmetry_space_group_name_H-M "P 21"
_symmetry_group_IT_number 4
_symmetry_cell_setting 'monoclinic'
loop_
_space_group_symop_operation_xyz
x,y,z
-x,1/2+y,-z
loop_
_atom_site_type_symbol
_atom_site_label
_atom_site_fract_x
_atom_site_fract_y
_atom_site_fract_z
Si Si1 0.655187 0.014820 0.111338
Si Si2 0.650796 0.088506 0.463889
Si Si3 0.763116 0.780804 0.139762
Si Si4 0.326772 0.128840 0.531414
Si Si5 0.358205 0.413666 0.251616
Si Si6 0.328895 0.144715 0.974503
Si Si7 0.610923 0.371102 0.848930
Si Si8 0.417989 0.852621 0.723327
O O1 0.395444 0.093994 0.368306
O O2 0.669043 0.903703 0.168861
O O3 0.530286 0.978374 0.103415
O O4 0.994311 0.080398 0.832677
O O5 0.522618 0.221588 0.578405
O O6 0.623407 0.078652 0.369694
O O7 0.429326 0.984758 0.677048
O O8 0.993741 0.074913 0.257816
O O9 0.805282 0.689566 0.022403
O O10 0.074770 0.791495 0.966088
O O11 0.312424 0.270740 0.537047
O O12 0.370752 0.553827 0.261400
O O13 0.546920 0.348014 0.190002
O O14 0.992021 0.365018 0.530109
O O15 0.548258 0.391540 0.007437
O O16 0.430381 0.249985 0.964188
#
# Coordination Sequence:
#
# PCOD8047732 Si02
#       8
#     2   2   2   2   2   2   2   2
#     4  11  27  49  78 113 156 210 274 328 408 485
#     4  12  26  46  76 117 161 211 268 328 422 506
#     4  11  25  46  76 113 156 210 261 334 409 497
#     4  12  27  46  73 120 163 202 255 346 410 486
#     4  12  28  51  78 116 157 211 274 340 390 488
#     4  11  27  50  80 109 155 215 267 337 417 487
#     4  11  29  52  81 110 153 218 277 330 398 483
#     4  12  27  48  76 118 163 205 270 339 418 480
#
# _framework density 24.228753999999999
#
# number of rings (size 3 to 8) (size 9 to 14) (size 15 to 20)
#    0.000    0.500    3.750    2.250   10.500    6.000 
#    0.000    0.000    0.000    0.000    0.000    0.000 
#    0.000    0.000    0.000    0.000    0.000    0.000 
#
# Total GULP energy -198283.568485 kJ/mol
# GULP energy per Si atom -12392.723030 kJ/mol
# Density = 2.417361 g / cm^3
# Si number density = 24.228754 Si / 1000 Ang^3
#
#
#
# Elastic Constant Matrix: (Units=GPa)
#
#
# Indices 1 2 3 4 5 6 
#
# 1 146.9711 38.3837 31.3453 0.0000 0.5103 0.0000
# 2 38.3837 94.7718 32.8966 0.0000 -1.4729 0.0000
# 3 31.3453 32.8966 94.0263 0.0000 5.0737 0.0000
# 4 0.0000 0.0000 0.0000 44.6541 0.0000 -2.8952
# 5 0.5103 -1.4729 5.0737 0.0000 38.8288 0.0000
# 6 0.0000 0.0000 0.0000 -2.8952 0.0000 32.4753
#
#
#
# Elastic Compliance Matrix: (Units=1/GPa)
#
#
# Indices 1 2 3 4 5 6 
#
# 1 0.007844 -0.002582 -0.001713 0.000000 0.000023 0.000000
# 2 -0.002582 0.012900 -0.003707 0.000000 0.001008 0.000000
# 3 -0.001713 -0.003707 0.012598 0.000000 -0.001764 0.000000
# 4 0.000000 0.000000 0.000000 0.022525 0.000000 0.002008
# 5 0.000023 0.001008 -0.001764 0.000000 0.026023 0.000000
# 6 0.000000 0.000000 0.000000 0.002008 0.000000 0.030972
#
#
# Mechanical properties :
#
#
# Convention : Reuss Voigt Hill
#
# Bulk Modulus (GPa) = 57.67401 60.11335 58.89368
# Shear Modulus (GPa) = 37.13528 38.73454 37.93491
#
# Velocity S-wave (km/s) = 3.91921 4.00271 3.96118
# Velocity P-wave (km/s) = 6.65852 6.79904 6.72915
#
# Compressibility (1/GPa) = 0.01733883
#
# Stress axis : x y z
#
# Youngs Moduli (GPa) = 127.49322 77.52117 79.37531
#
# Poissons Ratio (x) = 0.20015 0.13595
# Poissons Ratio (y) = 0.32917 0.29423
# Poissons Ratio (z) = 0.21836 0.28736
#
# Static dielectric constant tensor:
#      x y z
#    x 4.617250 0.000000 -0.023100 
#    y 0.000000 4.766580 0.000000 
#    z -0.023100 0.000000 4.117840 
# 
# 
# High freq. dielectric constant tensor:
#      x y z
#    x 1.976760 0.000000 0.002260 
#    y 0.000000 1.975820 0.000000 
#    z 0.002260 0.000000 1.949500 
# 
# From -- ./inp_files/13996.got.cif
#   From: 2010.03.12/outbox.cif.g09.slc.cpg/sg4_7_cif.got.tgz:13996.got - 2010.03.31 09:31:35.
