data_PCOD8047873
_publ_section_title
;
Structure prediction by ZEFSAII (Michael W. Deem and Ramdas Pophale) SiO2 
 PCOD8047873
Probable space group: P 21
;
_chemical_formula_sum "Si O2"
_cell_formula_units_Z 16
_cell_length_a 10.188647
_cell_length_b 5.964592
_cell_length_c 14.899161
_cell_angle_alpha 90.000000
_cell_angle_beta 133.139763
_cell_angle_gamma 90.000000
_cell_volume 660.687701
_symmetry_space_group_name_H-M "P 21"
_symmetry_group_IT_number 4
_symmetry_cell_setting 'monoclinic'
loop_
_space_group_symop_operation_xyz
x,y,z
-x,1/2+y,-z
loop_
_atom_site_type_symbol
_atom_site_label
_atom_site_fract_x
_atom_site_fract_y
_atom_site_fract_z
Si Si1 0.586340 0.699710 0.965054
Si Si2 0.200367 0.775214 0.524837
Si Si3 0.597441 0.302458 0.557101
Si Si4 0.805892 0.918146 0.337633
Si Si5 0.113023 0.903610 0.953691
Si Si6 0.551379 0.538099 0.238787
Si Si7 0.791346 0.203572 0.823939
Si Si8 0.772081 0.067483 0.132939
O O1 0.441874 0.630135 0.973279
O O2 0.464559 0.836953 0.838187
O O3 0.683950 0.495974 0.960808
O O4 0.763067 0.815292 0.091159
O O5 0.244666 0.764201 0.440791
O O6 0.260236 0.551617 0.605553
O O7 0.988522 0.787935 0.443505
O O8 0.309561 0.983598 0.616403
O O9 0.504292 0.550950 0.493547
O O10 0.687327 0.337462 0.696830
O O11 0.640019 0.756144 0.233374
O O12 0.843809 0.078212 0.268654
O O13 0.101467 0.701472 0.876238
O O14 0.096636 0.852696 0.052465
O O15 0.937863 0.045045 0.845487
O O16 0.352544 0.569045 0.184206
#
# Coordination Sequence:
#
# PCOD8047873 Si02
#       8
#     2   2   2   2   2   2   2   2
#     4  12  24  45  73 110 148 191 248 306 391 458
#     4  12  27  47  76 111 151 199 259 324 392 463
#     4  12  30  53  83 115 158 215 272 325 395 480
#     4  12  27  46  77 111 148 192 253 322 391 462
#     4  12  29  48  74 113 153 200 256 319 383 470
#     4  12  24  49  74 106 148 201 249 312 386 465
#     4  12  28  51  75 110 157 209 266 321 392 472
#     4  12  25  43  76 112 147 193 243 317 392 464
#
# _framework density 24.217191
#
# number of rings (size 3 to 8) (size 9 to 14) (size 15 to 20)
#    0.000    0.000    6.250    3.000    3.500    3.000 
#    0.000    0.000    0.000    0.000    0.000    0.000 
#    0.000    0.000    0.000    0.000    0.000    0.000 
#
# Total GULP energy -198234.070965 kJ/mol
# GULP energy per Si atom -12389.629435 kJ/mol
# Density = 2.416207 g / cm^3
# Si number density = 24.217191 Si / 1000 Ang^3
#
#
#
# Elastic Constant Matrix: (Units=GPa)
#
#
# Indices 1 2 3 4 5 6 
#
# 1 94.8779 11.0384 11.9996 0.0000 -2.6025 0.0000
# 2 11.0384 68.2222 10.5571 0.0000 0.2549 0.0000
# 3 11.9996 10.5571 83.9634 0.0000 -3.8494 0.0000
# 4 0.0000 0.0000 0.0000 34.8676 0.0000 4.8602
# 5 -2.6025 0.2549 -3.8494 0.0000 50.3856 0.0000
# 6 0.0000 0.0000 0.0000 4.8602 0.0000 37.9072
#
#
#
# Elastic Compliance Matrix: (Units=1/GPa)
#
#
# Indices 1 2 3 4 5 6 
#
# 1 0.010904 -0.001558 -0.001341 0.000000 0.000469 0.000000
# 2 -0.001558 0.015174 -0.001698 0.000000 -0.000287 0.000000
# 3 -0.001341 -0.001698 0.012356 0.000000 0.000883 0.000000
# 4 0.000000 0.000000 0.000000 0.029202 0.000000 -0.003744
# 5 0.000469 -0.000287 0.000883 0.000000 0.019940 0.000000
# 6 0.000000 0.000000 0.000000 -0.003744 0.000000 0.026860
#
#
# Mechanical properties :
#
#
# Convention : Reuss Voigt Hill
#
# Bulk Modulus (GPa) = 34.20211 34.91707 34.55959
# Shear Modulus (GPa) = 37.48782 38.86332 38.17557
#
# Velocity S-wave (km/s) = 3.93871 4.01032 3.97468
# Velocity P-wave (km/s) = 5.90240 5.99109 5.94691
#
# Compressibility (1/GPa) = 0.02923797
#
# Stress axis : x y z
#
# Youngs Moduli (GPa) = 91.71271 65.90210 80.93493
#
# Poissons Ratio (x) = 0.10271 0.10852
# Poissons Ratio (y) = 0.14293 0.13745
# Poissons Ratio (z) = 0.12297 0.11192
#
# Static dielectric constant tensor:
#      x y z
#    x 4.295900 0.000000 -0.101780 
#    y 0.000000 4.640660 0.000000 
#    z -0.101780 0.000000 4.186190 
# 
# 
# High freq. dielectric constant tensor:
#      x y z
#    x 1.972450 0.000000 -0.006750 
#    y 0.000000 1.960310 0.000000 
#    z -0.006750 0.000000 1.965350 
# 
# From -- ./inp_files/9077.got.cif
#   From: 2010.03.12/outbox.cif.g09.slc.cpg/sg4_5_cif.got.tgz:9077.got - 2010.03.31 09:31:35.
