data_PCOD8047632
_publ_section_title
;
Structure prediction by ZEFSAII (Michael W. Deem and Ramdas Pophale) SiO2 
 PCOD8047632
Probable space group: P 21
;
_chemical_formula_sum "Si O2"
_cell_formula_units_Z 14
_cell_length_a 8.319245
_cell_length_b 8.555773
_cell_length_c 10.901468
_cell_angle_alpha 90.000000
_cell_angle_beta 42.911254
_cell_angle_gamma 90.000000
_cell_volume 528.310202
_symmetry_space_group_name_H-M "P 21"
_symmetry_group_IT_number 4
_symmetry_cell_setting 'monoclinic'
loop_
_space_group_symop_operation_xyz
x,y,z
-x,1/2+y,-z
loop_
_atom_site_type_symbol
_atom_site_label
_atom_site_fract_x
_atom_site_fract_y
_atom_site_fract_z
Si Si1 0.218300 0.419160 0.078168
Si Si2 0.299692 0.965920 0.836767
Si Si3 0.848947 0.122524 0.109952
Si Si4 0.994745 0.969525 0.373072
Si Si5 0.438040 0.100297 0.980214
Si Si6 0.175571 0.806029 0.520272
Si Si7 0.424165 0.441396 0.552239
O O1 0.417189 0.285150 0.970491
O O2 0.984382 0.363056 0.277101
O O3 0.153829 0.469501 0.976932
O O4 0.327857 0.578915 0.070024
O O5 0.209095 0.790009 0.912720
O O6 0.374667 0.995352 0.655541
O O7 0.506786 0.000333 0.818492
O O8 0.125746 0.106349 0.987556
O O9 0.679294 0.096476 0.322215
O O10 0.845749 0.123103 0.493329
O O11 0.214134 0.020741 0.169825
O O12 0.800303 0.866610 0.399939
O O13 0.093376 0.887916 0.440151
O O14 0.447950 0.839860 0.411599
#
# Coordination Sequence:
#
# PCOD8047632 Si02
#       7
#     2   2   2   2   2   2   2
#     4  11  24  46  71 105 148 194 251 311 378 451
#     4  12  26  46  73 107 145 194 248 307 375 446
#     4  12  26  46  73 107 145 194 248 307 375 446
#     4  11  26  47  72 108 150 196 252 312 377 451
#     4  11  24  46  71 105 148 194 251 311 378 451
#     4  11  26  47  72 108 150 196 252 312 377 451
#     4  12  26  48  76 108 152 200 252 308 378 456
#
# _framework density 26.499583999999999
#
# number of rings (size 3 to 8) (size 9 to 14) (size 15 to 20)
#    0.000    0.571    2.857    4.286    0.000   13.714 
#    0.000    0.000    0.000    0.000    0.000    0.000 
#    0.000    0.000    0.000    0.000    0.000    0.000 
#
# Total GULP energy -173449.966239 kJ/mol
# GULP energy per Si atom -12389.283303 kJ/mol
# Density = 2.643927 g / cm^3
# Si number density = 26.499584 Si / 1000 Ang^3
#
#
#
# Elastic Constant Matrix: (Units=GPa)
#
#
# Indices 1 2 3 4 5 6 
#
# 1 162.6421 33.2490 14.2971 0.0000 3.6687 0.0000
# 2 33.2490 65.1106 16.7771 0.0000 4.4601 0.0000
# 3 14.2971 16.7771 82.7434 0.0000 7.7268 0.0000
# 4 0.0000 0.0000 0.0000 33.6148 0.0000 -6.7933
# 5 3.6687 4.4601 7.7268 0.0000 41.2809 0.0000
# 6 0.0000 0.0000 0.0000 -6.7933 0.0000 35.0077
#
#
#
# Elastic Compliance Matrix: (Units=1/GPa)
#
#
# Indices 1 2 3 4 5 6 
#
# 1 0.006886 -0.003379 -0.000490 0.000000 -0.000155 0.000000
# 2 -0.003379 0.017918 -0.002948 0.000000 -0.001084 0.000000
# 3 -0.000490 -0.002948 0.012961 0.000000 -0.002064 0.000000
# 4 0.000000 0.000000 0.000000 0.030963 0.000000 0.006008
# 5 -0.000155 -0.001084 -0.002064 0.000000 0.024741 0.000000
# 6 0.000000 0.000000 0.000000 0.006008 0.000000 0.029731
#
#
# Mechanical properties :
#
#
# Convention : Reuss Voigt Hill
#
# Bulk Modulus (GPa) = 41.44268 48.79362 45.11815
# Shear Modulus (GPa) = 34.51168 38.39220 36.45194
#
# Velocity S-wave (km/s) = 3.61272 3.81042 3.71289
# Velocity P-wave (km/s) = 5.75111 6.14915 5.95346
#
# Compressibility (1/GPa) = 0.02412972
#
# Stress axis : x y z
#
# Youngs Moduli (GPa) = 145.22425 55.80967 77.15634
#
# Poissons Ratio (x) = 0.18860 0.03782
# Poissons Ratio (y) = 0.49077 0.22745
# Poissons Ratio (z) = 0.07118 0.16452
#
# Static dielectric constant tensor:
#      x y z
#    x 5.422580 0.000000 -0.086130 
#    y 0.000000 4.517930 0.000000 
#    z -0.086130 0.000000 4.806330 
# 
# 
# High freq. dielectric constant tensor:
#      x y z
#    x 2.096300 0.000000 0.004040 
#    y 0.000000 2.045750 0.000000 
#    z 0.004040 0.000000 2.068220 
# 
# From -- ./inp_files/7610.got.cif
#   From: 2010.03.12/outbox.cif.g09.slc.cpg/sg4_4_cif.got.tgz:7610.got - 2010.03.31 09:31:35.
