data_PCOD8047683
_publ_section_title
;
Structure prediction by ZEFSAII (Michael W. Deem and Ramdas Pophale) SiO2 
 PCOD8047683
Probable space group: P 21
;
_chemical_formula_sum "Si O2"
_cell_formula_units_Z 16
_cell_length_a 12.912698
_cell_length_b 8.866023
_cell_length_c 9.268879
_cell_angle_alpha 90.000000
_cell_angle_beta 38.966709
_cell_angle_gamma 90.000000
_cell_volume 667.318344
_symmetry_space_group_name_H-M "P 21"
_symmetry_group_IT_number 4
_symmetry_cell_setting 'monoclinic'
loop_
_space_group_symop_operation_xyz
x,y,z
-x,1/2+y,-z
loop_
_atom_site_type_symbol
_atom_site_label
_atom_site_fract_x
_atom_site_fract_y
_atom_site_fract_z
Si Si1 0.520607 0.763680 0.152164
Si Si2 0.479414 0.048313 0.386062
Si Si3 0.728070 0.563940 0.123048
Si Si4 0.942901 0.309456 0.743699
Si Si5 0.181587 0.627512 0.880600
Si Si6 0.294573 0.198826 0.333340
Si Si7 0.180573 0.864272 0.428771
Si Si8 0.968032 0.824844 0.923095
O O1 0.586229 0.613359 0.161852
O O2 0.324303 0.758558 0.339303
O O3 0.557516 0.911095 0.210143
O O4 0.603280 0.779485 0.904600
O O5 0.347878 0.990377 0.648514
O O6 0.621239 0.125976 0.328086
O O7 0.402004 0.173925 0.362283
O O8 0.862338 0.456554 0.903990
O O9 0.816468 0.713139 0.081669
O O10 0.882287 0.288529 0.647768
O O11 0.142095 0.310088 0.535177
O O12 0.881357 0.159913 0.889768
O O13 0.124602 0.761434 0.838735
O O14 0.098276 0.471465 0.920094
O O15 0.238414 0.034839 0.337960
O O16 0.025036 0.866915 0.701974
#
# Coordination Sequence:
#
# PCOD8047683 Si02
#       8
#     2   2   2   2   2   2   2   2
#     4  11  24  50  73 109 156 200 258 314 381 461
#     4  11  27  48  79 109 155 203 254 321 382 459
#     4  12  26  48  76 118 152 202 260 317 391 463
#     4  12  26  44  78 112 154 198 257 323 385 460
#     4  12  26  47  76 111 150 204 252 320 387 456
#     4  11  24  50  75 112 156 201 260 316 388 462
#     4  11  25  46  75 111 151 203 253 318 381 462
#     4  12  26  47  74 112 152 203 256 317 385 459
#
# _framework density 23.976562999999999
#
# number of rings (size 3 to 8) (size 9 to 14) (size 15 to 20)
#    0.000    0.500    3.750    3.750    7.000    0.000 
#    4.500    0.000    0.000    0.000    0.000    0.000 
#    0.000    0.000    0.000    0.000    0.000    0.000 
#
# Total GULP energy -198416.595534 kJ/mol
# GULP energy per Si atom -12401.037221 kJ/mol
# Density = 2.392199 g / cm^3
# Si number density = 23.976563 Si / 1000 Ang^3
#
#
#
# Elastic Constant Matrix: (Units=GPa)
#
#
# Indices 1 2 3 4 5 6 
#
# 1 130.4913 47.7920 33.6519 0.0000 2.9157 0.0000
# 2 47.7920 100.0236 32.4843 0.0000 -7.9793 0.0000
# 3 33.6519 32.4843 129.6657 0.0000 6.4164 0.0000
# 4 0.0000 0.0000 0.0000 45.8779 0.0000 -3.2215
# 5 2.9157 -7.9793 6.4164 0.0000 33.6977 0.0000
# 6 0.0000 0.0000 0.0000 -3.2215 0.0000 38.0168
#
#
#
# Elastic Compliance Matrix: (Units=1/GPa)
#
#
# Indices 1 2 3 4 5 6 
#
# 1 0.009614 -0.004285 -0.001343 0.000000 -0.001591 0.000000
# 2 -0.004285 0.013129 -0.002372 0.000000 0.003931 0.000000
# 3 -0.001343 -0.002372 0.008759 0.000000 -0.002113 0.000000
# 4 0.000000 0.000000 0.000000 0.021927 0.000000 0.001858
# 5 -0.001591 0.003931 -0.002113 0.000000 0.031146 0.000000
# 6 0.000000 0.000000 0.000000 0.001858 0.000000 0.026462
#
#
# Mechanical properties :
#
#
# Convention : Reuss Voigt Hill
#
# Bulk Modulus (GPa) = 64.49955 65.33744 64.91849
# Shear Modulus (GPa) = 37.82017 39.93533 38.87775
#
# Velocity S-wave (km/s) = 3.97593 4.08560 4.03114
# Velocity P-wave (km/s) = 6.93086 7.04030 6.98580
#
# Compressibility (1/GPa) = 0.01550398
#
# Stress axis : x y z
#
# Youngs Moduli (GPa) = 104.00994 76.16933 114.16269
#
# Poissons Ratio (x) = 0.32635 0.15333
# Poissons Ratio (y) = 0.44564 0.27075
# Poissons Ratio (z) = 0.13970 0.18064
#
# Static dielectric constant tensor:
#      x y z
#    x 4.545690 0.000000 0.035340 
#    y 0.000000 4.128830 0.000000 
#    z 0.035340 0.000000 4.350320 
# 
# 
# High freq. dielectric constant tensor:
#      x y z
#    x 1.965060 0.000000 0.001090 
#    y 0.000000 1.937780 0.000000 
#    z 0.001090 0.000000 1.961940 
# 
# From -- ./inp_files/5735.got.cif
#   From: 2010.03.12/outbox.cif.g09.slc.cpg/sg4_3_cif.got.tgz:5735.got - 2010.03.31 09:31:35.
