data_PCOD8047503
_publ_section_title
;
Structure prediction by ZEFSAII (Michael W. Deem and Ramdas Pophale) SiO2 
 PCOD8047503
Probable space group: P 21
;
_chemical_formula_sum "Si O2"
_cell_formula_units_Z 16
_cell_length_a 6.684679
_cell_length_b 20.229575
_cell_length_c 5.282118
_cell_angle_alpha 90.000000
_cell_angle_beta 72.000090
_cell_angle_gamma 90.000000
_cell_volume 679.331827
_symmetry_space_group_name_H-M "P 21"
_symmetry_group_IT_number 4
_symmetry_cell_setting 'monoclinic'
loop_
_space_group_symop_operation_xyz
x,y,z
-x,1/2+y,-z
loop_
_atom_site_type_symbol
_atom_site_label
_atom_site_fract_x
_atom_site_fract_y
_atom_site_fract_z
Si Si1 0.343061 0.172000 0.131658
Si Si2 0.097537 0.645589 0.432549
Si Si3 0.581951 0.071901 0.350818
Si Si4 0.768755 0.291384 0.587510
Si Si5 0.917435 0.973326 0.124816
Si Si6 0.478986 0.811039 0.836853
Si Si7 0.806846 0.578304 0.191565
Si Si8 0.877923 0.890943 0.643133
O O1 0.536678 0.134016 0.187284
O O2 0.386561 0.249216 0.112607
O O3 0.115149 0.158332 0.333141
O O4 0.328803 0.140589 0.858457
O O5 0.252298 0.594832 0.504670
O O6 0.211066 0.715138 0.333867
O O7 0.027268 0.607539 0.207366
O O8 0.356649 0.045882 0.545832
O O9 0.693514 0.010182 0.168396
O O10 0.629299 0.295740 0.388589
O O11 0.993083 0.323331 0.442218
O O12 0.675185 0.329361 0.869849
O O13 0.926795 0.940614 0.396323
O O14 0.943637 0.921642 0.886187
O O15 0.118848 0.023076 0.038561
O O16 0.632115 0.872976 0.735442
#
# Coordination Sequence:
#
# PCOD8047503 Si02
#       8
#     2   2   2   2   2   2   2   2
#     4  11  24  43  75 111 147 182 246 305 380 439
#     4  11  23  45  73 112 151 185 236 310 384 435
#     4  11  25  46  72 109 147 191 235 312 372 434
#     4  12  27  47  78 106 148 191 245 306 375 439
#     4  12  28  50  75 102 152 200 250 296 365 441
#     4  12  27  48  76 113 142 193 247 308 374 440
#     4  11  27  43  74 112 148 192 245 302 372 451
#     4  12  29  52  71 105 149 200 250 305 354 443
#
# _framework density 23.552555999999999
#
# number of rings (size 3 to 8) (size 9 to 14) (size 15 to 20)
#    0.000    0.500    3.750    3.000   10.500    4.000 
#    0.000    0.000    0.000    0.000    0.000    0.000 
#    0.000    0.000    0.000    0.000    0.000    0.000 
#
# Total GULP energy -198402.577977 kJ/mol
# GULP energy per Si atom -12400.161124 kJ/mol
# Density = 2.349895 g / cm^3
# Si number density = 23.552556 Si / 1000 Ang^3
#
#
#
# Elastic Constant Matrix: (Units=GPa)
#
#
# Indices 1 2 3 4 5 6 
#
# 1 95.1636 17.6546 25.1175 0.0000 6.1835 0.0000
# 2 17.6546 73.9100 24.0322 0.0000 -5.3384 0.0000
# 3 25.1175 24.0322 100.8683 0.0000 10.4624 0.0000
# 4 0.0000 0.0000 0.0000 40.8626 0.0000 -4.8426
# 5 6.1835 -5.3384 10.4624 0.0000 36.9578 0.0000
# 6 0.0000 0.0000 0.0000 -4.8426 0.0000 33.2961
#
#
#
# Elastic Compliance Matrix: (Units=1/GPa)
#
#
# Indices 1 2 3 4 5 6 
#
# 1 0.011598 -0.002172 -0.002201 0.000000 -0.001631 0.000000
# 2 -0.002172 0.015450 -0.003512 0.000000 0.003590 0.000000
# 3 -0.002201 -0.003512 0.011656 0.000000 -0.003439 0.000000
# 4 0.000000 0.000000 0.000000 0.024901 0.000000 0.003622
# 5 -0.001631 0.003590 -0.003439 0.000000 0.028823 0.000000
# 6 0.000000 0.000000 0.000000 0.003622 0.000000 0.030560
#
#
# Mechanical properties :
#
#
# Convention : Reuss Voigt Hill
#
# Bulk Modulus (GPa) = 43.60785 44.83896 44.22340
# Shear Modulus (GPa) = 34.15186 35.76580 34.95883
#
# Velocity S-wave (km/s) = 3.81205 3.90109 3.85683
# Velocity P-wave (km/s) = 6.15881 6.27459 6.21697
#
# Compressibility (1/GPa) = 0.02293165
#
# Stress axis : x y z
#
# Youngs Moduli (GPa) = 86.21982 64.72393 85.79580
#
# Poissons Ratio (x) = 0.14061 0.18886
# Poissons Ratio (y) = 0.18731 0.30135
# Poissons Ratio (z) = 0.18980 0.22734
#
# Static dielectric constant tensor:
#      x y z
#    x 4.325210 0.000000 -0.158440 
#    y 0.000000 4.212500 0.000000 
#    z -0.158440 0.000000 4.358020 
# 
# 
# High freq. dielectric constant tensor:
#      x y z
#    x 1.944270 0.000000 -0.013870 
#    y 0.000000 1.926780 0.000000 
#    z -0.013870 0.000000 1.943650 
# 
# From -- ./inp_files/606.got.cif
#   From: 2010.03.12/outbox.cif.g09.slc.cpg/sg4_1_cif.got.tgz:606.got - 2010.03.31 09:31:35.
