data_PCOD8047184
_publ_section_title
;
Structure prediction by ZEFSAII (Michael W. Deem and Ramdas Pophale) SiO2 
 PCOD8047184
Probable space group: P 21
;
_chemical_formula_sum "Si O2"
_cell_formula_units_Z 14
_cell_length_a 8.573055
_cell_length_b 10.300203
_cell_length_c 13.551833
_cell_angle_alpha 90.000000
_cell_angle_beta 150.973539
_cell_angle_gamma 90.000000
_cell_volume 580.647161
_symmetry_space_group_name_H-M "P 21"
_symmetry_group_IT_number 4
_symmetry_cell_setting 'monoclinic'
loop_
_space_group_symop_operation_xyz
x,y,z
-x,1/2+y,-z
loop_
_atom_site_type_symbol
_atom_site_label
_atom_site_fract_x
_atom_site_fract_y
_atom_site_fract_z
Si Si1 0.904799 0.493960 0.787408
Si Si2 0.225546 0.252299 0.883441
Si Si3 0.947469 0.482501 0.421434
Si Si4 0.954538 0.853473 0.937002
Si Si5 0.420914 0.675001 0.108474
Si Si6 0.646796 0.228830 0.299260
Si Si7 0.167992 0.505006 0.330398
O O1 0.538801 0.517474 0.560944
O O2 0.048817 0.388380 0.793548
O O3 0.975384 0.459034 0.940764
O O4 0.100213 0.625821 0.874132
O O5 0.333927 0.242935 0.830696
O O6 0.960076 0.146988 0.766937
O O7 0.531917 0.237081 0.123286
O O8 0.606657 0.551699 0.258706
O O9 0.927007 0.341451 0.465351
O O10 0.227526 0.582723 0.610342
O O11 0.977153 0.453342 0.320941
O O12 0.653455 0.759028 0.794822
O O13 0.894660 0.913787 0.796916
O O14 0.292435 0.773693 0.120542
#
# Coordination Sequence:
#
# PCOD8047184 Si02
#       7
#     2   2   2   2   2   2   2
#     4  11  26  47  70 107 142 179 244 288 357 431
#     4  10  25  48  71  98 148 186 237 294 359 428
#     4  11  25  47  72 109 144 193 244 292 367 432
#     4  11  26  45  75 103 144 185 237 303 361 423
#     4  11  24  46  71 101 141 189 236 294 359 431
#     4  11  25  47  73 110 147 189 245 300 357 435
#     4  11  27  44  74 102 142 189 235 295 366 424
#
# _framework density 24.111027
#
# number of rings (size 3 to 8) (size 9 to 14) (size 15 to 20)
#    0.000    1.143    2.857    1.714   16.000    1.143 
#    0.000    0.000    0.000    0.000    0.000    0.000 
#    0.000    0.000    0.000    0.000    0.000    0.000 
#
# Total GULP energy -173575.946768 kJ/mol
# GULP energy per Si atom -12398.281912 kJ/mol
# Density = 2.405615 g / cm^3
# Si number density = 24.111027 Si / 1000 Ang^3
#
#
#
# Elastic Constant Matrix: (Units=GPa)
#
#
# Indices 1 2 3 4 5 6 
#
# 1 80.4655 33.0806 14.3736 0.0000 15.8878 0.0000
# 2 33.0806 79.7062 22.2934 0.0000 3.8459 0.0000
# 3 14.3736 22.2934 98.3259 0.0000 18.5140 0.0000
# 4 0.0000 0.0000 0.0000 45.5728 0.0000 11.1696
# 5 15.8878 3.8459 18.5140 0.0000 26.0853 0.0000
# 6 0.0000 0.0000 0.0000 11.1696 0.0000 33.9910
#
#
#
# Elastic Compliance Matrix: (Units=1/GPa)
#
#
# Indices 1 2 3 4 5 6 
#
# 1 0.017066 -0.006865 0.000956 0.000000 -0.010061 0.000000
# 2 -0.006865 0.016158 -0.003461 0.000000 0.004255 0.000000
# 3 0.000956 -0.003461 0.012499 0.000000 -0.008943 0.000000
# 4 0.000000 0.000000 0.000000 0.023865 0.000000 -0.007842
# 5 -0.010061 0.004255 -0.008943 0.000000 0.050184 0.000000
# 6 0.000000 0.000000 0.000000 -0.007842 0.000000 0.031996
#
#
# Mechanical properties :
#
#
# Convention : Reuss Voigt Hill
#
# Bulk Modulus (GPa) = 37.06049 44.22143 40.64096
# Shear Modulus (GPa) = 27.85488 33.71315 30.78401
#
# Velocity S-wave (km/s) = 3.40262 3.74337 3.57706
# Velocity P-wave (km/s) = 5.55349 6.08805 5.82690
#
# Compressibility (1/GPa) = 0.02698291
#
# Stress axis : x y z
#
# Youngs Moduli (GPa) = 58.59751 61.88916 80.00495
#
# Poissons Ratio (x) = 0.42485 -0.07649
# Poissons Ratio (y) = 0.40226 0.27692
# Poissons Ratio (z) = -0.05602 0.21421
#
# Static dielectric constant tensor:
#      x y z
#    x 4.348210 0.000000 0.196770 
#    y 0.000000 4.441780 0.000000 
#    z 0.196770 0.000000 4.311470 
# 
# 
# High freq. dielectric constant tensor:
#      x y z
#    x 1.960180 0.000000 0.018790 
#    y 0.000000 1.963720 0.000000 
#    z 0.018790 0.000000 1.956850 
# 
# From -- ./inp_files/5307.got.cif
#   From: 2010.03.12/outbox.cif.g09.slc.cpg/sg4_3_cif.got.tgz:5307.got - 2010.03.31 09:31:35.
