data_PCOD8047782
_publ_section_title
;
Structure prediction by ZEFSAII (Michael W. Deem and Ramdas Pophale) SiO2 
 PCOD8047782
Probable space group: P 21
;
_chemical_formula_sum "Si O2"
_cell_formula_units_Z 10
_cell_length_a 9.838672
_cell_length_b 7.481040
_cell_length_c 5.247674
_cell_angle_alpha 90.000000
_cell_angle_beta 85.822034
_cell_angle_gamma 90.000000
_cell_volume 385.220741
_symmetry_space_group_name_H-M "P 21"
_symmetry_group_IT_number 4
_symmetry_cell_setting 'monoclinic'
loop_
_space_group_symop_operation_xyz
x,y,z
-x,1/2+y,-z
loop_
_atom_site_type_symbol
_atom_site_label
_atom_site_fract_x
_atom_site_fract_y
_atom_site_fract_z
Si Si1 0.442876 0.762870 0.294575
Si Si2 0.670462 0.628200 0.584020
Si Si3 0.709776 0.167708 0.173422
Si Si4 0.166814 0.336951 0.071107
Si Si5 0.893725 0.489694 0.223014
O O1 0.599502 0.711135 0.339949
O O2 0.349955 0.687109 0.536324
O O3 0.429222 0.977974 0.282697
O O4 0.406463 0.676043 0.029175
O O5 0.700561 0.787069 0.778143
O O6 0.816397 0.540048 0.494842
O O7 0.812807 0.329402 0.095265
O O8 0.786081 0.978007 0.149260
O O9 0.048302 0.428384 0.260564
O O10 0.102376 0.161611 0.957123
#
# Coordination Sequence:
#
# PCOD8047782 Si02
#       5
#     2   2   2   2   2
#     4  11  26  48  75 115 152 196 251 313 380 455
#     4  11  27  45  77 109 153 199 252 314 380 451
#     4  11  26  47  76 111 153 196 252 313 378 448
#     4  12  25  47  76 105 152 205 253 313 379 448
#     4  11  26  47  72 110 152 198 258 311 379 450
#
# _framework density 25.959142
#
# number of rings (size 3 to 8) (size 9 to 14) (size 15 to 20)
#    0.000    0.800    4.000    1.200    8.400    4.800 
#    0.000    0.000    0.000    0.000    0.000    0.000 
#    0.000    0.000    0.000    0.000    0.000    0.000 
#
# Total GULP energy -124033.248575 kJ/mol
# GULP energy per Si atom -12403.324857 kJ/mol
# Density = 2.590006 g / cm^3
# Si number density = 25.959142 Si / 1000 Ang^3
#
#
#
# Elastic Constant Matrix: (Units=GPa)
#
#
# Indices 1 2 3 4 5 6 
#
# 1 76.3331 46.8775 -0.8182 0.0000 6.3846 0.0000
# 2 46.8775 148.4540 13.7756 0.0000 0.2618 0.0000
# 3 -0.8182 13.7756 54.6175 0.0000 7.6108 0.0000
# 4 0.0000 0.0000 0.0000 38.4682 0.0000 1.7184
# 5 6.3846 0.2618 7.6108 0.0000 33.0757 0.0000
# 6 0.0000 0.0000 0.0000 1.7184 0.0000 56.9653
#
#
#
# Elastic Compliance Matrix: (Units=1/GPa)
#
#
# Indices 1 2 3 4 5 6 
#
# 1 0.016812 -0.005502 0.002155 0.000000 -0.003697 0.000000
# 2 -0.005502 0.008702 -0.002496 0.000000 0.001567 0.000000
# 3 0.002155 -0.002496 0.019656 0.000000 -0.004919 0.000000
# 4 0.000000 0.000000 0.000000 0.026031 0.000000 -0.000785
# 5 -0.003697 0.001567 -0.004919 0.000000 0.032067 0.000000
# 6 0.000000 0.000000 0.000000 -0.000785 0.000000 0.017578
#
#
# Mechanical properties :
#
#
# Convention : Reuss Voigt Hill
#
# Bulk Modulus (GPa) = 29.86464 44.34159 37.10311
# Shear Modulus (GPa) = 34.79623 40.33982 37.56802
#
# Velocity S-wave (km/s) = 3.66515 3.94632 3.80833
# Velocity P-wave (km/s) = 5.42592 6.15492 5.80188
#
# Compressibility (1/GPa) = 0.03348442
#
# Stress axis : x y z
#
# Youngs Moduli (GPa) = 59.48208 114.91179 50.87411
#
# Poissons Ratio (x) = 0.63226 -0.10962
# Poissons Ratio (y) = 0.32728 0.12697
# Poissons Ratio (z) = -0.12817 0.28679
#
# Static dielectric constant tensor:
#      x y z
#    x 4.764720 0.000000 -0.057470 
#    y 0.000000 4.995990 0.000000 
#    z -0.057470 0.000000 4.144600 
# 
# 
# High freq. dielectric constant tensor:
#      x y z
#    x 2.042260 0.000000 -0.012860 
#    y 0.000000 2.063000 0.000000 
#    z -0.012860 0.000000 2.015190 
# 
# From -- ./inp_files/979.got.cif
#   From: 2010.03.12/outbox.cif.g09.slc.cpg/sg4_1_cif.got.tgz:979.got - 2010.03.31 09:31:35.
