data_PCOD8047343
_publ_section_title
;
Structure prediction by ZEFSAII (Michael W. Deem and Ramdas Pophale) SiO2 
 PCOD8047343
Probable space group: P 21
;
_chemical_formula_sum "Si O2"
_cell_formula_units_Z 16
_cell_length_a 18.591186
_cell_length_b 5.299142
_cell_length_c 9.544803
_cell_angle_alpha 90.000000
_cell_angle_beta 42.430765
_cell_angle_gamma 90.000000
_cell_volume 634.438549
_symmetry_space_group_name_H-M "P 21"
_symmetry_group_IT_number 4
_symmetry_cell_setting 'monoclinic'
loop_
_space_group_symop_operation_xyz
x,y,z
-x,1/2+y,-z
loop_
_atom_site_type_symbol
_atom_site_label
_atom_site_fract_x
_atom_site_fract_y
_atom_site_fract_z
Si Si1 0.844087 0.827190 0.532610
Si Si2 0.982272 0.447114 0.940705
Si Si3 0.641089 0.863901 0.654411
Si Si4 0.204343 0.844562 0.239718
Si Si5 0.610232 0.805918 0.170286
Si Si6 0.396710 0.608183 0.555945
Si Si7 0.588653 0.178777 0.970612
Si Si8 0.769301 0.467953 0.092717
O O1 0.746995 0.747230 0.569530
O O2 0.860648 0.592003 0.615684
O O3 0.948691 0.855532 0.289226
O O4 0.830170 0.094892 0.628944
O O5 0.866584 0.537687 0.053011
O O6 0.031744 0.698862 0.940635
O O7 0.537380 0.687948 0.823752
O O8 0.666340 0.909122 0.453118
O O9 0.612723 0.130806 0.772222
O O10 0.333514 0.901594 0.082298
O O11 0.189077 0.789071 0.095362
O O12 0.507756 0.625541 0.310437
O O13 0.720528 0.701949 0.075579
O O14 0.572782 0.021587 0.333138
O O15 0.632932 0.927154 0.986897
O O16 0.323289 0.854370 0.675760
#
# Coordination Sequence:
#
# PCOD8047343 Si02
#       8
#     2   2   2   2   2   2   2   2
#     4  11  26  48  73 107 149 191 249 312 357 445
#     4  12  30  52  78 110 147 192 253 311 380 450
#     4  11  23  38  68 102 146 195 238 300 368 436
#     4  11  24  46  73 107 145 191 249 304 373 440
#     4  12  24  44  67 106 149 193 251 305 370 453
#     4  12  24  41  66 107 147 190 247 298 374 445
#     4  11  22  42  67 109 148 195 253 293 376 450
#     4  12  27  45  76 100 147 195 242 315 378 439
#
# _framework density 25.219149000000002
#
# number of rings (size 3 to 8) (size 9 to 14) (size 15 to 20)
#    0.000    0.500    2.500    6.000    3.500    3.000 
#    0.000    0.000    0.000    0.000    0.000    0.000 
#    0.000    0.000    0.000    0.000    0.000    0.000 
#
# Total GULP energy -198322.296949 kJ/mol
# GULP energy per Si atom -12395.143559 kJ/mol
# Density = 2.516175 g / cm^3
# Si number density = 25.219149 Si / 1000 Ang^3
#
#
#
# Elastic Constant Matrix: (Units=GPa)
#
#
# Indices 1 2 3 4 5 6 
#
# 1 108.5353 13.8475 14.8786 0.0000 -11.9288 0.0000
# 2 13.8475 84.4088 8.2161 0.0000 -6.1674 0.0000
# 3 14.8786 8.2161 90.7220 0.0000 -6.9000 0.0000
# 4 0.0000 0.0000 0.0000 35.4974 0.0000 2.3180
# 5 -11.9288 -6.1674 -6.9000 0.0000 37.7921 0.0000
# 6 0.0000 0.0000 0.0000 2.3180 0.0000 34.4124
#
#
#
# Elastic Compliance Matrix: (Units=1/GPa)
#
#
# Indices 1 2 3 4 5 6 
#
# 1 0.009849 -0.001295 -0.001296 0.000000 0.002661 0.000000
# 2 -0.001295 0.012242 -0.000786 0.000000 0.001445 0.000000
# 3 -0.001296 -0.000786 0.011424 0.000000 0.001549 0.000000
# 4 0.000000 0.000000 0.000000 0.028296 0.000000 -0.001906
# 5 0.002661 0.001445 0.001549 0.000000 0.027819 0.000000
# 6 0.000000 0.000000 0.000000 -0.001906 0.000000 0.029188
#
#
# Mechanical properties :
#
#
# Convention : Reuss Voigt Hill
#
# Bulk Modulus (GPa) = 37.36840 39.72785 38.54812
# Shear Modulus (GPa) = 37.17711 37.98864 37.58287
#
# Velocity S-wave (km/s) = 3.84365 3.88537 3.86457
# Velocity P-wave (km/s) = 5.87774 5.99295 5.93562
#
# Compressibility (1/GPa) = 0.02676058
#
# Stress axis : x y z
#
# Youngs Moduli (GPa) = 101.53425 81.68780 87.53389
#
# Poissons Ratio (x) = 0.10580 0.11341
# Poissons Ratio (y) = 0.13151 0.06883
# Poissons Ratio (z) = 0.13154 0.06423
#
# Static dielectric constant tensor:
#      x y z
#    x 4.740480 0.000000 0.196920 
#    y 0.000000 4.278670 0.000000 
#    z 0.196920 0.000000 4.695040 
# 
# 
# High freq. dielectric constant tensor:
#      x y z
#    x 2.008150 0.000000 0.016710 
#    y 0.000000 1.994040 0.000000 
#    z 0.016710 0.000000 2.012980 
# 
# From -- ./inp_files/9465.got.cif
#   From: 2010.03.12/outbox.cif.g09.slc.cpg/sg4_5_cif.got.tgz:9465.got - 2010.03.31 09:31:35.
