data_PCOD8047910
_publ_section_title
;
Structure prediction by ZEFSAII (Michael W. Deem and Ramdas Pophale) SiO2 
 PCOD8047910
Probable space group: P 21
;
_chemical_formula_sum "Si O2"
_cell_formula_units_Z 16
_cell_length_a 23.456032
_cell_length_b 4.932721
_cell_length_c 14.189155
_cell_angle_alpha 90.000000
_cell_angle_beta 159.034687
_cell_angle_gamma 90.000000
_cell_volume 587.409863
_symmetry_space_group_name_H-M "P 21"
_symmetry_group_IT_number 4
_symmetry_cell_setting 'monoclinic'
loop_
_space_group_symop_operation_xyz
x,y,z
-x,1/2+y,-z
loop_
_atom_site_type_symbol
_atom_site_label
_atom_site_fract_x
_atom_site_fract_y
_atom_site_fract_z
Si Si1 0.520514 0.156590 0.966531
Si Si2 0.627586 0.711461 0.815798
Si Si3 0.604855 0.515057 0.423946
Si Si4 0.899119 0.232682 0.819272
Si Si5 0.930554 0.420942 0.344534
Si Si6 0.303377 0.422026 0.277099
Si Si7 0.130191 0.555867 0.492504
Si Si8 0.960326 0.560889 0.738394
O O1 0.692314 0.062755 0.194335
O O2 0.540094 0.449456 0.046132
O O3 0.414867 0.164798 0.707911
O O4 0.467950 0.578510 0.530003
O O5 0.719937 0.818775 0.866666
O O6 0.568094 0.933231 0.800207
O O7 0.745333 0.507393 0.053218
O O8 0.721411 0.251904 0.592280
O O9 0.696457 0.696629 0.641942
O O10 0.871923 0.357564 0.674467
O O11 0.967883 0.926733 0.923850
O O12 0.946674 0.150794 0.429244
O O13 0.005952 0.365922 0.358927
O O14 0.145975 0.605056 0.053769
O O15 0.129943 0.351810 0.400829
O O16 0.059141 0.860600 0.381545
#
# Coordination Sequence:
#
# PCOD8047910 Si02
#       8
#     2   2   2   2   2   2   2   2
#     4  12  29  53  80 113 155 205 270 330 397 460
#     4  12  28  47  80 112 165 207 260 323 393 473
#     4  12  28  49  76 115 155 208 260 327 391 474
#     4  12  25  44  71 107 149 192 248 311 379 454
#     4  12  29  50  77 113 150 205 266 318 384 460
#     4  12  27  47  77 116 162 209 256 321 401 471
#     4  12  26  48  77 105 149 202 253 321 381 456
#     4  12  26  48  76 111 151 200 259 315 388 466
#
# _framework density 27.238223000000001
#
# number of rings (size 3 to 8) (size 9 to 14) (size 15 to 20)
#    0.000    0.000    3.750    5.250    8.750    0.000 
#    0.000    0.000    0.000    0.000    0.000    0.000 
#    0.000    0.000    0.000    0.000    0.000    0.000 
#
# Total GULP energy -198295.384493 kJ/mol
# GULP energy per Si atom -12393.461531 kJ/mol
# Density = 2.717623 g / cm^3
# Si number density = 27.238223 Si / 1000 Ang^3
#
#
#
# Elastic Constant Matrix: (Units=GPa)
#
#
# Indices 1 2 3 4 5 6 
#
# 1 73.8227 -26.9991 11.0965 0.0000 -2.0825 0.0000
# 2 -26.9991 56.1731 -0.7184 0.0000 1.8071 0.0000
# 3 11.0965 -0.7184 81.1608 0.0000 11.3024 0.0000
# 4 0.0000 0.0000 0.0000 33.4930 0.0000 2.8773
# 5 -2.0825 1.8071 11.3024 0.0000 33.8270 0.0000
# 6 0.0000 0.0000 0.0000 2.8773 0.0000 24.2745
#
#
#
# Elastic Compliance Matrix: (Units=1/GPa)
#
#
# Indices 1 2 3 4 5 6 
#
# 1 0.016894 0.008043 -0.002437 0.000000 0.001425 0.000000
# 2 0.008043 0.021669 -0.000855 0.000000 -0.000377 0.000000
# 3 -0.002437 -0.000855 0.013279 0.000000 -0.004541 0.000000
# 4 0.000000 0.000000 0.000000 0.030164 0.000000 -0.003575
# 5 0.001425 -0.000377 -0.004541 0.000000 0.031187 0.000000
# 6 0.000000 0.000000 0.000000 -0.003575 0.000000 0.041619
#
#
# Mechanical properties :
#
#
# Convention : Reuss Voigt Hill
#
# Bulk Modulus (GPa) = 16.30167 19.76831 18.03499
# Shear Modulus (GPa) = 30.16413 33.50406 31.83409
#
# Velocity S-wave (km/s) = 3.33140 3.51100 3.42238
# Velocity P-wave (km/s) = 4.56021 4.86923 4.71725
#
# Compressibility (1/GPa) = 0.06134340
#
# Stress axis : x y z
#
# Youngs Moduli (GPa) = 59.19257 46.14875 75.30551
#
# Poissons Ratio (x) = -0.37117 0.18352
# Poissons Ratio (y) = -0.47608 0.06442
# Poissons Ratio (z) = 0.14425 0.03948
#
# Static dielectric constant tensor:
#      x y z
#    x 5.387220 0.000000 -0.024420 
#    y 0.000000 4.991390 0.000000 
#    z -0.024420 0.000000 4.773050 
# 
# 
# High freq. dielectric constant tensor:
#      x y z
#    x 2.117990 0.000000 0.000360 
#    y 0.000000 2.088530 0.000000 
#    z 0.000360 0.000000 2.104670 
# 
# From -- ./inp_files/7366.got.cif
#   From: 2010.03.12/outbox.cif.g09.slc.cpg/sg4_4_cif.got.tgz:7366.got - 2010.03.31 09:31:35.
