data_PCOD8047133
_publ_section_title
;
Structure prediction by ZEFSAII (Michael W. Deem and Ramdas Pophale) SiO2 
 PCOD8047133
Probable space group: P 21
;
_chemical_formula_sum "Si O2"
_cell_formula_units_Z 14
_cell_length_a 9.462497
_cell_length_b 9.308272
_cell_length_c 14.746187
_cell_angle_alpha 90.000000
_cell_angle_beta 24.725145
_cell_angle_gamma 90.000000
_cell_volume 543.258906
_symmetry_space_group_name_H-M "P 21"
_symmetry_group_IT_number 4
_symmetry_cell_setting 'monoclinic'
loop_
_space_group_symop_operation_xyz
x,y,z
-x,1/2+y,-z
loop_
_atom_site_type_symbol
_atom_site_label
_atom_site_fract_x
_atom_site_fract_y
_atom_site_fract_z
Si Si1 0.425735 0.190140 0.427219
Si Si2 0.586621 0.611021 0.251797
Si Si3 0.884165 0.247449 0.603454
Si Si4 0.920380 0.338309 0.000137
Si Si5 0.600030 0.459403 0.419305
Si Si6 0.618243 0.955764 0.011261
Si Si7 0.558316 0.776079 0.867349
O O1 0.689343 0.235743 0.198008
O O2 0.451071 0.298640 0.499113
O O3 0.051504 0.191593 0.600120
O O4 0.498912 0.031386 0.426472
O O5 0.307804 0.615679 0.334754
O O6 0.892228 0.505315 0.042732
O O7 0.425527 0.545785 0.437343
O O8 0.707263 0.773843 0.202556
O O9 0.614199 0.371179 0.782145
O O10 0.162331 0.308276 0.372334
O O11 0.805447 0.316878 0.963062
O O12 0.004771 0.464205 0.167341
O O13 0.451840 0.111369 0.094486
O O14 0.642727 0.876399 0.901730
#
# Coordination Sequence:
#
# PCOD8047133 Si02
#       7
#     2   2   2   2   2   2   2
#     4  10  25  46  72 105 145 192 251 307 374 446
#     4  11  24  46  71 105 145 195 248 313 377 443
#     4  11  27  47  80 107 153 197 253 310 377 452
#     4  10  24  47  71 103 148 197 250 305 384 449
#     4  11  25  47  69 109 147 193 251 308 371 452
#     4  12  27  50  75 114 153 197 255 312 381 446
#     4  11  28  47  76 115 147 199 252 313 376 452
#
# _framework density 25.770402000000001
#
# number of rings (size 3 to 8) (size 9 to 14) (size 15 to 20)
#    0.000    1.143    1.429    2.571   12.000    2.286 
#    0.000    0.000    0.000    0.000    0.000    0.000 
#    0.000    0.000    0.000    0.000    0.000    0.000 
#
# Total GULP energy -173598.045911 kJ/mol
# GULP energy per Si atom -12399.860422 kJ/mol
# Density = 2.571175 g / cm^3
# Si number density = 25.770402 Si / 1000 Ang^3
#
#
#
# Elastic Constant Matrix: (Units=GPa)
#
#
# Indices 1 2 3 4 5 6 
#
# 1 145.1772 53.6423 18.4411 0.0000 -3.2682 0.0000
# 2 53.6423 76.5660 -10.5866 0.0000 7.1463 0.0000
# 3 18.4411 -10.5866 46.4825 0.0000 8.9742 0.0000
# 4 0.0000 0.0000 0.0000 37.9693 0.0000 3.9924
# 5 -3.2682 7.1463 8.9742 0.0000 33.5977 0.0000
# 6 0.0000 0.0000 0.0000 3.9924 0.0000 49.0163
#
#
#
# Elastic Compliance Matrix: (Units=1/GPa)
#
#
# Indices 1 2 3 4 5 6 
#
# 1 0.011579 -0.009685 -0.007818 0.000000 0.005275 0.000000
# 2 -0.009685 0.022087 0.010503 0.000000 -0.008445 0.000000
# 3 -0.007818 0.010503 0.029085 0.000000 -0.010763 0.000000
# 4 0.000000 0.000000 0.000000 0.026565 0.000000 -0.002164
# 5 0.005275 -0.008445 -0.010763 0.000000 0.034948 0.000000
# 6 0.000000 0.000000 0.000000 -0.002164 0.000000 0.020578
#
#
# Mechanical properties :
#
#
# Convention : Reuss Voigt Hill
#
# Bulk Modulus (GPa) = 20.51240 43.46883 31.99062
# Shear Modulus (GPa) = 28.55664 37.89860 33.22762
#
# Velocity S-wave (km/s) = 3.33245 3.83903 3.59468
# Velocity P-wave (km/s) = 4.77325 6.04609 5.44698
#
# Compressibility (1/GPa) = 0.04875100
#
# Stress axis : x y z
#
# Youngs Moduli (GPa) = 86.36648 45.27630 34.38173
#
# Poissons Ratio (x) = 0.43851 0.26879
# Poissons Ratio (y) = 0.83648 -0.36112
# Poissons Ratio (z) = 0.67519 -0.47555
#
# Static dielectric constant tensor:
#      x y z
#    x 4.844230 0.000000 -0.125430 
#    y 0.000000 4.556250 0.000000 
#    z -0.125430 0.000000 4.371540 
# 
# 
# High freq. dielectric constant tensor:
#      x y z
#    x 2.047700 0.000000 0.001900 
#    y 0.000000 2.032040 0.000000 
#    z 0.001900 0.000000 2.013470 
# 
# From -- ./inp_files/5253.got.cif
#   From: 2010.03.12/outbox.cif.g09.slc.cpg/sg4_3_cif.got.tgz:5253.got - 2010.03.31 09:31:35.
