data_PCOD8047617
_publ_section_title
;
Structure prediction by ZEFSAII (Michael W. Deem and Ramdas Pophale) SiO2 
 PCOD8047617
Probable space group: P 21
;
_chemical_formula_sum "Si O2"
_cell_formula_units_Z 16
_cell_length_a 9.226790
_cell_length_b 15.322822
_cell_length_c 8.866118
_cell_angle_alpha 90.000000
_cell_angle_beta 31.726692
_cell_angle_gamma 90.000000
_cell_volume 659.173299
_symmetry_space_group_name_H-M "P 21"
_symmetry_group_IT_number 4
_symmetry_cell_setting 'monoclinic'
loop_
_space_group_symop_operation_xyz
x,y,z
-x,1/2+y,-z
loop_
_atom_site_type_symbol
_atom_site_label
_atom_site_fract_x
_atom_site_fract_y
_atom_site_fract_z
Si Si1 0.389446 0.575860 0.385144
Si Si2 0.132941 0.374443 0.021536
Si Si3 0.687798 0.399261 0.662011
Si Si4 0.118925 0.195698 0.566214
Si Si5 0.193233 0.058778 0.244332
Si Si6 0.606872 0.732534 0.376144
Si Si7 0.667824 0.402988 0.227748
Si Si8 0.407796 0.796426 0.981758
O O1 0.409331 0.663128 0.469358
O O2 0.491323 0.491750 0.390426
O O3 0.072891 0.560857 0.625541
O O4 0.555221 0.590191 0.082451
O O5 0.960980 0.378975 0.327602
O O6 0.968109 0.423815 0.033535
O O7 0.427316 0.424037 0.785892
O O8 0.176953 0.272650 0.936153
O O9 0.748808 0.463964 0.743253
O O10 0.594785 0.313114 0.836820
O O11 0.164234 0.112422 0.423626
O O12 0.238139 0.180598 0.628164
O O13 0.280310 0.276180 0.345278
O O14 0.794979 0.214925 0.869373
O O15 0.451114 0.819606 0.574625
O O16 0.701680 0.377532 0.022433
#
# Coordination Sequence:
#
# PCOD8047617 Si02
#       8
#     2   2   2   2   2   2   2   2
#     4  12  30  48  78 108 158 194 261 312 375 457
#     4  12  26  45  76 107 149 193 254 300 375 450
#     4  12  27  45  74 106 149 191 253 298 375 445
#     4  11  26  45  73 101 152 183 253 299 380 437
#     4  12  29  51  70 115 147 201 251 315 376 444
#     4  11  28  49  76 118 146 206 248 313 384 446
#     4  11  26  52  76 112 153 201 250 311 388 448
#     4  11  24  45  73 101 140 205 234 306 371 447
#
# _framework density 24.272828000000001
#
# number of rings (size 3 to 8) (size 9 to 14) (size 15 to 20)
#    0.000    0.500    3.750    2.250   14.000    0.000 
#    0.000    1.250    0.000    0.000    0.000    0.000 
#    0.000    0.000    0.000    0.000    0.000    0.000 
#
# Total GULP energy -198368.096189 kJ/mol
# GULP energy per Si atom -12398.006012 kJ/mol
# Density = 2.421758 g / cm^3
# Si number density = 24.272828 Si / 1000 Ang^3
#
#
#
# Elastic Constant Matrix: (Units=GPa)
#
#
# Indices 1 2 3 4 5 6 
#
# 1 120.6918 50.5942 15.8053 0.0000 -9.7196 0.0000
# 2 50.5942 89.1173 21.9428 0.0000 6.3248 0.0000
# 3 15.8053 21.9428 78.6159 0.0000 -2.0942 0.0000
# 4 0.0000 0.0000 0.0000 35.9182 0.0000 10.1762
# 5 -9.7196 6.3248 -2.0942 0.0000 39.9964 0.0000
# 6 0.0000 0.0000 0.0000 10.1762 0.0000 56.9314
#
#
#
# Elastic Compliance Matrix: (Units=1/GPa)
#
#
# Indices 1 2 3 4 5 6 
#
# 1 0.011438 -0.006683 -0.000333 0.000000 0.003819 0.000000
# 2 -0.006683 0.016130 -0.003274 0.000000 -0.004346 0.000000
# 3 -0.000333 -0.003274 0.013732 0.000000 0.001156 0.000000
# 4 0.000000 0.000000 0.000000 0.029326 0.000000 -0.005242
# 5 0.003819 -0.004346 0.001156 0.000000 0.026678 0.000000
# 6 0.000000 0.000000 0.000000 -0.005242 0.000000 0.018502
#
#
# Mechanical properties :
#
#
# Convention : Reuss Voigt Hill
#
# Bulk Modulus (GPa) = 48.26212 51.67883 49.97048
# Shear Modulus (GPa) = 34.89376 39.90804 37.40090
#
# Velocity S-wave (km/s) = 3.79564 4.05920 3.92963
# Velocity P-wave (km/s) = 6.25584 6.58077 6.42036
#
# Compressibility (1/GPa) = 0.02072018
#
# Stress axis : x y z
#
# Youngs Moduli (GPa) = 87.42668 61.99670 72.82459
#
# Poissons Ratio (x) = 0.41432 0.02422
# Poissons Ratio (y) = 0.58426 0.23845
# Poissons Ratio (z) = 0.02907 0.20300
#
# Static dielectric constant tensor:
#      x y z
#    x 4.695630 0.000000 0.048520 
#    y 0.000000 4.138330 0.000000 
#    z 0.048520 0.000000 4.379300 
# 
# 
# High freq. dielectric constant tensor:
#      x y z
#    x 1.990880 0.000000 0.006720 
#    y 0.000000 1.942090 0.000000 
#    z 0.006720 0.000000 1.969630 
# 
# From -- ./inp_files/6947.got.cif
#   From: 2010.03.12/outbox.cif.g09.slc.cpg/sg4_4_cif.got.tgz:6947.got - 2010.03.31 09:31:35.
