data_PCOD8047575
_publ_section_title
;
Structure prediction by ZEFSAII (Michael W. Deem and Ramdas Pophale) SiO2 
 PCOD8047575
Probable space group: P 21
;
_chemical_formula_sum "Si O2"
_cell_formula_units_Z 16
_cell_length_a 5.313693
_cell_length_b 26.516551
_cell_length_c 6.472612
_cell_angle_alpha 90.000000
_cell_angle_beta 132.331255
_cell_angle_gamma 90.000000
_cell_volume 674.205888
_symmetry_space_group_name_H-M "P 21"
_symmetry_group_IT_number 4
_symmetry_cell_setting 'monoclinic'
loop_
_space_group_symop_operation_xyz
x,y,z
-x,1/2+y,-z
loop_
_atom_site_type_symbol
_atom_site_label
_atom_site_fract_x
_atom_site_fract_y
_atom_site_fract_z
Si Si1 0.250056 0.192120 0.755755
Si Si2 0.712461 0.600125 0.534213
Si Si3 0.171114 0.889859 0.231763
Si Si4 0.975255 0.610285 0.104711
Si Si5 0.794126 0.258283 0.233914
Si Si6 0.247632 0.019347 0.770278
Si Si7 0.722775 0.952864 0.284864
Si Si8 0.668590 0.821456 0.732107
O O1 0.236425 0.145212 0.595109
O O2 0.171330 0.166311 0.933555
O O3 0.967319 0.231870 0.526995
O O4 0.616037 0.218872 0.978328
O O5 0.336903 0.606902 0.421571
O O6 0.712999 0.545033 0.431956
O O7 0.998923 0.604079 0.869728
O O8 0.418504 0.924185 0.231647
O O9 0.370484 0.840206 0.417101
O O10 0.012077 0.917472 0.343526
O O11 0.866160 0.870974 0.918067
O O12 0.755308 0.563147 0.060114
O O13 0.496707 0.293732 0.161265
O O14 0.079428 0.286224 0.258573
O O15 0.904320 0.986156 0.562865
O O16 0.567820 0.984995 0.009532
#
# Coordination Sequence:
#
# PCOD8047575 Si02
#       8
#     2   2   2   2   2   2   2   2
#     4  11  26  43  66 111 136 189 236 285 344 411
#     4  11  24  43  70  95 151 184 230 287 344 409
#     4  12  26  48  72 103 140 181 230 296 364 416
#     4  11  24  43  70  95 151 184 230 287 344 409
#     4  12  26  44  76 103 142 181 240 288 344 432
#     4  11  26  43  66 111 136 189 236 285 344 411
#     4  12  26  44  76 103 142 181 240 288 344 432
#     4  12  26  48  72 103 140 181 230 296 364 416
#
# _framework density 23.731619999999999
#
# number of rings (size 3 to 8) (size 9 to 14) (size 15 to 20)
#    0.000    0.500    0.000    7.500   10.500    4.000 
#    0.000    0.000    0.000    0.000    0.000    0.000 
#    0.000    0.000    0.000    0.000    0.000    0.000 
#
# Total GULP energy -198424.861666 kJ/mol
# GULP energy per Si atom -12401.553854 kJ/mol
# Density = 2.367761 g / cm^3
# Si number density = 23.731620 Si / 1000 Ang^3
#
#
#
# Elastic Constant Matrix: (Units=GPa)
#
#
# Indices 1 2 3 4 5 6 
#
# 1 114.3328 32.4991 6.6613 0.0000 6.8917 0.0000
# 2 32.4991 91.4391 25.3390 0.0000 7.2792 0.0000
# 3 6.6613 25.3390 109.5676 0.0000 4.9220 0.0000
# 4 0.0000 0.0000 0.0000 43.0766 0.0000 11.0535
# 5 6.8917 7.2792 4.9220 0.0000 37.2364 0.0000
# 6 0.0000 0.0000 0.0000 11.0535 0.0000 26.5842
#
#
#
# Elastic Compliance Matrix: (Units=1/GPa)
#
#
# Indices 1 2 3 4 5 6 
#
# 1 0.009784 -0.003456 0.000257 0.000000 -0.001169 0.000000
# 2 -0.003456 0.013046 -0.002737 0.000000 -0.001549 0.000000
# 3 0.000257 -0.002737 0.009780 0.000000 -0.000805 0.000000
# 4 0.000000 0.000000 0.000000 0.025987 0.000000 -0.010805
# 5 -0.001169 -0.001549 -0.000805 0.000000 0.027481 0.000000
# 6 0.000000 0.000000 0.000000 -0.010805 0.000000 0.042109
#
#
# Mechanical properties :
#
#
# Convention : Reuss Voigt Hill
#
# Bulk Modulus (GPa) = 48.21948 49.37090 48.79519
# Shear Modulus (GPa) = 34.01979 38.10213 36.06096
#
# Velocity S-wave (km/s) = 3.79030 4.01127 3.90235
# Velocity P-wave (km/s) = 6.28633 6.50405 6.39612
#
# Compressibility (1/GPa) = 0.02073851
#
# Stress axis : x y z
#
# Youngs Moduli (GPa) = 102.20609 76.65003 102.24512
#
# Poissons Ratio (x) = 0.26487 -0.02626
# Poissons Ratio (y) = 0.35318 0.27989
# Poissons Ratio (z) = -0.02625 0.20983
#
# Static dielectric constant tensor:
#      x y z
#    x 4.189400 0.000000 0.136620 
#    y 0.000000 4.469780 0.000000 
#    z 0.136620 0.000000 4.282010 
# 
# 
# High freq. dielectric constant tensor:
#      x y z
#    x 1.936070 0.000000 0.009180 
#    y 0.000000 1.955010 0.000000 
#    z 0.009180 0.000000 1.954140 
# 
# From -- ./inp_files/830.got.cif
#   From: 2010.03.12/outbox.cif.g09.slc.cpg/sg4_1_cif.got.tgz:830.got - 2010.03.31 09:31:35.
