data_PCOD8047813
_publ_section_title
;
Structure prediction by ZEFSAII (Michael W. Deem and Ramdas Pophale) SiO2 
 PCOD8047813
Probable space group: P 21
;
_chemical_formula_sum "Si O2"
_cell_formula_units_Z 14
_cell_length_a 10.244387
_cell_length_b 5.067497
_cell_length_c 12.860121
_cell_angle_alpha 90.000000
_cell_angle_beta 104.753610
_cell_angle_gamma 90.000000
_cell_volume 645.601353
_symmetry_space_group_name_H-M "P 21"
_symmetry_group_IT_number 4
_symmetry_cell_setting 'monoclinic'
loop_
_space_group_symop_operation_xyz
x,y,z
-x,1/2+y,-z
loop_
_atom_site_type_symbol
_atom_site_label
_atom_site_fract_x
_atom_site_fract_y
_atom_site_fract_z
Si Si1 0.781474 0.348520 0.691028
Si Si2 0.904385 0.383875 0.490134
Si Si3 0.795521 0.278580 0.257305
Si Si4 0.080518 0.281398 0.799279
Si Si5 0.305529 0.351127 0.219971
Si Si6 0.919339 0.912495 0.983865
Si Si7 0.517463 0.322978 0.077469
O O1 0.818072 0.363462 0.577405
O O2 0.687562 0.590912 0.708057
O O3 0.922300 0.341071 0.782229
O O4 0.688331 0.096779 0.699511
O O5 0.789136 0.354279 0.377645
O O6 0.979430 0.663093 0.494068
O O7 0.904661 0.477885 0.229615
O O8 0.659267 0.304404 0.165274
O O9 0.852502 0.980466 0.269243
O O10 0.156841 0.333129 0.924629
O O11 0.162897 0.351576 0.134751
O O12 0.415607 0.366177 0.151667
O O13 0.050277 0.723545 0.003217
O O14 0.514786 0.562170 0.995150
#
# Coordination Sequence:
#
# PCOD8047813 Si02
#       7
#     2   2   2   2   2   2   2
#     4  12  23  40  63  98 133 166 210 272 340 382
#     4  12  23  40  67 100 134 171 216 273 332 392
#     4  12  24  43  67  95 128 174 226 266 322 386
#     4  12  22  38  64  96 133 164 211 274 330 391
#     4  12  24  42  61  93 134 171 214 275 324 386
#     4  12  21  32  54  87 120 156 199 251 325 387
#     4  12  27  49  70  93 132 182 228 265 317 402
#
# _framework density 21.685207999999999
#
# number of rings (size 3 to 8) (size 9 to 14) (size 15 to 20)
#    0.000    0.000    5.714    6.000    0.000    0.000 
#    0.000    1.429    0.000    0.000    0.000    0.000 
#    0.000    0.000    0.000    0.000    0.000    0.000 
#
# Total GULP energy -173531.222645 kJ/mol
# GULP energy per Si atom -12395.087332 kJ/mol
# Density = 2.163585 g / cm^3
# Si number density = 21.685208 Si / 1000 Ang^3
#
#
#
# Elastic Constant Matrix: (Units=GPa)
#
#
# Indices 1 2 3 4 5 6 
#
# 1 73.7928 34.2105 21.9177 0.0000 -19.0503 0.0000
# 2 34.2105 130.6783 25.2631 0.0000 -11.1216 0.0000
# 3 21.9177 25.2631 111.8724 0.0000 -18.7363 0.0000
# 4 0.0000 0.0000 0.0000 33.6965 0.0000 -13.5497
# 5 -19.0503 -11.1216 -18.7363 0.0000 47.5484 0.0000
# 6 0.0000 0.0000 0.0000 -13.5497 0.0000 27.2021
#
#
#
# Elastic Compliance Matrix: (Units=1/GPa)
#
#
# Indices 1 2 3 4 5 6 
#
# 1 0.017140 -0.003718 -0.001621 0.000000 0.005359 0.000000
# 2 -0.003718 0.008877 -0.001261 0.000000 0.000090 0.000000
# 3 -0.001621 -0.001261 0.010046 0.000000 0.003014 0.000000
# 4 0.000000 0.000000 0.000000 0.037110 0.000000 0.018485
# 5 0.005359 0.000090 0.003014 0.000000 0.024387 0.000000
# 6 0.000000 0.000000 0.000000 0.018485 0.000000 0.045969
#
#
# Mechanical properties :
#
#
# Convention : Reuss Voigt Hill
#
# Bulk Modulus (GPa) = 43.73841 53.23625 48.48733
# Shear Modulus (GPa) = 30.42300 37.35287 33.88794
#
# Velocity S-wave (km/s) = 3.74964 4.15481 3.95742
# Velocity P-wave (km/s) = 6.24179 6.90068 6.57949
#
# Compressibility (1/GPa) = 0.02286320
#
# Stress axis : x y z
#
# Youngs Moduli (GPa) = 58.34358 112.64932 99.54256
#
# Poissons Ratio (x) = 0.41879 0.16136
# Poissons Ratio (y) = 0.21690 0.12555
# Poissons Ratio (z) = 0.09457 0.14208
#
# Static dielectric constant tensor:
#      x y z
#    x 3.631430 0.000000 -0.066530 
#    y 0.000000 4.232410 0.000000 
#    z -0.066530 0.000000 4.260590 
# 
# 
# High freq. dielectric constant tensor:
#      x y z
#    x 1.813580 0.000000 -0.019020 
#    y 0.000000 1.875350 0.000000 
#    z -0.019020 0.000000 1.868960 
# 
# From -- ./inp_files/9794.got.cif
#   From: 2010.03.12/outbox.cif.g09.slc.cpg/sg4_5_cif.got.tgz:9794.got - 2010.03.31 09:31:35.
