data_PCOD8047217
_publ_section_title
;
Structure prediction by ZEFSAII (Michael W. Deem and Ramdas Pophale) SiO2 
 PCOD8047217
Probable space group: P 21
;
_chemical_formula_sum "Si O2"
_cell_formula_units_Z 8
_cell_length_a 14.522225
_cell_length_b 4.906233
_cell_length_c 12.025363
_cell_angle_alpha 90.000000
_cell_angle_beta 18.948521
_cell_angle_gamma 90.000000
_cell_volume 278.218850
_symmetry_space_group_name_H-M "P 21"
_symmetry_group_IT_number 4
_symmetry_cell_setting 'monoclinic'
loop_
_space_group_symop_operation_xyz
x,y,z
-x,1/2+y,-z
loop_
_atom_site_type_symbol
_atom_site_label
_atom_site_fract_x
_atom_site_fract_y
_atom_site_fract_z
Si Si1 0.658496 0.897190 0.571102
Si Si2 0.321060 0.340010 0.697008
Si Si3 0.112495 0.552087 0.155430
Si Si4 0.381027 0.764780 0.195171
O O1 0.785437 0.951302 0.302275
O O2 0.910042 0.810506 0.365428
O O3 0.534113 0.168835 0.774479
O O4 0.416630 0.663312 0.845153
O O5 0.603682 0.521641 0.397142
O O6 0.109194 0.387254 0.041112
O O7 0.950725 0.360534 0.429761
O O8 0.417724 0.519404 0.065773
#
# Coordination Sequence:
#
# PCOD8047217 Si02
#       4
#     2   2   2   2
#     4  11  28  52  82 119 161 207 266 332 405 478
#     4  10  26  46  82 118 158 198 254 328 406 482
#     4  11  28  52  82 119 161 207 266 332 405 478
#     4  12  28  56  80 118 162 222 274 332 394 480
#
# _framework density 28.754342000000001
#
# number of rings (size 3 to 8) (size 9 to 14) (size 15 to 20)
#    0.000    1.000    2.500    0.000   17.500    2.000 
#    9.000    0.000    0.000    0.000    0.000    0.000 
#    0.000    0.000    0.000    0.000    0.000    0.000 
#
# Total GULP energy -99161.666615 kJ/mol
# GULP energy per Si atom -12395.208327 kJ/mol
# Density = 2.868890 g / cm^3
# Si number density = 28.754342 Si / 1000 Ang^3
#
#
#
# Elastic Constant Matrix: (Units=GPa)
#
#
# Indices 1 2 3 4 5 6 
#
# 1 57.7602 -0.8173 6.2252 0.0000 26.9108 0.0000
# 2 -0.8173 111.7088 27.7587 0.0000 22.9098 0.0000
# 3 6.2252 27.7587 120.2132 0.0000 42.5155 0.0000
# 4 0.0000 0.0000 0.0000 33.2592 0.0000 23.4785
# 5 26.9108 22.9098 42.5155 0.0000 50.0422 0.0000
# 6 0.0000 0.0000 0.0000 23.4785 0.0000 48.3577
#
#
#
# Elastic Compliance Matrix: (Units=1/GPa)
#
#
# Indices 1 2 3 4 5 6 
#
# 1 0.025853 0.002960 0.004823 0.000000 -0.019356 0.000000
# 2 0.002960 0.010299 -0.000430 0.000000 -0.005941 0.000000
# 3 0.004823 -0.000430 0.012888 0.000000 -0.013347 0.000000
# 4 0.000000 0.000000 0.000000 0.045746 0.000000 -0.022210
# 5 -0.019356 -0.005941 -0.013347 0.000000 0.044451 0.000000
# 6 0.000000 0.000000 0.000000 -0.022210 0.000000 0.031463
#
#
# Mechanical properties :
#
#
# Convention : Reuss Voigt Hill
#
# Bulk Modulus (GPa) = 15.68714 39.55726 27.62220
# Shear Modulus (GPa) = 28.21000 43.43286 35.82143
#
# Velocity S-wave (km/s) = 3.13560 3.89071 3.53338
# Velocity P-wave (km/s) = 4.31007 5.82840 5.12577
#
# Compressibility (1/GPa) = 0.06374649
#
# Stress axis : x y z
#
# Youngs Moduli (GPa) = 38.68033 97.09795 77.58918
#
# Poissons Ratio (x) = -0.28743 -0.37422
# Poissons Ratio (y) = -0.11450 0.03338
# Poissons Ratio (z) = -0.18656 0.04177
#
# Static dielectric constant tensor:
#      x y z
#    x 5.034590 0.000000 0.778280 
#    y 0.000000 5.299210 0.000000 
#    z 0.778280 0.000000 5.413800 
# 
# 
# High freq. dielectric constant tensor:
#      x y z
#    x 2.145430 0.000000 0.032710 
#    y 0.000000 2.183810 0.000000 
#    z 0.032710 0.000000 2.173660 
# 
# From -- ./inp_files/2253.got.cif
#   From: 2010.03.12/outbox.cif.g09.slc.cpg/sg4_2_cif.got.tgz:2253.got - 2010.03.31 09:31:35.
