data_PCOD8047372
_publ_section_title
;
Structure prediction by ZEFSAII (Michael W. Deem and Ramdas Pophale) SiO2 
 PCOD8047372
Probable space group: P 21
;
_chemical_formula_sum "Si O2"
_cell_formula_units_Z 16
_cell_length_a 10.635767
_cell_length_b 10.234651
_cell_length_c 10.823635
_cell_angle_alpha 90.000000
_cell_angle_beta 143.876283
_cell_angle_gamma 90.000000
_cell_volume 694.578707
_symmetry_space_group_name_H-M "P 21"
_symmetry_group_IT_number 4
_symmetry_cell_setting 'monoclinic'
loop_
_space_group_symop_operation_xyz
x,y,z
-x,1/2+y,-z
loop_
_atom_site_type_symbol
_atom_site_label
_atom_site_fract_x
_atom_site_fract_y
_atom_site_fract_z
Si Si1 0.760345 0.227700 0.888798
Si Si2 0.543606 0.647983 0.923722
Si Si3 0.325731 0.896706 0.812262
Si Si4 0.950705 0.783191 0.647346
Si Si5 0.926959 0.647191 0.063128
Si Si6 0.729807 0.044346 0.497450
Si Si7 0.333224 0.975088 0.303213
Si Si8 0.635864 0.547963 0.400976
O O1 0.603148 0.339936 0.713388
O O2 0.607291 0.101478 0.780219
O O3 0.945466 0.237219 0.930734
O O4 0.872681 0.254826 0.107718
O O5 0.485330 0.772432 0.964313
O O6 0.329639 0.595601 0.686242
O O7 0.632280 0.522941 0.068833
O O8 0.708744 0.700714 0.950289
O O9 0.086265 0.842043 0.640479
O O10 0.358132 0.935918 0.696383
O O11 0.814711 0.654761 0.506362
O O12 0.778721 0.890944 0.545951
O O13 0.066540 0.621462 0.294446
O O14 0.877141 0.521491 0.937963
O O15 0.533146 0.071038 0.435420
O O16 0.291351 0.975226 0.415826
#
# Coordination Sequence:
#
# PCOD8047372 Si02
#       8
#     2   2   2   2   2   2   2   2
#     4  12  24  44  76 108 146 183 243 313 378 440
#     4  11  28  50  72 108 147 199 253 309 368 446
#     4  12  29  51  72 105 153 204 259 301 361 450
#     4  12  25  47  73 104 144 204 245 299 372 440
#     4  11  23  43  73 107 141 180 238 306 376 436
#     4  11  22  44  76 101 143 186 235 309 379 432
#     4  11  23  42  70 111 143 182 238 302 378 443
#     4  12  28  45  72 110 151 198 245 309 370 449
#
# _framework density 23.035546
#
# number of rings (size 3 to 8) (size 9 to 14) (size 15 to 20)
#    0.000    0.500    6.250    1.500    5.250    2.000 
#    2.250    0.000    0.000    0.000    0.000    0.000 
#    0.000    0.000    0.000    0.000    0.000    0.000 
#
# Total GULP energy -198248.196498 kJ/mol
# GULP energy per Si atom -12390.512281 kJ/mol
# Density = 2.298312 g / cm^3
# Si number density = 23.035546 Si / 1000 Ang^3
#
#
#
# Elastic Constant Matrix: (Units=GPa)
#
#
# Indices 1 2 3 4 5 6 
#
# 1 91.6110 15.4295 37.6834 0.0000 3.7354 0.0000
# 2 15.4295 68.0252 22.4484 0.0000 4.4388 0.0000
# 3 37.6834 22.4484 89.8807 0.0000 4.9048 0.0000
# 4 0.0000 0.0000 0.0000 32.5280 0.0000 0.7710
# 5 3.7354 4.4388 4.9048 0.0000 31.9944 0.0000
# 6 0.0000 0.0000 0.0000 0.7710 0.0000 42.0358
#
#
#
# Elastic Compliance Matrix: (Units=1/GPa)
#
#
# Indices 1 2 3 4 5 6 
#
# 1 0.013303 -0.001253 -0.005233 0.000000 -0.000577 0.000000
# 2 -0.001253 0.016223 -0.003440 0.000000 -0.001577 0.000000
# 3 -0.005233 -0.003440 0.014239 0.000000 -0.001095 0.000000
# 4 0.000000 0.000000 0.000000 0.030756 0.000000 -0.000564
# 5 -0.000577 -0.001577 -0.001095 0.000000 0.031709 0.000000
# 6 0.000000 0.000000 0.000000 -0.000564 0.000000 0.023800
#
#
# Mechanical properties :
#
#
# Convention : Reuss Voigt Hill
#
# Bulk Modulus (GPa) = 41.81992 44.51549 43.16770
# Shear Modulus (GPa) = 31.67510 32.90869 32.29189
#
# Velocity S-wave (km/s) = 3.71219 3.78379 3.74816
# Velocity P-wave (km/s) = 6.04713 6.20130 6.12470
#
# Compressibility (1/GPa) = 0.02391205
#
# Stress axis : x y z
#
# Youngs Moduli (GPa) = 75.17228 61.64138 70.23046
#
# Poissons Ratio (x) = 0.07722 0.36751
# Poissons Ratio (y) = 0.09418 0.24163
# Poissons Ratio (z) = 0.39337 0.21208
#
# Static dielectric constant tensor:
#      x y z
#    x 4.197850 0.000000 0.035010 
#    y 0.000000 4.104940 0.000000 
#    z 0.035010 0.000000 4.117760 
# 
# 
# High freq. dielectric constant tensor:
#      x y z
#    x 1.916500 0.000000 0.008350 
#    y 0.000000 1.897850 0.000000 
#    z 0.008350 0.000000 1.916650 
# 
# From -- ./inp_files/12075.got.cif
#   From: 2010.03.12/outbox.cif.g09.slc.cpg/sg4_7_cif.got.tgz:12075.got - 2010.03.31 09:31:35.
