data_PCOD8047742
_publ_section_title
;
Structure prediction by ZEFSAII (Michael W. Deem and Ramdas Pophale) SiO2 
 PCOD8047742
Probable space group: P 21
;
_chemical_formula_sum "Si O2"
_cell_formula_units_Z 16
_cell_length_a 18.272855
_cell_length_b 8.063666
_cell_length_c 8.866580
_cell_angle_alpha 90.000000
_cell_angle_beta 29.129991
_cell_angle_gamma 90.000000
_cell_volume 635.973643
_symmetry_space_group_name_H-M "P 21"
_symmetry_group_IT_number 4
_symmetry_cell_setting 'monoclinic'
loop_
_space_group_symop_operation_xyz
x,y,z
-x,1/2+y,-z
loop_
_atom_site_type_symbol
_atom_site_label
_atom_site_fract_x
_atom_site_fract_y
_atom_site_fract_z
Si Si1 0.938631 0.799230 0.034452
Si Si2 0.604629 0.384448 0.369287
Si Si3 0.070060 0.395288 0.289638
Si Si4 0.782165 0.582453 0.845100
Si Si5 0.216492 0.949161 0.667671
Si Si6 0.304658 0.478671 0.332815
Si Si7 0.584231 0.627727 0.916477
Si Si8 0.325396 0.577940 0.960215
O O1 0.894400 0.606892 0.110317
O O2 0.849858 0.912834 0.316601
O O3 0.904332 0.867359 0.931859
O O4 0.116716 0.813420 0.755321
O O5 0.722869 0.355008 0.292498
O O6 0.435458 0.418755 0.732438
O O7 0.602959 0.244337 0.240850
O O8 0.660144 0.556938 0.195244
O O9 0.124914 0.249211 0.300149
O O10 0.896145 0.426789 0.639156
O O11 0.168861 0.554467 0.155547
O O12 0.696506 0.576219 0.843874
O O13 0.363616 0.022095 0.322350
O O14 0.410501 0.321615 0.115841
O O15 0.406544 0.589177 0.264621
O O16 0.286279 0.584142 0.209826
#
# Coordination Sequence:
#
# PCOD8047742 Si02
#       8
#     2   2   2   2   2   2   2   2
#     4  11  27  46  75 107 147 191 248 305 366 439
#     4  12  28  45  76 107 152 196 246 306 372 443
#     4  12  26  49  71 110 147 197 248 307 373 442
#     4  12  26  46  74 106 150 197 246 306 371 441
#     4  11  25  48  72 107 148 193 244 297 364 441
#     4  11  27  46  75 106 150 188 247 305 369 438
#     4  11  25  47  70 105 147 193 245 298 361 445
#     4  12  28  47  73 110 151 193 250 306 376 441
#
# _framework density 25.158273000000001
#
# number of rings (size 3 to 8) (size 9 to 14) (size 15 to 20)
#    0.000    0.500    5.000    1.500    7.000    2.000 
#    0.000    0.000    0.000    0.000    0.000    0.000 
#    0.000    0.000    0.000    0.000    0.000    0.000 
#
# Total GULP energy -198353.055755 kJ/mol
# GULP energy per Si atom -12397.065985 kJ/mol
# Density = 2.510101 g / cm^3
# Si number density = 25.158273 Si / 1000 Ang^3
#
#
#
# Elastic Constant Matrix: (Units=GPa)
#
#
# Indices 1 2 3 4 5 6 
#
# 1 124.2803 39.1539 23.3633 0.0000 -6.7675 0.0000
# 2 39.1539 4.8788 -1.7648 0.0000 18.3648 0.0000
# 3 23.3633 -1.7648 63.3988 0.0000 5.1398 0.0000
# 4 0.0000 0.0000 0.0000 36.1997 0.0000 0.9392
# 5 -6.7675 18.3648 5.1398 0.0000 20.6071 0.0000
# 6 0.0000 0.0000 0.0000 0.9392 0.0000 38.3428
#
#
#
# Elastic Compliance Matrix: (Units=1/GPa)
#
#
# Indices 1 2 3 4 5 6 
#
# 1 0.003336 0.013123 -0.000005 0.000000 -0.010599 0.000000
# 2 0.013123 -0.030772 -0.008436 0.000000 0.033838 0.000000
# 3 -0.000005 -0.008436 0.015239 0.000000 0.003716 0.000000
# 4 0.000000 0.000000 0.000000 0.027642 0.000000 -0.000677
# 5 -0.010599 0.033838 0.003716 0.000000 0.013964 0.000000
# 6 0.000000 0.000000 0.000000 -0.000677 0.000000 0.026097
#
#
# Mechanical properties :
#
#
# Convention : Reuss Voigt Hill
#
# Bulk Modulus (GPa) = -353.00864 34.89584 -159.05640
# Shear Modulus (GPa) = 110.62888 27.81696 69.22292
#
# Velocity S-wave (km/s) = 6.63842 3.32878 5.25116
# Velocity P-wave (km/s) = 9.04774 5.35491 5.15687
#
# Compressibility (1/GPa) = -0.00283279
#
# Stress axis : x y z
#
# Youngs Moduli (GPa) = 299.78468 -32.49679 65.62173
#
# Poissons Ratio (x) = 0.42646 0.00031
# Poissons Ratio (y) = -3.93410 0.55358
# Poissons Ratio (z) = 0.00141 -0.27414
#
# Static dielectric constant tensor:
#      x y z
#    x 4.713740 0.000000 0.090450 
#    y 0.000000 4.613920 0.000000 
#    z 0.090450 0.000000 4.695750 
# 
# 
# High freq. dielectric constant tensor:
#      x y z
#    x 2.009570 0.000000 -0.012600 
#    y 0.000000 2.007490 0.000000 
#    z -0.012600 0.000000 2.011030 
# 
# From -- ./inp_files/7986.got.cif
#   From: 2010.03.12/outbox.cif.g09.slc.cpg/sg4_4_cif.got.tgz:7986.got - 2010.03.31 09:31:35.
