data_PCOD8047890
_publ_section_title
;
Structure prediction by ZEFSAII (Michael W. Deem and Ramdas Pophale) SiO2 
 PCOD8047890
Probable space group: P 21
;
_chemical_formula_sum "Si O2"
_cell_formula_units_Z 14
_cell_length_a 9.958312
_cell_length_b 6.037572
_cell_length_c 15.316387
_cell_angle_alpha 90.000000
_cell_angle_beta 141.821367
_cell_angle_gamma 90.000000
_cell_volume 569.211764
_symmetry_space_group_name_H-M "P 21"
_symmetry_group_IT_number 4
_symmetry_cell_setting 'monoclinic'
loop_
_space_group_symop_operation_xyz
x,y,z
-x,1/2+y,-z
loop_
_atom_site_type_symbol
_atom_site_label
_atom_site_fract_x
_atom_site_fract_y
_atom_site_fract_z
Si Si1 0.890681 0.026570 0.451730
Si Si2 0.722685 0.827202 0.859098
Si Si3 0.474545 0.578760 0.867345
Si Si4 0.209142 0.753181 0.887160
Si Si5 0.105086 0.961596 0.161419
Si Si6 0.577994 0.108690 0.632517
Si Si7 0.207970 0.397353 0.417812
O O1 0.716147 0.972307 0.287727
O O2 0.787982 0.060155 0.496108
O O3 0.986385 0.278947 0.480275
O O4 0.567546 0.791170 0.863270
O O5 0.716643 0.624549 0.788389
O O6 0.631632 0.031727 0.758165
O O7 0.974049 0.845940 0.015831
O O8 0.392725 0.644597 0.920991
O O9 0.674009 0.408941 0.982218
O O10 0.076715 0.569540 0.870598
O O11 0.040143 0.886428 0.740327
O O12 0.248821 0.804902 0.295426
O O13 0.320926 0.165976 0.504617
O O14 0.627660 0.950190 0.577275
#
# Coordination Sequence:
#
# PCOD8047890 Si02
#       7
#     2   2   2   2   2   2   2
#     4  12  31  54  84 118 166 223 278 338 419 501
#     4  12  25  46  76 119 156 207 270 336 412 494
#     4  12  29  48  81 119 164 215 272 343 416 498
#     4  12  27  50  76 118 156 216 272 334 414 496
#     4  12  24  48  77 112 157 207 272 334 416 491
#     4  12  28  47  79 115 159 208 272 345 418 493
#     4  12  28  49  79 115 160 212 274 342 415 495
#
# _framework density 24.595417999999999
#
# number of rings (size 3 to 8) (size 9 to 14) (size 15 to 20)
#    0.000    0.000    4.286    4.286   10.000    0.000 
#    0.000    0.000    0.000    0.000    0.000    0.000 
#    0.000    0.000    0.000    0.000    0.000    0.000 
#
# Total GULP energy -173461.455540 kJ/mol
# GULP energy per Si atom -12390.103967 kJ/mol
# Density = 2.453944 g / cm^3
# Si number density = 24.595418 Si / 1000 Ang^3
#
#
#
# Elastic Constant Matrix: (Units=GPa)
#
#
# Indices 1 2 3 4 5 6 
#
# 1 102.0865 17.4537 13.0025 0.0000 -6.9604 0.0000
# 2 17.4537 82.6447 35.8955 0.0000 4.0439 0.0000
# 3 13.0025 35.8955 156.2934 0.0000 -0.1456 0.0000
# 4 0.0000 0.0000 0.0000 37.6482 0.0000 1.2610
# 5 -6.9604 4.0439 -0.1456 0.0000 39.4089 0.0000
# 6 0.0000 0.0000 0.0000 1.2610 0.0000 40.0379
#
#
#
# Elastic Compliance Matrix: (Units=1/GPa)
#
#
# Indices 1 2 3 4 5 6 
#
# 1 0.010345 -0.002124 -0.000371 0.000000 0.002044 0.000000
# 2 -0.002124 0.013953 -0.003030 0.000000 -0.001818 0.000000
# 3 -0.000371 -0.003030 0.007125 0.000000 0.000272 0.000000
# 4 0.000000 0.000000 0.000000 0.026590 0.000000 -0.000837
# 5 0.002044 -0.001818 0.000272 0.000000 0.025923 0.000000
# 6 0.000000 0.000000 0.000000 -0.000837 0.000000 0.025003
#
#
# Mechanical properties :
#
#
# Convention : Reuss Voigt Hill
#
# Bulk Modulus (GPa) = 49.07947 52.63644 50.85796
# Shear Modulus (GPa) = 39.43837 41.73053 40.58445
#
# Velocity S-wave (km/s) = 4.00870 4.12354 4.06653
# Velocity P-wave (km/s) = 6.43617 6.64220 6.54000
#
# Compressibility (1/GPa) = 0.02037512
#
# Stress axis : x y z
#
# Youngs Moduli (GPa) = 96.66231 71.66754 140.34792
#
# Poissons Ratio (x) = 0.15220 0.05207
# Poissons Ratio (y) = 0.20528 0.42520
# Poissons Ratio (z) = 0.03586 0.21713
#
# Static dielectric constant tensor:
#      x y z
#    x 4.404320 0.000000 -0.136710 
#    y 0.000000 4.635290 0.000000 
#    z -0.136710 0.000000 4.741640 
# 
# 
# High freq. dielectric constant tensor:
#      x y z
#    x 1.986310 0.000000 -0.011240 
#    y 0.000000 1.966990 0.000000 
#    z -0.011240 0.000000 2.001880 
# 
# From -- ./inp_files/5158.got.cif
#   From: 2010.03.12/outbox.cif.g09.slc.cpg/sg4_3_cif.got.tgz:5158.got - 2010.03.31 09:31:35.
