data_PCOD8047512
_publ_section_title
;
Structure prediction by ZEFSAII (Michael W. Deem and Ramdas Pophale) SiO2 
 PCOD8047512
Probable space group: P 21
;
_chemical_formula_sum "Si O2"
_cell_formula_units_Z 14
_cell_length_a 13.087845
_cell_length_b 9.088223
_cell_length_c 9.267353
_cell_angle_alpha 90.000000
_cell_angle_beta 148.325780
_cell_angle_gamma 90.000000
_cell_volume 578.809381
_symmetry_space_group_name_H-M "P 21"
_symmetry_group_IT_number 4
_symmetry_cell_setting 'monoclinic'
loop_
_space_group_symop_operation_xyz
x,y,z
-x,1/2+y,-z
loop_
_atom_site_type_symbol
_atom_site_label
_atom_site_fract_x
_atom_site_fract_y
_atom_site_fract_z
Si Si1 0.211460 0.290500 0.397147
Si Si2 0.964220 0.343033 0.352122
Si Si3 0.379141 0.646669 0.170472
Si Si4 0.121097 0.870089 0.187265
Si Si5 0.355858 0.604615 0.479477
Si Si6 0.781095 0.572858 0.957227
Si Si7 0.880461 0.887252 0.150291
O O1 0.396840 0.184918 0.597098
O O2 0.233403 0.463022 0.378454
O O3 0.148554 0.272039 0.489544
O O4 0.023489 0.256233 0.072178
O O5 0.002961 0.344190 0.567276
O O6 0.761141 0.262043 0.076291
O O7 0.938558 0.507486 0.258005
O O8 0.353557 0.648124 0.309008
O O9 0.308042 0.484411 0.033232
O O10 0.273326 0.756635 0.448493
O O11 0.023932 0.963908 0.203778
O O12 0.222846 0.986997 0.201232
O O13 0.573172 0.562034 0.786348
O O14 0.819405 0.745129 0.983471
#
# Coordination Sequence:
#
# PCOD8047512 Si02
#       7
#     2   2   2   2   2   2   2
#     4  11  23  47  75 105 149 190 250 314 368 436
#     4  11  25  53  73 104 157 195 246 310 373 454
#     4  12  25  44  74 112 145 191 252 305 371 444
#     4  11  23  45  80 107 145 196 254 308 380 435
#     4  12  22  44  73 109 142 192 250 317 365 428
#     4  11  25  47  72 112 150 189 256 313 362 450
#     4  12  27  46  75 111 152 205 242 307 387 447
#
# _framework density 24.187583
#
# number of rings (size 3 to 8) (size 9 to 14) (size 15 to 20)
#    0.000    0.571    5.714    3.429    2.000    1.143 
#    5.143    0.000    0.000    0.000    0.000    0.000 
#    0.000    0.000    0.000    0.000    0.000    0.000 
#
# Total GULP energy -173475.822819 kJ/mol
# GULP energy per Si atom -12391.130201 kJ/mol
# Density = 2.413253 g / cm^3
# Si number density = 24.187583 Si / 1000 Ang^3
#
#
#
# Elastic Constant Matrix: (Units=GPa)
#
#
# Indices 1 2 3 4 5 6 
#
# 1 123.1110 19.9872 51.6798 0.0000 9.7839 0.0000
# 2 19.9872 109.9134 28.6592 0.0000 12.5840 0.0000
# 3 51.6798 28.6592 83.0059 0.0000 15.3104 0.0000
# 4 0.0000 0.0000 0.0000 38.2628 0.0000 11.5846
# 5 9.7839 12.5840 15.3104 0.0000 43.6753 0.0000
# 6 0.0000 0.0000 0.0000 11.5846 0.0000 30.6499
#
#
#
# Elastic Compliance Matrix: (Units=1/GPa)
#
#
# Indices 1 2 3 4 5 6 
#
# 1 0.011002 -0.000234 -0.006765 0.000000 -0.000026 0.000000
# 2 -0.000234 0.010135 -0.003020 0.000000 -0.001809 0.000000
# 3 -0.006765 -0.003020 0.018027 0.000000 -0.003934 0.000000
# 4 0.000000 0.000000 0.000000 0.029512 0.000000 -0.011155
# 5 -0.000026 -0.001809 -0.003934 0.000000 0.024802 0.000000
# 6 0.000000 0.000000 0.000000 -0.011155 0.000000 0.036843
#
#
# Mechanical properties :
#
#
# Convention : Reuss Voigt Hill
#
# Bulk Modulus (GPa) = 52.27970 57.40919 54.84445
# Shear Modulus (GPa) = 31.90090 36.89786 34.39938
#
# Velocity S-wave (km/s) = 3.63560 3.90999 3.77529
# Velocity P-wave (km/s) = 6.26775 6.64609 6.45969
#
# Compressibility (1/GPa) = 0.01912788
#
# Stress axis : x y z
#
# Youngs Moduli (GPa) = 90.88871 98.66610 55.47122
#
# Poissons Ratio (x) = 0.02308 0.37524
# Poissons Ratio (y) = 0.02126 0.16752
# Poissons Ratio (z) = 0.61483 0.29797
#
# Static dielectric constant tensor:
#      x y z
#    x 4.460370 0.000000 0.461620 
#    y 0.000000 4.550490 0.000000 
#    z 0.461620 0.000000 4.340470 
# 
# 
# High freq. dielectric constant tensor:
#      x y z
#    x 1.955590 0.000000 0.025050 
#    y 0.000000 1.972890 0.000000 
#    z 0.025050 0.000000 1.942310 
# 
# From -- ./inp_files/8087.got.cif
#   From: 2010.03.12/outbox.cif.g09.slc.cpg/sg4_5_cif.got.tgz:8087.got - 2010.03.31 09:31:35.
