data_PCOD8047267
_publ_section_title
;
Structure prediction by ZEFSAII (Michael W. Deem and Ramdas Pophale) SiO2 
 PCOD8047267
Probable space group: P 21
;
_chemical_formula_sum "Si O2"
_cell_formula_units_Z 16
_cell_length_a 8.907681
_cell_length_b 11.362045
_cell_length_c 11.899215
_cell_angle_alpha 90.000000
_cell_angle_beta 37.830112
_cell_angle_gamma 90.000000
_cell_volume 738.632111
_symmetry_space_group_name_H-M "P 21"
_symmetry_group_IT_number 4
_symmetry_cell_setting 'monoclinic'
loop_
_space_group_symop_operation_xyz
x,y,z
-x,1/2+y,-z
loop_
_atom_site_type_symbol
_atom_site_label
_atom_site_fract_x
_atom_site_fract_y
_atom_site_fract_z
Si Si1 0.587578 0.796870 0.404778
Si Si2 0.789078 0.160133 0.124455
Si Si3 0.910126 0.292283 0.834785
Si Si4 0.729328 0.916618 0.100021
Si Si5 0.896941 0.560258 0.857334
Si Si6 0.700226 0.406311 0.260705
Si Si7 0.546162 0.224130 0.856642
Si Si8 0.664248 0.099668 0.562452
O O1 0.719153 0.830515 0.211207
O O2 0.399507 0.900889 0.551693
O O3 0.449857 0.673635 0.472912
O O4 0.804025 0.792694 0.370487
O O5 0.637465 0.272466 0.257397
O O6 0.988958 0.120473 0.099260
O O7 0.620350 0.045981 0.193748
O O8 0.911202 0.200219 0.936344
O O9 0.829999 0.423878 0.923057
O O10 0.749918 0.244087 0.828790
O O11 0.583442 0.851387 0.086930
O O12 0.015715 0.937894 0.903449
O O13 0.071740 0.560244 0.642544
O O14 0.650026 0.632167 0.977293
O O15 0.529844 0.496601 0.292258
O O16 0.686920 0.177233 0.662102
#
# Coordination Sequence:
#
# PCOD8047267 Si02
#       8
#     2   2   2   2   2   2   2   2
#     4  11  21  40  67  99 126 164 229 279 322 385
#     4  12  21  41  70 100 128 170 232 279 327 387
#     4  12  25  43  67 101 140 174 216 280 336 404
#     4  11  22  41  63  96 131 172 221 272 326 392
#     4  12  23  48  71  97 134 180 226 283 332 392
#     4  12  21  37  72  98 121 171 227 275 331 378
#     4  11  26  44  66  95 140 181 218 267 347 412
#     4  11  23  44  72  94 134 178 225 285 333 392
#
# _framework density 21.661663999999998
#
# number of rings (size 3 to 8) (size 9 to 14) (size 15 to 20)
#    0.000    0.500    6.250    3.000    1.750    0.000 
#    2.250    0.000    2.750    0.000    0.000    0.000 
#    0.000    0.000    0.000    0.000    0.000    0.000 
#
# Total GULP energy -198278.622157 kJ/mol
# GULP energy per Si atom -12392.413885 kJ/mol
# Density = 2.161236 g / cm^3
# Si number density = 21.661664 Si / 1000 Ang^3
#
#
#
# Elastic Constant Matrix: (Units=GPa)
#
#
# Indices 1 2 3 4 5 6 
#
# 1 98.2408 32.0721 39.2285 0.0000 6.1165 0.0000
# 2 32.0721 115.4414 0.9798 0.0000 4.6728 0.0000
# 3 39.2285 0.9798 79.3886 0.0000 -0.4190 0.0000
# 4 0.0000 0.0000 0.0000 32.9551 0.0000 1.3986
# 5 6.1165 4.6728 -0.4190 0.0000 17.5359 0.0000
# 6 0.0000 0.0000 0.0000 1.3986 0.0000 28.1518
#
#
#
# Elastic Compliance Matrix: (Units=1/GPa)
#
#
# Indices 1 2 3 4 5 6 
#
# 1 0.014546 -0.003809 -0.007163 0.000000 -0.004230 0.000000
# 2 -0.003809 0.009756 0.001755 0.000000 -0.001229 0.000000
# 3 -0.007163 0.001755 0.016127 0.000000 0.002416 0.000000
# 4 0.000000 0.000000 0.000000 0.030408 0.000000 -0.001511
# 5 -0.004230 -0.001229 0.002416 0.000000 0.058887 0.000000
# 6 0.000000 0.000000 0.000000 -0.001511 0.000000 0.035597
#
#
# Mechanical properties :
#
#
# Convention : Reuss Voigt Hill
#
# Bulk Modulus (GPa) = 45.46538 48.62574 47.04556
# Shear Modulus (GPa) = 26.16621 30.44792 28.30707
#
# Velocity S-wave (km/s) = 3.47933 3.75322 3.61887
# Velocity P-wave (km/s) = 6.09716 6.42486 6.26315
#
# Compressibility (1/GPa) = 0.02199476
#
# Stress axis : x y z
#
# Youngs Moduli (GPa) = 68.74584 102.50580 62.00823
#
# Poissons Ratio (x) = 0.39047 0.44417
# Poissons Ratio (y) = 0.26187 -0.10885
# Poissons Ratio (z) = 0.49244 -0.17994
#
# Static dielectric constant tensor:
#      x y z
#    x 3.549880 0.000000 0.028680 
#    y 0.000000 4.335530 0.000000 
#    z 0.028680 0.000000 4.077180 
# 
# 
# High freq. dielectric constant tensor:
#      x y z
#    x 1.807250 0.000000 0.006950 
#    y 0.000000 1.873150 0.000000 
#    z 0.006950 0.000000 1.860340 
# 
# From -- ./inp_files/11136.got.cif
#   From: 2010.03.12/outbox.cif.g09.slc.cpg/sg4_6_cif.got.tgz:11136.got - 2010.03.31 09:31:35.
