data_PCOD8047010
_publ_section_title
;
Structure prediction by ZEFSAII (Michael W. Deem and Ramdas Pophale) SiO2 
 PCOD8047010
Probable space group: P 21
;
_chemical_formula_sum "Si O2"
_cell_formula_units_Z 16
_cell_length_a 9.496646
_cell_length_b 10.293968
_cell_length_c 8.431011
_cell_angle_alpha 90.000000
_cell_angle_beta 56.801348
_cell_angle_gamma 90.000000
_cell_volume 689.671938
_symmetry_space_group_name_H-M "P 21"
_symmetry_group_IT_number 4
_symmetry_cell_setting 'monoclinic'
loop_
_space_group_symop_operation_xyz
x,y,z
-x,1/2+y,-z
loop_
_atom_site_type_symbol
_atom_site_label
_atom_site_fract_x
_atom_site_fract_y
_atom_site_fract_z
Si Si1 0.160305 0.455540 0.397816
Si Si2 0.468914 0.391617 0.408863
Si Si3 0.607987 0.290747 0.754989
Si Si4 0.616390 0.654087 0.316437
Si Si5 0.060933 0.725253 0.583997
Si Si6 0.686408 0.975127 0.037973
Si Si7 0.274785 0.761889 0.968523
Si Si8 0.064129 0.265680 0.991933
O O1 0.283375 0.430408 0.468546
O O2 0.049764 0.583536 0.506960
O O3 0.266318 0.481631 0.174861
O O4 0.051499 0.326014 0.445462
O O5 0.560032 0.518330 0.430463
O O6 0.454786 0.276912 0.542728
O O7 0.581792 0.353231 0.189545
O O8 0.474924 0.173264 0.800250
O O9 0.750267 0.284870 0.529932
O O10 0.711031 0.266882 0.851594
O O11 0.504711 0.424847 0.824100
O O12 0.818731 0.657229 0.167771
O O13 0.001059 0.710048 0.801357
O O14 0.819263 0.890969 0.055168
O O15 0.693305 0.116197 0.112321
O O16 0.089176 0.805967 0.027804
#
# Coordination Sequence:
#
# PCOD8047010 Si02
#       8
#     2   2   2   2   2   2   2   2
#     4  11  24  47  70 110 145 193 247 302 364 436
#     4  12  27  47  76 106 147 194 246 294 369 435
#     4  11  23  46  75 103 143 190 236 300 357 433
#     4  11  27  50  74 106 150 188 243 302 363 436
#     4  11  24  47  74 104 153 189 245 299 366 427
#     4  10  23  47  70 104 149 184 247 300 362 438
#     4  12  25  44  76 104 141 195 243 298 366 433
#     4  10  27  46  71 105 148 189 239 307 363 426
#
# _framework density 23.199435999999999
#
# number of rings (size 3 to 8) (size 9 to 14) (size 15 to 20)
#    0.000    1.000    3.750    0.750    7.000    2.000 
#    2.250    0.000    0.000    0.000    0.000    0.000 
#    0.000    0.000    0.000    0.000    0.000    0.000 
#
# Total GULP energy -198400.340945 kJ/mol
# GULP energy per Si atom -12400.021309 kJ/mol
# Density = 2.314663 g / cm^3
# Si number density = 23.199436 Si / 1000 Ang^3
#
#
#
# Elastic Constant Matrix: (Units=GPa)
#
#
# Indices 1 2 3 4 5 6 
#
# 1 115.5351 44.8491 29.9221 0.0000 -10.2400 0.0000
# 2 44.8491 159.3909 39.5303 0.0000 -9.6305 0.0000
# 3 29.9221 39.5303 83.7410 0.0000 -20.9481 0.0000
# 4 0.0000 0.0000 0.0000 38.6264 0.0000 -4.8345
# 5 -10.2400 -9.6305 -20.9481 0.0000 34.7188 0.0000
# 6 0.0000 0.0000 0.0000 -4.8345 0.0000 28.1572
#
#
#
# Elastic Compliance Matrix: (Units=1/GPa)
#
#
# Indices 1 2 3 4 5 6 
#
# 1 0.010218 -0.002233 -0.002353 0.000000 0.000974 0.000000
# 2 -0.002233 0.007594 -0.002856 0.000000 -0.000275 0.000000
# 3 -0.002353 -0.002856 0.016205 0.000000 0.008291 0.000000
# 4 0.000000 0.000000 0.000000 0.026458 0.000000 0.004543
# 5 0.000974 -0.000275 0.008291 0.000000 0.034016 0.000000
# 6 0.000000 0.000000 0.000000 0.004543 0.000000 0.036295
#
#
# Mechanical properties :
#
#
# Convention : Reuss Voigt Hill
#
# Bulk Modulus (GPa) = 52.26621 65.25222 58.75922
# Shear Modulus (GPa) = 32.88480 36.59152 34.73816
#
# Velocity S-wave (km/s) = 3.76903 3.97578 3.87379
# Velocity P-wave (km/s) = 6.44351 7.01879 6.73729
#
# Compressibility (1/GPa) = 0.01913282
#
# Stress axis : x y z
#
# Youngs Moduli (GPa) = 97.86765 131.68817 61.71103
#
# Poissons Ratio (x) = 0.29400 0.14523
# Poissons Ratio (y) = 0.21849 0.17623
# Poissons Ratio (z) = 0.23032 0.37607
#
# Static dielectric constant tensor:
#      x y z
#    x 4.177320 0.000000 -0.127240 
#    y 0.000000 4.251390 0.000000 
#    z -0.127240 0.000000 4.218510 
# 
# 
# High freq. dielectric constant tensor:
#      x y z
#    x 1.921080 0.000000 -0.006330 
#    y 0.000000 1.918250 0.000000 
#    z -0.006330 0.000000 1.921120 
# 
# From -- ./inp_files/5791.got.cif
#   From: 2010.03.12/outbox.cif.g09.slc.cpg/sg4_3_cif.got.tgz:5791.got - 2010.03.31 09:31:35.
