data_PCOD8047312
_publ_section_title
;
Structure prediction by ZEFSAII (Michael W. Deem and Ramdas Pophale) SiO2 
 PCOD8047312
Probable space group: P 21
;
_chemical_formula_sum "Si O2"
_cell_formula_units_Z 16
_cell_length_a 11.753232
_cell_length_b 9.254812
_cell_length_c 6.627414
_cell_angle_alpha 90.000000
_cell_angle_beta 100.563727
_cell_angle_gamma 90.000000
_cell_volume 708.672090
_symmetry_space_group_name_H-M "P 21"
_symmetry_group_IT_number 4
_symmetry_cell_setting 'monoclinic'
loop_
_space_group_symop_operation_xyz
x,y,z
-x,1/2+y,-z
loop_
_atom_site_type_symbol
_atom_site_label
_atom_site_fract_x
_atom_site_fract_y
_atom_site_fract_z
Si Si1 0.473462 0.689790 0.642127
Si Si2 0.353584 0.439830 0.435757
Si Si3 0.241647 0.313555 0.761555
Si Si4 0.875052 0.937781 0.908165
Si Si5 0.832723 0.579297 0.571854
Si Si6 0.042032 0.683251 0.838283
Si Si7 0.679178 0.581245 0.915796
Si Si8 0.256521 0.842688 0.752608
O O1 0.418172 0.595448 0.440868
O O2 0.561240 0.809375 0.588922
O O3 0.546458 0.573492 0.798639
O O4 0.375925 0.765976 0.741264
O O5 0.319167 0.425882 0.660445
O O6 0.242058 0.441366 0.257470
O O7 0.177325 0.213837 0.579811
O O8 0.149726 0.399143 0.866524
O O9 0.319662 0.217002 0.933904
O O10 0.968798 0.828720 0.848657
O O11 0.930970 0.098957 0.941788
O O12 0.762818 0.611423 0.754087
O O13 0.787155 0.433980 0.453720
O O14 0.968209 0.572741 0.673795
O O15 0.161200 0.722420 0.767529
O O16 0.721356 0.437391 0.040887
#
# Coordination Sequence:
#
# PCOD8047312 Si02
#       8
#     2   2   2   2   2   2   2   2
#     4  12  26  47  73 105 145 192 236 297 356 425
#     4  12  27  48  72 108 147 190 244 295 357 429
#     4  11  21  46  74 102 144 186 238 292 358 424
#     4  12  27  48  72 108 147 190 244 295 357 429
#     4  11  23  48  73 104 145 186 239 299 360 419
#     4  12  26  47  73 105 145 192 236 297 356 425
#     4  11  23  48  73 104 145 186 239 299 360 419
#     4  11  29  44  70 112 144 190 240 294 360 428
#
# _framework density 22.577439999999999
#
# number of rings (size 3 to 8) (size 9 to 14) (size 15 to 20)
#    0.000    0.500    5.000    2.250    7.000    5.000 
#    0.000    0.000    0.000    0.000    0.000    0.000 
#    0.000    0.000    0.000    0.000    0.000    0.000 
#
# Total GULP energy -198395.791969 kJ/mol
# GULP energy per Si atom -12399.736998 kJ/mol
# Density = 2.252605 g / cm^3
# Si number density = 22.577440 Si / 1000 Ang^3
#
#
#
# Elastic Constant Matrix: (Units=GPa)
#
#
# Indices 1 2 3 4 5 6 
#
# 1 88.4873 18.0368 33.7277 0.0000 11.6438 0.0000
# 2 18.0368 74.4864 28.6270 0.0000 20.2488 0.0000
# 3 33.7277 28.6270 111.7871 0.0000 2.3444 0.0000
# 4 0.0000 0.0000 0.0000 32.1035 0.0000 2.5928
# 5 11.6438 20.2488 2.3444 0.0000 28.0301 0.0000
# 6 0.0000 0.0000 0.0000 2.5928 0.0000 35.7195
#
#
#
# Elastic Compliance Matrix: (Units=1/GPa)
#
#
# Indices 1 2 3 4 5 6 
#
# 1 0.013517 -0.000436 -0.003862 0.000000 -0.004977 0.000000
# 2 -0.000436 0.018755 -0.004399 0.000000 -0.013000 0.000000
# 3 -0.003862 -0.004399 0.011157 0.000000 0.003849 0.000000
# 4 0.000000 0.000000 0.000000 0.031333 0.000000 -0.002274
# 5 -0.004977 -0.013000 0.003849 0.000000 0.046813 0.000000
# 6 0.000000 0.000000 0.000000 -0.002274 0.000000 0.028161
#
#
# Mechanical properties :
#
#
# Convention : Reuss Voigt Hill
#
# Bulk Modulus (GPa) = 38.40955 48.39376 43.40165
# Shear Modulus (GPa) = 28.44018 32.12857 30.28437
#
# Velocity S-wave (km/s) = 3.55304 3.77641 3.66643
# Velocity P-wave (km/s) = 5.82077 6.36366 6.09826
#
# Compressibility (1/GPa) = 0.02603519
#
# Stress axis : x y z
#
# Youngs Moduli (GPa) = 73.98114 53.31817 89.63268
#
# Poissons Ratio (x) = 0.02323 0.34619
# Poissons Ratio (y) = 0.03223 0.39428
# Poissons Ratio (z) = 0.28574 0.23454
#
# Static dielectric constant tensor:
#      x y z
#    x 4.178770 0.000000 0.108110 
#    y 0.000000 4.252000 0.000000 
#    z 0.108110 0.000000 4.417140 
# 
# 
# High freq. dielectric constant tensor:
#      x y z
#    x 1.899960 0.000000 0.010850 
#    y 0.000000 1.899250 0.000000 
#    z 0.010850 0.000000 1.890860 
# 
# From -- ./inp_files/2669.got.cif
#   From: 2010.03.12/outbox.cif.g09.slc.cpg/sg4_2_cif.got.tgz:2669.got - 2010.03.31 09:31:35.
