data_PCOD8047009
_publ_section_title
;
Structure prediction by ZEFSAII (Michael W. Deem and Ramdas Pophale) SiO2 
 PCOD8047009
Probable space group: P 21
;
_chemical_formula_sum "Si O2"
_cell_formula_units_Z 12
_cell_length_a 11.731707
_cell_length_b 10.784124
_cell_length_c 5.136369
_cell_angle_alpha 90.000000
_cell_angle_beta 130.388942
_cell_angle_gamma 90.000000
_cell_volume 494.954609
_symmetry_space_group_name_H-M "P 21"
_symmetry_group_IT_number 4
_symmetry_cell_setting 'monoclinic'
loop_
_space_group_symop_operation_xyz
x,y,z
-x,1/2+y,-z
loop_
_atom_site_type_symbol
_atom_site_label
_atom_site_fract_x
_atom_site_fract_y
_atom_site_fract_z
Si Si1 0.289196 0.316430 0.779252
Si Si2 0.473796 0.978084 0.680058
Si Si3 0.088974 0.695231 0.140266
Si Si4 0.371748 0.534027 0.597146
Si Si5 0.819364 0.553225 0.534174
Si Si6 0.968264 0.350137 0.446462
O O1 0.298050 0.396049 0.522573
O O2 0.271605 0.171765 0.702342
O O3 0.147040 0.369947 0.730535
O O4 0.442787 0.343386 0.170095
O O5 0.500158 0.032655 0.433459
O O6 0.295804 0.967899 0.469858
O O7 0.549152 0.068689 0.010372
O O8 0.248417 0.632759 0.332807
O O9 0.081757 0.747629 0.419481
O O10 0.071016 0.804033 0.901660
O O11 0.957558 0.593460 0.919316
O O12 0.882503 0.478070 0.379709
#
# Coordination Sequence:
#
# PCOD8047009 Si02
#       6
#     2   2   2   2   2   2
#     4   9  25  44  72  98 147 182 234 291 358 411
#     4  10  24  44  68 102 139 188 232 283 358 421
#     4  11  26  44  75 103 144 181 244 297 349 423
#     4  10  23  47  69  99 145 190 229 292 357 414
#     4  11  26  46  74 107 142 187 241 295 351 427
#     4  11  26  43  70 113 135 188 236 298 355 418
#
# _framework density 24.244648999999999
#
# number of rings (size 3 to 8) (size 9 to 14) (size 15 to 20)
#    1.000    0.667    0.000    2.000   14.000    6.667 
#    3.000    0.000    0.000    0.000    0.000    0.000 
#    0.000    0.000    0.000    0.000    0.000    0.000 
#
# Total GULP energy -148742.716047 kJ/mol
# GULP energy per Si atom -12395.226337 kJ/mol
# Density = 2.418947 g / cm^3
# Si number density = 24.244649 Si / 1000 Ang^3
#
#
#
# Elastic Constant Matrix: (Units=GPa)
#
#
# Indices 1 2 3 4 5 6 
#
# 1 158.1498 33.0993 17.6205 0.0000 3.2294 0.0000
# 2 33.0993 67.6902 7.2661 0.0000 9.2290 0.0000
# 3 17.6205 7.2661 50.9916 0.0000 -6.4211 0.0000
# 4 0.0000 0.0000 0.0000 18.7128 0.0000 0.8902
# 5 3.2294 9.2290 -6.4211 0.0000 40.3544 0.0000
# 6 0.0000 0.0000 0.0000 0.8902 0.0000 27.1393
#
#
#
# Elastic Compliance Matrix: (Units=1/GPa)
#
#
# Indices 1 2 3 4 5 6 
#
# 1 0.007246 -0.003302 -0.002052 0.000000 -0.000151 0.000000
# 2 -0.003302 0.017117 -0.001794 0.000000 -0.003936 0.000000
# 3 -0.002052 -0.001794 0.021070 0.000000 0.003927 0.000000
# 4 0.000000 0.000000 0.000000 0.053523 0.000000 -0.001756
# 5 -0.000151 -0.003936 0.003927 0.000000 0.026318 0.000000
# 6 0.000000 0.000000 0.000000 -0.001756 0.000000 0.036904
#
#
# Mechanical properties :
#
#
# Convention : Reuss Voigt Hill
#
# Bulk Modulus (GPa) = 32.11615 43.64481 37.88048
# Shear Modulus (GPa) = 26.75889 31.83102 29.29496
#
# Velocity S-wave (km/s) = 3.32581 3.62734 3.47984
# Velocity P-wave (km/s) = 5.29372 5.96526 5.63950
#
# Compressibility (1/GPa) = 0.03113699
#
# Stress axis : x y z
#
# Youngs Moduli (GPa) = 138.00701 58.42124 47.45995
#
# Poissons Ratio (x) = 0.19292 0.09741
# Poissons Ratio (y) = 0.45573 0.08512
# Poissons Ratio (z) = 0.28325 0.10478
#
# Static dielectric constant tensor:
#      x y z
#    x 4.486430 0.000000 0.178160 
#    y 0.000000 4.138460 0.000000 
#    z 0.178160 0.000000 4.079330 
# 
# 
# High freq. dielectric constant tensor:
#      x y z
#    x 1.978580 0.000000 0.009270 
#    y 0.000000 1.946380 0.000000 
#    z 0.009270 0.000000 1.952340 
# 
# From -- ./inp_files/2900.got.cif
#   From: 2010.03.12/outbox.cif.g09.slc.cpg/sg4_2_cif.got.tgz:2900.got - 2010.03.31 09:31:35.
