data_PCOD8047182
_publ_section_title
;
Structure prediction by ZEFSAII (Michael W. Deem and Ramdas Pophale) SiO2 
 PCOD8047182
Probable space group: P 21
;
_chemical_formula_sum "Si O2"
_cell_formula_units_Z 16
_cell_length_a 16.174769
_cell_length_b 5.465160
_cell_length_c 12.036973
_cell_angle_alpha 90.000000
_cell_angle_beta 141.954214
_cell_angle_gamma 90.000000
_cell_volume 655.758719
_symmetry_space_group_name_H-M "P 21"
_symmetry_group_IT_number 4
_symmetry_cell_setting 'monoclinic'
loop_
_space_group_symop_operation_xyz
x,y,z
-x,1/2+y,-z
loop_
_atom_site_type_symbol
_atom_site_label
_atom_site_fract_x
_atom_site_fract_y
_atom_site_fract_z
Si Si1 0.651087 0.824650 0.190967
Si Si2 0.848367 0.273327 0.911125
Si Si3 0.163034 0.272669 0.225098
Si Si4 0.270094 0.029316 0.535919
Si Si5 0.770071 0.508303 0.038081
Si Si6 0.005893 0.843490 0.325339
Si Si7 0.505831 0.176017 0.182556
Si Si8 0.859754 0.188159 0.312931
O O1 0.730386 0.597875 0.332210
O O2 0.593451 0.937820 0.245766
O O3 0.749747 0.986358 0.222870
O O4 0.530585 0.763389 0.980861
O O5 0.799955 0.523673 0.801359
O O6 0.798017 0.023807 0.797727
O O7 0.780106 0.284952 0.961123
O O8 0.007716 0.269526 0.093525
O O9 0.254411 0.255283 0.433381
O O10 0.133545 0.865350 0.378191
O O11 0.403629 0.871197 0.654531
O O12 0.785122 0.427243 0.184098
O O13 0.889344 0.699817 0.135430
O O14 0.622555 0.627690 0.875586
O O15 0.045593 0.707314 0.480906
O O16 0.950505 0.107258 0.303696
#
# Coordination Sequence:
#
# PCOD8047182 Si02
#       8
#     2   2   2   2   2   2   2   2
#     4  12  24  43  66 103 152 199 248 295 367 455
#     4  10  25  47  77 112 148 185 252 325 392 443
#     4  10  25  48  77 113 143 188 254 327 386 444
#     4  12  27  42  75 107 146 198 249 311 378 447
#     4  12  27  42  72 106 148 199 242 310 384 446
#     4  12  24  39  66 109 150 194 246 308 369 450
#     4  12  25  44  68 105 152 204 246 294 375 468
#     4  12  23  39  63 105 155 189 251 300 367 443
#
# _framework density 24.39922
#
# number of rings (size 3 to 8) (size 9 to 14) (size 15 to 20)
#    0.000    0.500    5.000    3.000   10.500    0.000 
#    0.000    0.000    2.750    0.000    0.000    0.000 
#    0.000    0.000    0.000    0.000    0.000    0.000 
#
# Total GULP energy -198352.969742 kJ/mol
# GULP energy per Si atom -12397.060609 kJ/mol
# Density = 2.434369 g / cm^3
# Si number density = 24.399220 Si / 1000 Ang^3
#
#
#
# Elastic Constant Matrix: (Units=GPa)
#
#
# Indices 1 2 3 4 5 6 
#
# 1 101.6617 38.1885 51.2837 0.0000 6.4891 0.0000
# 2 38.1885 96.5839 34.0164 0.0000 1.8579 0.0000
# 3 51.2837 34.0164 97.4342 0.0000 5.2659 0.0000
# 4 0.0000 0.0000 0.0000 41.1604 0.0000 -9.7639
# 5 6.4891 1.8579 5.2659 0.0000 39.8524 0.0000
# 6 0.0000 0.0000 0.0000 -9.7639 0.0000 36.8855
#
#
#
# Elastic Compliance Matrix: (Units=1/GPa)
#
#
# Indices 1 2 3 4 5 6 
#
# 1 0.014396 -0.003447 -0.006301 0.000000 -0.001351 0.000000
# 2 -0.003447 0.012631 -0.002612 0.000000 0.000318 0.000000
# 3 -0.006301 -0.002612 0.014534 0.000000 -0.000773 0.000000
# 4 0.000000 0.000000 0.000000 0.025923 0.000000 0.006862
# 5 -0.001351 0.000318 -0.000773 0.000000 0.025400 0.000000
# 6 0.000000 0.000000 0.000000 0.006862 0.000000 0.028927
#
#
# Mechanical properties :
#
#
# Convention : Reuss Voigt Hill
#
# Bulk Modulus (GPa) = 59.38375 60.29523 59.83949
# Shear Modulus (GPa) = 32.86354 35.05907 33.96130
#
# Velocity S-wave (km/s) = 3.67401 3.79475 3.73487
# Velocity P-wave (km/s) = 6.51068 6.63067 6.57095
#
# Compressibility (1/GPa) = 0.01683962
#
# Stress axis : x y z
#
# Youngs Moduli (GPa) = 69.46329 79.17280 68.80624
#
# Poissons Ratio (x) = 0.27291 0.43354
# Poissons Ratio (y) = 0.23944 0.17976
# Poissons Ratio (z) = 0.43768 0.20684
#
# Static dielectric constant tensor:
#      x y z
#    x 4.118490 0.000000 0.040000 
#    y 0.000000 4.681190 0.000000 
#    z 0.040000 0.000000 4.479320 
# 
# 
# High freq. dielectric constant tensor:
#      x y z
#    x 1.949940 0.000000 -0.000580 
#    y 0.000000 1.974080 0.000000 
#    z -0.000580 0.000000 1.968060 
# 
# From -- ./inp_files/12512.got.cif
#   From: 2010.03.12/outbox.cif.g09.slc.cpg/sg4_7_cif.got.tgz:12512.got - 2010.03.31 09:31:35.
