data_PCOD8047947
_publ_section_title
;
Structure prediction by ZEFSAII (Michael W. Deem and Ramdas Pophale) SiO2 
 PCOD8047947
Probable space group: P 21
;
_chemical_formula_sum "Si O2"
_cell_formula_units_Z 12
_cell_length_a 20.174249
_cell_length_b 4.977340
_cell_length_c 11.322458
_cell_angle_alpha 90.000000
_cell_angle_beta 155.775944
_cell_angle_gamma 90.000000
_cell_volume 466.490953
_symmetry_space_group_name_H-M "P 21"
_symmetry_group_IT_number 4
_symmetry_cell_setting 'monoclinic'
loop_
_space_group_symop_operation_xyz
x,y,z
-x,1/2+y,-z
loop_
_atom_site_type_symbol
_atom_site_label
_atom_site_fract_x
_atom_site_fract_y
_atom_site_fract_z
Si Si1 0.602913 0.768110 0.932539
Si Si2 0.092661 0.160481 0.687990
Si Si3 0.207106 0.356820 0.537728
Si Si4 0.510612 0.620789 0.438447
Si Si5 0.009178 0.369466 0.797654
Si Si6 0.290151 0.403810 0.415569
O O1 0.424720 0.638611 0.636631
O O2 0.621244 0.014996 0.869399
O O3 0.739815 0.567510 0.102757
O O4 0.641637 0.882392 0.126051
O O5 0.021486 0.401321 0.491344
O O6 0.116126 0.272901 0.859658
O O7 0.113262 0.634293 0.363016
O O8 0.277920 0.272840 0.525031
O O9 0.096486 0.124175 0.412617
O O10 0.555726 0.388760 0.606008
O O11 0.665594 0.676615 0.608473
O O12 0.114815 0.486075 0.079301
#
# Coordination Sequence:
#
# PCOD8047947 Si02
#       6
#     2   2   2   2   2   2
#     4  12  29  50  82 120 161 213 273 338 407 481
#     4  12  25  49  77 113 155 209 267 331 406 478
#     4  12  30  52  81 117 169 215 271 328 417 494
#     4  12  28  50  75 117 160 203 267 334 406 467
#     4  12  27  53  79 116 162 220 268 333 406 495
#     4  12  31  50  86 117 165 212 278 336 410 485
#
# _framework density 25.723970999999999
#
# number of rings (size 3 to 8) (size 9 to 14) (size 15 to 20)
#    0.000    0.000    5.000    2.000   11.667    0.000 
#    0.000    0.000    0.000    0.000    0.000    0.000 
#    0.000    0.000    0.000    0.000    0.000    0.000 
#
# Total GULP energy -148757.636788 kJ/mol
# GULP energy per Si atom -12396.469732 kJ/mol
# Density = 2.566542 g / cm^3
# Si number density = 25.723971 Si / 1000 Ang^3
#
#
#
# Elastic Constant Matrix: (Units=GPa)
#
#
# Indices 1 2 3 4 5 6 
#
# 1 160.9831 28.8381 55.8219 0.0000 -36.0146 0.0000
# 2 28.8381 124.6974 50.7670 0.0000 -2.8291 0.0000
# 3 55.8219 50.7670 136.2513 0.0000 -24.0405 0.0000
# 4 0.0000 0.0000 0.0000 37.0225 0.0000 -0.8199
# 5 -36.0146 -2.8291 -24.0405 0.0000 39.1166 0.0000
# 6 0.0000 0.0000 0.0000 -0.8199 0.0000 28.3509
#
#
#
# Elastic Compliance Matrix: (Units=1/GPa)
#
#
# Indices 1 2 3 4 5 6 
#
# 1 0.008550 -0.001032 -0.001955 0.000000 0.006596 0.000000
# 2 -0.001032 0.009675 -0.003619 0.000000 -0.002474 0.000000
# 3 -0.001955 -0.003619 0.010235 0.000000 0.004229 0.000000
# 4 0.000000 0.000000 0.000000 0.027028 0.000000 0.000782
# 5 0.006596 -0.002474 0.004229 0.000000 0.034058 0.000000
# 6 0.000000 0.000000 0.000000 0.000782 0.000000 0.035295
#
#
# Mechanical properties :
#
#
# Convention : Reuss Voigt Hill
#
# Bulk Modulus (GPa) = 65.57655 76.97619 71.27637
# Shear Modulus (GPa) = 34.93227 39.99834 37.46530
#
# Velocity S-wave (km/s) = 3.68906 3.94751 3.82047
# Velocity P-wave (km/s) = 6.61009 7.12502 6.87238
#
# Compressibility (1/GPa) = 0.01524935
#
# Stress axis : x y z
#
# Youngs Moduli (GPa) = 116.95709 103.35702 97.70720
#
# Poissons Ratio (x) = 0.10666 0.19098
# Poissons Ratio (y) = 0.12069 0.35358
# Poissons Ratio (z) = 0.22861 0.37403
#
# Static dielectric constant tensor:
#      x y z
#    x 4.802110 0.000000 -0.234590 
#    y 0.000000 4.442390 0.000000 
#    z -0.234590 0.000000 4.806280 
# 
# 
# High freq. dielectric constant tensor:
#      x y z
#    x 2.046970 0.000000 -0.017610 
#    y 0.000000 2.016660 0.000000 
#    z -0.017610 0.000000 2.031630 
# 
# From -- ./inp_files/13009.got.cif
#   From: 2010.03.12/outbox.cif.g09.slc.cpg/sg4_7_cif.got.tgz:13009.got - 2010.03.31 09:31:35.
