data_PCOD8047992
_publ_section_title
;
Structure prediction by ZEFSAII (Michael W. Deem and Ramdas Pophale) SiO2 
 PCOD8047992
Probable space group: P 21
;
_chemical_formula_sum "Si O2"
_cell_formula_units_Z 14
_cell_length_a 9.256375
_cell_length_b 5.349164
_cell_length_c 16.266698
_cell_angle_alpha 90.000000
_cell_angle_beta 135.395319
_cell_angle_gamma 90.000000
_cell_volume 565.579974
_symmetry_space_group_name_H-M "P 21"
_symmetry_group_IT_number 4
_symmetry_cell_setting 'monoclinic'
loop_
_space_group_symop_operation_xyz
x,y,z
-x,1/2+y,-z
loop_
_atom_site_type_symbol
_atom_site_label
_atom_site_fract_x
_atom_site_fract_y
_atom_site_fract_z
Si Si1 0.494287 0.437220 0.785115
Si Si2 0.089351 0.783291 0.003487
Si Si3 0.041650 0.385112 0.565934
Si Si4 0.996169 0.818082 0.783876
Si Si5 0.582832 0.130666 0.076510
Si Si6 0.800490 0.202677 0.609418
Si Si7 0.591079 0.542337 0.643065
O O1 0.668125 0.234895 0.881623
O O2 0.274698 0.306331 0.683139
O O3 0.481824 0.639194 0.853956
O O4 0.570573 0.565268 0.732327
O O5 0.982346 0.512004 0.966347
O O6 0.050586 0.900618 0.898161
O O7 0.042996 0.653816 0.522346
O O8 0.899728 0.414362 0.590015
O O9 0.756450 0.744255 0.680480
O O10 0.167343 0.614073 0.826768
O O11 0.999101 0.041652 0.718705
O O12 0.508119 0.387439 0.004965
O O13 0.689510 0.286700 0.648730
O O14 0.632493 0.061201 0.486886
#
# Coordination Sequence:
#
# PCOD8047992 Si02
#       7
#     2   2   2   2   2   2   2
#     4  12  28  50  85 117 162 207 270 328 395 482
#     4  12  28  49  78 117 155 204 265 333 394 468
#     4  12  31  52  81 118 161 211 265 326 398 472
#     4  12  28  48  80 111 157 211 263 328 401 472
#     4  12  31  52  79 119 162 212 263 325 407 477
#     4  12  28  48  79 114 161 211 266 324 399 473
#     4  12  26  49  80 114 156 210 268 326 394 468
#
# _framework density 24.753350999999999
#
# number of rings (size 3 to 8) (size 9 to 14) (size 15 to 20)
#    0.000    0.000    5.714    1.714   12.000    2.286 
#    2.571    0.000    0.000    0.000    0.000    0.000 
#    0.000    0.000    0.000    0.000    0.000    0.000 
#
# Total GULP energy -173492.267367 kJ/mol
# GULP energy per Si atom -12392.304812 kJ/mol
# Density = 2.469701 g / cm^3
# Si number density = 24.753351 Si / 1000 Ang^3
#
#
#
# Elastic Constant Matrix: (Units=GPa)
#
#
# Indices 1 2 3 4 5 6 
#
# 1 128.2796 13.3593 25.8106 0.0000 -9.2366 0.0000
# 2 13.3593 89.1377 18.4486 0.0000 -5.3385 0.0000
# 3 25.8106 18.4486 121.7141 0.0000 4.4230 0.0000
# 4 0.0000 0.0000 0.0000 28.8155 0.0000 3.3034
# 5 -9.2366 -5.3385 4.4230 0.0000 58.6489 0.0000
# 6 0.0000 0.0000 0.0000 3.3034 0.0000 26.2094
#
#
#
# Elastic Compliance Matrix: (Units=1/GPa)
#
#
# Indices 1 2 3 4 5 6 
#
# 1 0.008319 -0.000815 -0.001690 0.000000 0.001363 0.000000
# 2 -0.000815 0.011745 -0.001646 0.000000 0.001065 0.000000
# 3 -0.001690 -0.001646 0.008863 0.000000 -0.001084 0.000000
# 4 0.000000 0.000000 0.000000 0.035212 0.000000 -0.004438
# 5 0.001363 0.001065 -0.001084 0.000000 0.017444 0.000000
# 6 0.000000 0.000000 0.000000 -0.004438 0.000000 0.038714
#
#
# Mechanical properties :
#
#
# Convention : Reuss Voigt Hill
#
# Bulk Modulus (GPa) = 48.48637 50.48537 49.48587
# Shear Modulus (GPa) = 36.90729 41.50229 39.20479
#
# Velocity S-wave (km/s) = 3.86554 4.09911 3.98404
# Velocity P-wave (km/s) = 6.28916 6.54548 6.41860
#
# Compressibility (1/GPa) = 0.02062435
#
# Stress axis : x y z
#
# Youngs Moduli (GPa) = 120.21286 85.14088 112.82531
#
# Poissons Ratio (x) = 0.06942 0.19067
# Poissons Ratio (y) = 0.09801 0.18572
# Poissons Ratio (z) = 0.20316 0.14015
#
# Static dielectric constant tensor:
#      x y z
#    x 4.922420 0.000000 0.006360 
#    y 0.000000 4.127120 0.000000 
#    z 0.006360 0.000000 4.834760 
# 
# 
# High freq. dielectric constant tensor:
#      x y z
#    x 2.006970 0.000000 0.003240 
#    y 0.000000 1.949540 0.000000 
#    z 0.003240 0.000000 2.015190 
# 
# From -- ./inp_files/7062.got.cif
#   From: 2010.03.12/outbox.cif.g09.slc.cpg/sg4_4_cif.got.tgz:7062.got - 2010.03.31 09:31:35.
