data_PCOD8047689
_publ_section_title
;
Structure prediction by ZEFSAII (Michael W. Deem and Ramdas Pophale) SiO2 
 PCOD8047689
Probable space group: P 21
;
_chemical_formula_sum "Si O2"
_cell_formula_units_Z 16
_cell_length_a 8.448275
_cell_length_b 15.655527
_cell_length_c 5.612844
_cell_angle_alpha 90.000000
_cell_angle_beta 61.052196
_cell_angle_gamma 90.000000
_cell_volume 649.616482
_symmetry_space_group_name_H-M "P 21"
_symmetry_group_IT_number 4
_symmetry_cell_setting 'monoclinic'
loop_
_space_group_symop_operation_xyz
x,y,z
-x,1/2+y,-z
loop_
_atom_site_type_symbol
_atom_site_label
_atom_site_fract_x
_atom_site_fract_y
_atom_site_fract_z
Si Si1 0.982377 0.429690 0.067965
Si Si2 0.289224 0.556380 0.336011
Si Si3 0.108314 0.049607 0.240230
Si Si4 0.919191 0.268788 0.832424
Si Si5 0.741451 0.708185 0.652747
Si Si6 0.280929 0.887711 0.348621
Si Si7 0.329480 0.391142 0.091048
Si Si8 0.366441 0.648312 0.779157
O O1 0.164742 0.438272 0.081373
O O2 0.800360 0.401009 0.332888
O O3 0.951836 0.524912 0.984303
O O4 0.014667 0.355037 0.853799
O O5 0.364113 0.458078 0.282922
O O6 0.354500 0.594411 0.542997
O O7 0.072045 0.560091 0.472238
O O8 0.360997 0.600743 0.040248
O O9 0.229975 0.134755 0.166735
O O10 0.228620 0.969626 0.231942
O O11 0.793042 0.297949 0.702823
O O12 0.081177 0.205681 0.642404
O O13 0.792093 0.219638 0.115082
O O14 0.735393 0.799121 0.782464
O O15 0.563108 0.692951 0.625939
O O16 0.497367 0.881533 0.205359
#
# Coordination Sequence:
#
# PCOD8047689 Si02
#       8
#     2   2   2   2   2   2   2   2
#     4  11  25  48  81 113 158 217 268 338 415 485
#     4  12  27  54  80 116 163 215 265 339 404 493
#     4  11  25  49  77 110 160 210 270 332 413 474
#     4  11  25  48  77 115 157 213 261 346 398 495
#     4  12  26  51  78 120 156 212 273 339 404 490
#     4  11  24  51  76 113 161 206 272 325 417 483
#     4  12  25  51  82 114 159 210 274 331 415 489
#     4  12  29  52  81 117 164 205 275 332 408 477
#
# _framework density 24.629916999999999
#
# number of rings (size 3 to 8) (size 9 to 14) (size 15 to 20)
#    0.000    0.500    5.000    2.250    3.500    2.000 
#   22.500    0.000    0.000    0.000    0.000    0.000 
#    0.000    0.000    0.000    0.000    0.000    0.000 
#
# Total GULP energy -198330.042066 kJ/mol
# GULP energy per Si atom -12395.627629 kJ/mol
# Density = 2.457386 g / cm^3
# Si number density = 24.629917 Si / 1000 Ang^3
#
#
#
# Elastic Constant Matrix: (Units=GPa)
#
#
# Indices 1 2 3 4 5 6 
#
# 1 118.2746 44.0871 53.3072 0.0000 -22.3843 0.0000
# 2 44.0871 114.6043 35.8226 0.0000 3.4908 0.0000
# 3 53.3072 35.8226 108.2241 0.0000 -3.7432 0.0000
# 4 0.0000 0.0000 0.0000 35.9126 0.0000 -1.0250
# 5 -22.3843 3.4908 -3.7432 0.0000 49.5339 0.0000
# 6 0.0000 0.0000 0.0000 -1.0250 0.0000 32.3470
#
#
#
# Elastic Compliance Matrix: (Units=1/GPa)
#
#
# Indices 1 2 3 4 5 6 
#
# 1 0.013230 -0.003674 -0.005098 0.000000 0.005852 0.000000
# 2 -0.003674 0.010796 -0.001852 0.000000 -0.002561 0.000000
# 3 -0.005098 -0.001852 0.012321 0.000000 -0.001242 0.000000
# 4 0.000000 0.000000 0.000000 0.027871 0.000000 0.000883
# 5 0.005852 -0.002561 -0.001242 0.000000 0.022919 0.000000
# 6 0.000000 0.000000 0.000000 0.000883 0.000000 0.030943
#
#
# Mechanical properties :
#
#
# Convention : Reuss Voigt Hill
#
# Bulk Modulus (GPa) = 66.23273 67.50410 66.86842
# Shear Modulus (GPa) = 34.63532 37.41777 36.02655
#
# Velocity S-wave (km/s) = 3.75404 3.90192 3.82869
# Velocity P-wave (km/s) = 6.76313 6.91136 6.83765
#
# Compressibility (1/GPa) = 0.01509827
#
# Stress axis : x y z
#
# Youngs Moduli (GPa) = 75.58795 92.62614 81.16018
#
# Poissons Ratio (x) = 0.34032 0.41375
# Poissons Ratio (y) = 0.27772 0.15034
# Poissons Ratio (z) = 0.38534 0.17158
#
# Static dielectric constant tensor:
#      x y z
#    x 4.590110 0.000000 -0.172740 
#    y 0.000000 4.657660 0.000000 
#    z -0.172740 0.000000 4.458640 
# 
# 
# High freq. dielectric constant tensor:
#      x y z
#    x 1.979700 0.000000 -0.017100 
#    y 0.000000 1.995600 0.000000 
#    z -0.017100 0.000000 1.972820 
# 
# From -- ./inp_files/1843.got.cif
#   From: 2010.03.12/outbox.cif.g09.slc.cpg/sg4_1_cif.got.tgz:1843.got - 2010.03.31 09:31:35.
