data_PCOD8047911
_publ_section_title
;
Structure prediction by ZEFSAII (Michael W. Deem and Ramdas Pophale) SiO2 
 PCOD8047911
Probable space group: P 21
;
_chemical_formula_sum "Si O2"
_cell_formula_units_Z 14
_cell_length_a 18.840588
_cell_length_b 4.972068
_cell_length_c 9.099199
_cell_angle_alpha 90.000000
_cell_angle_beta 42.188622
_cell_angle_gamma 90.000000
_cell_volume 572.437667
_symmetry_space_group_name_H-M "P 21"
_symmetry_group_IT_number 4
_symmetry_cell_setting 'monoclinic'
loop_
_space_group_symop_operation_xyz
x,y,z
-x,1/2+y,-z
loop_
_atom_site_type_symbol
_atom_site_label
_atom_site_fract_x
_atom_site_fract_y
_atom_site_fract_z
Si Si1 0.008278 0.376670 0.892759
Si Si2 0.936466 0.872705 0.635178
Si Si3 0.269317 0.632483 0.101783
Si Si4 0.236150 0.560687 0.471856
Si Si5 0.826312 0.503933 0.996435
Si Si6 0.483652 0.476452 0.624809
Si Si7 0.311962 0.058572 0.524674
O O1 0.110654 0.497715 0.650965
O O2 0.957832 0.607611 0.075055
O O3 0.908643 0.292015 0.942270
O O4 0.000842 0.652416 0.441123
O O5 0.823108 0.913706 0.733693
O O6 0.092390 0.248931 0.162616
O O7 0.228215 0.881405 0.066292
O O8 0.367542 0.495427 0.871506
O O9 0.288806 0.695438 0.244158
O O10 0.256632 0.781319 0.564595
O O11 0.296766 0.290343 0.427655
O O12 0.737713 0.626690 0.239331
O O13 0.498481 0.680263 0.466812
O O14 0.563241 0.526069 0.637960
#
# Coordination Sequence:
#
# PCOD8047911 Si02
#       7
#     2   2   2   2   2   2   2
#     4  12  25  44  72 105 149 203 254 313 388 472
#     4  12  27  46  72 111 154 199 252 317 393 461
#     4  12  30  49  81 115 160 201 270 328 395 472
#     4  12  28  49  71 115 158 202 256 327 401 467
#     4  12  26  48  78 108 152 206 265 316 388 474
#     4  12  27  50  84 117 149 204 271 328 388 467
#     4  12  27  50  78 109 156 203 264 323 395 465
#
# _framework density 24.456814000000001
#
# number of rings (size 3 to 8) (size 9 to 14) (size 15 to 20)
#    0.000    0.000    5.714    2.571    6.000    1.143 
#    0.000    0.000    0.000    0.000    0.000    0.000 
#    0.000    0.000    0.000    0.000    0.000    0.000 
#
# Total GULP energy -173555.024310 kJ/mol
# GULP energy per Si atom -12396.787451 kJ/mol
# Density = 2.440115 g / cm^3
# Si number density = 24.456814 Si / 1000 Ang^3
#
#
#
# Elastic Constant Matrix: (Units=GPa)
#
#
# Indices 1 2 3 4 5 6 
#
# 1 98.0199 26.8333 32.8084 0.0000 -6.3803 0.0000
# 2 26.8333 100.7199 22.1217 0.0000 -6.6521 0.0000
# 3 32.8084 22.1217 144.3956 0.0000 -9.7946 0.0000
# 4 0.0000 0.0000 0.0000 30.1608 0.0000 4.6666
# 5 -6.3803 -6.6521 -9.7946 0.0000 39.8419 0.0000
# 6 0.0000 0.0000 0.0000 4.6666 0.0000 32.6601
#
#
#
# Elastic Compliance Matrix: (Units=1/GPa)
#
#
# Indices 1 2 3 4 5 6 
#
# 1 0.011703 -0.002574 -0.002203 0.000000 0.000903 0.000000
# 2 -0.002574 0.010913 -0.001008 0.000000 0.001162 0.000000
# 3 -0.002203 -0.001008 0.007673 0.000000 0.001365 0.000000
# 4 0.000000 0.000000 0.000000 0.033905 0.000000 -0.004845
# 5 0.000903 0.001162 0.001365 0.000000 0.025773 0.000000
# 6 0.000000 0.000000 0.000000 -0.004845 0.000000 0.031311
#
#
# Mechanical properties :
#
#
# Convention : Reuss Voigt Hill
#
# Bulk Modulus (GPa) = 53.42748 56.29580 54.86164
# Shear Modulus (GPa) = 35.94836 37.95735 36.95285
#
# Velocity S-wave (km/s) = 3.83805 3.94384 3.89130
# Velocity P-wave (km/s) = 6.44468 6.61868 6.53226
#
# Compressibility (1/GPa) = 0.01871696
#
# Stress axis : x y z
#
# Youngs Moduli (GPa) = 85.44819 91.63801 130.32522
#
# Poissons Ratio (x) = 0.23590 0.28717
# Poissons Ratio (y) = 0.21997 0.13138
# Poissons Ratio (z) = 0.18828 0.09238
#
# Static dielectric constant tensor:
#      x y z
#    x 4.554050 0.000000 0.022270 
#    y 0.000000 4.305280 0.000000 
#    z 0.022270 0.000000 4.559450 
# 
# 
# High freq. dielectric constant tensor:
#      x y z
#    x 1.974220 0.000000 -0.001800 
#    y 0.000000 1.970610 0.000000 
#    z -0.001800 0.000000 1.978360 
# 
# From -- ./inp_files/9825.got.cif
#   From: 2010.03.12/outbox.cif.g09.slc.cpg/sg4_5_cif.got.tgz:9825.got - 2010.03.31 09:31:35.
