data_PCOD8047518
_publ_section_title
;
Structure prediction by ZEFSAII (Michael W. Deem and Ramdas Pophale) SiO2 
 PCOD8047518
Probable space group: P 21
;
_chemical_formula_sum "Si O2"
_cell_formula_units_Z 12
_cell_length_a 9.180648
_cell_length_b 9.029838
_cell_length_c 13.688847
_cell_angle_alpha 90.000000
_cell_angle_beta 28.861190
_cell_angle_gamma 90.000000
_cell_volume 547.756835
_symmetry_space_group_name_H-M "P 21"
_symmetry_group_IT_number 4
_symmetry_cell_setting 'monoclinic'
loop_
_space_group_symop_operation_xyz
x,y,z
-x,1/2+y,-z
loop_
_atom_site_type_symbol
_atom_site_label
_atom_site_fract_x
_atom_site_fract_y
_atom_site_fract_z
Si Si1 0.495363 0.007080 0.136909
Si Si2 0.400558 0.322047 0.231257
Si Si3 0.268610 0.800296 0.443844
Si Si4 0.867990 0.528714 0.844013
Si Si5 0.581114 0.973632 0.586967
Si Si6 0.922915 0.355225 0.244892
O O1 0.564931 0.164618 0.145215
O O2 0.242784 0.030708 0.203236
O O3 0.415300 0.889296 0.268760
O O4 0.793522 0.960755 0.904961
O O5 0.300387 0.368721 0.397239
O O6 0.094738 0.298130 0.350837
O O7 0.636155 0.439746 0.047503
O O8 0.420595 0.638718 0.364813
O O9 0.305518 0.874684 0.529086
O O10 0.197607 0.454336 0.636670
O O11 0.934802 0.690311 0.850127
O O12 0.251809 0.914088 0.748487
#
# Coordination Sequence:
#
# PCOD8047518 Si02
#       6
#     2   2   2   2   2   2
#     4  12  23  41  73 104 135 186 239 286 345 416
#     4  12  23  41  73 104 135 186 239 286 345 416
#     4  11  23  46  71 100 138 189 235 284 348 418
#     4  11  23  46  71 100 138 189 235 284 348 418
#     4  11  26  45  68 104 146 182 231 292 354 415
#     4  11  26  45  68 104 146 182 231 292 354 415
#
# _framework density 21.907532
#
# number of rings (size 3 to 8) (size 9 to 14) (size 15 to 20)
#    0.000    0.667    6.667    1.000    0.000   10.667 
#    0.000    0.000    0.000    0.000    0.000    0.000 
#    0.000    0.000    0.000    0.000    0.000    0.000 
#
# Total GULP energy -148667.782225 kJ/mol
# GULP energy per Si atom -12388.981852 kJ/mol
# Density = 2.185767 g / cm^3
# Si number density = 21.907532 Si / 1000 Ang^3
#
#
#
# Elastic Constant Matrix: (Units=GPa)
#
#
# Indices 1 2 3 4 5 6 
#
# 1 87.2856 65.0232 27.0901 0.0000 -7.3421 0.0000
# 2 65.0232 147.5249 55.6449 0.0000 -6.7555 0.0000
# 3 27.0901 55.6449 70.4592 0.0000 -4.9545 0.0000
# 4 0.0000 0.0000 0.0000 39.5201 0.0000 1.5753
# 5 -7.3421 -6.7555 -4.9545 0.0000 26.9178 0.0000
# 6 0.0000 0.0000 0.0000 1.5753 0.0000 37.3374
#
#
#
# Elastic Compliance Matrix: (Units=1/GPa)
#
#
# Indices 1 2 3 4 5 6 
#
# 1 0.017297 -0.007210 -0.000762 0.000000 0.002768 0.000000
# 2 -0.007210 0.012688 -0.007257 0.000000 -0.000118 0.000000
# 3 -0.000762 -0.007257 0.020337 0.000000 0.001714 0.000000
# 4 0.000000 0.000000 0.000000 0.025346 0.000000 -0.001069
# 5 0.002768 -0.000118 0.001714 0.000000 0.038191 0.000000
# 6 0.000000 0.000000 0.000000 -0.001069 0.000000 0.026828
#
#
# Mechanical properties :
#
#
# Convention : Reuss Voigt Hill
#
# Bulk Modulus (GPa) = 50.33839 66.75402 58.54621
# Shear Modulus (GPa) = 28.12705 31.25581 29.69143
#
# Velocity S-wave (km/s) = 3.58704 3.78129 3.68544
# Velocity P-wave (km/s) = 6.33903 7.04281 6.70017
#
# Compressibility (1/GPa) = 0.01986555
#
# Stress axis : x y z
#
# Youngs Moduli (GPa) = 57.81450 78.81496 49.17161
#
# Poissons Ratio (x) = 0.56822 0.03746
# Poissons Ratio (y) = 0.41682 0.35682
# Poissons Ratio (z) = 0.04404 0.57193
#
# Static dielectric constant tensor:
#      x y z
#    x 3.814180 0.000000 -0.004380 
#    y 0.000000 4.135440 0.000000 
#    z -0.004380 0.000000 3.806970 
# 
# 
# High freq. dielectric constant tensor:
#      x y z
#    x 1.859150 0.000000 0.005010 
#    y 0.000000 1.864840 0.000000 
#    z 0.005010 0.000000 1.865760 
# 
# From -- ./inp_files/13632.got.cif
#   From: 2010.03.12/outbox.cif.g09.slc.cpg/sg4_7_cif.got.tgz:13632.got - 2010.03.31 09:31:35.
