data_PCOD8047085
_publ_section_title
;
Structure prediction by ZEFSAII (Michael W. Deem and Ramdas Pophale) SiO2 
 PCOD8047085
Probable space group: P 21
;
_chemical_formula_sum "Si O2"
_cell_formula_units_Z 16
_cell_length_a 8.687055
_cell_length_b 9.237111
_cell_length_c 9.613807
_cell_angle_alpha 90.000000
_cell_angle_beta 62.370201
_cell_angle_gamma 90.000000
_cell_volume 683.470028
_symmetry_space_group_name_H-M "P 21"
_symmetry_group_IT_number 4
_symmetry_cell_setting 'monoclinic'
loop_
_space_group_symop_operation_xyz
x,y,z
-x,1/2+y,-z
loop_
_atom_site_type_symbol
_atom_site_label
_atom_site_fract_x
_atom_site_fract_y
_atom_site_fract_z
Si Si1 0.959783 0.575290 0.689358
Si Si2 0.867538 0.586276 0.259886
Si Si3 0.257105 0.989463 0.971544
Si Si4 0.378749 0.585320 0.230899
Si Si5 0.680577 0.066619 0.301266
Si Si6 0.027952 0.399571 0.405806
Si Si7 0.470664 0.258522 0.573428
Si Si8 0.230011 0.675217 0.027334
O O1 0.135629 0.553880 0.700977
O O2 0.941002 0.443668 0.588319
O O3 0.795893 0.563942 0.861148
O O4 0.947149 0.727260 0.612121
O O5 0.719308 0.692266 0.378258
O O6 0.886041 0.440454 0.345200
O O7 0.060331 0.645277 0.189446
O O8 0.836777 0.575438 0.109711
O O9 0.190725 0.828513 0.978026
O O10 0.461644 0.978594 0.861586
O O11 0.212357 0.483757 0.325504
O O12 0.423289 0.691399 0.340532
O O13 0.372637 0.677612 0.090265
O O14 0.584187 0.215195 0.389828
O O15 0.555749 0.930929 0.396715
O O16 0.715576 0.065614 0.120081
#
# Coordination Sequence:
#
# PCOD8047085 Si02
#       8
#     2   2   2   2   2   2   2   2
#     4  12  27  47  74 109 149 197 248 299 371 439
#     4  10  24  44  70 104 138 192 238 300 360 428
#     4  11  25  44  73 100 143 184 242 296 365 431
#     4  10  26  46  68 110 144 182 240 306 366 426
#     4  12  27  47  74 109 149 197 248 299 371 439
#     4  11  27  46  75 106 152 189 247 304 363 445
#     4  11  27  46  75 106 152 189 247 304 363 445
#     4  11  25  44  73 100 143 184 242 296 365 431
#
# _framework density 23.409951
#
# number of rings (size 3 to 8) (size 9 to 14) (size 15 to 20)
#    0.000    1.000    2.500    1.500   14.000    3.000 
#    0.000    0.000    0.000    0.000    0.000    0.000 
#    0.000    0.000    0.000    0.000    0.000    0.000 
#
# Total GULP energy -198294.979588 kJ/mol
# GULP energy per Si atom -12393.436224 kJ/mol
# Density = 2.335667 g / cm^3
# Si number density = 23.409951 Si / 1000 Ang^3
#
#
#
# Elastic Constant Matrix: (Units=GPa)
#
#
# Indices 1 2 3 4 5 6 
#
# 1 77.9209 9.7842 30.7080 0.0000 15.4214 0.0000
# 2 9.7842 75.2756 1.2093 0.0000 5.2453 0.0000
# 3 30.7080 1.2093 109.0127 0.0000 12.0950 0.0000
# 4 0.0000 0.0000 0.0000 29.3858 0.0000 1.1355
# 5 15.4214 5.2453 12.0950 0.0000 21.5271 0.0000
# 6 0.0000 0.0000 0.0000 1.1355 0.0000 24.7379
#
#
#
# Elastic Compliance Matrix: (Units=1/GPa)
#
#
# Indices 1 2 3 4 5 6 
#
# 1 0.016243 -0.001406 -0.003527 0.000000 -0.009312 0.000000
# 2 -0.001406 0.013641 0.000535 0.000000 -0.002617 0.000000
# 3 -0.003527 0.000535 0.010553 0.000000 -0.003533 0.000000
# 4 0.000000 0.000000 0.000000 0.034091 0.000000 -0.001565
# 5 -0.009312 -0.002617 -0.003533 0.000000 0.055747 0.000000
# 6 0.000000 0.000000 0.000000 -0.001565 0.000000 0.040496
#
#
# Mechanical properties :
#
#
# Convention : Reuss Voigt Hill
#
# Bulk Modulus (GPa) = 31.60373 38.40136 35.00254
# Shear Modulus (GPa) = 26.30038 29.83067 28.06553
#
# Velocity S-wave (km/s) = 3.35546 3.57357 3.46623
# Velocity P-wave (km/s) = 5.34243 5.78504 5.56813
#
# Compressibility (1/GPa) = 0.03164184
#
# Stress axis : x y z
#
# Youngs Moduli (GPa) = 61.56574 73.30838 94.76203
#
# Poissons Ratio (x) = 0.10305 0.33420
# Poissons Ratio (y) = 0.08654 -0.05070
# Poissons Ratio (z) = 0.21713 -0.03922
#
# Static dielectric constant tensor:
#      x y z
#    x 4.470860 0.000000 -0.004960 
#    y 0.000000 4.133040 0.000000 
#    z -0.004960 0.000000 4.587970 
# 
# 
# High freq. dielectric constant tensor:
#      x y z
#    x 1.937380 0.000000 -0.000300 
#    y 0.000000 1.912860 0.000000 
#    z -0.000300 0.000000 1.942920 
# 
# From -- ./inp_files/5425.got.cif
#   From: 2010.03.12/outbox.cif.g09.slc.cpg/sg4_3_cif.got.tgz:5425.got - 2010.03.31 09:31:35.
