data_PCOD8047334
_publ_section_title
;
Structure prediction by ZEFSAII (Michael W. Deem and Ramdas Pophale) SiO2 
 PCOD8047334
Probable space group: P 21
;
_chemical_formula_sum "Si O2"
_cell_formula_units_Z 16
_cell_length_a 8.136204
_cell_length_b 8.697443
_cell_length_c 17.488918
_cell_angle_alpha 90.000000
_cell_angle_beta 144.361208
_cell_angle_gamma 90.000000
_cell_volume 721.109992
_symmetry_space_group_name_H-M "P 21"
_symmetry_group_IT_number 4
_symmetry_cell_setting 'monoclinic'
loop_
_space_group_symop_operation_xyz
x,y,z
-x,1/2+y,-z
loop_
_atom_site_type_symbol
_atom_site_label
_atom_site_fract_x
_atom_site_fract_y
_atom_site_fract_z
Si Si1 0.116716 0.980100 0.147305
Si Si2 0.161688 0.036986 0.442411
Si Si3 0.140496 0.194279 0.289735
Si Si4 0.244935 0.704638 0.498305
Si Si5 0.695120 0.155034 0.736075
Si Si6 0.048182 0.015219 0.737813
Si Si7 0.622779 0.167185 0.289303
Si Si8 0.412716 0.484699 0.151938
O O1 0.258530 0.838148 0.245661
O O2 0.003334 0.107169 0.165513
O O3 0.348732 0.059118 0.180218
O O4 0.853339 0.926169 0.997402
O O5 0.259658 0.064559 0.392949
O O6 0.390500 0.111935 0.585922
O O7 0.861281 0.123387 0.319754
O O8 0.070904 0.860993 0.421742
O O9 0.435375 0.272215 0.376904
O O10 0.948883 0.330336 0.251576
O O11 0.202089 0.633538 0.565705
O O12 0.177149 0.576704 0.409283
O O13 0.959486 0.086020 0.786864
O O14 0.695647 0.104303 0.825209
O O15 0.357410 0.058733 0.820447
O O16 0.543556 0.343960 0.247989
#
# Coordination Sequence:
#
# PCOD8047334 Si02
#       8
#     2   2   2   2   2   2   2   2
#     4  11  28  47  70  98 146 195 242 288 351 419
#     4  12  23  39  69 104 140 168 229 301 363 422
#     4  11  22  43  68 101 142 178 226 296 358 420
#     4  11  22  40  66 104 142 177 226 287 374 425
#     4  12  25  45  75 106 141 189 235 300 359 425
#     4  12  25  43  75 106 141 187 232 292 361 424
#     4  11  25  42  69 101 139 188 231 295 359 415
#     4  12  26  51  68 102 145 196 245 287 341 434
#
# _framework density 22.188015
#
# number of rings (size 3 to 8) (size 9 to 14) (size 15 to 20)
#    0.000    0.500    5.000    3.000    7.000    1.000 
#    2.250    0.000    0.000    0.000    0.000    0.000 
#    0.000    0.000    0.000    0.000    0.000    0.000 
#
# Total GULP energy -198258.684389 kJ/mol
# GULP energy per Si atom -12391.167774 kJ/mol
# Density = 2.213751 g / cm^3
# Si number density = 22.188015 Si / 1000 Ang^3
#
#
#
# Elastic Constant Matrix: (Units=GPa)
#
#
# Indices 1 2 3 4 5 6 
#
# 1 108.3370 37.5019 40.0476 0.0000 8.4902 0.0000
# 2 37.5019 98.2446 25.6493 0.0000 -2.0825 0.0000
# 3 40.0476 25.6493 85.3238 0.0000 -6.4280 0.0000
# 4 0.0000 0.0000 0.0000 25.6586 0.0000 -3.5072
# 5 8.4902 -2.0825 -6.4280 0.0000 24.9214 0.0000
# 6 0.0000 0.0000 0.0000 -3.5072 0.0000 31.8363
#
#
#
# Elastic Compliance Matrix: (Units=1/GPa)
#
#
# Indices 1 2 3 4 5 6 
#
# 1 0.013001 -0.003667 -0.005463 0.000000 -0.006144 0.000000
# 2 -0.003667 0.012080 -0.001775 0.000000 0.001801 0.000000
# 3 -0.005463 -0.001775 0.015243 0.000000 0.005644 0.000000
# 4 0.000000 0.000000 0.000000 0.039569 0.000000 0.004359
# 5 -0.006144 0.001801 0.005644 0.000000 0.043826 0.000000
# 6 0.000000 0.000000 0.000000 0.004359 0.000000 0.031891
#
#
# Mechanical properties :
#
#
# Convention : Reuss Voigt Hill
#
# Bulk Modulus (GPa) = 54.00970 55.36698 54.68834
# Shear Modulus (GPa) = 27.23485 29.06371 28.14928
#
# Velocity S-wave (km/s) = 3.50731 3.62316 3.56570
# Velocity P-wave (km/s) = 6.38720 6.52003 6.45395
#
# Compressibility (1/GPa) = 0.01851519
#
# Stress axis : x y z
#
# Youngs Moduli (GPa) = 76.92004 82.78284 65.60523
#
# Poissons Ratio (x) = 0.30354 0.35837
# Poissons Ratio (y) = 0.28204 0.11643
# Poissons Ratio (z) = 0.42018 0.14691
#
# Static dielectric constant tensor:
#      x y z
#    x 4.418140 0.000000 0.049170 
#    y 0.000000 3.871920 0.000000 
#    z 0.049170 0.000000 3.610350 
# 
# 
# High freq. dielectric constant tensor:
#      x y z
#    x 1.892990 0.000000 -0.002710 
#    y 0.000000 1.874510 0.000000 
#    z -0.002710 0.000000 1.847520 
# 
# From -- ./inp_files/5424.got.cif
#   From: 2010.03.12/outbox.cif.g09.slc.cpg/sg4_3_cif.got.tgz:5424.got - 2010.03.31 09:31:35.
