data_PCOD8047091
_publ_section_title
;
Structure prediction by ZEFSAII (Michael W. Deem and Ramdas Pophale) SiO2 
 PCOD8047091
Probable space group: P 21
;
_chemical_formula_sum "Si O2"
_cell_formula_units_Z 14
_cell_length_a 10.053822
_cell_length_b 11.196131
_cell_length_c 10.053704
_cell_angle_alpha 90.000000
_cell_angle_beta 143.101265
_cell_angle_gamma 90.000000
_cell_volume 679.466110
_symmetry_space_group_name_H-M "P 21"
_symmetry_group_IT_number 4
_symmetry_cell_setting 'monoclinic'
loop_
_space_group_symop_operation_xyz
x,y,z
-x,1/2+y,-z
loop_
_atom_site_type_symbol
_atom_site_label
_atom_site_fract_x
_atom_site_fract_y
_atom_site_fract_z
Si Si1 0.842935 0.016140 0.000222
Si Si2 0.637219 0.488224 0.290748
Si Si3 0.188885 0.832201 0.339848
Si Si4 0.160163 0.552096 0.311116
Si Si5 0.790763 0.396074 0.137223
Si Si6 0.119283 0.192150 0.380725
Si Si7 0.500216 0.868157 0.342939
O O1 0.808370 0.015046 0.815940
O O2 0.611225 0.035840 0.889412
O O3 0.005224 0.125978 0.165197
O O4 0.946324 0.891288 0.133516
O O5 0.680163 0.381142 0.428063
O O6 0.661215 0.442155 0.161206
O O7 0.811171 0.596107 0.452198
O O8 0.163303 0.692149 0.336695
O O9 0.315951 0.869258 0.308396
O O10 0.366494 0.493011 0.553684
O O11 0.928076 0.503152 0.180156
O O12 0.952215 0.288195 0.311189
O O13 0.610610 0.348448 0.888782
O O14 0.334803 0.258321 0.494768
#
# Coordination Sequence:
#
# PCOD8047091 Si02
#       7
#     2   2   2   2   2   2   2
#     4  11  23  44  69 100 131 174 218 272 330 386
#     4  11  25  44  67  99 135 173 216 272 333 387
#     4  11  24  41  70 100 132 169 225 270 321 395
#     4  11  24  41  70 100 132 169 225 270 321 395
#     4  11  25  44  67  99 135 173 216 272 333 387
#     4  10  24  44  72  92 136 174 220 266 334 392
#     4  11  23  44  69 100 131 174 218 272 330 386
#
# _framework density 20.604412
#
# number of rings (size 3 to 8) (size 9 to 14) (size 15 to 20)
#    0.000    1.143    2.857    2.571    6.000    5.714 
#    5.143    0.000    0.000    0.000    0.000    0.000 
#    0.000    0.000    0.000    0.000    0.000    0.000 
#
# Total GULP energy -173685.809687 kJ/mol
# GULP energy per Si atom -12406.129263 kJ/mol
# Density = 2.055752 g / cm^3
# Si number density = 20.604412 Si / 1000 Ang^3
#
#
#
# Elastic Constant Matrix: (Units=GPa)
#
#
# Indices 1 2 3 4 5 6 
#
# 1 126.6771 28.2445 55.3202 0.0000 -12.7648 0.0000
# 2 28.2445 142.6676 45.3107 0.0000 7.1603 0.0000
# 3 55.3202 45.3107 114.7264 0.0000 7.7589 0.0000
# 4 0.0000 0.0000 0.0000 27.5564 0.0000 5.5478
# 5 -12.7648 7.1603 7.7589 0.0000 29.0691 0.0000
# 6 0.0000 0.0000 0.0000 5.5478 0.0000 14.3339
#
#
#
# Elastic Compliance Matrix: (Units=1/GPa)
#
#
# Indices 1 2 3 4 5 6 
#
# 1 0.011131 -0.000786 -0.005500 0.000000 0.006549 0.000000
# 2 -0.000786 0.008108 -0.002714 0.000000 -0.001618 0.000000
# 3 -0.005500 -0.002714 0.012789 0.000000 -0.005160 0.000000
# 4 0.000000 0.000000 0.000000 0.039356 0.000000 -0.015232
# 5 0.006549 -0.001618 -0.005160 0.000000 0.039053 0.000000
# 6 0.000000 0.000000 0.000000 -0.015232 0.000000 0.075660
#
#
# Mechanical properties :
#
#
# Convention : Reuss Voigt Hill
#
# Bulk Modulus (GPa) = 71.27989 71.31354 71.29672
# Shear Modulus (GPa) = 23.94949 31.20493 27.57721
#
# Velocity S-wave (km/s) = 3.41302 3.89585 3.66240
# Velocity P-wave (km/s) = 7.08528 7.41099 7.24997
#
# Compressibility (1/GPa) = 0.01402920
#
# Stress axis : x y z
#
# Youngs Moduli (GPa) = 89.83871 123.33537 78.19025
#
# Poissons Ratio (x) = 0.09689 0.43005
# Poissons Ratio (y) = 0.07058 0.21221
# Poissons Ratio (z) = 0.49411 0.33473
#
# Static dielectric constant tensor:
#      x y z
#    x 3.545760 0.000000 0.166320 
#    y 0.000000 3.847080 0.000000 
#    z 0.166320 0.000000 3.942050 
# 
# 
# High freq. dielectric constant tensor:
#      x y z
#    x 1.792910 0.000000 0.010420 
#    y 0.000000 1.816860 0.000000 
#    z 0.010420 0.000000 1.817730 
# 
# From -- ./inp_files/1115.got.cif
#   From: 2010.03.12/outbox.cif.g09.slc.cpg/sg4_1_cif.got.tgz:1115.got - 2010.03.31 09:31:35.
