data_PCOD8047113
_publ_section_title
;
Structure prediction by ZEFSAII (Michael W. Deem and Ramdas Pophale) SiO2 
 PCOD8047113
Probable space group: P 21
;
_chemical_formula_sum "Si O2"
_cell_formula_units_Z 8
_cell_length_a 12.929803
_cell_length_b 4.936081
_cell_length_c 4.943382
_cell_angle_alpha 90.000000
_cell_angle_beta 108.432102
_cell_angle_gamma 90.000000
_cell_volume 299.313844
_symmetry_space_group_name_H-M "P 21"
_symmetry_group_IT_number 4
_symmetry_cell_setting 'monoclinic'
loop_
_space_group_symop_operation_xyz
x,y,z
-x,1/2+y,-z
loop_
_atom_site_type_symbol
_atom_site_label
_atom_site_fract_x
_atom_site_fract_y
_atom_site_fract_z
Si Si1 0.864868 0.061930 0.509393
Si Si2 0.283735 0.935235 0.334787
Si Si3 0.427329 0.011195 0.944628
Si Si4 0.103672 0.065168 0.823580
O O1 0.759685 0.139476 0.603229
O O2 0.871772 0.263825 0.259568
O O3 0.975358 0.102827 0.781138
O O4 0.854613 0.763214 0.379486
O O5 0.346729 0.082216 0.630650
O O6 0.362480 0.891439 0.145830
O O7 0.176554 0.113283 0.155226
O O8 0.512832 0.785255 0.917250
#
# Coordination Sequence:
#
# PCOD8047113 Si02
#       4
#     2   2   2   2
#     4  10  24  45  74 116 161 200 248 304 380 477
#     4  12  26  52  80 110 154 206 250 320 396 448
#     4  12  30  52  76 110 146 200 270 330 378 446
#     4  10  24  45  74 116 161 200 248 304 380 477
#
# _framework density 26.727796999999999
#
# number of rings (size 3 to 8) (size 9 to 14) (size 15 to 20)
#    0.000    1.000    2.500    1.500    3.500   12.000 
#    0.000    0.000    0.000    0.000    0.000    0.000 
#    0.000    0.000    0.000    0.000    0.000    0.000 
#
# Total GULP energy -99236.987197 kJ/mol
# GULP energy per Si atom -12404.623400 kJ/mol
# Density = 2.666696 g / cm^3
# Si number density = 26.727797 Si / 1000 Ang^3
#
#
#
# Elastic Constant Matrix: (Units=GPa)
#
#
# Indices 1 2 3 4 5 6 
#
# 1 101.4261 1.2056 50.1620 0.0000 11.1120 0.0000
# 2 1.2056 64.7457 19.8875 0.0000 22.7267 0.0000
# 3 50.1620 19.8875 174.8617 0.0000 24.7585 0.0000
# 4 0.0000 0.0000 0.0000 20.5199 0.0000 7.1565
# 5 11.1120 22.7267 24.7585 0.0000 52.8166 0.0000
# 6 0.0000 0.0000 0.0000 7.1565 0.0000 30.3447
#
#
#
# Elastic Compliance Matrix: (Units=1/GPa)
#
#
# Indices 1 2 3 4 5 6 
#
# 1 0.011625 0.001306 -0.003275 0.000000 -0.001473 0.000000
# 2 0.001306 0.018514 -0.001407 0.000000 -0.007582 0.000000
# 3 -0.003275 -0.001407 0.007107 0.000000 -0.002037 0.000000
# 4 0.000000 0.000000 0.000000 0.053101 0.000000 -0.012523
# 5 -0.001473 -0.007582 -0.002037 0.000000 0.023461 0.000000
# 6 0.000000 0.000000 0.000000 -0.012523 0.000000 0.035908
#
#
# Mechanical properties :
#
#
# Convention : Reuss Voigt Hill
#
# Bulk Modulus (GPa) = 32.79217 53.72705 43.25961
# Shear Modulus (GPa) = 30.00644 38.72147 34.36395
#
# Velocity S-wave (km/s) = 3.35426 3.81035 3.58956
# Velocity P-wave (km/s) = 5.22465 6.28519 5.77930
#
# Compressibility (1/GPa) = 0.03049509
#
# Stress axis : x y z
#
# Youngs Moduli (GPa) = 86.02268 54.01243 140.71285
#
# Poissons Ratio (x) = -0.07056 0.46081
# Poissons Ratio (y) = -0.11238 0.19797
# Poissons Ratio (z) = 0.28171 0.07599
#
# Static dielectric constant tensor:
#      x y z
#    x 4.945070 0.000000 0.373520 
#    y 0.000000 4.499520 0.000000 
#    z 0.373520 0.000000 4.930050 
# 
# 
# High freq. dielectric constant tensor:
#      x y z
#    x 2.081270 0.000000 0.007010 
#    y 0.000000 2.061810 0.000000 
#    z 0.007010 0.000000 2.085440 
# 
# From -- ./inp_files/2279.got.cif
#   From: 2010.03.12/outbox.cif.g09.slc.cpg/sg4_2_cif.got.tgz:2279.got - 2010.03.31 09:31:35.
