data_PCOD8047655
_publ_section_title
;
Structure prediction by ZEFSAII (Michael W. Deem and Ramdas Pophale) SiO2 
 PCOD8047655
Probable space group: P 21
;
_chemical_formula_sum "Si O2"
_cell_formula_units_Z 16
_cell_length_a 8.416310
_cell_length_b 13.549652
_cell_length_c 12.219086
_cell_angle_alpha 90.000000
_cell_angle_beta 29.716226
_cell_angle_gamma 90.000000
_cell_volume 690.735175
_symmetry_space_group_name_H-M "P 21"
_symmetry_group_IT_number 4
_symmetry_cell_setting 'monoclinic'
loop_
_space_group_symop_operation_xyz
x,y,z
-x,1/2+y,-z
loop_
_atom_site_type_symbol
_atom_site_label
_atom_site_fract_x
_atom_site_fract_y
_atom_site_fract_z
Si Si1 0.144551 0.803890 0.788961
Si Si2 0.688516 0.548408 0.554885
Si Si3 0.285844 0.188971 0.643525
Si Si4 0.348332 0.148891 0.852028
Si Si5 0.995346 0.230801 0.534405
Si Si6 0.984592 0.956032 0.069019
Si Si7 0.865623 0.873561 0.735781
Si Si8 0.871117 0.340658 0.818793
O O1 0.505985 0.770819 0.547843
O O2 0.001788 0.867611 0.776006
O O3 0.952990 0.702000 0.913565
O O4 0.112879 0.865470 0.919424
O O5 0.700399 0.580958 0.419846
O O6 0.341564 0.500618 0.787080
O O7 0.736058 0.648371 0.597904
O O8 0.966632 0.469984 0.417272
O O9 0.409614 0.185571 0.692182
O O10 0.923683 0.233304 0.847232
O O11 0.656812 0.173838 0.739969
O O12 0.274177 0.033509 0.895753
O O13 0.986023 0.323527 0.624792
O O14 0.053983 0.275054 0.380041
O O15 0.924051 0.918868 0.230216
O O16 0.485352 0.883392 0.965451
#
# Coordination Sequence:
#
# PCOD8047655 Si02
#       8
#     2   2   2   2   2   2   2   2
#     4  12  24  47  74 104 152 187 236 308 363 424
#     4  11  26  48  71 110 143 194 246 295 364 434
#     4  11  24  47  74 102 148 192 242 300 360 430
#     4  12  23  47  73 110 141 189 244 301 364 432
#     4  11  26  49  72 103 151 191 235 301 369 429
#     4  12  26  45  77 110 142 191 249 299 361 437
#     4  12  25  48  71 105 149 189 239 300 363 436
#     4  11  26  43  72 102 142 189 239 288 364 422
#
# _framework density 23.163726
#
# number of rings (size 3 to 8) (size 9 to 14) (size 15 to 20)
#    0.000    0.500    5.000    3.000    5.250    0.000 
#    4.500    0.000    0.000    0.000    0.000    0.000 
#    0.000    0.000    0.000    0.000    0.000    0.000 
#
# Total GULP energy -198359.122643 kJ/mol
# GULP energy per Si atom -12397.445165 kJ/mol
# Density = 2.311100 g / cm^3
# Si number density = 23.163726 Si / 1000 Ang^3
#
#
#
# Elastic Constant Matrix: (Units=GPa)
#
#
# Indices 1 2 3 4 5 6 
#
# 1 95.7320 25.0298 19.0089 0.0000 -0.6472 0.0000
# 2 25.0298 88.4675 28.0415 0.0000 -4.8807 0.0000
# 3 19.0089 28.0415 59.4008 0.0000 -6.6074 0.0000
# 4 0.0000 0.0000 0.0000 43.1633 0.0000 0.1824
# 5 -0.6472 -4.8807 -6.6074 0.0000 31.6543 0.0000
# 6 0.0000 0.0000 0.0000 0.1824 0.0000 50.1570
#
#
#
# Elastic Compliance Matrix: (Units=1/GPa)
#
#
# Indices 1 2 3 4 5 6 
#
# 1 0.011613 -0.002495 -0.002616 0.000000 -0.000693 0.000000
# 2 -0.002495 0.013846 -0.005637 0.000000 0.000907 0.000000
# 3 -0.002616 -0.005637 0.020711 0.000000 0.003401 0.000000
# 4 0.000000 0.000000 0.000000 0.023168 0.000000 -0.000084
# 5 -0.000693 0.000907 0.003401 0.000000 0.032427 0.000000
# 6 0.000000 0.000000 0.000000 -0.000084 0.000000 0.019938
#
#
# Mechanical properties :
#
#
# Convention : Reuss Voigt Hill
#
# Bulk Modulus (GPa) = 40.52655 43.08454 41.80554
# Shear Modulus (GPa) = 33.02004 36.42959 34.72481
#
# Velocity S-wave (km/s) = 3.77968 3.97003 3.87603
# Velocity P-wave (km/s) = 6.04828 6.29724 6.17402
#
# Compressibility (1/GPa) = 0.02467518
#
# Stress axis : x y z
#
# Youngs Moduli (GPa) = 86.11206 72.22159 48.28295
#
# Poissons Ratio (x) = 0.18017 0.12629
# Poissons Ratio (y) = 0.21483 0.27218
# Poissons Ratio (z) = 0.22524 0.40713
#
# Static dielectric constant tensor:
#      x y z
#    x 4.290250 0.000000 -0.007450 
#    y 0.000000 4.154500 0.000000 
#    z -0.007450 0.000000 3.958900 
# 
# 
# High freq. dielectric constant tensor:
#      x y z
#    x 1.930140 0.000000 -0.007120 
#    y 0.000000 1.916610 0.000000 
#    z -0.007120 0.000000 1.901280 
# 
# From -- ./inp_files/4703.got.cif
#   From: 2010.03.12/outbox.cif.g09.slc.cpg/sg4_3_cif.got.tgz:4703.got - 2010.03.31 09:31:35.
