data_PCOD8047270
_publ_section_title
;
Structure prediction by ZEFSAII (Michael W. Deem and Ramdas Pophale) SiO2 
 PCOD8047270
Probable space group: P 21
;
_chemical_formula_sum "Si O2"
_cell_formula_units_Z 16
_cell_length_a 7.633917
_cell_length_b 8.684641
_cell_length_c 18.696478
_cell_angle_alpha 90.000000
_cell_angle_beta 35.680956
_cell_angle_gamma 90.000000
_cell_volume 722.985660
_symmetry_space_group_name_H-M "P 21"
_symmetry_group_IT_number 4
_symmetry_cell_setting 'monoclinic'
loop_
_space_group_symop_operation_xyz
x,y,z
-x,1/2+y,-z
loop_
_atom_site_type_symbol
_atom_site_label
_atom_site_fract_x
_atom_site_fract_y
_atom_site_fract_z
Si Si1 0.256000 0.018790 0.841960
Si Si2 0.905523 0.189278 0.071479
Si Si3 0.843776 0.183784 0.613975
Si Si4 0.138201 0.521310 0.159014
Si Si5 0.796773 0.166060 0.461604
Si Si6 0.642111 0.485006 0.754045
Si Si7 0.476560 0.304291 0.952138
Si Si8 0.233900 0.001647 0.583379
O O1 0.594031 0.075475 0.732510
O O2 0.151355 0.000874 0.795153
O O3 0.243859 0.857030 0.887598
O O4 0.032645 0.141280 0.952201
O O5 0.652410 0.068105 0.181481
O O6 0.184358 0.197074 0.034105
O O7 0.867227 0.156729 0.522261
O O8 0.766117 0.360761 0.656298
O O9 0.151760 0.129521 0.550233
O O10 0.241662 0.698751 0.122844
O O11 0.042887 0.478734 0.270451
O O12 0.408225 0.411702 0.042960
O O13 0.526132 0.054610 0.529596
O O14 0.702376 0.339012 0.474453
O O15 0.095362 0.110689 0.320796
O O16 0.552273 0.410027 0.859036
#
# Coordination Sequence:
#
# PCOD8047270 Si02
#       8
#     2   2   2   2   2   2   2   2
#     4  11  21  40  71  98 145 178 232 285 350 423
#     4  11  21  42  67 105 134 186 226 288 355 414
#     4  12  24  49  72 103 140 190 238 291 349 413
#     4  11  24  44  68 105 141 182 228 293 357 417
#     4  12  29  47  74 106 139 193 242 290 352 415
#     4  12  24  45  73 102 141 186 239 288 353 422
#     4  11  25  43  69 105 139 181 228 290 359 427
#     4  12  26  50  74 102 147 184 237 303 343 421
#
# _framework density 22.130451000000001
#
# number of rings (size 3 to 8) (size 9 to 14) (size 15 to 20)
#    0.000    0.500    6.250    2.250    1.750    3.000 
#    9.000    0.000    0.000    0.000    0.000    0.000 
#    0.000    0.000    0.000    0.000    0.000    0.000 
#
# Total GULP energy -198451.666206 kJ/mol
# GULP energy per Si atom -12403.229138 kJ/mol
# Density = 2.208008 g / cm^3
# Si number density = 22.130451 Si / 1000 Ang^3
#
#
#
# Elastic Constant Matrix: (Units=GPa)
#
#
# Indices 1 2 3 4 5 6 
#
# 1 95.4581 33.5018 37.9715 0.0000 15.2192 0.0000
# 2 33.5018 108.7419 38.6959 0.0000 11.1595 0.0000
# 3 37.9715 38.6959 90.6183 0.0000 2.0580 0.0000
# 4 0.0000 0.0000 0.0000 41.4603 0.0000 -7.9485
# 5 15.2192 11.1595 2.0580 0.0000 23.8083 0.0000
# 6 0.0000 0.0000 0.0000 -7.9485 0.0000 36.9341
#
#
#
# Elastic Compliance Matrix: (Units=1/GPa)
#
#
# Indices 1 2 3 4 5 6 
#
# 1 0.014394 -0.001816 -0.005076 0.000000 -0.007911 0.000000
# 2 -0.001816 0.011623 -0.004113 0.000000 -0.003931 0.000000
# 3 -0.005076 -0.004113 0.014830 0.000000 0.003891 0.000000
# 4 0.000000 0.000000 0.000000 0.025157 0.000000 0.005414
# 5 -0.007911 -0.003931 0.003891 0.000000 0.048566 0.000000
# 6 0.000000 0.000000 0.000000 0.005414 0.000000 0.028240
#
#
# Mechanical properties :
#
#
# Convention : Reuss Voigt Hill
#
# Bulk Modulus (GPa) = 53.08916 57.23962 55.16439
# Shear Modulus (GPa) = 29.22287 32.75047 30.98667
#
# Velocity S-wave (km/s) = 3.63779 3.85110 3.74596
# Velocity P-wave (km/s) = 6.45646 6.75984 6.60989
#
# Compressibility (1/GPa) = 0.01883624
#
# Stress axis : x y z
#
# Youngs Moduli (GPa) = 69.47488 86.03912 67.43012
#
# Poissons Ratio (x) = 0.15627 0.34228
# Poissons Ratio (y) = 0.12619 0.27732
# Poissons Ratio (z) = 0.35266 0.35386
#
# Static dielectric constant tensor:
#      x y z
#    x 3.823350 0.000000 -0.079240 
#    y 0.000000 4.148990 0.000000 
#    z -0.079240 0.000000 4.007460 
# 
# 
# High freq. dielectric constant tensor:
#      x y z
#    x 1.865390 0.000000 -0.004720 
#    y 0.000000 1.881000 0.000000 
#    z -0.004720 0.000000 1.873270 
# 
# From -- ./inp_files/15618.got.cif
#   From: 2010.03.12/outbox.cif.g09.slc.cpg/sg4_8_cif.got.tgz:15618.got - 2010.03.31 09:31:35.
