data_PCOD8047854
_publ_section_title
;
Structure prediction by ZEFSAII (Michael W. Deem and Ramdas Pophale) SiO2 
 PCOD8047854
Probable space group: P 21
;
_chemical_formula_sum "Si O2"
_cell_formula_units_Z 16
_cell_length_a 11.570015
_cell_length_b 5.536331
_cell_length_c 12.968586
_cell_angle_alpha 90.000000
_cell_angle_beta 52.395588
_cell_angle_gamma 90.000000
_cell_volume 658.122621
_symmetry_space_group_name_H-M "P 21"
_symmetry_group_IT_number 4
_symmetry_cell_setting 'monoclinic'
loop_
_space_group_symop_operation_xyz
x,y,z
-x,1/2+y,-z
loop_
_atom_site_type_symbol
_atom_site_label
_atom_site_fract_x
_atom_site_fract_y
_atom_site_fract_z
Si Si1 0.355001 0.788820 0.678195
Si Si2 0.422451 0.269446 0.019539
Si Si3 0.065015 0.353505 0.926302
Si Si4 0.897668 0.003775 0.302072
Si Si5 0.876321 0.812716 0.708541
Si Si6 0.357806 0.189833 0.820438
Si Si7 0.872887 0.637631 0.483493
Si Si8 0.586344 0.424236 0.571553
O O1 0.231657 0.640983 0.684887
O O2 0.483633 0.643130 0.665574
O O3 0.428350 0.937762 0.544044
O O4 0.284802 0.949625 0.808348
O O5 0.282545 0.360812 0.159395
O O6 0.516138 0.520048 0.961699
O O7 0.387069 0.174504 0.924969
O O8 0.047742 0.307230 0.812291
O O9 0.235954 0.395161 0.864863
O O10 0.995392 0.617064 0.984718
O O11 0.836319 0.879438 0.439320
O O12 0.033651 0.171293 0.254367
O O13 0.862007 0.663673 0.611178
O O14 0.962682 0.059730 0.636164
O O15 0.510185 0.202390 0.673410
O O16 0.754458 0.435336 0.516579
#
# Coordination Sequence:
#
# PCOD8047854 Si02
#       8
#     2   2   2   2   2   2   2   2
#     4  12  24  45  73 120 156 205 257 332 405 488
#     4  12  33  56  83 118 163 221 280 337 405 492
#     4  12  28  48  74 112 153 208 262 324 404 486
#     4  12  26  46  76 113 157 201 265 333 401 482
#     4  12  28  51  80 113 161 210 281 333 412 483
#     4  12  28  47  78 110 159 210 264 330 413 488
#     4  12  27  46  78 114 154 212 270 342 405 475
#     4  12  24  43  76 114 159 201 263 331 407 486
#
# _framework density 24.311581
#
# number of rings (size 3 to 8) (size 9 to 14) (size 15 to 20)
#    0.000    0.000    5.000    3.750    8.750    1.000 
#    0.000    0.000    0.000    0.000    0.000    0.000 
#    0.000    0.000    0.000    0.000    0.000    0.000 
#
# Total GULP energy -198280.524696 kJ/mol
# GULP energy per Si atom -12392.532793 kJ/mol
# Density = 2.425625 g / cm^3
# Si number density = 24.311581 Si / 1000 Ang^3
#
#
#
# Elastic Constant Matrix: (Units=GPa)
#
#
# Indices 1 2 3 4 5 6 
#
# 1 111.7413 32.6894 53.4174 0.0000 4.9999 0.0000
# 2 32.6894 83.4169 23.7475 0.0000 -1.2058 0.0000
# 3 53.4174 23.7475 133.5014 0.0000 4.7743 0.0000
# 4 0.0000 0.0000 0.0000 37.6601 0.0000 -0.8963
# 5 4.9999 -1.2058 4.7743 0.0000 50.6618 0.0000
# 6 0.0000 0.0000 0.0000 -0.8963 0.0000 38.1543
#
#
#
# Elastic Compliance Matrix: (Units=1/GPa)
#
#
# Indices 1 2 3 4 5 6 
#
# 1 0.012004 -0.003537 -0.004142 0.000000 -0.000878 0.000000
# 2 -0.003537 0.013683 -0.001046 0.000000 0.000773 0.000000
# 3 -0.004142 -0.001046 0.009352 0.000000 -0.000497 0.000000
# 4 0.000000 0.000000 0.000000 0.026568 0.000000 0.000624
# 5 -0.000878 0.000773 -0.000497 0.000000 0.019891 0.000000
# 6 0.000000 0.000000 0.000000 0.000624 0.000000 0.026224
#
#
# Mechanical properties :
#
#
# Convention : Reuss Voigt Hill
#
# Bulk Modulus (GPa) = 56.86072 60.92979 58.89526
# Shear Modulus (GPa) = 38.15749 39.88227 39.01988
#
# Velocity S-wave (km/s) = 3.96601 4.05466 4.01058
# Velocity P-wave (km/s) = 6.66419 6.85834 6.76196
#
# Compressibility (1/GPa) = 0.01758683
#
# Stress axis : x y z
#
# Youngs Moduli (GPa) = 83.30825 73.08201 106.93014
#
# Poissons Ratio (x) = 0.25852 0.44294
# Poissons Ratio (y) = 0.29470 0.11188
# Poissons Ratio (z) = 0.34509 0.07646
#
# Static dielectric constant tensor:
#      x y z
#    x 4.443750 0.000000 -0.032900 
#    y 0.000000 4.294770 0.000000 
#    z -0.032900 0.000000 4.897530 
# 
# 
# High freq. dielectric constant tensor:
#      x y z
#    x 1.972690 0.000000 -0.000060 
#    y 0.000000 1.961210 0.000000 
#    z -0.000060 0.000000 1.980170 
# 
# From -- ./inp_files/11595.got.cif
#   From: 2010.03.12/outbox.cif.g09.slc.cpg/sg4_6_cif.got.tgz:11595.got - 2010.03.31 09:31:35.
