data_PCOD8047148
_publ_section_title
;
Structure prediction by ZEFSAII (Michael W. Deem and Ramdas Pophale) SiO2 
 PCOD8047148
Probable space group: P 21
;
_chemical_formula_sum "Si O2"
_cell_formula_units_Z 14
_cell_length_a 9.646225
_cell_length_b 7.772779
_cell_length_c 8.292321
_cell_angle_alpha 90.000000
_cell_angle_beta 126.714363
_cell_angle_gamma 90.000000
_cell_volume 498.403981
_symmetry_space_group_name_H-M "P 21"
_symmetry_group_IT_number 4
_symmetry_cell_setting 'monoclinic'
loop_
_space_group_symop_operation_xyz
x,y,z
-x,1/2+y,-z
loop_
_atom_site_type_symbol
_atom_site_label
_atom_site_fract_x
_atom_site_fract_y
_atom_site_fract_z
Si Si1 0.981575 0.713020 0.257620
Si Si2 0.683521 0.716494 0.789162
Si Si3 0.215255 0.921537 0.728322
Si Si4 0.370291 0.153306 0.588089
Si Si5 0.530816 0.964674 0.164794
Si Si6 0.258694 0.603100 0.208813
Si Si7 0.151703 0.570658 0.791399
O O1 0.930255 0.567344 0.350152
O O2 0.164190 0.662209 0.306435
O O3 0.980111 0.908711 0.332650
O O4 0.841090 0.703948 0.019491
O O5 0.734524 0.631537 0.651966
O O6 0.512031 0.623908 0.744033
O O7 0.655218 0.914264 0.723265
O O8 0.116228 0.734795 0.645503
O O9 0.331868 0.977328 0.657313
O O10 0.346809 0.895515 0.970761
O O11 0.332762 0.323529 0.669137
O O12 0.568071 0.213317 0.686094
O O13 0.644916 0.027290 0.091632
O O14 0.131719 0.624590 0.965672
#
# Coordination Sequence:
#
# PCOD8047148 Si02
#       7
#     2   2   2   2   2   2   2
#     4  10  25  44  68 105 141 188 240 296 360 441
#     4  10  25  41  72 106 149 185 239 311 372 423
#     4  11  21  40  72 102 139 189 246 289 349 438
#     4  12  22  42  73 110 143 188 243 306 361 423
#     4  11  20  39  65 106 140 185 242 298 349 433
#     4  11  23  42  70 105 146 185 242 300 363 441
#     4  11  22  38  68 106 136 182 246 294 346 419
#
# _framework density 28.089663999999999
#
# number of rings (size 3 to 8) (size 9 to 14) (size 15 to 20)
#    0.000    1.143    4.286    1.714    6.000    0.000 
#    0.000    0.000    6.286    0.000    0.000    0.000 
#    0.000    0.000    0.000    0.000    0.000    0.000 
#
# Total GULP energy -173516.737854 kJ/mol
# GULP energy per Si atom -12394.052704 kJ/mol
# Density = 2.802573 g / cm^3
# Si number density = 28.089664 Si / 1000 Ang^3
#
#
#
# Elastic Constant Matrix: (Units=GPa)
#
#
# Indices 1 2 3 4 5 6 
#
# 1 143.3829 70.9416 21.7373 0.0000 -10.9487 0.0000
# 2 70.9416 173.6845 21.0966 0.0000 5.7550 0.0000
# 3 21.7373 21.0966 24.6166 0.0000 2.0844 0.0000
# 4 0.0000 0.0000 0.0000 41.4438 0.0000 -7.9948
# 5 -10.9487 5.7550 2.0844 0.0000 26.9078 0.0000
# 6 0.0000 0.0000 0.0000 -7.9948 0.0000 49.8574
#
#
#
# Elastic Compliance Matrix: (Units=1/GPa)
#
#
# Indices 1 2 3 4 5 6 
#
# 1 0.010090 -0.003529 -0.006339 0.000000 0.005351 0.000000
# 2 -0.003529 0.007685 -0.003231 0.000000 -0.002829 0.000000
# 3 -0.006339 -0.003231 0.049474 0.000000 -0.005721 0.000000
# 4 0.000000 0.000000 0.000000 0.024899 0.000000 0.003993
# 5 0.005351 -0.002829 -0.005721 0.000000 0.040390 0.000000
# 6 0.000000 0.000000 0.000000 0.003993 0.000000 0.020697
#
#
# Mechanical properties :
#
#
# Convention : Reuss Voigt Hill
#
# Bulk Modulus (GPa) = 24.35918 63.24834 43.80376
# Shear Modulus (GPa) = 25.89138 38.83570 32.36354
#
# Velocity S-wave (km/s) = 3.03931 3.72232 3.39802
# Velocity P-wave (km/s) = 4.58337 6.40622 5.56987
#
# Compressibility (1/GPa) = 0.04105228
#
# Stress axis : x y z
#
# Youngs Moduli (GPa) = 99.11063 130.12435 20.21284
#
# Poissons Ratio (x) = 0.45915 0.12812
# Poissons Ratio (y) = 0.34972 0.06530
# Poissons Ratio (z) = 0.62824 0.42039
#
# Static dielectric constant tensor:
#      x y z
#    x 5.032420 0.000000 -0.329700 
#    y 0.000000 5.414890 0.000000 
#    z -0.329700 0.000000 4.912650 
# 
# 
# High freq. dielectric constant tensor:
#      x y z
#    x 2.131110 0.000000 -0.012080 
#    y 0.000000 2.141220 0.000000 
#    z -0.012080 0.000000 2.144180 
# 
# From -- ./inp_files/5849.got.cif
#   From: 2010.03.12/outbox.cif.g09.slc.cpg/sg4_3_cif.got.tgz:5849.got - 2010.03.31 09:31:35.
