data_PCOD8047033
_publ_section_title
;
Structure prediction by ZEFSAII (Michael W. Deem and Ramdas Pophale) SiO2 
 PCOD8047033
Probable space group: P 21
;
_chemical_formula_sum "Si O2"
_cell_formula_units_Z 14
_cell_length_a 5.250720
_cell_length_b 26.762361
_cell_length_c 5.096706
_cell_angle_alpha 90.000000
_cell_angle_beta 59.400857
_cell_angle_gamma 90.000000
_cell_volume 616.466835
_symmetry_space_group_name_H-M "P 21"
_symmetry_group_IT_number 4
_symmetry_cell_setting 'monoclinic'
loop_
_space_group_symop_operation_xyz
x,y,z
-x,1/2+y,-z
loop_
_atom_site_type_symbol
_atom_site_label
_atom_site_fract_x
_atom_site_fract_y
_atom_site_fract_z
Si Si1 0.451147 0.977670 0.575692
Si Si2 0.464359 0.093060 0.587662
Si Si3 0.984896 0.738341 0.850802
Si Si4 0.871010 0.629464 0.741832
Si Si5 0.541464 0.782944 0.424920
Si Si6 0.676373 0.829246 0.849828
Si Si7 0.214856 0.440759 0.094883
O O1 0.570771 0.965223 0.801941
O O2 0.105250 0.965757 0.733541
O O3 0.497356 0.035682 0.490180
O O4 0.637529 0.946981 0.265768
O O5 0.786335 0.115901 0.468858
O O6 0.296505 0.121685 0.443381
O O7 0.275894 0.096331 0.953373
O O8 0.836483 0.687299 0.835954
O O9 0.339839 0.737417 0.643624
O O10 0.919311 0.785097 0.689756
O O11 0.854918 0.754115 0.205309
O O12 0.527627 0.828616 0.641473
O O13 0.451865 0.811261 0.199375
O O14 0.824118 0.882116 0.831567
#
# Coordination Sequence:
#
# PCOD8047033 Si02
#       7
#     2   2   2   2   2   2   2
#     4  12  26  48  71 103 137 179 233 293 344 406
#     4  12  26  48  71 103 137 179 233 293 344 406
#     4  10  26  40  66  95 137 174 226 271 336 407
#     4  12  26  43  74 100 137 181 230 280 353 409
#     4  10  24  40  64  90 140 170 222 270 330 390
#     4  10  26  40  66  95 137 174 226 271 336 407
#     4  12  26  43  74 100 137 181 230 280 353 409
#
# _framework density 22.710062000000001
#
# number of rings (size 3 to 8) (size 9 to 14) (size 15 to 20)
#    0.857    0.000    0.000    6.000   10.000    0.000 
#    0.000    0.000    0.000    0.000    0.000    0.000 
#    0.000    0.000    0.000    0.000    0.000    0.000 
#
# Total GULP energy -173483.698776 kJ/mol
# GULP energy per Si atom -12391.692770 kJ/mol
# Density = 2.265837 g / cm^3
# Si number density = 22.710062 Si / 1000 Ang^3
#
#
#
# Elastic Constant Matrix: (Units=GPa)
#
#
# Indices 1 2 3 4 5 6 
#
# 1 77.7702 22.7568 33.9448 0.0000 0.8431 0.0000
# 2 22.7568 103.0383 3.3715 0.0000 -10.8226 0.0000
# 3 33.9448 3.3715 130.6125 0.0000 0.4421 0.0000
# 4 0.0000 0.0000 0.0000 28.0206 0.0000 0.8060
# 5 0.8431 -10.8226 0.4421 0.0000 35.6176 0.0000
# 6 0.0000 0.0000 0.0000 0.8060 0.0000 34.0436
#
#
#
# Elastic Compliance Matrix: (Units=1/GPa)
#
#
# Indices 1 2 3 4 5 6 
#
# 1 0.015617 -0.003464 -0.003965 0.000000 -0.001373 0.000000
# 2 -0.003464 0.010803 0.000610 0.000000 0.003357 0.000000
# 3 -0.003965 0.000610 0.008670 0.000000 0.000172 0.000000
# 4 0.000000 0.000000 0.000000 0.035712 0.000000 -0.000846
# 5 -0.001373 0.003357 0.000172 0.000000 0.029126 0.000000
# 6 0.000000 0.000000 0.000000 -0.000846 0.000000 0.029394
#
#
# Mechanical properties :
#
#
# Convention : Reuss Voigt Hill
#
# Bulk Modulus (GPa) = 46.61249 47.95191 47.28220
# Shear Modulus (GPa) = 33.30864 36.29289 34.80076
#
# Velocity S-wave (km/s) = 3.83389 4.00196 3.91883
# Velocity P-wave (km/s) = 6.33782 6.52034 6.42973
#
# Compressibility (1/GPa) = 0.02145348
#
# Stress axis : x y z
#
# Youngs Moduli (GPa) = 64.03152 92.56914 115.33629
#
# Poissons Ratio (x) = 0.32063 0.45728
# Poissons Ratio (y) = 0.22178 -0.07035
# Poissons Ratio (z) = 0.25387 -0.05646
#
# Static dielectric constant tensor:
#      x y z
#    x 4.093740 0.000000 0.029780 
#    y 0.000000 4.089200 0.000000 
#    z 0.029780 0.000000 4.177710 
# 
# 
# High freq. dielectric constant tensor:
#      x y z
#    x 1.885910 0.000000 0.006070 
#    y 0.000000 1.902540 0.000000 
#    z 0.006070 0.000000 1.915180 
# 
# From -- ./inp_files/31.got.cif
#   From: 2010.03.12/outbox.cif.g09.slc.cpg/sg4_1_cif.got.tgz:31.got - 2010.03.31 09:31:35.
