data_PCOD8047241
_publ_section_title
;
Structure prediction by ZEFSAII (Michael W. Deem and Ramdas Pophale) SiO2 
 PCOD8047241
Probable space group: P 21
;
_chemical_formula_sum "Si O2"
_cell_formula_units_Z 14
_cell_length_a 11.443325
_cell_length_b 7.226722
_cell_length_c 9.034213
_cell_angle_alpha 90.000000
_cell_angle_beta 70.532840
_cell_angle_gamma 90.000000
_cell_volume 704.398668
_symmetry_space_group_name_H-M "P 21"
_symmetry_group_IT_number 4
_symmetry_cell_setting 'monoclinic'
loop_
_space_group_symop_operation_xyz
x,y,z
-x,1/2+y,-z
loop_
_atom_site_type_symbol
_atom_site_label
_atom_site_fract_x
_atom_site_fract_y
_atom_site_fract_z
Si Si1 0.790913 0.325500 0.885970
Si Si2 0.828767 0.747633 0.188159
Si Si3 0.820716 0.852881 0.521787
Si Si4 0.624856 0.650646 0.049002
Si Si5 0.973583 0.594875 0.669453
Si Si6 0.640220 0.992614 0.821827
Si Si7 0.061462 0.638508 0.940550
O O1 0.905177 0.402547 0.741113
O O2 0.742181 0.135935 0.837594
O O3 0.684136 0.479466 0.935311
O O4 0.842192 0.284215 0.029686
O O5 0.801533 0.749025 0.374452
O O6 0.701562 0.688498 0.164928
O O7 0.868757 0.946184 0.109167
O O8 0.942192 0.610009 0.099212
O O9 0.884421 0.717542 0.610540
O O10 0.688153 0.910567 0.645512
O O11 0.902890 0.037885 0.470274
O O12 0.487183 0.597579 0.156451
O O13 0.621033 0.830152 0.947744
O O14 0.010616 0.708210 0.802329
#
# Coordination Sequence:
#
# PCOD8047241 Si02
#       7
#     2   2   2   2   2   2   2
#     4  12  22  40  69 101 124 169 224 271 321 383
#     4  11  22  40  66 100 134 171 217 266 334 386
#     4  11  24  40  62 101 138 170 212 272 337 387
#     4  12  24  44  69  94 126 181 227 266 312 394
#     4  11  23  39  66 100 139 170 210 272 338 388
#     4  12  25  44  69  94 133 172 230 270 318 390
#     4  11  20  37  65  98 130 167 212 267 320 396
#
# _framework density 19.875107
#
# number of rings (size 3 to 8) (size 9 to 14) (size 15 to 20)
#    0.000    0.571    8.571    0.857    0.000    1.143 
#    0.000    5.714    0.000    0.000    0.000    0.000 
#    0.000    0.000    0.000    0.000    0.000    0.000 
#
# Total GULP energy -173611.178975 kJ/mol
# GULP energy per Si atom -12400.798498 kJ/mol
# Density = 1.982987 g / cm^3
# Si number density = 19.875107 Si / 1000 Ang^3
#
#
#
# Elastic Constant Matrix: (Units=GPa)
#
#
# Indices 1 2 3 4 5 6 
#
# 1 104.9270 24.9868 50.8347 0.0000 3.2771 0.0000
# 2 24.9868 55.1590 32.2195 0.0000 13.7709 0.0000
# 3 50.8347 32.2195 114.9085 0.0000 6.2088 0.0000
# 4 0.0000 0.0000 0.0000 34.7687 0.0000 -2.0517
# 5 3.2771 13.7709 6.2088 0.0000 30.0918 0.0000
# 6 0.0000 0.0000 0.0000 -2.0517 0.0000 42.9223
#
#
#
# Elastic Compliance Matrix: (Units=1/GPa)
#
#
# Indices 1 2 3 4 5 6 
#
# 1 0.012540 -0.003197 -0.004709 0.000000 0.001069 0.000000
# 2 -0.003197 0.025051 -0.005066 0.000000 -0.010071 0.000000
# 3 -0.004709 -0.005066 0.012189 0.000000 0.000316 0.000000
# 4 0.000000 0.000000 0.000000 0.028843 0.000000 0.001379
# 5 0.001069 -0.010071 0.000316 0.000000 0.037659 0.000000
# 6 0.000000 0.000000 0.000000 0.001379 0.000000 0.023364
#
#
# Mechanical properties :
#
#
# Convention : Reuss Voigt Hill
#
# Bulk Modulus (GPa) = 41.95187 54.56404 48.25796
# Shear Modulus (GPa) = 28.81299 32.68679 30.74989
#
# Velocity S-wave (km/s) = 3.81163 4.05978 3.93766
# Velocity P-wave (km/s) = 6.36592 7.03483 6.70871
#
# Compressibility (1/GPa) = 0.02383684
#
# Stress axis : x y z
#
# Youngs Moduli (GPa) = 79.74711 39.91906 82.04086
#
# Poissons Ratio (x) = 0.12761 0.38632
# Poissons Ratio (y) = 0.25493 0.41559
# Poissons Ratio (z) = 0.37552 0.20222
#
# Static dielectric constant tensor:
#      x y z
#    x 3.687790 0.000000 0.011920 
#    y 0.000000 3.673290 0.000000 
#    z 0.011920 0.000000 3.704550 
# 
# 
# High freq. dielectric constant tensor:
#      x y z
#    x 1.776490 0.000000 0.002450 
#    y 0.000000 1.783070 0.000000 
#    z 0.002450 0.000000 1.767520 
# 
# From -- ./inp_files/7794.got.cif
#   From: 2010.03.12/outbox.cif.g09.slc.cpg/sg4_4_cif.got.tgz:7794.got - 2010.03.31 09:31:35.
