data_PCOD8047380
_publ_section_title
;
Structure prediction by ZEFSAII (Michael W. Deem and Ramdas Pophale) SiO2 
 PCOD8047380
Probable space group: P 21
;
_chemical_formula_sum "Si O2"
_cell_formula_units_Z 16
_cell_length_a 15.258278
_cell_length_b 6.781064
_cell_length_c 15.952371
_cell_angle_alpha 90.000000
_cell_angle_beta 26.052495
_cell_angle_gamma 90.000000
_cell_volume 724.912267
_symmetry_space_group_name_H-M "P 21"
_symmetry_group_IT_number 4
_symmetry_cell_setting 'monoclinic'
loop_
_space_group_symop_operation_xyz
x,y,z
-x,1/2+y,-z
loop_
_atom_site_type_symbol
_atom_site_label
_atom_site_fract_x
_atom_site_fract_y
_atom_site_fract_z
Si Si1 0.979019 0.505170 0.416046
Si Si2 0.336073 0.308890 0.865008
Si Si3 0.325041 0.060651 0.720878
Si Si4 0.734125 0.901367 0.344245
Si Si5 0.728816 0.346982 0.782229
Si Si6 0.300782 0.065355 0.495781
Si Si7 0.309550 0.209632 0.078753
Si Si8 0.098324 0.807215 0.804052
O O1 0.134571 0.661086 0.317376
O O2 0.105488 0.317239 0.279262
O O3 0.815503 0.457855 0.626871
O O4 0.859615 0.588925 0.439687
O O5 0.368676 0.112552 0.779998
O O6 0.485874 0.492648 0.722967
O O7 0.355384 0.228605 0.941794
O O8 0.118125 0.394503 0.031227
O O9 0.533444 0.021977 0.494743
O O10 0.217871 0.253037 0.772543
O O11 0.174916 0.877668 0.830815
O O12 0.907401 0.067893 0.199480
O O13 0.695727 0.780398 0.463416
O O14 0.729490 0.483246 0.863936
O O15 0.499969 0.287689 0.965600
O O16 0.247535 0.895330 0.607317
#
# Coordination Sequence:
#
# PCOD8047380 Si02
#       8
#     2   2   2   2   2   2   2   2
#     4  12  25  47  73 104 142 188 235 292 366 433
#     4  12  26  45  69 103 146 185 233 303 351 418
#     4  11  23  43  68  97 136 188 232 292 352 417
#     4  11  22  45  71  95 138 191 240 283 354 420
#     4  12  26  47  77 104 142 193 231 292 366 436
#     4  11  25  45  69 100 140 187 233 295 353 420
#     4  12  26  48  72 108 147 177 244 299 356 433
#     4  11  25  44  67 101 143 181 240 294 346 419
#
# _framework density 22.071636999999999
#
# number of rings (size 3 to 8) (size 9 to 14) (size 15 to 20)
#    0.000    0.500    7.500    0.750    3.500    0.000 
#    9.000    0.000    0.000    0.000    0.000    0.000 
#    0.000    0.000    0.000    0.000    0.000    0.000 
#
# Total GULP energy -198387.878513 kJ/mol
# GULP energy per Si atom -12399.242407 kJ/mol
# Density = 2.202140 g / cm^3
# Si number density = 22.071637 Si / 1000 Ang^3
#
#
#
# Elastic Constant Matrix: (Units=GPa)
#
#
# Indices 1 2 3 4 5 6 
#
# 1 94.7331 25.1302 7.4083 0.0000 -3.2238 0.0000
# 2 25.1302 92.2236 19.3360 0.0000 6.6218 0.0000
# 3 7.4083 19.3360 67.5801 0.0000 -11.7524 0.0000
# 4 0.0000 0.0000 0.0000 25.1211 0.0000 5.4583
# 5 -3.2238 6.6218 -11.7524 0.0000 42.0411 0.0000
# 6 0.0000 0.0000 0.0000 5.4583 0.0000 33.7645
#
#
#
# Elastic Compliance Matrix: (Units=1/GPa)
#
#
# Indices 1 2 3 4 5 6 
#
# 1 0.011458 -0.003197 -0.000106 0.000000 0.001353 0.000000
# 2 -0.003197 0.012769 -0.003884 0.000000 -0.003342 0.000000
# 3 -0.000106 -0.003884 0.016844 0.000000 0.005312 0.000000
# 4 0.000000 0.000000 0.000000 0.041256 0.000000 -0.006669
# 5 0.001353 -0.003342 0.005312 0.000000 0.025901 0.000000
# 6 0.000000 0.000000 0.000000 -0.006669 0.000000 0.030695
#
#
# Mechanical properties :
#
#
# Convention : Reuss Voigt Hill
#
# Bulk Modulus (GPa) = 37.45825 39.80953 38.63389
# Shear Modulus (GPa) = 30.82656 33.69614 32.26135
#
# Velocity S-wave (km/s) = 3.74125 3.91150 3.82732
# Velocity P-wave (km/s) = 5.97249 6.20286 6.08876
#
# Compressibility (1/GPa) = 0.02669639
#
# Stress axis : x y z
#
# Youngs Moduli (GPa) = 87.27198 78.31621 59.36815
#
# Poissons Ratio (x) = 0.25039 0.00630
# Poissons Ratio (y) = 0.27903 0.23059
# Poissons Ratio (z) = 0.00926 0.30419
#
# Static dielectric constant tensor:
#      x y z
#    x 4.045220 0.000000 0.003750 
#    y 0.000000 3.935810 0.000000 
#    z 0.003750 0.000000 4.092510 
# 
# 
# High freq. dielectric constant tensor:
#      x y z
#    x 1.872460 0.000000 -0.007590 
#    y 0.000000 1.862900 0.000000 
#    z -0.007590 0.000000 1.881180 
# 
# From -- ./inp_files/14077.got.cif
#   From: 2010.03.12/outbox.cif.g09.slc.cpg/sg4_8_cif.got.tgz:14077.got - 2010.03.31 09:31:35.
