data_PCOD8047672
_publ_section_title
;
Structure prediction by ZEFSAII (Michael W. Deem and Ramdas Pophale) SiO2 
 PCOD8047672
Probable space group: P 21
;
_chemical_formula_sum "Si O2"
_cell_formula_units_Z 12
_cell_length_a 17.101166
_cell_length_b 4.922607
_cell_length_c 5.224726
_cell_angle_alpha 90.000000
_cell_angle_beta 88.134247
_cell_angle_gamma 90.000000
_cell_volume 439.596380
_symmetry_space_group_name_H-M "P 21"
_symmetry_group_IT_number 4
_symmetry_cell_setting 'monoclinic'
loop_
_space_group_symop_operation_xyz
x,y,z
-x,1/2+y,-z
loop_
_atom_site_type_symbol
_atom_site_label
_atom_site_fract_x
_atom_site_fract_y
_atom_site_fract_z
Si Si1 0.549435 0.252220 0.486715
Si Si2 0.905974 0.633876 0.785084
Si Si3 0.314275 0.482566 0.213614
Si Si4 0.199960 0.803221 0.521839
Si Si5 0.076310 0.454634 0.737607
Si Si6 0.320791 0.959561 0.875248
O O1 0.500271 0.498201 0.624138
O O2 0.604950 0.105185 0.686710
O O3 0.593722 0.414905 0.255444
O O4 0.832830 0.439525 0.734009
O O5 0.986588 0.477136 0.834275
O O6 0.921117 0.826251 0.542426
O O7 0.879985 0.788727 0.044264
O O8 0.246127 0.525185 0.434382
O O9 0.323414 0.176246 0.107992
O O10 0.291008 0.668996 0.977501
O O11 0.258190 0.019914 0.654624
O O12 0.124525 0.736974 0.709278
#
# Coordination Sequence:
#
# PCOD8047672 Si02
#       6
#     2   2   2   2   2   2
#     4  11  24  48  80 117 162 208 272 339 406 494
#     4  12  28  50  78 114 161 214 286 357 428 498
#     4  11  27  49  78 117 164 213 270 335 417 499
#     4  11  30  48  74 115 158 216 274 349 414 508
#     4  12  28  50  78 114 161 214 286 357 428 498
#     4  11  27  49  78 117 164 213 270 335 417 499
#
# _framework density 27.297764000000001
#
# number of rings (size 3 to 8) (size 9 to 14) (size 15 to 20)
#    0.000    0.667    1.667    3.000    9.333    5.333 
#    0.000    0.000    0.000    0.000    0.000    0.000 
#    0.000    0.000    0.000    0.000    0.000    0.000 
#
# Total GULP energy -148768.300071 kJ/mol
# GULP energy per Si atom -12397.358339 kJ/mol
# Density = 2.723563 g / cm^3
# Si number density = 27.297764 Si / 1000 Ang^3
#
#
#
# Elastic Constant Matrix: (Units=GPa)
#
#
# Indices 1 2 3 4 5 6 
#
# 1 144.0365 32.8059 32.4089 0.0000 -0.7712 0.0000
# 2 32.8059 92.2167 12.1819 0.0000 3.6122 0.0000
# 3 32.4089 12.1819 83.4204 0.0000 14.2776 0.0000
# 4 0.0000 0.0000 0.0000 62.6928 0.0000 1.0977
# 5 -0.7712 3.6122 14.2776 0.0000 26.8037 0.0000
# 6 0.0000 0.0000 0.0000 1.0977 0.0000 27.0121
#
#
#
# Elastic Compliance Matrix: (Units=1/GPa)
#
#
# Indices 1 2 3 4 5 6 
#
# 1 0.008276 -0.002608 -0.003230 0.000000 0.002310 0.000000
# 2 -0.002608 0.011891 -0.000480 0.000000 -0.001422 0.000000
# 3 -0.003230 -0.000480 0.014653 0.000000 -0.007833 0.000000
# 4 0.000000 0.000000 0.000000 0.015962 0.000000 -0.000649
# 5 0.002310 -0.001422 -0.007833 0.000000 0.041739 0.000000
# 6 0.000000 0.000000 0.000000 -0.000649 0.000000 0.037047
#
#
# Mechanical properties :
#
#
# Convention : Reuss Voigt Hill
#
# Bulk Modulus (GPa) = 45.07612 52.71854 48.89733
# Shear Modulus (GPa) = 33.42310 39.45353 36.43832
#
# Velocity S-wave (km/s) = 3.50292 3.80584 3.65752
# Velocity P-wave (km/s) = 5.73666 6.21827 5.98231
#
# Compressibility (1/GPa) = 0.02218469
#
# Stress axis : x y z
#
# Youngs Moduli (GPa) = 120.83553 84.09816 68.24554
#
# Poissons Ratio (x) = 0.21932 0.22041
# Poissons Ratio (y) = 0.31513 0.03275
# Poissons Ratio (z) = 0.39025 0.04036
#
# Static dielectric constant tensor:
#      x y z
#    x 5.288260 0.000000 0.038140 
#    y 0.000000 4.826250 0.000000 
#    z 0.038140 0.000000 4.840940 
# 
# 
# High freq. dielectric constant tensor:
#      x y z
#    x 2.117160 0.000000 0.002060 
#    y 0.000000 2.094720 0.000000 
#    z 0.002060 0.000000 2.103070 
# 
# From -- ./inp_files/3974.got.cif
#   From: 2010.03.12/outbox.cif.g09.slc.cpg/sg4_2_cif.got.tgz:3974.got - 2010.03.31 09:31:35.
