data_PCOD8047915
_publ_section_title
;
Structure prediction by ZEFSAII (Michael W. Deem and Ramdas Pophale) SiO2 
 PCOD8047915
Probable space group: P 21
;
_chemical_formula_sum "Si O2"
_cell_formula_units_Z 16
_cell_length_a 18.099384
_cell_length_b 8.394013
_cell_length_c 9.686087
_cell_angle_alpha 90.000000
_cell_angle_beta 30.294951
_cell_angle_gamma 90.000000
_cell_volume 742.337240
_symmetry_space_group_name_H-M "P 21"
_symmetry_group_IT_number 4
_symmetry_cell_setting 'monoclinic'
loop_
_space_group_symop_operation_xyz
x,y,z
-x,1/2+y,-z
loop_
_atom_site_type_symbol
_atom_site_label
_atom_site_fract_x
_atom_site_fract_y
_atom_site_fract_z
Si Si1 0.865239 0.077930 0.210201
Si Si2 0.865704 0.318158 0.710778
Si Si3 0.163790 0.187401 0.300541
Si Si4 0.560658 0.861410 0.258145
Si Si5 0.429711 0.028920 0.211911
Si Si6 0.313585 0.648790 0.772719
Si Si7 0.700613 0.234895 0.712074
Si Si8 0.845837 0.727030 0.360231
O O1 0.757105 0.091045 0.255413
O O2 0.814588 0.205144 0.405712
O O3 0.863170 0.904564 0.279162
O O4 0.031733 0.113760 0.902563
O O5 0.843179 0.504388 0.730180
O O6 0.782013 0.222724 0.726201
O O7 0.038050 0.281688 0.420540
O O8 0.803960 0.255893 0.955995
O O9 0.138292 0.218600 0.501895
O O10 0.322361 0.249465 0.004341
O O11 0.459030 0.753199 0.518495
O O12 0.458057 0.939814 0.308791
O O13 0.643963 0.991772 0.212920
O O14 0.313004 0.166768 0.431578
O O15 0.367021 0.910174 0.197115
O O16 0.576248 0.100728 0.910068
#
# Coordination Sequence:
#
# PCOD8047915 Si02
#       8
#     2   2   2   2   2   2   2   2
#     4  12  28  47  73 107 148 187 244 301 364 433
#     4  12  27  47  78 105 145 192 249 296 362 437
#     4  12  27  50  73 107 146 195 245 299 361 437
#     4  12  27  46  73 106 147 189 238 298 367 432
#     4  12  25  45  74 106 145 188 241 294 366 432
#     4  12  27  49  72 110 146 192 241 302 364 432
#     4  12  25  47  75 107 143 194 240 300 363 437
#     4  12  28  47  74 108 146 193 242 302 365 430
#
# _framework density 21.553543999999999
#
# number of rings (size 3 to 8) (size 9 to 14) (size 15 to 20)
#    0.000    0.000    5.000    4.500    3.500    2.000 
#    0.000    0.000    0.000    0.000    0.000    0.000 
#    0.000    0.000    0.000    0.000    0.000    0.000 
#
# Total GULP energy -198554.438738 kJ/mol
# GULP energy per Si atom -12409.652421 kJ/mol
# Density = 2.150449 g / cm^3
# Si number density = 21.553544 Si / 1000 Ang^3
#
#
#
# Elastic Constant Matrix: (Units=GPa)
#
#
# Indices 1 2 3 4 5 6 
#
# 1 104.9089 44.7077 30.8176 0.0000 -4.8484 0.0000
# 2 44.7077 112.3657 22.0866 0.0000 4.6247 0.0000
# 3 30.8176 22.0866 94.7555 0.0000 -1.7316 0.0000
# 4 0.0000 0.0000 0.0000 46.9428 0.0000 -7.6716
# 5 -4.8484 4.6247 -1.7316 0.0000 33.5083 0.0000
# 6 0.0000 0.0000 0.0000 -7.6716 0.0000 32.9743
#
#
#
# Elastic Compliance Matrix: (Units=1/GPa)
#
#
# Indices 1 2 3 4 5 6 
#
# 1 0.012399 -0.004445 -0.002955 0.000000 0.002255 0.000000
# 2 -0.004445 0.010987 -0.001156 0.000000 -0.002219 0.000000
# 3 -0.002955 -0.001156 0.011790 0.000000 0.000341 0.000000
# 4 0.000000 0.000000 0.000000 0.022144 0.000000 0.005152
# 5 0.002255 -0.002219 0.000341 0.000000 0.030494 0.000000
# 6 0.000000 0.000000 0.000000 0.005152 0.000000 0.031525
#
#
# Mechanical properties :
#
#
# Convention : Reuss Voigt Hill
#
# Bulk Modulus (GPa) = 55.36006 56.36155 55.86081
# Shear Modulus (GPa) = 35.09461 36.97962 36.03712
#
# Velocity S-wave (km/s) = 4.03954 4.14661 4.09342
# Velocity P-wave (km/s) = 6.89187 7.00943 6.95090
#
# Compressibility (1/GPa) = 0.01806356
#
# Stress axis : x y z
#
# Youngs Moduli (GPa) = 80.65367 91.01980 84.81608
#
# Poissons Ratio (x) = 0.40459 0.25064
# Poissons Ratio (y) = 0.35851 0.09803
# Poissons Ratio (z) = 0.23834 0.10520
#
# Static dielectric constant tensor:
#      x y z
#    x 4.078840 0.000000 -0.074750 
#    y 0.000000 3.972000 0.000000 
#    z -0.074750 0.000000 4.136090 
# 
# 
# High freq. dielectric constant tensor:
#      x y z
#    x 1.858990 0.000000 -0.006080 
#    y 0.000000 1.862530 0.000000 
#    z -0.006080 0.000000 1.861240 
# 
# From -- ./inp_files/5397.got.cif
#   From: 2010.03.12/outbox.cif.g09.slc.cpg/sg4_3_cif.got.tgz:5397.got - 2010.03.31 09:31:35.
