data_PCOD8047809
_publ_section_title
;
Structure prediction by ZEFSAII (Michael W. Deem and Ramdas Pophale) SiO2 
 PCOD8047809
Probable space group: P 21
;
_chemical_formula_sum "Si O2"
_cell_formula_units_Z 16
_cell_length_a 14.712713
_cell_length_b 8.834472
_cell_length_c 14.461847
_cell_angle_alpha 90.000000
_cell_angle_beta 160.618763
_cell_angle_gamma 90.000000
_cell_volume 623.794967
_symmetry_space_group_name_H-M "P 21"
_symmetry_group_IT_number 4
_symmetry_cell_setting 'monoclinic'
loop_
_space_group_symop_operation_xyz
x,y,z
-x,1/2+y,-z
loop_
_atom_site_type_symbol
_atom_site_label
_atom_site_fract_x
_atom_site_fract_y
_atom_site_fract_z
Si Si1 0.428064 0.205570 0.507495
Si Si2 0.732241 0.934599 0.873325
Si Si3 0.343620 0.206020 0.803520
Si Si4 0.864750 0.519501 0.088940
Si Si5 0.326364 0.352158 0.597772
Si Si6 0.158805 0.943307 0.142398
Si Si7 0.167499 0.830111 0.410065
Si Si8 0.813437 0.364197 0.356820
O O1 0.283294 0.275230 0.457798
O O2 0.225669 0.107044 0.250109
O O3 0.575691 0.336324 0.588612
O O4 0.662854 0.103798 0.778654
O O5 0.460229 0.835294 0.637549
O O6 0.957504 0.959264 0.172481
O O7 0.901396 0.864054 0.947886
O O8 0.384852 0.229470 0.733212
O O9 0.126266 0.326763 0.633714
O O10 0.257410 0.034528 0.742752
O O11 0.627432 0.240754 0.126730
O O12 0.032589 0.431297 0.330296
O O13 0.969854 0.689981 0.193798
O O14 0.546518 0.491041 0.807494
O O15 0.925814 0.457929 0.045016
O O16 0.236018 0.847440 0.582235
#
# Coordination Sequence:
#
# PCOD8047809 Si02
#       8
#     2   2   2   2   2   2   2   2
#     4  11  28  50  75 109 157 205 263 322 385 459
#     4  12  27  46  75 106 157 198 260 318 372 466
#     4  12  28  51  85 120 158 209 259 330 399 489
#     4  11  28  47  78 115 157 204 259 324 377 463
#     4  11  27  50  79 111 156 205 257 316 401 459
#     4  11  29  46  79 111 158 210 266 319 388 449
#     4  12  28  51  79 115 156 204 259 320 400 461
#     4  12  29  51  86 119 161 203 267 325 410 472
#
# _framework density 25.649455
#
# number of rings (size 3 to 8) (size 9 to 14) (size 15 to 20)
#    0.000    0.500    1.250    3.750   15.750    1.000 
#    2.250    0.000    0.000    0.000    0.000    0.000 
#    0.000    0.000    0.000    0.000    0.000    0.000 
#
# Total GULP energy -198358.868799 kJ/mol
# GULP energy per Si atom -12397.429300 kJ/mol
# Density = 2.559108 g / cm^3
# Si number density = 25.649455 Si / 1000 Ang^3
#
#
#
# Elastic Constant Matrix: (Units=GPa)
#
#
# Indices 1 2 3 4 5 6 
#
# 1 64.2566 18.3747 12.6044 0.0000 11.8843 0.0000
# 2 18.3747 96.0031 18.6164 0.0000 3.0679 0.0000
# 3 12.6044 18.6164 125.1464 0.0000 -5.0595 0.0000
# 4 0.0000 0.0000 0.0000 40.2164 0.0000 -12.5084
# 5 11.8843 3.0679 -5.0595 0.0000 36.2803 0.0000
# 6 0.0000 0.0000 0.0000 -12.5084 0.0000 24.5506
#
#
#
# Elastic Compliance Matrix: (Units=1/GPa)
#
#
# Indices 1 2 3 4 5 6 
#
# 1 0.017780 -0.002909 -0.001592 0.000000 -0.005800 0.000000
# 2 -0.002909 0.011248 -0.001388 0.000000 -0.000192 0.000000
# 3 -0.001592 -0.001388 0.008431 0.000000 0.001815 0.000000
# 4 0.000000 0.000000 0.000000 0.029548 0.000000 0.015054
# 5 -0.005800 -0.000192 0.001815 0.000000 0.029732 0.000000
# 6 0.000000 0.000000 0.000000 0.015054 0.000000 0.048402
#
#
# Mechanical properties :
#
#
# Convention : Reuss Voigt Hill
#
# Bulk Modulus (GPa) = 38.94072 42.73302 40.83687
# Shear Modulus (GPa) = 30.21511 35.93015 33.07263
#
# Velocity S-wave (km/s) = 3.43593 3.74681 3.59473
# Velocity P-wave (km/s) = 5.56378 5.95102 5.76066
#
# Compressibility (1/GPa) = 0.02568006
#
# Stress axis : x y z
#
# Youngs Moduli (GPa) = 56.24453 88.90180 118.61150
#
# Poissons Ratio (x) = 0.25860 0.18889
# Poissons Ratio (y) = 0.16360 0.16464
# Poissons Ratio (z) = 0.08957 0.12340
#
# Static dielectric constant tensor:
#      x y z
#    x 4.612290 0.000000 -0.007400 
#    y 0.000000 4.785930 0.000000 
#    z -0.007400 0.000000 4.872930 
# 
# 
# High freq. dielectric constant tensor:
#      x y z
#    x 2.022750 0.000000 -0.007650 
#    y 0.000000 2.024030 0.000000 
#    z -0.007650 0.000000 2.052250 
# 
# From -- ./inp_files/14224.got.cif
#   From: 2010.03.12/outbox.cif.g09.slc.cpg/sg4_8_cif.got.tgz:14224.got - 2010.03.31 09:31:35.
