data_PCOD8047586
_publ_section_title
;
Structure prediction by ZEFSAII (Michael W. Deem and Ramdas Pophale) SiO2 
 PCOD8047586
Probable space group: P 21
;
_chemical_formula_sum "Si O2"
_cell_formula_units_Z 14
_cell_length_a 13.859145
_cell_length_b 5.013430
_cell_length_c 18.291498
_cell_angle_alpha 90.000000
_cell_angle_beta 24.179686
_cell_angle_gamma 90.000000
_cell_volume 520.571290
_symmetry_space_group_name_H-M "P 21"
_symmetry_group_IT_number 4
_symmetry_cell_setting 'monoclinic'
loop_
_space_group_symop_operation_xyz
x,y,z
-x,1/2+y,-z
loop_
_atom_site_type_symbol
_atom_site_label
_atom_site_fract_x
_atom_site_fract_y
_atom_site_fract_z
Si Si1 0.516486 0.670610 0.536937
Si Si2 0.719504 0.648094 0.898673
Si Si3 0.600485 0.302235 0.709241
Si Si4 0.112372 0.028667 0.609392
Si Si5 0.704128 0.306152 0.042328
Si Si6 0.058809 0.438038 0.917317
Si Si7 0.196921 0.827938 0.285455
O O1 0.552132 0.460875 0.446176
O O2 0.753963 0.697628 0.420868
O O3 0.312860 0.566026 0.730337
O O4 0.784030 0.614693 0.767956
O O5 0.771417 0.380295 0.911418
O O6 0.443829 0.689624 0.095235
O O7 0.896700 0.883089 0.801308
O O8 0.695281 0.330842 0.561371
O O9 0.491649 0.009274 0.791191
O O10 0.822625 0.334348 0.613165
O O11 0.399918 0.510187 0.875289
O O12 0.027727 0.197309 0.597940
O O13 0.944044 0.333315 0.922017
O O14 0.097490 0.179355 0.941729
#
# Coordination Sequence:
#
# PCOD8047586 Si02
#       7
#     2   2   2   2   2   2   2
#     4  12  29  50  74 111 150 194 251 311 370 429
#     4  11  24  44  71 103 142 192 240 296 353 454
#     4  11  28  46  74 110 146 190 241 302 370 444
#     4  12  28  45  74 107 151 192 242 307 370 425
#     4  11  25  47  74 103 146 192 246 295 368 431
#     4  12  25  47  77 106 147 194 252 306 364 440
#     4  11  25  43  72 100 146 186 240 289 365 443
#
# _framework density 26.893529999999998
#
# number of rings (size 3 to 8) (size 9 to 14) (size 15 to 20)
#    0.000    0.571    1.429    5.143   12.000    0.000 
#    0.000    0.000    0.000    0.000    0.000    0.000 
#    0.000    0.000    0.000    0.000    0.000    0.000 
#
# Total GULP energy -173571.053297 kJ/mol
# GULP energy per Si atom -12397.932378 kJ/mol
# Density = 2.683232 g / cm^3
# Si number density = 26.893530 Si / 1000 Ang^3
#
#
#
# Elastic Constant Matrix: (Units=GPa)
#
#
# Indices 1 2 3 4 5 6 
#
# 1 104.1818 -0.1251 23.2185 0.0000 -17.9229 0.0000
# 2 -0.1251 56.7063 -11.3227 0.0000 -11.0230 0.0000
# 3 23.2185 -11.3227 59.8346 0.0000 -12.5339 0.0000
# 4 0.0000 0.0000 0.0000 26.6312 0.0000 -2.9768
# 5 -17.9229 -11.0230 -12.5339 0.0000 49.6667 0.0000
# 6 0.0000 0.0000 0.0000 -2.9768 0.0000 45.3668
#
#
#
# Elastic Compliance Matrix: (Units=1/GPa)
#
#
# Indices 1 2 3 4 5 6 
#
# 1 0.010924 -0.000118 -0.003633 0.000000 0.002999 0.000000
# 2 -0.000118 0.019706 0.004943 0.000000 0.005578 0.000000
# 3 -0.003633 0.004943 0.020074 0.000000 0.004852 0.000000
# 4 0.000000 0.000000 0.000000 0.037827 0.000000 0.002482
# 5 0.002999 0.005578 0.004852 0.000000 0.023679 0.000000
# 6 0.000000 0.000000 0.000000 0.002482 0.000000 0.022205
#
#
# Mechanical properties :
#
#
# Convention : Reuss Voigt Hill
#
# Bulk Modulus (GPa) = 18.83659 27.14045 22.98852
# Shear Modulus (GPa) = 33.39375 38.26306 35.82841
#
# Velocity S-wave (km/s) = 3.52760 3.77604 3.65393
# Velocity P-wave (km/s) = 4.85915 5.39676 5.13500
#
# Compressibility (1/GPa) = 0.05308818
#
# Stress axis : x y z
#
# Youngs Moduli (GPa) = 91.54059 50.74620 49.81457
#
# Poissons Ratio (x) = 0.00601 0.18099
# Poissons Ratio (y) = 0.01084 -0.24626
# Poissons Ratio (z) = 0.33259 -0.25086
#
# Static dielectric constant tensor:
#      x y z
#    x 5.258430 0.000000 0.071690 
#    y 0.000000 4.828130 0.000000 
#    z 0.071690 0.000000 4.745020 
# 
# 
# High freq. dielectric constant tensor:
#      x y z
#    x 2.090120 0.000000 -0.002830 
#    y 0.000000 2.078870 0.000000 
#    z -0.002830 0.000000 2.087210 
# 
# From -- ./inp_files/10038.got.cif
#   From: 2010.03.12/outbox.cif.g09.slc.cpg/sg4_6_cif.got.tgz:10038.got - 2010.03.31 09:31:35.
