data_PCOD8047625
_publ_section_title
;
Structure prediction by ZEFSAII (Michael W. Deem and Ramdas Pophale) SiO2 
 PCOD8047625
Probable space group: P 21
;
_chemical_formula_sum "Si O2"
_cell_formula_units_Z 16
_cell_length_a 6.658219
_cell_length_b 17.036693
_cell_length_c 9.516185
_cell_angle_alpha 90.000000
_cell_angle_beta 45.598539
_cell_angle_gamma 90.000000
_cell_volume 771.224880
_symmetry_space_group_name_H-M "P 21"
_symmetry_group_IT_number 4
_symmetry_cell_setting 'monoclinic'
loop_
_space_group_symop_operation_xyz
x,y,z
-x,1/2+y,-z
loop_
_atom_site_type_symbol
_atom_site_label
_atom_site_fract_x
_atom_site_fract_y
_atom_site_fract_z
Si Si1 0.660024 0.073460 0.178704
Si Si2 0.280984 0.128929 0.862045
Si Si3 0.214029 0.149564 0.581294
Si Si4 0.005071 0.321112 0.637964
Si Si5 0.618775 0.909757 0.346267
Si Si6 0.688665 0.040284 0.846285
Si Si7 0.623395 0.800476 0.081280
Si Si8 0.017436 0.376582 0.321303
O O1 0.425015 0.132614 0.350608
O O2 0.673813 0.997528 0.269502
O O3 0.582995 0.048148 0.058176
O O4 0.948807 0.120700 0.042378
O O5 0.357013 0.126168 0.659585
O O6 0.432966 0.056912 0.865409
O O7 0.384880 0.208822 0.881243
O O8 0.147376 0.241219 0.618756
O O9 0.933448 0.101037 0.690482
O O10 0.163772 0.393128 0.634613
O O11 0.033574 0.329347 0.457628
O O12 0.676177 0.323868 0.840425
O O13 0.685609 0.849007 0.190456
O O14 0.300657 0.901893 0.558157
O O15 0.787167 0.952512 0.769520
O O16 0.873777 0.817424 0.850590
#
# Coordination Sequence:
#
# PCOD8047625 Si02
#       8
#     2   2   2   2   2   2   2   2
#     4  11  26  41  68  97 130 177 218 272 327 388
#     4  11  26  41  68  97 130 177 218 272 327 388
#     4  11  24  46  64  95 136 172 218 271 327 390
#     4  11  26  41  68  97 130 177 218 272 327 388
#     4  11  24  46  64  95 136 172 218 271 327 390
#     4  11  24  46  64  95 136 172 218 271 327 390
#     4  11  24  46  64  95 136 172 218 271 327 390
#     4  11  26  41  68  97 130 177 218 272 327 388
#
# _framework density 20.746217999999999
#
# number of rings (size 3 to 8) (size 9 to 14) (size 15 to 20)
#    0.000    1.000    5.000    0.000    7.000    2.000 
#    0.000    0.000    0.000    0.000    0.000    0.000 
#    0.000    0.000    0.000    0.000    0.000    0.000 
#
# Total GULP energy -198520.889998 kJ/mol
# GULP energy per Si atom -12407.555625 kJ/mol
# Density = 2.069900 g / cm^3
# Si number density = 20.746218 Si / 1000 Ang^3
#
#
#
# Elastic Constant Matrix: (Units=GPa)
#
#
# Indices 1 2 3 4 5 6 
#
# 1 62.9372 15.3504 30.6136 0.0000 0.0325 0.0000
# 2 15.3504 39.1359 3.5816 0.0000 0.1916 0.0000
# 3 30.6136 3.5816 117.2668 0.0000 -0.9201 0.0000
# 4 0.0000 0.0000 0.0000 36.4527 0.0000 0.0345
# 5 0.0325 0.1916 -0.9201 0.0000 15.3892 0.0000
# 6 0.0000 0.0000 0.0000 0.0345 0.0000 38.4889
#
#
#
# Elastic Compliance Matrix: (Units=1/GPa)
#
#
# Indices 1 2 3 4 5 6 
#
# 1 0.020154 -0.007443 -0.005036 0.000000 -0.000251 0.000000
# 2 -0.007443 0.028374 0.001074 0.000000 -0.000273 0.000000
# 3 -0.005036 0.001074 0.009814 0.000000 0.000584 0.000000
# 4 0.000000 0.000000 0.000000 0.027433 0.000000 -0.000025
# 5 -0.000251 -0.000273 0.000584 0.000000 0.065019 0.000000
# 6 0.000000 0.000000 0.000000 -0.000025 0.000000 0.025982
#
#
# Mechanical properties :
#
#
# Convention : Reuss Voigt Hill
#
# Bulk Modulus (GPa) = 28.14285 35.38123 31.76204
# Shear Modulus (GPa) = 23.64853 29.38578 26.51716
#
# Velocity S-wave (km/s) = 3.37990 3.76765 3.57903
# Velocity P-wave (km/s) = 5.36902 6.00152 5.69406
#
# Compressibility (1/GPa) = 0.03553301
#
# Stress axis : x y z
#
# Youngs Moduli (GPa) = 49.61823 35.24310 101.89499
#
# Poissons Ratio (x) = 0.26231 0.51314
# Poissons Ratio (y) = 0.36930 -0.10946
# Poissons Ratio (z) = 0.24988 -0.03786
#
# Static dielectric constant tensor:
#      x y z
#    x 3.715050 0.000000 -0.003290 
#    y 0.000000 3.724310 0.000000 
#    z -0.003290 0.000000 3.915990 
# 
# 
# High freq. dielectric constant tensor:
#      x y z
#    x 1.813440 0.000000 -0.000090 
#    y 0.000000 1.820780 0.000000 
#    z -0.000090 0.000000 1.818930 
# 
# From -- ./inp_files/455.got.cif
#   From: 2010.03.12/outbox.cif.g09.slc.cpg/sg4_1_cif.got.tgz:455.got - 2010.03.31 09:31:35.
