data_PCOD8047346
_publ_section_title
;
Structure prediction by ZEFSAII (Michael W. Deem and Ramdas Pophale) SiO2 
 PCOD8047346
Probable space group: P 21
;
_chemical_formula_sum "Si O2"
_cell_formula_units_Z 16
_cell_length_a 10.846802
_cell_length_b 8.668681
_cell_length_c 14.334470
_cell_angle_alpha 90.000000
_cell_angle_beta 148.782854
_cell_angle_gamma 90.000000
_cell_volume 698.559338
_symmetry_space_group_name_H-M "P 21"
_symmetry_group_IT_number 4
_symmetry_cell_setting 'monoclinic'
loop_
_space_group_symop_operation_xyz
x,y,z
-x,1/2+y,-z
loop_
_atom_site_type_symbol
_atom_site_label
_atom_site_fract_x
_atom_site_fract_y
_atom_site_fract_z
Si Si1 0.412008 0.587100 0.854410
Si Si2 0.267060 0.436728 0.296552
Si Si3 0.079404 0.749673 0.425178
Si Si4 0.264643 0.931753 0.082790
Si Si5 0.701370 0.894135 0.050977
Si Si6 0.906355 0.545983 0.458007
Si Si7 0.385512 0.587523 0.179780
Si Si8 0.464020 0.124186 0.373108
O O1 0.521283 0.469923 0.849031
O O2 0.443450 0.510434 0.976058
O O3 0.132920 0.615211 0.658701
O O4 0.536558 0.749458 0.925485
O O5 0.367386 0.502586 0.265709
O O6 0.310817 0.252591 0.328246
O O7 0.405489 0.511573 0.471419
O O8 0.987936 0.475286 0.127229
O O9 0.344125 0.709035 0.567466
O O10 0.949069 0.835222 0.255149
O O11 0.938121 0.596521 0.369388
O O12 0.096047 0.862131 0.526496
O O13 0.258235 0.751673 0.102605
O O14 0.288696 0.025494 0.194685
O O15 0.746542 0.981808 0.983154
O O16 0.662486 0.617959 0.337813
#
# Coordination Sequence:
#
# PCOD8047346 Si02
#       8
#     2   2   2   2   2   2   2   2
#     4  11  22  43  67 107 145 188 236 304 369 449
#     4  12  28  49  76 105 146 201 247 311 361 435
#     4  11  23  43  72 107 148 193 235 307 367 446
#     4  12  26  48  74 104 145 196 247 305 370 437
#     4  11  24  41  69 106 147 186 243 296 376 442
#     4  11  22  42  72 102 148 186 236 299 381 436
#     4  12  25  47  70 105 145 190 245 307 368 438
#     4  12  26  51  72 110 148 194 257 301 368 439
#
# _framework density 22.904281999999998
#
# number of rings (size 3 to 8) (size 9 to 14) (size 15 to 20)
#    0.000    0.500    2.500    6.750    0.000    3.000 
#    9.000    0.000    0.000    0.000    0.000    0.000 
#    0.000    0.000    0.000    0.000    0.000    0.000 
#
# Total GULP energy -198445.517783 kJ/mol
# GULP energy per Si atom -12402.844861 kJ/mol
# Density = 2.285215 g / cm^3
# Si number density = 22.904282 Si / 1000 Ang^3
#
#
#
# Elastic Constant Matrix: (Units=GPa)
#
#
# Indices 1 2 3 4 5 6 
#
# 1 54.3279 12.0723 9.7455 0.0000 2.8334 0.0000
# 2 12.0723 117.4149 40.6412 0.0000 -10.2136 0.0000
# 3 9.7455 40.6412 93.9132 0.0000 11.6026 0.0000
# 4 0.0000 0.0000 0.0000 33.5708 0.0000 -15.0744
# 5 2.8334 -10.2136 11.6026 0.0000 31.8141 0.0000
# 6 0.0000 0.0000 0.0000 -15.0744 0.0000 43.1139
#
#
#
# Elastic Compliance Matrix: (Units=1/GPa)
#
#
# Indices 1 2 3 4 5 6 
#
# 1 0.019079 -0.001795 -0.000966 0.000000 -0.001923 0.000000
# 2 -0.001795 0.011016 -0.005275 0.000000 0.005620 0.000000
# 3 -0.000966 -0.005275 0.013854 0.000000 -0.006660 0.000000
# 4 0.000000 0.000000 0.000000 0.035335 0.000000 0.012355
# 5 -0.001923 0.005620 -0.006660 0.000000 0.035837 0.000000
# 6 0.000000 0.000000 0.000000 0.012355 0.000000 0.027514
#
#
# Mechanical properties :
#
#
# Convention : Reuss Voigt Hill
#
# Bulk Modulus (GPa) = 35.87067 43.39712 39.63390
# Shear Modulus (GPa) = 29.76181 35.24624 32.50403
#
# Velocity S-wave (km/s) = 3.60863 3.92707 3.77121
# Velocity P-wave (km/s) = 5.74961 6.28895 6.02532
#
# Compressibility (1/GPa) = 0.02787793
#
# Stress axis : x y z
#
# Youngs Moduli (GPa) = 52.41346 90.77488 72.18052
#
# Poissons Ratio (x) = 0.16292 0.06969
# Poissons Ratio (y) = 0.09407 0.38079
# Poissons Ratio (z) = 0.05061 0.47888
#
# Static dielectric constant tensor:
#      x y z
#    x 4.082310 0.000000 -0.003470 
#    y 0.000000 4.416580 0.000000 
#    z -0.003470 0.000000 4.248360 
# 
# 
# High freq. dielectric constant tensor:
#      x y z
#    x 1.895240 0.000000 0.001400 
#    y 0.000000 1.918000 0.000000 
#    z 0.001400 0.000000 1.918500 
# 
# From -- ./inp_files/13971.got.cif
#   From: 2010.03.12/outbox.cif.g09.slc.cpg/sg4_7_cif.got.tgz:13971.got - 2010.03.31 09:31:35.
