data_PCOD8047164
_publ_section_title
;
Structure prediction by ZEFSAII (Michael W. Deem and Ramdas Pophale) SiO2 
 PCOD8047164
Probable space group: P 21
;
_chemical_formula_sum "Si O2"
_cell_formula_units_Z 14
_cell_length_a 9.091726
_cell_length_b 9.186494
_cell_length_c 9.091712
_cell_angle_alpha 90.000000
_cell_angle_beta 51.769395
_cell_angle_gamma 90.000000
_cell_volume 596.489248
_symmetry_space_group_name_H-M "P 21"
_symmetry_group_IT_number 4
_symmetry_cell_setting 'monoclinic'
loop_
_space_group_symop_operation_xyz
x,y,z
-x,1/2+y,-z
loop_
_atom_site_type_symbol
_atom_site_label
_atom_site_fract_x
_atom_site_fract_y
_atom_site_fract_z
Si Si1 0.193399 0.918800 0.499316
Si Si2 0.571727 0.853894 0.428273
Si Si3 0.243861 0.525859 0.909924
Si Si4 0.178371 0.940036 0.166653
Si Si5 0.909924 0.681928 0.243859
Si Si6 0.833346 0.767751 0.821632
Si Si7 0.500687 0.788987 0.806600
O O1 0.378051 0.853861 0.461399
O O2 0.228744 0.929891 0.305996
O O3 0.034661 0.805093 0.634269
O O4 0.126279 0.077379 0.595260
O O5 0.538601 0.853925 0.621949
O O6 0.703888 0.714831 0.304993
O O7 0.695002 0.992959 0.296116
O O8 0.404738 0.630410 0.873727
O O9 0.040919 0.603891 0.040919
O O10 0.235088 0.375288 0.006601
O O11 0.006606 0.832498 0.235082
O O12 0.138525 0.103893 0.138522
O O13 0.365738 0.902696 0.965338
O O14 0.694009 0.777895 0.771252
#
# Coordination Sequence:
#
# PCOD8047164 Si02
#       7
#     2   2   2   2   2   2   2
#     4  11  24  44  68 101 138 177 227 286 339 401
#     4  12  24  42  68  96 134 178 220 272 340 406
#     4  10  25  45  68  99 138 175 225 288 341 400
#     4  11  23  43  71 100 133 181 231 279 340 408
#     4  10  25  45  68  99 138 175 225 288 341 400
#     4  11  23  43  71 100 133 181 231 279 340 408
#     4  11  24  44  68 101 138 177 227 286 339 401
#
# _framework density 23.470669000000001
#
# number of rings (size 3 to 8) (size 9 to 14) (size 15 to 20)
#    0.000    1.143    0.000    6.000    0.000   10.286 
#    0.000   11.429    0.000    0.000    0.000    0.000 
#    0.000    0.000    0.000    0.000    0.000    0.000 
#
# Total GULP energy -173546.907709 kJ/mol
# GULP energy per Si atom -12396.207694 kJ/mol
# Density = 2.341725 g / cm^3
# Si number density = 23.470669 Si / 1000 Ang^3
#
#
#
# Elastic Constant Matrix: (Units=GPa)
#
#
# Indices 1 2 3 4 5 6 
#
# 1 109.5137 67.0552 69.8016 0.0000 -38.9347 0.0000
# 2 67.0552 183.6411 82.5117 0.0000 -13.3857 0.0000
# 3 69.8016 82.5117 181.2135 0.0000 -23.1557 0.0000
# 4 0.0000 0.0000 0.0000 29.9661 0.0000 -1.6860
# 5 -38.9347 -13.3857 -23.1557 0.0000 28.6734 0.0000
# 6 0.0000 0.0000 0.0000 -1.6860 0.0000 28.0197
#
#
#
# Elastic Compliance Matrix: (Units=1/GPa)
#
#
# Indices 1 2 3 4 5 6 
#
# 1 0.024639 -0.005402 -0.003432 0.000000 0.028163 0.000000
# 2 -0.005402 0.008045 -0.002274 0.000000 -0.005416 0.000000
# 3 -0.003432 -0.002274 0.007967 0.000000 0.000711 0.000000
# 4 0.000000 0.000000 0.000000 0.033484 0.000000 0.002015
# 5 0.028163 -0.005416 0.000711 0.000000 0.071163 0.000000
# 6 0.000000 0.000000 0.000000 0.002015 0.000000 0.035810
#
#
# Mechanical properties :
#
#
# Convention : Reuss Voigt Hill
#
# Bulk Modulus (GPa) = 54.24826 101.45613 77.85220
# Shear Modulus (GPa) = 23.86965 34.33183 29.10074
#
# Velocity S-wave (km/s) = 3.19250 3.82875 3.52501
# Velocity P-wave (km/s) = 6.06241 7.92883 7.05759
#
# Compressibility (1/GPa) = 0.01843377
#
# Stress axis : x y z
#
# Youngs Moduli (GPa) = 40.58581 124.30110 125.51739
#
# Poissons Ratio (x) = 0.67144 0.43084
# Poissons Ratio (y) = 0.21923 0.28549
# Poissons Ratio (z) = 0.13931 0.28272
#
# Static dielectric constant tensor:
#      x y z
#    x 4.210400 0.000000 -0.278960 
#    y 0.000000 4.496290 0.000000 
#    z -0.278960 0.000000 4.532500 
# 
# 
# High freq. dielectric constant tensor:
#      x y z
#    x 1.929080 0.000000 -0.018760 
#    y 0.000000 1.937230 0.000000 
#    z -0.018760 0.000000 1.950740 
# 
# From -- ./inp_files/5772.got.cif
#   From: 2010.03.12/outbox.cif.g09.slc.cpg/sg4_3_cif.got.tgz:5772.got - 2010.03.31 09:31:35.
