data_PCOD8047921
_publ_section_title
;
Structure prediction by ZEFSAII (Michael W. Deem and Ramdas Pophale) SiO2 
 PCOD8047921
Probable space group: P 21
;
_chemical_formula_sum "Si O2"
_cell_formula_units_Z 8
_cell_length_a 6.108852
_cell_length_b 4.853092
_cell_length_c 13.888351
_cell_angle_alpha 90.000000
_cell_angle_beta 48.723988
_cell_angle_gamma 90.000000
_cell_volume 309.443338
_symmetry_space_group_name_H-M "P 21"
_symmetry_group_IT_number 4
_symmetry_cell_setting 'monoclinic'
loop_
_space_group_symop_operation_xyz
x,y,z
-x,1/2+y,-z
loop_
_atom_site_type_symbol
_atom_site_label
_atom_site_fract_x
_atom_site_fract_y
_atom_site_fract_z
Si Si1 0.657169 0.377580 0.413977
Si Si2 0.101031 0.638483 0.413950
Si Si3 0.292539 0.007294 0.805105
Si Si4 0.340762 0.756582 0.999858
O O1 0.408350 0.609137 0.504191
O O2 0.694995 0.300454 0.290230
O O3 0.960921 0.508012 0.359397
O O4 0.434602 0.714805 0.290178
O O5 0.921578 0.907313 0.495488
O O6 0.349012 0.836268 0.885425
O O7 0.994768 0.177855 0.886115
O O8 0.561686 0.506085 0.958604
#
# Coordination Sequence:
#
# PCOD8047921 Si02
#       4
#     2   2   2   2
#     4  12  25  46  74 112 156 204 253 323 396 476
#     4  12  25  46  74 112 156 204 253 323 396 476
#     4  12  28  52  84 116 166 210 272 334 414 476
#     4  12  30  54  82 122 160 220 276 340 400 486
#
# _framework density 25.852874
#
# number of rings (size 3 to 8) (size 9 to 14) (size 15 to 20)
#    0.000    0.000    5.000    3.000    0.000   16.000 
#    0.000    0.000    0.000    0.000    0.000    0.000 
#    0.000    0.000    0.000    0.000    0.000    0.000 
#
# Total GULP energy -99145.471733 kJ/mol
# GULP energy per Si atom -12393.183967 kJ/mol
# Density = 2.579403 g / cm^3
# Si number density = 25.852874 Si / 1000 Ang^3
#
#
#
# Elastic Constant Matrix: (Units=GPa)
#
#
# Indices 1 2 3 4 5 6 
#
# 1 204.0714 63.9646 101.2293 0.0000 -1.9354 0.0000
# 2 63.9646 130.4896 57.3154 0.0000 -0.2988 0.0000
# 3 101.2293 57.3154 185.8008 0.0000 1.7165 0.0000
# 4 0.0000 0.0000 0.0000 16.1145 0.0000 2.4504
# 5 -1.9354 -0.2988 1.7165 0.0000 60.0261 0.0000
# 6 0.0000 0.0000 0.0000 2.4504 0.0000 52.2637
#
#
#
# Elastic Compliance Matrix: (Units=1/GPa)
#
#
# Indices 1 2 3 4 5 6 
#
# 1 0.007179 -0.002081 -0.003272 0.000000 0.000315 0.000000
# 2 -0.002081 0.009469 -0.001787 0.000000 0.000031 0.000000
# 3 -0.003272 -0.001787 0.007719 0.000000 -0.000335 0.000000
# 4 0.000000 0.000000 0.000000 0.062501 0.000000 -0.002930
# 5 0.000315 0.000031 -0.000335 0.000000 0.016679 0.000000
# 6 0.000000 0.000000 0.000000 -0.002930 0.000000 0.019271
#
#
# Mechanical properties :
#
#
# Convention : Reuss Voigt Hill
#
# Bulk Modulus (GPa) = 99.15025 107.26450 103.20737
# Shear Modulus (GPa) = 35.59702 45.53769 40.56736
#
# Velocity S-wave (km/s) = 3.71470 4.20148 3.96556
# Velocity P-wave (km/s) = 7.53881 8.06951 7.80867
#
# Compressibility (1/GPa) = 0.01008570
#
# Stress axis : x y z
#
# Youngs Moduli (GPa) = 139.30300 105.61152 129.54556
#
# Poissons Ratio (x) = 0.21977 0.42388
# Poissons Ratio (y) = 0.28988 0.23155
# Poissons Ratio (z) = 0.45581 0.18877
#
# Static dielectric constant tensor:
#      x y z
#    x 5.292260 0.000000 0.040750 
#    y 0.000000 4.472010 0.000000 
#    z 0.040750 0.000000 4.695350 
# 
# 
# High freq. dielectric constant tensor:
#      x y z
#    x 2.088600 0.000000 0.003870 
#    y 0.000000 2.013120 0.000000 
#    z 0.003870 0.000000 2.030740 
# 
# From -- ./inp_files/10219.got.cif
#   From: 2010.03.12/outbox.cif.g09.slc.cpg/sg4_6_cif.got.tgz:10219.got - 2010.03.31 09:31:35.
