data_PCOD8047879
_publ_section_title
;
Structure prediction by ZEFSAII (Michael W. Deem and Ramdas Pophale) SiO2 
 PCOD8047879
Probable space group: P 21
;
_chemical_formula_sum "Si O2"
_cell_formula_units_Z 14
_cell_length_a 19.811670
_cell_length_b 6.267652
_cell_length_c 14.549932
_cell_angle_alpha 90.000000
_cell_angle_beta 18.478905
_cell_angle_gamma 90.000000
_cell_volume 572.644632
_symmetry_space_group_name_H-M "P 21"
_symmetry_group_IT_number 4
_symmetry_cell_setting 'monoclinic'
loop_
_space_group_symop_operation_xyz
x,y,z
-x,1/2+y,-z
loop_
_atom_site_type_symbol
_atom_site_label
_atom_site_fract_x
_atom_site_fract_y
_atom_site_fract_z
Si Si1 0.190909 0.285580 0.827335
Si Si2 0.016314 0.982674 0.581707
Si Si3 0.233845 0.223720 0.459181
Si Si4 0.253801 0.935536 0.611731
Si Si5 0.058742 0.111017 0.184597
Si Si6 0.500203 0.531168 0.319243
Si Si7 0.333070 0.766552 0.049354
O O1 0.339776 0.488101 0.611218
O O2 0.310215 0.088961 0.623621
O O3 0.165071 0.258727 0.969115
O O4 0.956960 0.306987 0.085438
O O5 0.111395 0.161756 0.524412
O O6 0.787526 0.061676 0.838129
O O7 0.166635 0.943902 0.298718
O O8 0.017531 0.758679 0.633234
O O9 0.130067 0.460592 0.611912
O O10 0.194153 0.056943 0.593673
O O11 0.488062 0.209784 0.104638
O O12 0.451351 0.770698 0.345645
O O13 0.257430 0.979100 0.965933
O O14 0.484319 0.361498 0.256582
#
# Coordination Sequence:
#
# PCOD8047879 Si02
#       7
#     2   2   2   2   2   2   2
#     4  12  25  42  73 107 149 203 254 310 387 467
#     4  12  29  52  78 111 155 200 262 332 390 474
#     4  12  27  49  79 112 152 206 263 316 396 470
#     4  12  24  47  72 108 158 202 257 317 387 459
#     4  12  28  47  72 114 155 200 264 320 390 473
#     4  12  27  45  73 110 155 204 255 324 390 464
#     4  12  28  52  79 110 154 203 261 325 398 461
#
# _framework density 24.447970999999999
#
# number of rings (size 3 to 8) (size 9 to 14) (size 15 to 20)
#    0.000    0.000    5.714    3.429    4.000    0.000 
#    0.000    0.000    0.000    0.000    0.000    0.000 
#    0.000    0.000    0.000    0.000    0.000    0.000 
#
# Total GULP energy -173514.122088 kJ/mol
# GULP energy per Si atom -12393.865863 kJ/mol
# Density = 2.439233 g / cm^3
# Si number density = 24.447971 Si / 1000 Ang^3
#
#
#
# Elastic Constant Matrix: (Units=GPa)
#
#
# Indices 1 2 3 4 5 6 
#
# 1 80.1536 32.1229 40.1537 0.0000 -11.2102 0.0000
# 2 32.1229 100.4730 52.0861 0.0000 -5.4318 0.0000
# 3 40.1537 52.0861 132.9639 0.0000 -13.5584 0.0000
# 4 0.0000 0.0000 0.0000 58.7702 0.0000 -3.2882
# 5 -11.2102 -5.4318 -13.5584 0.0000 50.7613 0.0000
# 6 0.0000 0.0000 0.0000 -3.2882 0.0000 44.3633
#
#
#
# Elastic Compliance Matrix: (Units=1/GPa)
#
#
# Indices 1 2 3 4 5 6 
#
# 1 0.015710 -0.003213 -0.003256 0.000000 0.002256 0.000000
# 2 -0.003213 0.013146 -0.004223 0.000000 -0.000431 0.000000
# 3 -0.003256 -0.004223 0.010320 0.000000 0.001586 0.000000
# 4 0.000000 0.000000 0.000000 0.017086 0.000000 0.001266
# 5 0.002256 -0.000431 0.001586 0.000000 0.020576 0.000000
# 6 0.000000 0.000000 0.000000 0.001266 0.000000 0.022635
#
#
# Mechanical properties :
#
#
# Convention : Reuss Voigt Hill
#
# Bulk Modulus (GPa) = 56.20380 62.47956 59.34168
# Shear Modulus (GPa) = 39.43563 43.39415 41.41489
#
# Velocity S-wave (km/s) = 4.02063 4.21760 4.12029
# Velocity P-wave (km/s) = 6.67780 7.02347 6.85281
#
# Compressibility (1/GPa) = 0.01779239
#
# Stress axis : x y z
#
# Youngs Moduli (GPa) = 63.65285 76.06647 96.89789
#
# Poissons Ratio (x) = 0.24441 0.31546
# Poissons Ratio (y) = 0.20453 0.40924
# Poissons Ratio (z) = 0.20723 0.32126
#
# Static dielectric constant tensor:
#      x y z
#    x 4.371430 0.000000 -0.137830 
#    y 0.000000 4.341220 0.000000 
#    z -0.137830 0.000000 4.497430 
# 
# 
# High freq. dielectric constant tensor:
#      x y z
#    x 1.970500 0.000000 -0.008630 
#    y 0.000000 1.970740 0.000000 
#    z -0.008630 0.000000 1.982690 
# 
# From -- ./inp_files/14380.got.cif
#   From: 2010.03.12/outbox.cif.g09.slc.cpg/sg4_8_cif.got.tgz:14380.got - 2010.03.31 09:31:35.
