data_PCOD8047484
_publ_section_title
;
Structure prediction by ZEFSAII (Michael W. Deem and Ramdas Pophale) SiO2 
 PCOD8047484
Probable space group: P 21
;
_chemical_formula_sum "Si O2"
_cell_formula_units_Z 10
_cell_length_a 7.824995
_cell_length_b 7.389776
_cell_length_c 10.059081
_cell_angle_alpha 90.000000
_cell_angle_beta 132.868397
_cell_angle_gamma 90.000000
_cell_volume 426.313601
_symmetry_space_group_name_H-M "P 21"
_symmetry_group_IT_number 4
_symmetry_cell_setting 'monoclinic'
loop_
_space_group_symop_operation_xyz
x,y,z
-x,1/2+y,-z
loop_
_atom_site_type_symbol
_atom_site_label
_atom_site_fract_x
_atom_site_fract_y
_atom_site_fract_z
Si Si1 0.085343 0.058780 0.256036
Si Si2 0.316222 0.743425 0.797681
Si Si3 0.069888 0.363160 0.052765
Si Si4 0.444567 0.037802 0.662055
Si Si5 0.555870 0.386917 0.867398
O O1 0.136346 0.165490 0.143868
O O2 0.932264 0.173073 0.279258
O O3 0.328183 0.013253 0.455576
O O4 0.962801 0.877965 0.127414
O O5 0.297981 0.909470 0.684898
O O6 0.433177 0.578309 0.781462
O O7 0.484117 0.807597 0.005772
O O8 0.282093 0.494379 0.205274
O O9 0.830714 0.416610 0.998034
O O10 0.435358 0.246749 0.701953
#
# Coordination Sequence:
#
# PCOD8047484 Si02
#       5
#     2   2   2   2   2
#     4  11  27  46  72 107 140 194 238 296 364 420
#     4  11  23  47  71 105 146 186 240 302 348 428
#     4  11  23  49  69 101 147 184 236 301 349 424
#     4  12  26  46  73 107 144 191 248 288 361 432
#     4  11  23  44  75 102 145 195 236 293 368 410
#
# _framework density 23.456910000000001
#
# number of rings (size 3 to 8) (size 9 to 14) (size 15 to 20)
#    0.000    0.800    6.000    1.200    5.600    0.000 
#    3.600    0.000    0.000    0.000    0.000    0.000 
#    0.000    0.000    0.000    0.000    0.000    0.000 
#
# Total GULP energy -123916.956258 kJ/mol
# GULP energy per Si atom -12391.695626 kJ/mol
# Density = 2.340352 g / cm^3
# Si number density = 23.456910 Si / 1000 Ang^3
#
#
#
# Elastic Constant Matrix: (Units=GPa)
#
#
# Indices 1 2 3 4 5 6 
#
# 1 93.2674 51.3465 45.6610 0.0000 -0.5485 0.0000
# 2 51.3465 61.7956 34.4087 0.0000 -11.7643 0.0000
# 3 45.6610 34.4087 194.1193 0.0000 -16.5257 0.0000
# 4 0.0000 0.0000 0.0000 26.1474 0.0000 -12.3141
# 5 -0.5485 -11.7643 -16.5257 0.0000 27.4635 0.0000
# 6 0.0000 0.0000 0.0000 -12.3141 0.0000 40.9989
#
#
#
# Elastic Compliance Matrix: (Units=1/GPa)
#
#
# Indices 1 2 3 4 5 6 
#
# 1 0.022362 -0.018834 -0.002709 0.000000 -0.009251 0.000000
# 2 -0.018834 0.034837 -0.000534 0.000000 0.014225 0.000000
# 3 -0.002709 -0.000534 0.006176 0.000000 0.003433 0.000000
# 4 0.000000 0.000000 0.000000 0.044546 0.000000 0.013379
# 5 -0.009251 0.014225 0.003433 0.000000 0.044387 0.000000
# 6 0.000000 0.000000 0.000000 0.013379 0.000000 0.028409
#
#
# Mechanical properties :
#
#
# Convention : Reuss Voigt Hill
#
# Bulk Modulus (GPa) = 52.02617 68.00164 60.01390
# Shear Modulus (GPa) = 21.61902 33.43971 27.52936
#
# Velocity S-wave (km/s) = 3.03916 3.77978 3.42952
# Velocity P-wave (km/s) = 5.87732 6.93556 6.42825
#
# Compressibility (1/GPa) = 0.01922110
#
# Stress axis : x y z
#
# Youngs Moduli (GPa) = 44.71795 28.70518 161.92549
#
# Poissons Ratio (x) = 0.54063 0.43871
# Poissons Ratio (y) = 0.84221 0.08645
# Poissons Ratio (z) = 0.12115 0.01533
#
# Static dielectric constant tensor:
#      x y z
#    x 4.179900 0.000000 -0.115340 
#    y 0.000000 4.541480 0.000000 
#    z -0.115340 0.000000 4.087850 
# 
# 
# High freq. dielectric constant tensor:
#      x y z
#    x 1.927770 0.000000 0.000850 
#    y 0.000000 1.935680 0.000000 
#    z 0.000850 0.000000 1.915500 
# 
# From -- ./inp_files/7436.got.cif
#   From: 2010.03.12/outbox.cif.g09.slc.cpg/sg4_4_cif.got.tgz:7436.got - 2010.03.31 09:31:35.
