data_PCOD8047596
_publ_section_title
;
Structure prediction by ZEFSAII (Michael W. Deem and Ramdas Pophale) SiO2 
 PCOD8047596
Probable space group: P 21
;
_chemical_formula_sum "Si O2"
_cell_formula_units_Z 14
_cell_length_a 8.201733
_cell_length_b 11.635778
_cell_length_c 7.887512
_cell_angle_alpha 90.000000
_cell_angle_beta 130.374517
_cell_angle_gamma 90.000000
_cell_volume 573.452113
_symmetry_space_group_name_H-M "P 21"
_symmetry_group_IT_number 4
_symmetry_cell_setting 'monoclinic'
loop_
_space_group_symop_operation_xyz
x,y,z
-x,1/2+y,-z
loop_
_atom_site_type_symbol
_atom_site_label
_atom_site_fract_x
_atom_site_fract_y
_atom_site_fract_z
Si Si1 0.976638 0.650550 0.487027
Si Si2 0.469972 0.280625 0.798139
Si Si3 0.916680 0.204542 0.100169
Si Si4 0.005685 0.957620 0.772889
Si Si5 0.397911 0.782161 0.741503
Si Si6 0.550777 0.942389 0.542533
Si Si7 0.290908 0.101729 0.173768
O O1 0.739468 0.703718 0.312794
O O2 0.039781 0.611972 0.721475
O O3 0.990007 0.530560 0.396313
O O4 0.153132 0.743902 0.542592
O O5 0.429628 0.374708 0.625124
O O6 0.672065 0.202149 0.869483
O O7 0.551598 0.333223 0.035922
O O8 0.976217 0.321934 0.242820
O O9 0.087295 0.185519 0.065864
O O10 0.792130 0.984872 0.740053
O O11 0.210920 0.989387 0.022830
O O12 0.461374 0.870748 0.638254
O O13 0.540513 0.667947 0.826519
O O14 0.400762 0.054676 0.419940
#
# Coordination Sequence:
#
# PCOD8047596 Si02
#       7
#     2   2   2   2   2   2   2
#     4  11  24  44  74 104 144 188 246 300 366 434
#     4  11  24  46  73 100 148 189 240 314 356 434
#     4  11  26  46  70 109 146 190 246 302 367 441
#     4  12  24  43  74 104 143 193 242 300 369 435
#     4  11  25  45  74 107 140 193 247 299 369 437
#     4  12  26  48  71 105 150 193 247 306 363 434
#     4  12  25  46  72 107 147 192 246 305 368 435
#
# _framework density 24.413547000000001
#
# number of rings (size 3 to 8) (size 9 to 14) (size 15 to 20)
#    0.000    0.571    7.143    0.000    2.000    4.571 
#    2.571    0.000    0.000    0.000    0.000    0.000 
#    0.000    0.000    0.000    0.000    0.000    0.000 
#
# Total GULP energy -173498.038384 kJ/mol
# GULP energy per Si atom -12392.717027 kJ/mol
# Density = 2.435798 g / cm^3
# Si number density = 24.413547 Si / 1000 Ang^3
#
#
#
# Elastic Constant Matrix: (Units=GPa)
#
#
# Indices 1 2 3 4 5 6 
#
# 1 132.9159 19.1862 23.0794 0.0000 30.5381 0.0000
# 2 19.1862 38.4415 -5.1794 0.0000 3.9455 0.0000
# 3 23.0794 -5.1794 70.2756 0.0000 17.7001 0.0000
# 4 0.0000 0.0000 0.0000 32.1674 0.0000 2.4546
# 5 30.5381 3.9455 17.7001 0.0000 56.6692 0.0000
# 6 0.0000 0.0000 0.0000 2.4546 0.0000 37.6744
#
#
#
# Elastic Compliance Matrix: (Units=1/GPa)
#
#
# Indices 1 2 3 4 5 6 
#
# 1 0.009560 -0.004687 -0.002463 0.000000 -0.004056 0.000000
# 2 -0.004687 0.028942 0.003846 0.000000 -0.000691 0.000000
# 3 -0.002463 0.003846 0.016341 0.000000 -0.004044 0.000000
# 4 0.000000 0.000000 0.000000 0.031243 0.000000 -0.002036
# 5 -0.004056 -0.000691 -0.004044 0.000000 0.021143 0.000000
# 6 0.000000 0.000000 0.000000 -0.002036 0.000000 0.026676
#
#
# Mechanical properties :
#
#
# Convention : Reuss Voigt Hill
#
# Bulk Modulus (GPa) = 20.73215 35.08950 27.91083
# Shear Modulus (GPa) = 31.93046 38.93866 35.43456
#
# Velocity S-wave (km/s) = 3.62041 3.99803 3.81390
# Velocity P-wave (km/s) = 5.09775 5.97633 5.55444
#
# Compressibility (1/GPa) = 0.04823426
#
# Stress axis : x y z
#
# Youngs Moduli (GPa) = 104.60596 34.55193 61.19658
#
# Poissons Ratio (x) = 0.16194 0.15075
# Poissons Ratio (y) = 0.49028 -0.23538
# Poissons Ratio (z) = 0.25769 -0.13290
#
# Static dielectric constant tensor:
#      x y z
#    x 4.702880 0.000000 0.370620 
#    y 0.000000 4.086120 0.000000 
#    z 0.370620 0.000000 4.591250 
# 
# 
# High freq. dielectric constant tensor:
#      x y z
#    x 1.992160 0.000000 0.021800 
#    y 0.000000 1.947740 0.000000 
#    z 0.021800 0.000000 1.982270 
# 
# From -- ./inp_files/5883.got.cif
#   From: 2010.03.12/outbox.cif.g09.slc.cpg/sg4_3_cif.got.tgz:5883.got - 2010.03.31 09:31:35.
