data_PCOD8047816
_publ_section_title
;
Structure prediction by ZEFSAII (Michael W. Deem and Ramdas Pophale) SiO2 
 PCOD8047816
Probable space group: P 21
;
_chemical_formula_sum "Si O2"
_cell_formula_units_Z 12
_cell_length_a 10.267352
_cell_length_b 5.100702
_cell_length_c 16.559954
_cell_angle_alpha 90.000000
_cell_angle_beta 142.973269
_cell_angle_gamma 90.000000
_cell_volume 522.251031
_symmetry_space_group_name_H-M "P 21"
_symmetry_group_IT_number 4
_symmetry_cell_setting 'monoclinic'
loop_
_space_group_symop_operation_xyz
x,y,z
-x,1/2+y,-z
loop_
_atom_site_type_symbol
_atom_site_label
_atom_site_fract_x
_atom_site_fract_y
_atom_site_fract_z
Si Si1 0.618750 0.271170 0.286829
Si Si2 0.125422 0.241648 0.031477
Si Si3 0.853160 0.233260 0.245604
Si Si4 0.266314 0.273143 0.564187
Si Si5 0.076309 0.226415 0.821071
Si Si6 0.576653 0.290867 0.579715
O O1 0.367123 0.262141 0.186886
O O2 0.650104 0.252623 0.205881
O O3 0.736820 0.531733 0.376170
O O4 0.752501 0.036834 0.393826
O O5 0.151922 0.277490 0.949228
O O6 0.973682 0.460737 0.995790
O O7 0.827269 0.456868 0.165355
O O8 0.074664 0.262755 0.404863
O O9 0.840765 0.957274 0.194803
O O10 0.494975 0.269048 0.630721
O O11 0.820066 0.198432 0.694200
O O12 0.560344 0.592197 0.543751
#
# Coordination Sequence:
#
# PCOD8047816 Si02
#       6
#     2   2   2   2   2   2
#     4  12  26  44  69  97 135 186 218 270 336 396
#     4  12  27  49  71  97 133 175 230 277 329 400
#     4  12  25  43  67 103 138 173 223 273 337 398
#     4  12  23  43  68 100 139 173 225 273 330 399
#     4  12  24  43  68 100 136 175 221 280 327 395
#     4  12  21  38  63  93 129 164 215 269 327 376
#
# _framework density 22.977454999999999
#
# number of rings (size 3 to 8) (size 9 to 14) (size 15 to 20)
#    0.000    0.000    3.333    8.000    0.000    1.333 
#    0.000    0.000    0.000    0.000    0.000    0.000 
#    0.000    0.000    0.000    0.000    0.000    0.000 
#
# Total GULP energy -148895.928399 kJ/mol
# GULP energy per Si atom -12407.994033 kJ/mol
# Density = 2.292516 g / cm^3
# Si number density = 22.977455 Si / 1000 Ang^3
#
#
#
# Elastic Constant Matrix: (Units=GPa)
#
#
# Indices 1 2 3 4 5 6 
#
# 1 113.5442 17.3371 1.5537 0.0000 -7.0235 0.0000
# 2 17.3371 -9.8170 9.2112 0.0000 21.4876 0.0000
# 3 1.5537 9.2112 68.0436 0.0000 -5.1231 0.0000
# 4 0.0000 0.0000 0.0000 -410.3333 0.0000 -645.9977
# 5 -7.0235 21.4876 -5.1231 0.0000 34.9822 0.0000
# 6 0.0000 0.0000 0.0000 -645.9977 0.0000 -870.9745
#
#
#
# Elastic Compliance Matrix: (Units=1/GPa)
#
#
# Indices 1 2 3 4 5 6 
#
# 1 0.007663 0.006532 -0.001259 0.000000 -0.002658 0.000000
# 2 0.006532 -0.033980 0.006189 0.000000 0.023090 0.000000
# 3 -0.001259 0.006189 0.013734 0.000000 -0.002043 0.000000
# 4 0.000000 0.000000 0.000000 0.014535 0.000000 -0.010780
# 5 -0.002658 0.023090 -0.002043 0.000000 0.013570 0.000000
# 6 0.000000 0.000000 0.000000 -0.010780 0.000000 0.006848
#
#
# Mechanical properties :
#
#
# Convention : Reuss Voigt Hill
#
# Bulk Modulus (GPa) = 96.71460 25.33053 61.02256
# Shear Modulus (GPa) = 1729.81189 -239.68720 745.06234
#
# Velocity S-wave (km/s) = 27.46752 -10.22451 18.02670
# Velocity P-wave (km/s) = 32.37491 11.32870 21.44523
#
# Compressibility (1/GPa) = 0.01033970
#
# Stress axis : x y z
#
# Youngs Moduli (GPa) = 130.50475 -29.42866 72.81460
#
# Poissons Ratio (x) = 0.19223 0.09170
# Poissons Ratio (y) = -0.85247 -0.45068
# Poissons Ratio (z) = 0.16435 0.18214
#
# Static dielectric constant tensor:
#      x y z
#    x 9.290480 0.000000 4.359250 
#    y 0.000000 4.272050 0.000000 
#    z 4.359250 0.000000 7.987350 
# 
# 
# High freq. dielectric constant tensor:
#      x y z
#    x 1.929050 0.000000 -0.000870 
#    y 0.000000 1.921930 0.000000 
#    z -0.000870 0.000000 1.895330 
# 
# From -- ./inp_files/9094.got.cif
#   From: 2010.03.12/outbox.cif.g09.slc.cpg/sg4_5_cif.got.tgz:9094.got - 2010.03.31 09:31:35.
