data_PCOD8047601
_publ_section_title
;
Structure prediction by ZEFSAII (Michael W. Deem and Ramdas Pophale) SiO2 
 PCOD8047601
Probable space group: P 21
;
_chemical_formula_sum "Si O2"
_cell_formula_units_Z 14
_cell_length_a 24.485411
_cell_length_b 5.088838
_cell_length_c 8.054149
_cell_angle_alpha 90.000000
_cell_angle_beta 146.974232
_cell_angle_gamma 90.000000
_cell_volume 546.959366
_symmetry_space_group_name_H-M "P 21"
_symmetry_group_IT_number 4
_symmetry_cell_setting 'monoclinic'
loop_
_space_group_symop_operation_xyz
x,y,z
-x,1/2+y,-z
loop_
_atom_site_type_symbol
_atom_site_label
_atom_site_fract_x
_atom_site_fract_y
_atom_site_fract_z
Si Si1 0.882734 0.281290 0.222182
Si Si2 0.777495 0.930902 0.716194
Si Si3 0.026229 0.462778 0.296652
Si Si4 0.222344 0.142812 0.816248
Si Si5 0.550657 0.769703 0.561017
Si Si6 0.832609 0.427689 0.655662
Si Si7 0.453063 0.455470 0.814096
O O1 0.800616 0.503202 0.063729
O O2 0.962123 0.336503 0.282206
O O3 0.943306 0.247104 0.550805
O O4 0.825916 0.011318 0.019414
O O5 0.799648 0.631965 0.717354
O O6 0.815745 0.131787 0.673506
O O7 0.661375 0.972078 0.433310
O O8 0.132359 0.331349 0.529101
O O9 0.954587 0.471885 0.951401
O O10 0.226940 0.947366 0.668581
O O11 0.329617 0.283347 0.102306
O O12 0.506845 0.476831 0.468946
O O13 0.524884 0.849813 0.310785
O O14 0.503936 0.249558 0.068947
#
# Coordination Sequence:
#
# PCOD8047601 Si02
#       7
#     2   2   2   2   2   2   2
#     4  11  24  45  76 110 153 208 259 318 380 485
#     4  11  27  50  73 113 154 206 263 320 394 468
#     4  11  24  44  76 109 155 202 262 313 388 470
#     4  12  30  48  78 114 164 212 255 329 405 455
#     4  12  32  55  80 118 161 208 267 333 399 470
#     4  11  29  46  78 113 164 203 255 319 396 481
#     4  12  28  50  85 113 151 203 271 336 394 461
#
# _framework density 25.596053999999999
#
# number of rings (size 3 to 8) (size 9 to 14) (size 15 to 20)
#    0.000    0.571    1.429    3.429   24.000    0.000 
#    0.000    0.000    0.000    0.000    0.000    0.000 
#    0.000    0.000    0.000    0.000    0.000    0.000 
#
# Total GULP energy -173529.757998 kJ/mol
# GULP energy per Si atom -12394.982714 kJ/mol
# Density = 2.553780 g / cm^3
# Si number density = 25.596054 Si / 1000 Ang^3
#
#
#
# Elastic Constant Matrix: (Units=GPa)
#
#
# Indices 1 2 3 4 5 6 
#
# 1 68.9806 6.7880 36.3774 0.0000 -1.0428 0.0000
# 2 6.7880 80.9430 18.4221 0.0000 2.9849 0.0000
# 3 36.3774 18.4221 122.0611 0.0000 10.6702 0.0000
# 4 0.0000 0.0000 0.0000 41.9330 0.0000 4.3423
# 5 -1.0428 2.9849 10.6702 0.0000 61.6436 0.0000
# 6 0.0000 0.0000 0.0000 4.3423 0.0000 41.3660
#
#
#
# Elastic Compliance Matrix: (Units=1/GPa)
#
#
# Indices 1 2 3 4 5 6 
#
# 1 0.017295 -0.000308 -0.005214 0.000000 0.001210 0.000000
# 2 -0.000308 0.012804 -0.001813 0.000000 -0.000311 0.000000
# 3 -0.005214 -0.001813 0.010174 0.000000 -0.001761 0.000000
# 4 0.000000 0.000000 0.000000 0.024110 0.000000 -0.002531
# 5 0.001210 -0.000311 -0.001761 0.000000 0.016563 0.000000
# 6 0.000000 0.000000 0.000000 -0.002531 0.000000 0.024440
#
#
# Mechanical properties :
#
#
# Convention : Reuss Voigt Hill
#
# Bulk Modulus (GPa) = 39.05841 43.90662 41.48252
# Shear Modulus (GPa) = 38.88306 43.01501 40.94904
#
# Velocity S-wave (km/s) = 3.90180 4.10388 4.00411
# Velocity P-wave (km/s) = 5.96585 6.29656 6.13343
#
# Compressibility (1/GPa) = 0.02560268
#
# Stress axis : x y z
#
# Youngs Moduli (GPa) = 57.82065 78.09794 98.28928
#
# Poissons Ratio (x) = 0.02409 0.51243
# Poissons Ratio (y) = 0.01783 0.17824
# Poissons Ratio (z) = 0.30145 0.14162
#
# Static dielectric constant tensor:
#      x y z
#    x 4.689910 0.000000 -0.203080 
#    y 0.000000 4.871220 0.000000 
#    z -0.203080 0.000000 5.074990 
# 
# 
# High freq. dielectric constant tensor:
#      x y z
#    x 2.030950 0.000000 -0.001970 
#    y 0.000000 2.027640 0.000000 
#    z -0.001970 0.000000 2.032640 
# 
# From -- ./inp_files/10039.got.cif
#   From: 2010.03.12/outbox.cif.g09.slc.cpg/sg4_6_cif.got.tgz:10039.got - 2010.03.31 09:31:35.
