data_PCOD8047016
_publ_section_title
;
Structure prediction by ZEFSAII (Michael W. Deem and Ramdas Pophale) SiO2 
 PCOD8047016
Probable space group: P 21
;
_chemical_formula_sum "Si O2"
_cell_formula_units_Z 14
_cell_length_a 7.989080
_cell_length_b 5.219958
_cell_length_c 12.828961
_cell_angle_alpha 90.000000
_cell_angle_beta 86.104359
_cell_angle_gamma 90.000000
_cell_volume 533.765677
_symmetry_space_group_name_H-M "P 21"
_symmetry_group_IT_number 4
_symmetry_cell_setting 'monoclinic'
loop_
_space_group_symop_operation_xyz
x,y,z
-x,1/2+y,-z
loop_
_atom_site_type_symbol
_atom_site_label
_atom_site_fract_x
_atom_site_fract_y
_atom_site_fract_z
Si Si1 0.641388 0.236750 0.936113
Si Si2 0.768792 0.855115 0.776575
Si Si3 0.858064 0.348385 0.238136
Si Si4 0.897825 0.565037 0.020365
Si Si5 0.556849 0.076570 0.169181
Si Si6 0.706044 0.568888 0.443029
Si Si7 0.683034 0.071218 0.570510
O O1 0.485544 0.281823 0.861363
O O2 0.752423 0.006792 0.887050
O O3 0.756361 0.496836 0.938731
O O4 0.575051 0.207736 0.055475
O O5 0.610530 0.669192 0.763193
O O6 0.767566 0.052051 0.679901
O O7 0.954513 0.725256 0.770322
O O8 0.829595 0.533414 0.140497
O O9 0.720365 0.115503 0.234518
O O10 0.828416 0.521367 0.340476
O O11 0.954218 0.855949 0.003282
O O12 0.748534 0.842029 0.492807
O O13 0.517001 0.559179 0.409372
O O14 0.741058 0.343763 0.523949
#
# Coordination Sequence:
#
# PCOD8047016 Si02
#       7
#     2   2   2   2   2   2   2
#     4  11  24  41  73  99 156 197 253 295 379 446
#     4  12  24  46  69 108 140 197 241 312 367 453
#     4  11  25  45  73 104 148 188 251 298 383 430
#     4  11  24  45  68 110 152 196 241 307 360 448
#     4  11  24  45  66 107 143 201 241 307 361 457
#     4  10  23  48  69 107 134 192 239 317 366 445
#     4  10  24  44  76  97 145 181 252 302 378 439
#
# _framework density 26.228738
#
# number of rings (size 3 to 8) (size 9 to 14) (size 15 to 20)
#    0.000    1.143    4.286    0.857    2.000    3.429 
#    2.571    0.000    0.000    0.000    0.000    0.000 
#    0.000    0.000    0.000    0.000    0.000    0.000 
#
# Total GULP energy -173520.718690 kJ/mol
# GULP energy per Si atom -12394.337049 kJ/mol
# Density = 2.616904 g / cm^3
# Si number density = 26.228738 Si / 1000 Ang^3
#
#
#
# Elastic Constant Matrix: (Units=GPa)
#
#
# Indices 1 2 3 4 5 6 
#
# 1 148.2335 17.4388 23.2281 0.0000 -6.9084 0.0000
# 2 17.4388 43.2596 -14.2560 0.0000 -1.0031 0.0000
# 3 23.2281 -14.2560 74.6640 0.0000 -10.6634 0.0000
# 4 0.0000 0.0000 0.0000 24.6139 0.0000 6.6169
# 5 -6.9084 -1.0031 -10.6634 0.0000 41.1588 0.0000
# 6 0.0000 0.0000 0.0000 6.6169 0.0000 33.6513
#
#
#
# Elastic Compliance Matrix: (Units=1/GPa)
#
#
# Indices 1 2 3 4 5 6 
#
# 1 0.007745 -0.004151 -0.003147 0.000000 0.000383 0.000000
# 2 -0.004151 0.027035 0.006696 0.000000 0.001697 0.000000
# 3 -0.003147 0.006696 0.016198 0.000000 0.003831 0.000000
# 4 0.000000 0.000000 0.000000 0.042895 0.000000 -0.008435
# 5 0.000383 0.001697 0.003831 0.000000 0.025395 0.000000
# 6 0.000000 0.000000 0.000000 -0.008435 0.000000 0.031375
#
#
# Mechanical properties :
#
#
# Convention : Reuss Voigt Hill
#
# Bulk Modulus (GPa) = 20.09076 35.44211 27.76644
# Shear Modulus (GPa) = 29.68424 35.86788 32.77606
#
# Velocity S-wave (km/s) = 3.36779 3.70199 3.53884
# Velocity P-wave (km/s) = 4.77485 5.64048 5.22562
#
# Compressibility (1/GPa) = 0.04977411
#
# Stress axis : x y z
#
# Youngs Moduli (GPa) = 129.10753 36.98866 61.73552
#
# Poissons Ratio (x) = 0.15353 0.19430
# Poissons Ratio (y) = 0.53588 -0.41336
# Poissons Ratio (z) = 0.40635 -0.24766
#
# Static dielectric constant tensor:
#      x y z
#    x 4.996590 0.000000 -0.038590 
#    y 0.000000 4.517130 0.000000 
#    z -0.038590 0.000000 4.760990 
# 
# 
# High freq. dielectric constant tensor:
#      x y z
#    x 2.057870 0.000000 -0.000220 
#    y 0.000000 2.031960 0.000000 
#    z -0.000220 0.000000 2.054640 
# 
# From -- ./inp_files/10729.got.cif
#   From: 2010.03.12/outbox.cif.g09.slc.cpg/sg4_6_cif.got.tgz:10729.got - 2010.03.31 09:31:35.
