data_PCOD8047524
_publ_section_title
;
Structure prediction by ZEFSAII (Michael W. Deem and Ramdas Pophale) SiO2 
 PCOD8047524
Probable space group: P 21
;
_chemical_formula_sum "Si O2"
_cell_formula_units_Z 14
_cell_length_a 9.860141
_cell_length_b 9.842485
_cell_length_c 7.933465
_cell_angle_alpha 90.000000
_cell_angle_beta 48.204979
_cell_angle_gamma 90.000000
_cell_volume 574.008342
_symmetry_space_group_name_H-M "P 21"
_symmetry_group_IT_number 4
_symmetry_cell_setting 'monoclinic'
loop_
_space_group_symop_operation_xyz
x,y,z
-x,1/2+y,-z
loop_
_atom_site_type_symbol
_atom_site_label
_atom_site_fract_x
_atom_site_fract_y
_atom_site_fract_z
Si Si1 0.696345 0.537050 0.904156
Si Si2 0.847990 0.582239 0.135806
Si Si3 0.860923 0.282273 0.633490
Si Si4 0.856757 0.288723 0.245065
Si Si5 0.510514 0.703015 0.616959
Si Si6 0.245979 0.303281 0.309174
Si Si7 0.338638 0.550309 0.044193
O O1 0.707211 0.393778 0.797667
O O2 0.803803 0.651647 0.710991
O O3 0.485835 0.583376 0.070013
O O4 0.769883 0.521940 0.029026
O O5 0.918354 0.447349 0.176221
O O6 0.681138 0.655195 0.367002
O O7 0.012546 0.688989 0.972129
O O8 0.867882 0.245987 0.430162
O O9 0.050486 0.348095 0.546278
O O10 0.827847 0.149489 0.775464
O O11 0.646206 0.275152 0.360868
O O12 0.590380 0.810032 0.689960
O O13 0.421757 0.574719 0.789566
O O14 0.284525 0.393041 0.110282
#
# Coordination Sequence:
#
# PCOD8047524 Si02
#       7
#     2   2   2   2   2   2   2
#     4  11  23  47  70 105 142 192 245 302 361 447
#     4  12  28  48  74 112 153 193 254 304 389 435
#     4  12  25  46  74 108 144 192 256 299 367 438
#     4  12  28  48  75 111 151 199 245 319 370 448
#     4  11  28  47  76 109 156 193 243 313 373 439
#     4  11  24  44  73 108 141 196 244 301 357 442
#     4  11  24  44  76 105 147 195 245 300 369 435
#
# _framework density 24.389889
#
# number of rings (size 3 to 8) (size 9 to 14) (size 15 to 20)
#    0.000    0.571    1.429    6.857    6.000    2.286 
#    0.000    0.000    0.000    0.000    0.000    0.000 
#    0.000    0.000    0.000    0.000    0.000    0.000 
#
# Total GULP energy -173571.367433 kJ/mol
# GULP energy per Si atom -12397.954817 kJ/mol
# Density = 2.433438 g / cm^3
# Si number density = 24.389889 Si / 1000 Ang^3
#
#
#
# Elastic Constant Matrix: (Units=GPa)
#
#
# Indices 1 2 3 4 5 6 
#
# 1 77.3743 -2.1468 23.0006 0.0000 -8.6456 0.0000
# 2 -2.1468 118.5297 39.7709 0.0000 -0.5098 0.0000
# 3 23.0006 39.7709 133.0960 0.0000 -6.7073 0.0000
# 4 0.0000 0.0000 0.0000 36.9908 0.0000 -2.4010
# 5 -8.6456 -0.5098 -6.7073 0.0000 35.1175 0.0000
# 6 0.0000 0.0000 0.0000 -2.4010 0.0000 24.2061
#
#
#
# Elastic Compliance Matrix: (Units=1/GPa)
#
#
# Indices 1 2 3 4 5 6 
#
# 1 0.014069 0.001148 -0.002624 0.000000 0.002979 0.000000
# 2 0.001148 0.009476 -0.003038 0.000000 -0.000160 0.000000
# 3 -0.002624 -0.003038 0.008926 0.000000 0.001015 0.000000
# 4 0.000000 0.000000 0.000000 0.027209 0.000000 0.002699
# 5 0.002979 -0.000160 0.001015 0.000000 0.029401 0.000000
# 6 0.000000 0.000000 0.000000 0.002699 0.000000 0.041580
#
#
# Mechanical properties :
#
#
# Convention : Reuss Voigt Hill
#
# Bulk Modulus (GPa) = 42.65725 50.02770 46.34248
# Shear Modulus (GPa) = 33.89764 37.15457 35.52611
#
# Velocity S-wave (km/s) = 3.73208 3.90726 3.82067
# Velocity P-wave (km/s) = 6.00824 6.39623 6.20527
#
# Compressibility (1/GPa) = 0.02344267
#
# Stress axis : x y z
#
# Youngs Moduli (GPa) = 71.07821 105.52749 112.03435
#
# Poissons Ratio (x) = -0.12116 0.29401
# Poissons Ratio (y) = -0.08161 0.34037
# Poissons Ratio (z) = 0.18653 0.32060
#
# Static dielectric constant tensor:
#      x y z
#    x 4.451950 0.000000 -0.157800 
#    y 0.000000 4.370930 0.000000 
#    z -0.157800 0.000000 4.461340 
# 
# 
# High freq. dielectric constant tensor:
#      x y z
#    x 1.974930 0.000000 -0.016350 
#    y 0.000000 1.968340 0.000000 
#    z -0.016350 0.000000 1.974650 
# 
# From -- ./inp_files/7592.got.cif
#   From: 2010.03.12/outbox.cif.g09.slc.cpg/sg4_4_cif.got.tgz:7592.got - 2010.03.31 09:31:35.
