data_PCOD8047766
_publ_section_title
;
Structure prediction by ZEFSAII (Michael W. Deem and Ramdas Pophale) SiO2 
 PCOD8047766
Probable space group: P 21
;
_chemical_formula_sum "Si O2"
_cell_formula_units_Z 14
_cell_length_a 5.426360
_cell_length_b 18.822337
_cell_length_c 5.194449
_cell_angle_alpha 90.000000
_cell_angle_beta 91.343367
_cell_angle_gamma 90.000000
_cell_volume 530.398458
_symmetry_space_group_name_H-M "P 21"
_symmetry_group_IT_number 4
_symmetry_cell_setting 'monoclinic'
loop_
_space_group_symop_operation_xyz
x,y,z
-x,1/2+y,-z
loop_
_atom_site_type_symbol
_atom_site_label
_atom_site_fract_x
_atom_site_fract_y
_atom_site_fract_z
Si Si1 0.479353 0.833200 0.344137
Si Si2 0.992500 0.830926 0.663319
Si Si3 0.745616 0.226417 0.006843
Si Si4 0.092605 0.134083 0.730210
Si Si5 0.893276 0.985574 0.800562
Si Si6 0.623082 0.636951 0.760249
Si Si7 0.410676 0.488234 0.708107
O O1 0.230394 0.818344 0.493340
O O2 0.463635 0.912766 0.227597
O O3 0.732375 0.821442 0.509890
O O4 0.468784 0.778965 0.104441
O O5 0.018547 0.772405 0.889471
O O6 0.021915 0.909011 0.788715
O O7 0.636920 0.179482 0.243969
O O8 0.831280 0.172084 0.782325
O O9 0.200866 0.163734 0.464945
O O10 0.270970 0.157478 0.961723
O O11 0.076359 0.048613 0.724239
O O12 0.672710 0.987651 0.589865
O O13 0.807198 0.999954 0.090644
O O14 0.601359 0.552140 0.738530
#
# Coordination Sequence:
#
# PCOD8047766 Si02
#       7
#     2   2   2   2   2   2   2
#     4  11  30  52  84 120 170 220 282 344 425 499
#     4  11  30  52  84 120 170 220 282 344 425 499
#     4  12  32  50  80 122 178 214 278 350 422 514
#     4  12  29  50  84 120 164 221 281 343 424 499
#     4  11  25  51  83 119 158 215 283 347 412 496
#     4  12  29  50  84 120 164 221 281 343 424 499
#     4  11  25  51  83 119 158 215 283 347 412 496
#
# _framework density 26.395247999999999
#
# number of rings (size 3 to 8) (size 9 to 14) (size 15 to 20)
#    0.000    0.571    1.429    2.571   18.000    0.000 
#    0.000    0.000    0.000    0.000    0.000    0.000 
#    0.000    0.000    0.000    0.000    0.000    0.000 
#
# Total GULP energy -173618.293172 kJ/mol
# GULP energy per Si atom -12401.306655 kJ/mol
# Density = 2.633517 g / cm^3
# Si number density = 26.395248 Si / 1000 Ang^3
#
#
#
# Elastic Constant Matrix: (Units=GPa)
#
#
# Indices 1 2 3 4 5 6 
#
# 1 125.6626 42.3597 39.6186 0.0000 -9.7451 0.0000
# 2 42.3597 169.3086 38.4029 0.0000 1.4498 0.0000
# 3 39.6186 38.4029 95.2229 0.0000 -8.4955 0.0000
# 4 0.0000 0.0000 0.0000 35.5555 0.0000 -0.6073
# 5 -9.7451 1.4498 -8.4955 0.0000 48.4357 0.0000
# 6 0.0000 0.0000 0.0000 -0.6073 0.0000 46.1619
#
#
#
# Elastic Compliance Matrix: (Units=1/GPa)
#
#
# Indices 1 2 3 4 5 6 
#
# 1 0.009652 -0.001701 -0.003202 0.000000 0.001431 0.000000
# 2 -0.001701 0.006822 -0.002126 0.000000 -0.000919 0.000000
# 3 -0.003202 -0.002126 0.012840 0.000000 0.001672 0.000000
# 4 0.000000 0.000000 0.000000 0.028131 0.000000 0.000370
# 5 0.001431 -0.000919 0.001672 0.000000 0.021255 0.000000
# 6 0.000000 0.000000 0.000000 0.000370 0.000000 0.021668
#
#
# Mechanical properties :
#
#
# Convention : Reuss Voigt Hill
#
# Bulk Modulus (GPa) = 65.54387 70.10628 67.82507
# Shear Modulus (GPa) = 41.83745 44.01814 42.92780
#
# Velocity S-wave (km/s) = 3.98557 4.08812 4.03717
# Velocity P-wave (km/s) = 6.78714 6.99296 6.89082
#
# Compressibility (1/GPa) = 0.01525696
#
# Stress axis : x y z
#
# Youngs Moduli (GPa) = 103.60914 146.58688 77.87952
#
# Poissons Ratio (x) = 0.24930 0.24938
# Poissons Ratio (y) = 0.17621 0.16554
# Poissons Ratio (z) = 0.33177 0.31159
#
# Static dielectric constant tensor:
#      x y z
#    x 4.465500 0.000000 0.024170 
#    y 0.000000 5.352950 0.000000 
#    z 0.024170 0.000000 4.819820 
# 
# 
# High freq. dielectric constant tensor:
#      x y z
#    x 2.044810 0.000000 -0.003880 
#    y 0.000000 2.089880 0.000000 
#    z -0.003880 0.000000 2.060070 
# 
# From -- ./inp_files/680.got.cif
#   From: 2010.03.12/outbox.cif.g09.slc.cpg/sg4_1_cif.got.tgz:680.got - 2010.03.31 09:31:35.
