data_PCOD8047558
_publ_section_title
;
Structure prediction by ZEFSAII (Michael W. Deem and Ramdas Pophale) SiO2 
 PCOD8047558
Probable space group: P 21
;
_chemical_formula_sum "Si O2"
_cell_formula_units_Z 12
_cell_length_a 5.394018
_cell_length_b 8.927320
_cell_length_c 13.037043
_cell_angle_alpha 90.000000
_cell_angle_beta 131.874137
_cell_angle_gamma 90.000000
_cell_volume 467.458610
_symmetry_space_group_name_H-M "P 21"
_symmetry_group_IT_number 4
_symmetry_cell_setting 'monoclinic'
loop_
_space_group_symop_operation_xyz
x,y,z
-x,1/2+y,-z
loop_
_atom_site_type_symbol
_atom_site_label
_atom_site_fract_x
_atom_site_fract_y
_atom_site_fract_z
Si Si1 0.412661 0.339290 0.482215
Si Si2 0.147285 0.270655 0.107063
Si Si3 0.788938 0.433106 0.195126
Si Si4 0.452241 0.502941 0.692439
Si Si5 0.504777 0.712115 0.185367
Si Si6 0.735442 0.562335 0.451971
O O1 0.576493 0.403801 0.631492
O O2 0.641147 0.388793 0.448904
O O3 0.414246 0.160077 0.493479
O O4 0.037688 0.402952 0.359843
O O5 0.439996 0.352159 0.125483
O O6 0.953591 0.374249 0.135830
O O7 0.272715 0.122022 0.199397
O O8 0.882334 0.216361 0.950007
O O9 0.718155 0.613253 0.161756
O O10 0.368844 0.382949 0.761483
O O11 0.126321 0.590732 0.564694
O O12 0.552379 0.609112 0.298863
#
# Coordination Sequence:
#
# PCOD8047558 Si02
#       6
#     2   2   2   2   2   2
#     4  11  24  41  74 111 147 205 260 327 391 467
#     4  12  28  52  77 114 159 212 264 327 403 480
#     4  12  26  48  79 110 157 208 264 327 396 476
#     4  11  25  48  75 112 157 205 270 328 395 480
#     4  11  27  49  78 114 159 210 268 329 405 482
#     4  11  24  46  75 111 157 202 270 326 402 469
#
# _framework density 25.670725999999998
#
# number of rings (size 3 to 8) (size 9 to 14) (size 15 to 20)
#    0.000    0.667    3.333    3.000    2.333    4.000 
#    3.000    0.000    0.000    0.000    0.000    0.000 
#    0.000    0.000    0.000    0.000    0.000    0.000 
#
# Total GULP energy -148722.879301 kJ/mol
# GULP energy per Si atom -12393.573275 kJ/mol
# Density = 2.561230 g / cm^3
# Si number density = 25.670726 Si / 1000 Ang^3
#
#
#
# Elastic Constant Matrix: (Units=GPa)
#
#
# Indices 1 2 3 4 5 6 
#
# 1 96.4194 35.0734 30.2692 0.0000 9.8713 0.0000
# 2 35.0734 96.2286 31.8072 0.0000 -0.9419 0.0000
# 3 30.2692 31.8072 177.8586 0.0000 15.6310 0.0000
# 4 0.0000 0.0000 0.0000 39.0157 0.0000 5.2031
# 5 9.8713 -0.9419 15.6310 0.0000 24.8152 0.0000
# 6 0.0000 0.0000 0.0000 5.2031 0.0000 46.5262
#
#
#
# Elastic Compliance Matrix: (Units=1/GPa)
#
#
# Indices 1 2 3 4 5 6 
#
# 1 0.012739 -0.004364 -0.000982 0.000000 -0.004615 0.000000
# 2 -0.004364 0.012613 -0.001808 0.000000 0.003353 0.000000
# 3 -0.000982 -0.001808 0.006441 0.000000 -0.003735 0.000000
# 4 0.000000 0.000000 0.000000 0.026019 0.000000 -0.002910
# 5 -0.004615 0.003353 -0.003735 0.000000 0.044614 0.000000
# 6 0.000000 0.000000 0.000000 -0.002910 0.000000 0.021819
#
#
# Mechanical properties :
#
#
# Convention : Reuss Voigt Hill
#
# Bulk Modulus (GPa) = 57.18795 62.75624 59.97210
# Shear Modulus (GPa) = 34.63074 40.29520 37.46297
#
# Velocity S-wave (km/s) = 3.67691 3.96624 3.82431
# Velocity P-wave (km/s) = 6.35233 6.74347 6.55082
#
# Compressibility (1/GPa) = 0.01748620
#
# Stress axis : x y z
#
# Youngs Moduli (GPa) = 78.49602 79.28477 155.25250
#
# Poissons Ratio (x) = 0.34599 0.15248
# Poissons Ratio (y) = 0.34254 0.28064
# Poissons Ratio (z) = 0.07709 0.14332
#
# Static dielectric constant tensor:
#      x y z
#    x 4.296640 0.000000 -0.031620 
#    y 0.000000 5.066700 0.000000 
#    z -0.031620 0.000000 4.871420 
# 
# 
# High freq. dielectric constant tensor:
#      x y z
#    x 2.006070 0.000000 0.001430 
#    y 0.000000 2.043670 0.000000 
#    z 0.001430 0.000000 2.037640 
# 
# From -- ./inp_files/3595.got.cif
#   From: 2010.03.12/outbox.cif.g09.slc.cpg/sg4_2_cif.got.tgz:3595.got - 2010.03.31 09:31:35.
