data_PCOD8047757
_publ_section_title
;
Structure prediction by ZEFSAII (Michael W. Deem and Ramdas Pophale) SiO2 
 PCOD8047757
Probable space group: P 21
;
_chemical_formula_sum "Si O2"
_cell_formula_units_Z 16
_cell_length_a 6.574019
_cell_length_b 9.587185
_cell_length_c 11.222918
_cell_angle_alpha 90.000000
_cell_angle_beta 109.254322
_cell_angle_gamma 90.000000
_cell_volume 667.773772
_symmetry_space_group_name_H-M "P 21"
_symmetry_group_IT_number 4
_symmetry_cell_setting 'monoclinic'
loop_
_space_group_symop_operation_xyz
x,y,z
-x,1/2+y,-z
loop_
_atom_site_type_symbol
_atom_site_label
_atom_site_fract_x
_atom_site_fract_y
_atom_site_fract_z
Si Si1 0.063597 0.743170 0.939601
Si Si2 0.675222 0.887838 0.750372
Si Si3 0.322779 0.667459 0.383528
Si Si4 0.268522 0.503932 0.861924
Si Si5 0.228183 0.260639 0.478451
Si Si6 0.636528 0.464434 0.109818
Si Si7 0.057231 0.217756 0.825676
Si Si8 0.842945 0.046094 0.419901
O O1 0.067882 0.598553 0.866750
O O2 0.267648 0.835027 0.943235
O O3 0.849960 0.831544 0.876040
O O4 0.076002 0.699995 0.078836
O O5 0.675509 0.788726 0.634624
O O6 0.456070 0.899050 0.784876
O O7 0.731504 0.041078 0.715949
O O8 0.558637 0.728778 0.400808
O O9 0.314009 0.626421 0.520074
O O10 0.116894 0.764583 0.310446
O O11 0.226444 0.341378 0.869724
O O12 0.298546 0.537820 0.727822
O O13 0.471527 0.540229 0.986319
O O14 0.107405 0.392808 0.514722
O O15 0.068588 0.128113 0.445498
O O16 0.815983 0.576520 0.183380
#
# Coordination Sequence:
#
# PCOD8047757 Si02
#       8
#     2   2   2   2   2   2   2   2
#     4  12  25  50  74 110 156 192 250 308 385 447
#     4  11  25  49  75 109 147 205 242 304 383 445
#     4  11  27  48  76 106 154 202 249 305 370 454
#     4  12  26  44  78 114 145 190 253 318 365 445
#     4  11  27  50  79 111 150 203 252 310 374 449
#     4  12  27  48  79 108 153 204 242 308 394 446
#     4  12  26  49  74 112 150 197 252 311 372 453
#     4  11  27  48  75 112 151 199 250 314 371 443
#
# _framework density 23.960208000000002
#
# number of rings (size 3 to 8) (size 9 to 14) (size 15 to 20)
#    0.000    0.500    3.750    3.000    7.000    4.000 
#    0.000    0.000    0.000    0.000    0.000    0.000 
#    0.000    0.000    0.000    0.000    0.000    0.000 
#
# Total GULP energy -198367.650371 kJ/mol
# GULP energy per Si atom -12397.978148 kJ/mol
# Density = 2.390567 g / cm^3
# Si number density = 23.960208 Si / 1000 Ang^3
#
#
#
# Elastic Constant Matrix: (Units=GPa)
#
#
# Indices 1 2 3 4 5 6 
#
# 1 129.6365 59.5779 49.3924 0.0000 -6.4796 0.0000
# 2 59.5779 112.3393 40.9864 0.0000 -7.5078 0.0000
# 3 49.3924 40.9864 132.2717 0.0000 -14.2428 0.0000
# 4 0.0000 0.0000 0.0000 33.7398 0.0000 -4.3455
# 5 -6.4796 -7.5078 -14.2428 0.0000 51.5988 0.0000
# 6 0.0000 0.0000 0.0000 -4.3455 0.0000 42.8027
#
#
#
# Elastic Compliance Matrix: (Units=1/GPa)
#
#
# Indices 1 2 3 4 5 6 
#
# 1 0.010927 -0.004857 -0.002580 0.000000 -0.000047 0.000000
# 2 -0.004857 0.012214 -0.001902 0.000000 0.000642 0.000000
# 3 -0.002580 -0.001902 0.009326 0.000000 0.001973 0.000000
# 4 0.000000 0.000000 0.000000 0.030031 0.000000 0.003049
# 5 -0.000047 0.000642 0.001973 0.000000 0.020013 0.000000
# 6 0.000000 0.000000 0.000000 0.003049 0.000000 0.023673
#
#
# Mechanical properties :
#
#
# Convention : Reuss Voigt Hill
#
# Bulk Modulus (GPa) = 72.52430 74.90673 73.71552
# Shear Modulus (GPa) = 38.62297 40.58098 39.60198
#
# Velocity S-wave (km/s) = 4.01928 4.11990 4.06990
# Velocity P-wave (km/s) = 7.20235 7.34590 7.27448
#
# Compressibility (1/GPa) = 0.01378848
#
# Stress axis : x y z
#
# Youngs Moduli (GPa) = 91.51974 81.87274 107.23162
#
# Poissons Ratio (x) = 0.39762 0.27669
# Poissons Ratio (y) = 0.44447 0.20396
# Poissons Ratio (z) = 0.23615 0.15573
#
# Static dielectric constant tensor:
#      x y z
#    x 4.148060 0.000000 -0.163080 
#    y 0.000000 4.358570 0.000000 
#    z -0.163080 0.000000 4.409730 
# 
# 
# High freq. dielectric constant tensor:
#      x y z
#    x 1.943550 0.000000 -0.010240 
#    y 0.000000 1.955100 0.000000 
#    z -0.010240 0.000000 1.964020 
# 
# From -- ./inp_files/10350.got.cif
#   From: 2010.03.12/outbox.cif.g09.slc.cpg/sg4_6_cif.got.tgz:10350.got - 2010.03.31 09:31:35.
