data_PCOD8047664
_publ_section_title
;
Structure prediction by ZEFSAII (Michael W. Deem and Ramdas Pophale) SiO2 
 PCOD8047664
Probable space group: P 21
;
_chemical_formula_sum "Si O2"
_cell_formula_units_Z 12
_cell_length_a 12.781488
_cell_length_b 9.569436
_cell_length_c 7.314214
_cell_angle_alpha 90.000000
_cell_angle_beta 147.097885
_cell_angle_gamma 90.000000
_cell_volume 485.958894
_symmetry_space_group_name_H-M "P 21"
_symmetry_group_IT_number 4
_symmetry_cell_setting 'monoclinic'
loop_
_space_group_symop_operation_xyz
x,y,z
-x,1/2+y,-z
loop_
_atom_site_type_symbol
_atom_site_label
_atom_site_fract_x
_atom_site_fract_y
_atom_site_fract_z
Si Si1 0.297743 0.006460 0.688733
Si Si2 0.715331 0.970062 0.204842
Si Si3 0.911293 0.230937 0.644094
Si Si4 0.397687 0.396521 0.341683
Si Si5 0.323535 0.117218 0.117902
Si Si6 0.154894 0.275889 0.309675
O O1 0.241728 0.119350 0.451302
O O2 0.141769 0.885806 0.504458
O O3 0.321643 0.098754 0.901625
O O4 0.494175 0.929393 0.920489
O O5 0.855326 0.857190 0.511029
O O6 0.749150 0.123759 0.339170
O O7 0.740229 0.964830 0.020548
O O8 0.113825 0.169235 0.871850
O O9 0.941577 0.251169 0.908864
O O10 0.468460 0.244994 0.374519
O O11 0.594383 0.481427 0.659935
O O12 0.278659 0.377251 0.355574
#
# Coordination Sequence:
#
# PCOD8047664 Si02
#       6
#     2   2   2   2   2   2
#     4  12  25  48  77 109 157 202 263 312 386 468
#     4  12  24  47  76 110 149 206 251 321 387 456
#     4  11  28  45  73 114 152 200 256 321 382 457
#     4  11  25  47  75 114 152 200 256 317 392 457
#     4  11  26  47  74 113 154 206 255 322 386 461
#     4  11  24  48  71 112 148 196 261 311 385 451
#
# _framework density 24.693446000000002
#
# number of rings (size 3 to 8) (size 9 to 14) (size 15 to 20)
#    0.000    0.667    3.333    4.000    7.000    0.000 
#    0.000    0.000    0.000    0.000    0.000    0.000 
#    0.000    0.000    0.000    0.000    0.000    0.000 
#
# Total GULP energy -148693.093878 kJ/mol
# GULP energy per Si atom -12391.091156 kJ/mol
# Density = 2.463724 g / cm^3
# Si number density = 24.693446 Si / 1000 Ang^3
#
#
#
# Elastic Constant Matrix: (Units=GPa)
#
#
# Indices 1 2 3 4 5 6 
#
# 1 67.1529 37.3406 43.5714 0.0000 -15.8922 0.0000
# 2 37.3406 150.5786 50.9474 0.0000 -0.4671 0.0000
# 3 43.5714 50.9474 86.0692 0.0000 -9.1066 0.0000
# 4 0.0000 0.0000 0.0000 70.9533 0.0000 -12.2051
# 5 -15.8922 -0.4671 -9.1066 0.0000 34.0100 0.0000
# 6 0.0000 0.0000 0.0000 -12.2051 0.0000 36.7108
#
#
#
# Elastic Compliance Matrix: (Units=1/GPa)
#
#
# Indices 1 2 3 4 5 6 
#
# 1 0.025137 -0.002779 -0.010129 0.000000 0.008996 0.000000
# 2 -0.002779 0.008662 -0.003958 0.000000 -0.002239 0.000000
# 3 -0.010129 -0.003958 0.019124 0.000000 0.000333 0.000000
# 4 0.000000 0.000000 0.000000 0.014949 0.000000 0.004970
# 5 0.008996 -0.002239 0.000333 0.000000 0.033665 0.000000
# 6 0.000000 0.000000 0.000000 0.004970 0.000000 0.028892
#
#
# Mechanical properties :
#
#
# Convention : Reuss Voigt Hill
#
# Bulk Modulus (GPa) = 52.10161 63.05773 57.57967
# Shear Modulus (GPa) = 29.31549 39.79759 34.55654
#
# Velocity S-wave (km/s) = 3.44928 4.01891 3.74494
# Velocity P-wave (km/s) = 6.08347 6.86492 6.48598
#
# Compressibility (1/GPa) = 0.01919327
#
# Stress axis : x y z
#
# Youngs Moduli (GPa) = 39.78132 115.44367 52.28990
#
# Poissons Ratio (x) = 0.32078 0.52964
# Poissons Ratio (y) = 0.11054 0.20695
# Poissons Ratio (z) = 0.40294 0.45690
#
# Static dielectric constant tensor:
#      x y z
#    x 4.250760 0.000000 -0.532690 
#    y 0.000000 4.846980 0.000000 
#    z -0.532690 0.000000 4.805390 
# 
# 
# High freq. dielectric constant tensor:
#      x y z
#    x 1.960970 0.000000 -0.033990 
#    y 0.000000 1.998350 0.000000 
#    z -0.033990 0.000000 1.989130 
# 
# From -- ./inp_files/9213.got.cif
#   From: 2010.03.12/outbox.cif.g09.slc.cpg/sg4_5_cif.got.tgz:9213.got - 2010.03.31 09:31:35.
