data_PCOD8047428
_publ_section_title
;
Structure prediction by ZEFSAII (Michael W. Deem and Ramdas Pophale) SiO2 
 PCOD8047428
Probable space group: P 21
;
_chemical_formula_sum "Si O2"
_cell_formula_units_Z 16
_cell_length_a 7.231224
_cell_length_b 13.144841
_cell_length_c 9.914729
_cell_angle_alpha 90.000000
_cell_angle_beta 43.168761
_cell_angle_gamma 90.000000
_cell_volume 644.761427
_symmetry_space_group_name_H-M "P 21"
_symmetry_group_IT_number 4
_symmetry_cell_setting 'monoclinic'
loop_
_space_group_symop_operation_xyz
x,y,z
-x,1/2+y,-z
loop_
_atom_site_type_symbol
_atom_site_label
_atom_site_fract_x
_atom_site_fract_y
_atom_site_fract_z
Si Si1 0.921975 0.317100 0.689148
Si Si2 0.556438 0.914345 0.939459
Si Si3 0.921977 0.745458 0.689148
Si Si4 0.556436 0.148213 0.939459
Si Si5 0.699728 0.317100 0.189147
Si Si6 0.435354 0.414345 0.560541
Si Si7 0.435355 0.648213 0.560542
Si Si8 0.300271 0.245458 0.810852
O O1 0.824420 0.216080 0.824973
O O2 0.000000 0.281279 0.500000
O O3 0.161240 0.375965 0.634867
O O4 0.663861 0.394396 0.825882
O O5 0.824422 0.846478 0.824972
O O6 0.430975 0.875965 0.865134
O O7 0.641177 0.031279 0.885548
O O8 0.161243 0.686593 0.634866
O O9 0.663863 0.668161 0.825882
O O10 0.430974 0.186592 0.865133
O O11 0.684373 0.394396 0.325882
O O12 0.525635 0.216079 0.324971
O O13 0.000000 0.281279 1.000000
O O14 0.412274 0.531279 0.614452
O O15 0.474366 0.346478 0.675027
O O16 0.684375 0.668161 0.325882
#
# Coordination Sequence:
#
# PCOD8047428 Si02
#       8
#     2   2   2   2   2   2   2   2
#     4  11  23  41  70  99 132 173 227 271 325 404
#     4  11  24  44  71  98 135 179 217 274 337 389
#     4  11  23  41  70  99 132 173 227 271 325 404
#     4  11  24  44  71  98 135 179 217 274 337 389
#     4  11  23  41  70  99 132 173 227 271 325 404
#     4  11  24  44  71  98 135 179 217 274 337 389
#     4  11  24  44  71  98 135 179 217 274 337 389
#     4  11  23  41  70  99 132 173 227 271 325 404
#
# _framework density 24.815380999999999
#
# number of rings (size 3 to 8) (size 9 to 14) (size 15 to 20)
#    0.000    1.000    5.000    1.500    0.000    2.000 
#    0.000   12.500    0.000    0.000    0.000    0.000 
#    0.000    0.000    0.000    0.000    0.000    0.000 
#
# Total GULP energy -198240.828102 kJ/mol
# GULP energy per Si atom -12390.051756 kJ/mol
# Density = 2.475890 g / cm^3
# Si number density = 24.815381 Si / 1000 Ang^3
#
#
#
# Elastic Constant Matrix: (Units=GPa)
#
#
# Indices 1 2 3 4 5 6 
#
# 1 28.9444 3.2366 6.6612 0.0000 0.5289 0.0000
# 2 3.2366 195.8407 15.4752 0.0000 0.1458 0.0000
# 3 6.6612 15.4752 140.2786 0.0000 0.7979 0.0000
# 4 0.0000 0.0000 0.0000 30.7969 0.0000 -0.1410
# 5 0.5289 0.1458 0.7979 0.0000 33.3359 0.0000
# 6 0.0000 0.0000 0.0000 -0.1410 0.0000 42.6264
#
#
#
# Elastic Compliance Matrix: (Units=1/GPa)
#
#
# Indices 1 2 3 4 5 6 
#
# 1 0.034979 -0.000451 -0.001608 0.000000 -0.000514 0.000000
# 2 -0.000451 0.005157 -0.000547 0.000000 -0.000002 0.000000
# 3 -0.001608 -0.000547 0.007266 0.000000 -0.000146 0.000000
# 4 0.000000 0.000000 0.000000 0.032471 0.000000 0.000107
# 5 -0.000514 -0.000002 -0.000146 0.000000 0.030009 0.000000
# 6 0.000000 0.000000 0.000000 0.000107 0.000000 0.023460
#
#
# Mechanical properties :
#
#
# Convention : Reuss Voigt Hill
#
# Bulk Modulus (GPa) = 23.70274 46.20106 34.95190
# Shear Modulus (GPa) = 32.76138 43.99789 38.37963
#
# Velocity S-wave (km/s) = 3.63740 4.21528 3.93696
# Velocity P-wave (km/s) = 5.21664 6.50767 5.89759
#
# Compressibility (1/GPa) = 0.04218922
#
# Stress axis : x y z
#
# Youngs Moduli (GPa) = 28.58863 193.91489 137.62215
#
# Poissons Ratio (x) = 0.08738 0.22134
# Poissons Ratio (y) = 0.01288 0.07535
# Poissons Ratio (z) = 0.04598 0.10617
#
# Static dielectric constant tensor:
#      x y z
#    x 4.731400 0.000000 0.007600 
#    y 0.000000 4.510290 0.000000 
#    z 0.007600 0.000000 5.370600 
# 
# 
# High freq. dielectric constant tensor:
#      x y z
#    x 1.979000 0.000000 0.000470 
#    y 0.000000 1.972290 0.000000 
#    z 0.000470 0.000000 2.018920 
# 
# From -- ./inp_files/11235.got.cif
#   From: 2010.03.12/outbox.cif.g09.slc.cpg/sg4_6_cif.got.tgz:11235.got - 2010.03.31 09:31:35.
