data_PCOD8047296
_publ_section_title
;
Structure prediction by ZEFSAII (Michael W. Deem and Ramdas Pophale) SiO2 
 PCOD8047296
Probable space group: P 21
;
_chemical_formula_sum "Si O2"
_cell_formula_units_Z 14
_cell_length_a 8.010357
_cell_length_b 16.030010
_cell_length_c 7.326302
_cell_angle_alpha 90.000000
_cell_angle_beta 37.040090
_cell_angle_gamma 90.000000
_cell_volume 566.678156
_symmetry_space_group_name_H-M "P 21"
_symmetry_group_IT_number 4
_symmetry_cell_setting 'monoclinic'
loop_
_space_group_symop_operation_xyz
x,y,z
-x,1/2+y,-z
loop_
_atom_site_type_symbol
_atom_site_label
_atom_site_fract_x
_atom_site_fract_y
_atom_site_fract_z
Si Si1 0.271366 0.808110 0.234119
Si Si2 0.435224 0.976439 0.220243
Si Si3 0.002394 0.968384 0.887024
Si Si4 0.435851 0.008535 0.796331
Si Si5 0.598811 0.189071 0.590701
Si Si6 0.708482 0.838005 0.572192
Si Si7 0.052639 0.276228 0.996067
O O1 0.451193 0.875833 0.190012
O O2 0.238119 0.721441 0.371074
O O3 0.965783 0.849085 0.485201
O O4 0.434601 0.795650 0.899507
O O5 0.178397 0.005548 0.565324
O O6 0.699534 0.005388 0.109505
O O7 0.408012 0.014050 0.039960
O O8 0.133047 0.000051 0.965443
O O9 0.003933 0.868079 0.878039
O O10 0.595080 0.089657 0.585469
O O11 0.620895 0.928972 0.571237
O O12 0.291135 0.225167 0.891762
O O13 0.763820 0.225007 0.270188
O O14 0.837024 0.778201 0.306944
#
# Coordination Sequence:
#
# PCOD8047296 Si02
#       7
#     2   2   2   2   2   2   2
#     4  11  21  44  72 103 137 188 246 297 356 441
#     4  11  23  43  76 101 134 196 244 289 348 456
#     4  12  23  45  75 101 137 194 249 284 352 454
#     4  11  28  48  73 112 152 187 247 314 372 420
#     4  12  26  45  71 107 154 178 234 322 378 402
#     4  11  24  44  75 100 137 195 251 287 353 460
#     4  12  23  45  74 104 141 194 247 297 361 445
#
# _framework density 24.705382
#
# number of rings (size 3 to 8) (size 9 to 14) (size 15 to 20)
#    0.000    0.571    2.857    6.857    0.000    6.857 
#    7.714    0.000    0.000    0.000    0.000    0.000 
#    0.000    0.000    0.000    0.000    0.000    0.000 
#
# Total GULP energy -173558.138204 kJ/mol
# GULP energy per Si atom -12397.009872 kJ/mol
# Density = 2.464915 g / cm^3
# Si number density = 24.705382 Si / 1000 Ang^3
#
#
#
# Elastic Constant Matrix: (Units=GPa)
#
#
# Indices 1 2 3 4 5 6 
#
# 1 112.0569 15.5600 7.0766 0.0000 -6.7662 0.0000
# 2 15.5600 73.8979 8.9639 0.0000 7.5584 0.0000
# 3 7.0766 8.9639 110.1877 0.0000 -5.1771 0.0000
# 4 0.0000 0.0000 0.0000 24.5651 0.0000 -1.6876
# 5 -6.7662 7.5584 -5.1771 0.0000 36.9233 0.0000
# 6 0.0000 0.0000 0.0000 -1.6876 0.0000 23.5928
#
#
#
# Elastic Compliance Matrix: (Units=1/GPa)
#
#
# Indices 1 2 3 4 5 6 
#
# 1 0.009371 -0.002149 -0.000328 0.000000 0.002111 0.000000
# 2 -0.002149 0.014492 -0.001207 0.000000 -0.003530 0.000000
# 3 -0.000328 -0.001207 0.009264 0.000000 0.001486 0.000000
# 4 0.000000 0.000000 0.000000 0.040909 0.000000 0.002926
# 5 0.002111 -0.003530 0.001486 0.000000 0.028401 0.000000
# 6 0.000000 0.000000 0.000000 0.002926 0.000000 0.042595
#
#
# Mechanical properties :
#
#
# Convention : Reuss Voigt Hill
#
# Bulk Modulus (GPa) = 38.82041 39.92706 39.37374
# Shear Modulus (GPa) = 31.05845 34.65236 32.85540
#
# Velocity S-wave (km/s) = 3.54948 3.74923 3.65072
# Velocity P-wave (km/s) = 5.70490 5.91089 5.80881
#
# Compressibility (1/GPa) = 0.02575965
#
# Stress axis : x y z
#
# Youngs Moduli (GPa) = 106.71606 69.00292 107.93938
#
# Poissons Ratio (x) = 0.14831 0.03538
# Poissons Ratio (y) = 0.22936 0.13026
# Poissons Ratio (z) = 0.03498 0.08327
#
# Static dielectric constant tensor:
#      x y z
#    x 4.527780 0.000000 -0.130780 
#    y 0.000000 3.965450 0.000000 
#    z -0.130780 0.000000 4.649710 
# 
# 
# High freq. dielectric constant tensor:
#      x y z
#    x 1.987870 0.000000 -0.003250 
#    y 0.000000 1.935440 0.000000 
#    z -0.003250 0.000000 2.005830 
# 
# From -- ./inp_files/6528.got.cif
#   From: 2010.03.12/outbox.cif.g09.slc.cpg/sg4_4_cif.got.tgz:6528.got - 2010.03.31 09:31:35.
