data_PCOD8047384
_publ_section_title
;
Structure prediction by ZEFSAII (Michael W. Deem and Ramdas Pophale) SiO2 
 PCOD8047384
Probable space group: P 21
;
_chemical_formula_sum "Si O2"
_cell_formula_units_Z 16
_cell_length_a 8.920504
_cell_length_b 14.965077
_cell_length_c 6.668071
_cell_angle_alpha 90.000000
_cell_angle_beta 58.121230
_cell_angle_gamma 90.000000
_cell_volume 755.895733
_symmetry_space_group_name_H-M "P 21"
_symmetry_group_IT_number 4
_symmetry_cell_setting 'monoclinic'
loop_
_space_group_symop_operation_xyz
x,y,z
-x,1/2+y,-z
loop_
_atom_site_type_symbol
_atom_site_label
_atom_site_fract_x
_atom_site_fract_y
_atom_site_fract_z
Si Si1 0.076862 0.521860 0.059101
Si Si2 0.119568 0.272217 0.481562
Si Si3 0.332070 0.929652 0.198086
Si Si4 0.092509 0.860078 0.029011
Si Si5 0.356745 0.588505 0.558578
Si Si6 0.739990 0.591478 0.477728
Si Si7 0.701031 0.953519 0.752118
Si Si8 0.788746 0.271827 0.448043
O O1 0.218887 0.580071 0.838122
O O2 0.046475 0.427677 0.971328
O O3 0.143173 0.502594 0.237816
O O4 0.895861 0.578028 0.204779
O O5 0.239699 0.185062 0.421933
O O6 0.248208 0.353498 0.342347
O O7 0.011950 0.289581 0.761435
O O8 0.985254 0.257114 0.393414
O O9 0.230817 0.916838 0.061245
O O10 0.320168 0.841726 0.342503
O O11 0.242954 0.012297 0.373886
O O12 0.535047 0.951126 0.016821
O O13 0.201920 0.806599 0.785636
O O14 0.554783 0.589243 0.497243
O O15 0.337766 0.505827 0.423277
O O16 0.319190 0.679914 0.467076
#
# Coordination Sequence:
#
# PCOD8047384 Si02
#       8
#     2   2   2   2   2   2   2   2
#     4  12  23  47  74  99 136 184 232 283 347 411
#     4  11  25  44  69 103 138 184 233 287 346 414
#     4  11  26  44  71 102 142 182 231 287 343 417
#     4  11  22  45  74  97 133 185 228 286 352 402
#     4  12  28  45  72 105 141 185 231 290 346 412
#     4  12  26  47  69 105 143 183 234 286 347 412
#     4  12  25  46  72 101 144 183 232 288 344 414
#     4  11  25  46  71 102 139 182 235 287 347 412
#
# _framework density 21.166943
#
# number of rings (size 3 to 8) (size 9 to 14) (size 15 to 20)
#    0.000    0.500    5.000    3.000    3.500    3.000 
#    4.500    0.000    0.000    0.000    0.000    0.000 
#    0.000    0.000    0.000    0.000    0.000    0.000 
#
# Total GULP energy -198539.824220 kJ/mol
# GULP energy per Si atom -12408.739014 kJ/mol
# Density = 2.111877 g / cm^3
# Si number density = 21.166943 Si / 1000 Ang^3
#
#
#
# Elastic Constant Matrix: (Units=GPa)
#
#
# Indices 1 2 3 4 5 6 
#
# 1 139.1245 59.2316 52.1577 0.0000 -0.1059 0.0000
# 2 59.2316 135.8956 41.5247 0.0000 4.6220 0.0000
# 3 52.1577 41.5247 102.2804 0.0000 -5.8827 0.0000
# 4 0.0000 0.0000 0.0000 17.0210 0.0000 5.4324
# 5 -0.1059 4.6220 -5.8827 0.0000 41.9807 0.0000
# 6 0.0000 0.0000 0.0000 5.4324 0.0000 39.4082
#
#
#
# Elastic Compliance Matrix: (Units=1/GPa)
#
#
# Indices 1 2 3 4 5 6 
#
# 1 0.009965 -0.003177 -0.003801 0.000000 -0.000158 0.000000
# 2 -0.003177 0.009497 -0.002315 0.000000 -0.001378 0.000000
# 3 -0.003801 -0.002315 0.012772 0.000000 0.002035 0.000000
# 4 0.000000 0.000000 0.000000 0.061455 0.000000 -0.008472
# 5 -0.000158 -0.001378 0.002035 0.000000 0.024257 0.000000
# 6 0.000000 0.000000 0.000000 -0.008472 0.000000 0.026543
#
#
# Mechanical properties :
#
#
# Convention : Reuss Voigt Hill
#
# Bulk Modulus (GPa) = 73.26455 75.90315 74.58385
# Shear Modulus (GPa) = 29.82842 34.64109 32.23476
#
# Velocity S-wave (km/s) = 3.75800 4.04984 3.90665
# Velocity P-wave (km/s) = 7.31560 7.60299 7.46068
#
# Compressibility (1/GPa) = 0.01364917
#
# Stress axis : x y z
#
# Youngs Moduli (GPa) = 100.34988 105.29140 78.29364
#
# Poissons Ratio (x) = 0.33446 0.29760
# Poissons Ratio (y) = 0.31877 0.18127
# Poissons Ratio (z) = 0.38144 0.24377
#
# Static dielectric constant tensor:
#      x y z
#    x 3.875690 0.000000 0.067060 
#    y 0.000000 3.860070 0.000000 
#    z 0.067060 0.000000 3.873120 
# 
# 
# High freq. dielectric constant tensor:
#      x y z
#    x 1.837620 0.000000 0.002660 
#    y 0.000000 1.839020 0.000000 
#    z 0.002660 0.000000 1.837380 
# 
# From -- ./inp_files/1648.got.cif
#   From: 2010.03.12/outbox.cif.g09.slc.cpg/sg4_1_cif.got.tgz:1648.got - 2010.03.31 09:31:35.
