data_PCOD8047289
_publ_section_title
;
Structure prediction by ZEFSAII (Michael W. Deem and Ramdas Pophale) SiO2 
 PCOD8047289
Probable space group: P 21
;
_chemical_formula_sum "Si O2"
_cell_formula_units_Z 16
_cell_length_a 17.114244
_cell_length_b 7.020247
_cell_length_c 8.936505
_cell_angle_alpha 90.000000
_cell_angle_beta 38.943226
_cell_angle_gamma 90.000000
_cell_volume 674.866165
_symmetry_space_group_name_H-M "P 21"
_symmetry_group_IT_number 4
_symmetry_cell_setting 'monoclinic'
loop_
_space_group_symop_operation_xyz
x,y,z
-x,1/2+y,-z
loop_
_atom_site_type_symbol
_atom_site_label
_atom_site_fract_x
_atom_site_fract_y
_atom_site_fract_z
Si Si1 0.920585 0.926750 0.331524
Si Si2 0.917011 0.551866 0.160189
Si Si3 0.515877 0.087883 0.297723
Si Si4 0.082499 0.359734 0.158982
Si Si5 0.684989 0.304869 0.494936
Si Si6 0.716235 0.188830 0.767999
Si Si7 0.337393 0.429337 0.648143
Si Si8 0.932146 0.224208 0.632206
O O1 0.878580 0.757468 0.280991
O O2 0.013521 0.851046 0.318719
O O3 0.796394 0.010047 0.587939
O O4 0.995530 0.083151 0.117748
O O5 0.801682 0.430637 0.270088
O O6 0.983347 0.431712 0.188273
O O7 0.433416 0.276823 0.441299
O O8 0.605339 0.055122 0.304386
O O9 0.436457 0.896358 0.397389
O O10 0.593580 0.114728 0.031285
O O11 0.104141 0.519361 0.252616
O O12 0.023701 0.190507 0.349637
O O13 0.214891 0.312782 0.885328
O O14 0.674310 0.317577 0.690911
O O15 0.701387 0.084959 0.419332
O O16 0.803274 0.310883 0.753973
#
# Coordination Sequence:
#
# PCOD8047289 Si02
#       8
#     2   2   2   2   2   2   2   2
#     4  11  24  43  73 109 156 195 239 310 382 449
#     4  11  25  42  73 117 148 190 240 309 387 443
#     4  12  29  51  78 107 145 206 257 307 368 434
#     4  11  23  44  70 108 149 181 244 301 373 445
#     4  12  28  48  76 109 153 196 250 310 373 447
#     4  12  26  49  71 108 155 192 254 309 366 455
#     4  12  26  54  75 108 148 198 256 314 360 451
#     4  11  21  43  70 104 148 192 228 306 373 440
#
# _framework density 23.708403000000001
#
# number of rings (size 3 to 8) (size 9 to 14) (size 15 to 20)
#    0.000    0.500    5.000    3.000    5.250    0.000 
#    4.500    0.000    0.000    0.000    0.000    0.000 
#    0.000    0.000    0.000    0.000    0.000    0.000 
#
# Total GULP energy -198413.195782 kJ/mol
# GULP energy per Si atom -12400.824736 kJ/mol
# Density = 2.365444 g / cm^3
# Si number density = 23.708403 Si / 1000 Ang^3
#
#
#
# Elastic Constant Matrix: (Units=GPa)
#
#
# Indices 1 2 3 4 5 6 
#
# 1 68.4359 -12.4892 8.9405 0.0000 6.3464 0.0000
# 2 -12.4892 68.4614 36.9064 0.0000 -3.4363 0.0000
# 3 8.9405 36.9064 158.7981 0.0000 0.1299 0.0000
# 4 0.0000 0.0000 0.0000 47.7309 0.0000 -2.0175
# 5 6.3464 -3.4363 0.1299 0.0000 42.6483 0.0000
# 6 0.0000 0.0000 0.0000 -2.0175 0.0000 21.0915
#
#
#
# Elastic Compliance Matrix: (Units=1/GPa)
#
#
# Indices 1 2 3 4 5 6 
#
# 1 0.015704 0.003702 -0.001743 0.000000 -0.002033 0.000000
# 2 0.003702 0.017651 -0.004311 0.000000 0.000884 0.000000
# 3 -0.001743 -0.004311 0.007398 0.000000 -0.000111 0.000000
# 4 0.000000 0.000000 0.000000 0.021036 0.000000 0.002012
# 5 -0.002033 0.000884 -0.000111 0.000000 0.023822 0.000000
# 6 0.000000 0.000000 0.000000 0.002012 0.000000 0.047605
#
#
# Mechanical properties :
#
#
# Convention : Reuss Voigt Hill
#
# Bulk Modulus (GPa) = 27.74040 40.26788 34.00414
# Shear Modulus (GPa) = 33.34777 39.78333 36.56555
#
# Velocity S-wave (km/s) = 3.75451 4.10082 3.93148
# Velocity P-wave (km/s) = 5.52460 6.28043 5.91460
#
# Compressibility (1/GPa) = 0.03604851
#
# Stress axis : x y z
#
# Youngs Moduli (GPa) = 63.67746 56.65473 135.18004
#
# Poissons Ratio (x) = -0.20976 0.23562
# Poissons Ratio (y) = -0.23576 0.58282
# Poissons Ratio (z) = 0.11099 0.24426
#
# Static dielectric constant tensor:
#      x y z
#    x 4.671830 0.000000 0.241190 
#    y 0.000000 4.414630 0.000000 
#    z 0.241190 0.000000 4.433930 
# 
# 
# High freq. dielectric constant tensor:
#      x y z
#    x 1.969310 0.000000 0.017420 
#    y 0.000000 1.939980 0.000000 
#    z 0.017420 0.000000 1.937940 
# 
# From -- ./inp_files/9665.got.cif
#   From: 2010.03.12/outbox.cif.g09.slc.cpg/sg4_5_cif.got.tgz:9665.got - 2010.03.31 09:31:35.
