data_PCOD8047765
_publ_section_title
;
Structure prediction by ZEFSAII (Michael W. Deem and Ramdas Pophale) SiO2 
 PCOD8047765
Probable space group: P 21
;
_chemical_formula_sum "Si O2"
_cell_formula_units_Z 12
_cell_length_a 8.683611
_cell_length_b 10.922833
_cell_length_c 7.583389
_cell_angle_alpha 90.000000
_cell_angle_beta 143.563495
_cell_angle_gamma 90.000000
_cell_volume 427.204101
_symmetry_space_group_name_H-M "P 21"
_symmetry_group_IT_number 4
_symmetry_cell_setting 'monoclinic'
loop_
_space_group_symop_operation_xyz
x,y,z
-x,1/2+y,-z
loop_
_atom_site_type_symbol
_atom_site_label
_atom_site_fract_x
_atom_site_fract_y
_atom_site_fract_z
Si Si1 0.094563 0.274960 0.769816
Si Si2 0.873475 0.451680 0.139609
Si Si3 0.385955 0.746494 0.912939
Si Si4 0.637201 0.553200 0.576343
Si Si5 0.282038 0.320274 0.308724
Si Si6 0.949167 0.036297 0.342686
O O1 0.803557 0.257102 0.431909
O O2 0.193568 0.408407 0.800877
O O3 0.331638 0.201827 0.891912
O O4 0.091552 0.273200 0.978097
O O5 0.628849 0.370961 0.983320
O O6 0.965315 0.551657 0.370244
O O7 0.104391 0.354579 0.312454
O O8 0.806400 0.532752 0.909103
O O9 0.262296 0.635861 0.912844
O O10 0.424303 0.445397 0.379170
O O11 0.542490 0.697903 0.486356
O O12 0.804541 0.537356 0.556735
#
# Coordination Sequence:
#
# PCOD8047765 Si02
#       6
#     2   2   2   2   2   2
#     4  11  26  47  76 114 153 208 266 336 396 480
#     4  11  26  47  75 115 152 216 263 332 398 492
#     4  11  26  48  79 110 159 207 274 322 411 477
#     4  12  28  51  77 120 164 210 277 334 414 483
#     4  12  27  48  80 118 160 216 271 342 402 495
#     4  11  25  51  75 111 162 209 267 336 405 485
#
# _framework density 28.089618000000002
#
# number of rings (size 3 to 8) (size 9 to 14) (size 15 to 20)
#    0.000    0.667    3.333    3.000    7.000    6.667 
#    0.000    0.000    0.000    0.000    0.000    0.000 
#    0.000    0.000    0.000    0.000    0.000    0.000 
#
# Total GULP energy -148678.531502 kJ/mol
# GULP energy per Si atom -12389.877625 kJ/mol
# Density = 2.802568 g / cm^3
# Si number density = 28.089618 Si / 1000 Ang^3
#
#
#
# Elastic Constant Matrix: (Units=GPa)
#
#
# Indices 1 2 3 4 5 6 
#
# 1 145.7548 7.7965 30.1035 0.0000 -11.0962 0.0000
# 2 7.7965 146.6125 9.7726 0.0000 6.4800 0.0000
# 3 30.1035 9.7726 41.3809 0.0000 -1.2869 0.0000
# 4 0.0000 0.0000 0.0000 22.0134 0.0000 16.1770
# 5 -11.0962 6.4800 -1.2869 0.0000 36.1343 0.0000
# 6 0.0000 0.0000 0.0000 16.1770 0.0000 33.8839
#
#
#
# Elastic Compliance Matrix: (Units=1/GPa)
#
#
# Indices 1 2 3 4 5 6 
#
# 1 0.008268 -0.000150 -0.005906 0.000000 0.002356 0.000000
# 2 -0.000150 0.006994 -0.001585 0.000000 -0.001357 0.000000
# 3 -0.005906 -0.001585 0.028821 0.000000 -0.000503 0.000000
# 4 0.000000 0.000000 0.000000 0.069978 0.000000 -0.033409
# 5 0.002356 -0.001357 -0.000503 0.000000 0.028623 0.000000
# 6 0.000000 0.000000 0.000000 -0.033409 0.000000 0.045463
#
#
# Mechanical properties :
#
#
# Convention : Reuss Voigt Hill
#
# Bulk Modulus (GPa) = 34.72067 47.67704 41.19885
# Shear Modulus (GPa) = 23.47088 37.47804 30.47446
#
# Velocity S-wave (km/s) = 2.89376 3.65668 3.29736
# Velocity P-wave (km/s) = 4.85311 5.90241 5.40329
#
# Compressibility (1/GPa) = 0.02880129
#
# Stress axis : x y z
#
# Youngs Moduli (GPa) = 120.94823 142.97383 34.69707
#
# Poissons Ratio (x) = 0.02146 0.20492
# Poissons Ratio (y) = 0.01816 0.05499
# Poissons Ratio (z) = 0.71433 0.22658
#
# Static dielectric constant tensor:
#      x y z
#    x 4.933290 0.000000 -0.470610 
#    y 0.000000 6.011940 0.000000 
#    z -0.470610 0.000000 5.047810 
# 
# 
# High freq. dielectric constant tensor:
#      x y z
#    x 2.133010 0.000000 -0.019350 
#    y 0.000000 2.177710 0.000000 
#    z -0.019350 0.000000 2.120590 
# 
# From -- ./inp_files/6495.got.cif
#   From: 2010.03.12/outbox.cif.g09.slc.cpg/sg4_4_cif.got.tgz:6495.got - 2010.03.31 09:31:35.
