data_PCOD8047554
_publ_section_title
;
Structure prediction by ZEFSAII (Michael W. Deem and Ramdas Pophale) SiO2 
 PCOD8047554
Probable space group: P 21
;
_chemical_formula_sum "Si O2"
_cell_formula_units_Z 16
_cell_length_a 5.275664
_cell_length_b 8.658242
_cell_length_c 14.654825
_cell_angle_alpha 90.000000
_cell_angle_beta 108.673501
_cell_angle_gamma 90.000000
_cell_volume 634.164347
_symmetry_space_group_name_H-M "P 21"
_symmetry_group_IT_number 4
_symmetry_cell_setting 'monoclinic'
loop_
_space_group_symop_operation_xyz
x,y,z
-x,1/2+y,-z
loop_
_atom_site_type_symbol
_atom_site_label
_atom_site_fract_x
_atom_site_fract_y
_atom_site_fract_z
Si Si1 0.018323 0.292020 0.275934
Si Si2 0.468041 0.357112 0.023140
Si Si3 0.946161 0.037170 0.123054
Si Si4 0.521978 0.964900 0.776459
Si Si5 0.144872 0.086644 0.958049
Si Si6 0.198982 0.753372 0.224665
Si Si7 0.778328 0.628948 0.521891
Si Si8 0.195325 0.772261 0.435039
O O1 0.893999 0.171120 0.189441
O O2 0.285161 0.377737 0.273095
O O3 0.086830 0.194868 0.372440
O O4 0.782839 0.412021 0.272826
O O5 0.365603 0.425410 0.109102
O O6 0.778448 0.406217 0.046815
O O7 0.432673 0.173435 0.010502
O O8 0.301186 0.421441 0.917215
O O9 0.200357 0.925293 0.179784
O O10 0.978781 0.119054 0.029098
O O11 0.529385 0.151359 0.757622
O O12 0.014453 0.141442 0.849756
O O13 0.121479 0.776338 0.320284
O O14 0.472961 0.682900 0.480352
O O15 0.779160 0.444158 0.522825
O O16 0.953015 0.684098 0.456254
#
# Coordination Sequence:
#
# PCOD8047554 Si02
#       8
#     2   2   2   2   2   2   2   2
#     4  12  27  51  77 113 150 211 259 327 399 482
#     4  11  24  40  67 105 150 207 249 316 374 466
#     4  11  24  49  71 107 161 205 267 311 403 464
#     4  12  26  43  77 112 158 200 262 317 389 472
#     4  11  24  45  71 108 158 210 260 321 393 472
#     4  11  27  49  77 116 155 210 263 337 392 489
#     4  12  29  55  85 117 159 209 267 344 411 480
#     4  12  29  56  83 120 159 208 269 339 413 483
#
# _framework density 25.230053999999999
#
# number of rings (size 3 to 8) (size 9 to 14) (size 15 to 20)
#    0.000    0.500    3.750    3.000    7.000    1.000 
#    2.250    0.000    0.000    0.000    0.000    0.000 
#    0.000    0.000    0.000    0.000    0.000    0.000 
#
# Total GULP energy -198322.905616 kJ/mol
# GULP energy per Si atom -12395.181601 kJ/mol
# Density = 2.517263 g / cm^3
# Si number density = 25.230054 Si / 1000 Ang^3
#
#
#
# Elastic Constant Matrix: (Units=GPa)
#
#
# Indices 1 2 3 4 5 6 
#
# 1 96.9875 27.3346 13.4725 0.0000 -13.0922 0.0000
# 2 27.3346 126.6470 21.2540 0.0000 -7.9107 0.0000
# 3 13.4725 21.2540 109.8190 0.0000 -16.9133 0.0000
# 4 0.0000 0.0000 0.0000 35.3703 0.0000 1.1351
# 5 -13.0922 -7.9107 -16.9133 0.0000 28.1634 0.0000
# 6 0.0000 0.0000 0.0000 1.1351 0.0000 43.7316
#
#
#
# Elastic Compliance Matrix: (Units=1/GPa)
#
#
# Indices 1 2 3 4 5 6 
#
# 1 0.011582 -0.002163 -0.000294 0.000000 0.004600 0.000000
# 2 -0.002163 0.008621 -0.001306 0.000000 0.000632 0.000000
# 3 -0.000294 -0.001306 0.010267 0.000000 0.005662 0.000000
# 4 0.000000 0.000000 0.000000 0.028296 0.000000 -0.000734
# 5 0.004600 0.000632 0.005662 0.000000 0.041223 0.000000
# 6 0.000000 0.000000 0.000000 -0.000734 0.000000 0.022886
#
#
# Mechanical properties :
#
#
# Convention : Reuss Voigt Hill
#
# Bulk Modulus (GPa) = 43.58322 50.84175 47.21248
# Shear Modulus (GPa) = 36.21901 39.54590 37.88245
#
# Velocity S-wave (km/s) = 3.79298 3.96335 3.87910
# Velocity P-wave (km/s) = 6.04103 6.41399 6.23030
#
# Compressibility (1/GPa) = 0.02294461
#
# Stress axis : x y z
#
# Youngs Moduli (GPa) = 86.34067 115.98960 97.40213
#
# Poissons Ratio (x) = 0.25090 0.02861
# Poissons Ratio (y) = 0.18677 0.12720
# Poissons Ratio (z) = 0.02536 0.15147
#
# Static dielectric constant tensor:
#      x y z
#    x 4.346110 0.000000 0.010220 
#    y 0.000000 4.968600 0.000000 
#    z 0.010220 0.000000 4.806710 
# 
# 
# High freq. dielectric constant tensor:
#      x y z
#    x 1.998460 0.000000 0.001910 
#    y 0.000000 2.028120 0.000000 
#    z 0.001910 0.000000 2.018610 
# 
# From -- ./inp_files/13235.got.cif
#   From: 2010.03.12/outbox.cif.g09.slc.cpg/sg4_7_cif.got.tgz:13235.got - 2010.03.31 09:31:35.
