data_PCOD8047657
_publ_section_title
;
Structure prediction by ZEFSAII (Michael W. Deem and Ramdas Pophale) SiO2 
 PCOD8047657
Probable space group: P 21
;
_chemical_formula_sum "Si O2"
_cell_formula_units_Z 14
_cell_length_a 5.481239
_cell_length_b 10.898464
_cell_length_c 9.796909
_cell_angle_alpha 90.000000
_cell_angle_beta 103.243470
_cell_angle_gamma 90.000000
_cell_volume 569.674588
_symmetry_space_group_name_H-M "P 21"
_symmetry_group_IT_number 4
_symmetry_cell_setting 'monoclinic'
loop_
_space_group_symop_operation_xyz
x,y,z
-x,1/2+y,-z
loop_
_atom_site_type_symbol
_atom_site_label
_atom_site_fract_x
_atom_site_fract_y
_atom_site_fract_z
Si Si1 0.946154 0.133350 0.493675
Si Si2 0.068769 0.794303 0.937131
Si Si3 0.766565 0.631836 0.721452
Si Si4 0.818638 0.515494 0.232500
Si Si5 0.407888 0.430353 0.656950
Si Si6 0.358437 0.259618 0.898885
Si Si7 0.576233 0.333997 0.397090
O O1 0.832140 0.269769 0.480987
O O2 0.201985 0.136651 0.439419
O O3 0.975175 0.089703 0.653038
O O4 0.786202 0.040416 0.380876
O O5 0.009435 0.670231 0.841832
O O6 0.037483 0.915752 0.840508
O O7 0.358622 0.786576 0.017660
O O8 0.863932 0.806688 0.031074
O O9 0.664465 0.495896 0.745873
O O10 0.567338 0.741050 0.723008
O O11 0.667794 0.612708 0.120631
O O12 0.629519 0.453883 0.314926
O O13 0.314280 0.327194 0.749227
O O14 0.424160 0.369339 0.511508
#
# Coordination Sequence:
#
# PCOD8047657 Si02
#       7
#     2   2   2   2   2   2   2
#     4  11  25  45  81 113 150 194 258 339 414 453
#     4  12  30  54  76 113 160 218 271 315 389 481
#     4  11  24  48  76 108 153 199 258 327 399 465
#     4  12  27  51  83 113 159 205 267 336 402 474
#     4  11  27  45  77 113 156 199 260 325 399 475
#     4  12  33  52  79 115 161 219 270 316 392 485
#     4  11  24  47  74 119 147 192 254 338 405 465
#
# _framework density 24.575436
#
# number of rings (size 3 to 8) (size 9 to 14) (size 15 to 20)
#    0.000    0.571    2.857    2.571   12.000    2.286 
#    0.000    0.000    0.000    0.000    0.000    0.000 
#    0.000    0.000    0.000    0.000    0.000    0.000 
#
# Total GULP energy -173576.207186 kJ/mol
# GULP energy per Si atom -12398.300513 kJ/mol
# Density = 2.451950 g / cm^3
# Si number density = 24.575436 Si / 1000 Ang^3
#
#
#
# Elastic Constant Matrix: (Units=GPa)
#
#
# Indices 1 2 3 4 5 6 
#
# 1 103.1807 19.0631 38.0664 0.0000 -15.4351 0.0000
# 2 19.0631 102.6891 26.9117 0.0000 -17.7606 0.0000
# 3 38.0664 26.9117 100.9455 0.0000 -28.6288 0.0000
# 4 0.0000 0.0000 0.0000 56.7385 0.0000 -0.3629
# 5 -15.4351 -17.7606 -28.6288 0.0000 46.1183 0.0000
# 6 0.0000 0.0000 0.0000 -0.3629 0.0000 36.9489
#
#
#
# Elastic Compliance Matrix: (Units=1/GPa)
#
#
# Indices 1 2 3 4 5 6 
#
# 1 0.011412 -0.000944 -0.003728 0.000000 0.001142 0.000000
# 2 -0.000944 0.010852 -0.001749 0.000000 0.002777 0.000000
# 3 -0.003728 -0.001749 0.013634 0.000000 0.006542 0.000000
# 4 0.000000 0.000000 0.000000 0.017626 0.000000 0.000173
# 5 0.001142 0.002777 0.006542 0.000000 0.027196 0.000000
# 6 0.000000 0.000000 0.000000 0.000173 0.000000 0.027066
#
#
# Mechanical properties :
#
#
# Convention : Reuss Voigt Hill
#
# Bulk Modulus (GPa) = 43.37421 52.76640 48.07031
# Shear Modulus (GPa) = 38.96660 42.81274 40.88967
#
# Velocity S-wave (km/s) = 3.98627 4.17837 4.08345
# Velocity P-wave (km/s) = 6.23497 6.69299 6.46804
#
# Compressibility (1/GPa) = 0.02305517
#
# Stress axis : x y z
#
# Youngs Moduli (GPa) = 87.62434 92.14695 73.34628
#
# Poissons Ratio (x) = 0.08700 0.27344
# Poissons Ratio (y) = 0.08273 0.12832
# Poissons Ratio (z) = 0.32667 0.16121
#
# Static dielectric constant tensor:
#      x y z
#    x 4.448510 0.000000 -0.021400 
#    y 0.000000 4.645440 0.000000 
#    z -0.021400 0.000000 4.394610 
# 
# 
# High freq. dielectric constant tensor:
#      x y z
#    x 1.976850 0.000000 -0.005090 
#    y 0.000000 1.991050 0.000000 
#    z -0.005090 0.000000 1.975980 
# 
# From -- ./inp_files/1191.got.cif
#   From: 2010.03.12/outbox.cif.g09.slc.cpg/sg4_1_cif.got.tgz:1191.got - 2010.03.31 09:31:35.
