data_PCOD8047420
_publ_section_title
;
Structure prediction by ZEFSAII (Michael W. Deem and Ramdas Pophale) SiO2 
 PCOD8047420
Probable space group: P 21
;
_chemical_formula_sum "Si O2"
_cell_formula_units_Z 12
_cell_length_a 13.621712
_cell_length_b 8.121683
_cell_length_c 14.480907
_cell_angle_alpha 90.000000
_cell_angle_beta 160.163888
_cell_angle_gamma 90.000000
_cell_volume 543.621791
_symmetry_space_group_name_H-M "P 21"
_symmetry_group_IT_number 4
_symmetry_cell_setting 'monoclinic'
loop_
_space_group_symop_operation_xyz
x,y,z
-x,1/2+y,-z
loop_
_atom_site_type_symbol
_atom_site_label
_atom_site_fract_x
_atom_site_fract_y
_atom_site_fract_z
Si Si1 0.930249 0.262220 0.884212
Si Si2 0.661824 0.613834 0.615788
Si Si3 0.234522 0.056092 0.497808
Si Si4 0.091027 0.752991 0.643855
Si Si5 0.738906 0.819962 0.002193
Si Si6 0.696684 0.623063 0.143856
O O1 0.776825 0.438027 0.750000
O O2 0.670597 0.130240 0.645709
O O3 0.120820 0.245814 0.145709
O O4 0.152978 0.237212 0.996987
O O5 0.659002 0.638842 0.503012
O O6 0.140679 0.201959 0.483139
O O7 0.468409 0.938028 0.750002
O O8 0.973076 0.938026 0.250003
O O9 0.924187 0.740437 0.398507
O O10 0.194373 0.938027 0.750000
O O11 0.372827 0.635617 0.898507
O O12 0.674402 0.674096 0.016861
#
# Coordination Sequence:
#
# PCOD8047420 Si02
#       6
#     2   2   2   2   2   2
#     4  11  23  41  65  94 129 169 214 265 320 377
#     4  11  23  41  65  94 129 169 214 265 320 377
#     4  11  23  43  66  92 128 172 214 261 318 378
#     4  12  25  42  66  96 130 169 213 264 319 379
#     4  11  23  43  66  92 128 172 214 261 318 378
#     4  12  25  42  66  96 130 169 213 264 319 379
#
# _framework density 22.074172999999998
#
# number of rings (size 3 to 8) (size 9 to 14) (size 15 to 20)
#    0.000    0.667    0.000   11.000    0.000    2.667 
#    0.000    0.000    0.000    0.000    0.000    0.000 
#    0.000    0.000    0.000    0.000    0.000    0.000 
#
# Total GULP energy -148829.650172 kJ/mol
# GULP energy per Si atom -12402.470848 kJ/mol
# Density = 2.202393 g / cm^3
# Si number density = 22.074173 Si / 1000 Ang^3
#
#
#
# Elastic Constant Matrix: (Units=GPa)
#
#
# Indices 1 2 3 4 5 6 
#
# 1 101.5340 65.8599 35.5361 0.0000 0.4243 0.0000
# 2 65.8599 97.3039 40.5302 0.0000 -2.1899 0.0000
# 3 35.5361 40.5302 151.5025 0.0000 3.8967 0.0000
# 4 0.0000 0.0000 0.0000 49.4926 0.0000 0.9207
# 5 0.4243 -2.1899 3.8967 0.0000 35.7486 0.0000
# 6 0.0000 0.0000 0.0000 0.9207 0.0000 38.8426
#
#
#
# Elastic Compliance Matrix: (Units=1/GPa)
#
#
# Indices 1 2 3 4 5 6 
#
# 1 0.017732 -0.011587 -0.001039 0.000000 -0.000807 0.000000
# 2 -0.011587 0.019177 -0.002453 0.000000 0.001580 0.000000
# 3 -0.001039 -0.002453 0.007525 0.000000 -0.000958 0.000000
# 4 0.000000 0.000000 0.000000 0.020214 0.000000 -0.000479
# 5 -0.000807 0.001580 -0.000958 0.000000 0.028184 0.000000
# 6 0.000000 0.000000 0.000000 -0.000479 0.000000 0.025756
#
#
# Mechanical properties :
#
#
# Convention : Reuss Voigt Hill
#
# Bulk Modulus (GPa) = 70.04610 70.46586 70.25598
# Shear Modulus (GPa) = 32.57220 38.71105 35.64163
#
# Velocity S-wave (km/s) = 3.84550 4.19224 4.02261
# Velocity P-wave (km/s) = 7.17761 7.44478 7.31242
#
# Compressibility (1/GPa) = 0.01427631
#
# Stress axis : x y z
#
# Youngs Moduli (GPa) = 56.39549 52.14494 132.88966
#
# Poissons Ratio (x) = 0.60422 0.13801
# Poissons Ratio (y) = 0.65348 0.32599
# Poissons Ratio (z) = 0.05857 0.12791
#
# Static dielectric constant tensor:
#      x y z
#    x 4.547460 0.000000 -0.021280 
#    y 0.000000 3.784000 0.000000 
#    z -0.021280 0.000000 4.301320 
# 
# 
# High freq. dielectric constant tensor:
#      x y z
#    x 1.873930 0.000000 0.002100 
#    y 0.000000 1.859470 0.000000 
#    z 0.002100 0.000000 1.898190 
# 
# From -- ./inp_files/12164.got.cif
#   From: 2010.03.12/outbox.cif.g09.slc.cpg/sg4_7_cif.got.tgz:12164.got - 2010.03.31 09:31:35.
