data_PCOD8047914
_publ_section_title
;
Structure prediction by ZEFSAII (Michael W. Deem and Ramdas Pophale) SiO2 
 PCOD8047914
Probable space group: P 21
;
_chemical_formula_sum "Si O2"
_cell_formula_units_Z 14
_cell_length_a 19.073614
_cell_length_b 5.007137
_cell_length_c 11.873625
_cell_angle_alpha 90.000000
_cell_angle_beta 149.648729
_cell_angle_gamma 90.000000
_cell_volume 573.000651
_symmetry_space_group_name_H-M "P 21"
_symmetry_group_IT_number 4
_symmetry_cell_setting 'monoclinic'
loop_
_space_group_symop_operation_xyz
x,y,z
-x,1/2+y,-z
loop_
_atom_site_type_symbol
_atom_site_label
_atom_site_fract_x
_atom_site_fract_y
_atom_site_fract_z
Si Si1 0.463678 0.955960 0.381905
Si Si2 0.088189 0.065753 0.111468
Si Si3 0.159783 0.148218 0.958832
Si Si4 0.068577 0.663745 0.700621
Si Si5 0.523018 0.970720 0.218363
Si Si6 0.690900 0.486436 0.394753
Si Si7 0.217148 0.933078 0.721970
O O1 0.447835 0.684954 0.431955
O O2 0.537542 0.875631 0.367744
O O3 0.316312 0.077389 0.144043
O O4 0.201100 0.095778 0.365079
O O5 0.038685 0.760745 0.033847
O O6 0.151290 0.159704 0.081117
O O7 0.117525 0.431289 0.850526
O O8 0.060914 0.929530 0.765438
O O9 0.175737 0.679054 0.742697
O O10 0.911997 0.634688 0.434791
O O11 0.584690 0.734060 0.224289
O O12 0.608141 0.239665 0.327888
O O13 0.365860 0.042867 0.966497
O O14 0.772980 0.383038 0.398120
#
# Coordination Sequence:
#
# PCOD8047914 Si02
#       7
#     2   2   2   2   2   2   2
#     4  12  25  45  72 107 146 194 249 306 378 449
#     4  12  25  46  76 110 153 199 254 309 383 455
#     4  12  25  47  72 110 148 195 252 318 378 437
#     4  12  28  47  77 110 149 198 259 325 368 452
#     4  12  27  48  74 109 151 200 250 309 380 457
#     4  12  28  49  75 111 154 199 250 308 381 462
#     4  12  28  50  76 111 151 203 256 311 384 444
#
# _framework density 24.432783000000001
#
# number of rings (size 3 to 8) (size 9 to 14) (size 15 to 20)
#    0.000    0.000    1.429    8.571    2.000    4.571 
#    0.000    0.000    0.000    0.000    0.000    0.000 
#    0.000    0.000    0.000    0.000    0.000    0.000 
#
# Total GULP energy -173641.034691 kJ/mol
# GULP energy per Si atom -12402.931049 kJ/mol
# Density = 2.437717 g / cm^3
# Si number density = 24.432783 Si / 1000 Ang^3
#
#
#
# Elastic Constant Matrix: (Units=GPa)
#
#
# Indices 1 2 3 4 5 6 
#
# 1 156.9190 33.4428 45.7909 0.0000 -21.4579 0.0000
# 2 33.4428 83.9366 15.4133 0.0000 -8.8648 0.0000
# 3 45.7909 15.4133 92.0612 0.0000 -3.0575 0.0000
# 4 0.0000 0.0000 0.0000 37.5075 0.0000 4.5630
# 5 -21.4579 -8.8648 -3.0575 0.0000 43.6108 0.0000
# 6 0.0000 0.0000 0.0000 4.5630 0.0000 36.4253
#
#
#
# Elastic Compliance Matrix: (Units=1/GPa)
#
#
# Indices 1 2 3 4 5 6 
#
# 1 0.008406 -0.002313 -0.003681 0.000000 0.003408 0.000000
# 2 -0.002313 0.013175 -0.001006 0.000000 0.001469 0.000000
# 3 -0.003681 -0.001006 0.012824 0.000000 -0.001116 0.000000
# 4 0.000000 0.000000 0.000000 0.027074 0.000000 -0.003392
# 5 0.003408 0.001469 -0.001116 0.000000 0.024827 0.000000
# 6 0.000000 0.000000 0.000000 -0.003392 0.000000 0.027878
#
#
# Mechanical properties :
#
#
# Convention : Reuss Voigt Hill
#
# Bulk Modulus (GPa) = 49.00749 58.02342 53.51546
# Shear Modulus (GPa) = 37.04053 39.39337 38.21695
#
# Velocity S-wave (km/s) = 3.89783 4.01972 3.95925
# Velocity P-wave (km/s) = 6.35288 6.73379 6.54611
#
# Compressibility (1/GPa) = 0.02040504
#
# Stress axis : x y z
#
# Youngs Moduli (GPa) = 118.96650 75.89873 77.97612
#
# Poissons Ratio (x) = 0.17558 0.28699
# Poissons Ratio (y) = 0.27521 0.07848
# Poissons Ratio (z) = 0.43786 0.07639
#
# Static dielectric constant tensor:
#      x y z
#    x 4.795690 0.000000 -0.062220 
#    y 0.000000 4.401580 0.000000 
#    z -0.062220 0.000000 4.536060 
# 
# 
# High freq. dielectric constant tensor:
#      x y z
#    x 1.987540 0.000000 -0.008520 
#    y 0.000000 1.970690 0.000000 
#    z -0.008520 0.000000 1.985280 
# 
# From -- ./inp_files/12836.got.cif
#   From: 2010.03.12/outbox.cif.g09.slc.cpg/sg4_7_cif.got.tgz:12836.got - 2010.03.31 09:31:35.
