data_PCOD8047989
_publ_section_title
;
Structure prediction by ZEFSAII (Michael W. Deem and Ramdas Pophale) SiO2 
 PCOD8047989
Probable space group: P 21
;
_chemical_formula_sum "Si O2"
_cell_formula_units_Z 16
_cell_length_a 11.344813
_cell_length_b 9.034419
_cell_length_c 8.572712
_cell_angle_alpha 90.000000
_cell_angle_beta 128.782180
_cell_angle_gamma 90.000000
_cell_volume 684.936333
_symmetry_space_group_name_H-M "P 21"
_symmetry_group_IT_number 4
_symmetry_cell_setting 'monoclinic'
loop_
_space_group_symop_operation_xyz
x,y,z
-x,1/2+y,-z
loop_
_atom_site_type_symbol
_atom_site_label
_atom_site_fract_x
_atom_site_fract_y
_atom_site_fract_z
Si Si1 0.840950 0.027430 0.901685
Si Si2 0.634921 0.574484 0.056684
Si Si3 0.175926 0.278849 0.583441
Si Si4 0.890271 0.082949 0.301204
Si Si5 0.340606 0.772866 0.385506
Si Si6 0.311316 0.278002 0.370392
Si Si7 0.636298 0.274891 0.240748
Si Si8 0.180717 0.019616 0.092006
O O1 0.710013 0.105248 0.689169
O O2 0.777499 0.860190 0.844530
O O3 0.849061 0.075350 0.086188
O O4 0.002237 0.048080 0.951501
O O5 0.684132 0.701401 0.216554
O O6 0.588264 0.422783 0.106384
O O7 0.490261 0.646685 0.852867
O O8 0.767061 0.546528 0.041520
O O9 0.114404 0.420720 0.625713
O O10 0.235348 0.334148 0.466501
O O11 0.055541 0.148217 0.462524
O O12 0.780623 0.202923 0.282923
O O13 0.510315 0.805090 0.470373
O O14 0.321825 0.820806 0.549007
O O15 0.218519 0.853196 0.173063
O O16 0.277771 0.108217 0.301946
#
# Coordination Sequence:
#
# PCOD8047989 Si02
#       8
#     2   2   2   2   2   2   2   2
#     4  12  28  49  76 110 152 197 256 310 377 452
#     4  12  28  49  76 109 154 198 253 311 381 453
#     4  12  28  49  76 109 154 198 253 311 381 453
#     4  12  28  48  77 112 151 201 248 315 382 449
#     4  12  28  49  76 110 152 197 256 310 377 452
#     4  12  26  49  75 108 150 200 252 306 375 448
#     4  12  28  48  77 112 151 201 248 315 382 449
#     4  12  26  49  75 108 150 200 252 306 375 448
#
# _framework density 23.359836000000001
#
# number of rings (size 3 to 8) (size 9 to 14) (size 15 to 20)
#    0.000    0.000    2.500    6.000   14.000    0.000 
#    0.000    0.000    0.000    0.000    0.000    0.000 
#    0.000    0.000    0.000    0.000    0.000    0.000 
#
# Total GULP energy -198471.946738 kJ/mol
# GULP energy per Si atom -12404.496671 kJ/mol
# Density = 2.330667 g / cm^3
# Si number density = 23.359836 Si / 1000 Ang^3
#
#
#
# Elastic Constant Matrix: (Units=GPa)
#
#
# Indices 1 2 3 4 5 6 
#
# 1 136.0898 38.0901 34.4692 0.0000 2.5591 0.0000
# 2 38.0901 96.3016 34.8689 0.0000 -11.7180 0.0000
# 3 34.4692 34.8689 90.7429 0.0000 2.9700 0.0000
# 4 0.0000 0.0000 0.0000 53.9363 0.0000 -0.1342
# 5 2.5591 -11.7180 2.9700 0.0000 29.3070 0.0000
# 6 0.0000 0.0000 0.0000 -0.1342 0.0000 36.0343
#
#
#
# Elastic Compliance Matrix: (Units=1/GPa)
#
#
# Indices 1 2 3 4 5 6 
#
# 1 0.008732 -0.002880 -0.002155 0.000000 -0.001696 0.000000
# 2 -0.002880 0.013896 -0.004451 0.000000 0.006259 0.000000
# 3 -0.002155 -0.004451 0.013646 0.000000 -0.002974 0.000000
# 4 0.000000 0.000000 0.000000 0.018541 0.000000 0.000069
# 5 -0.001696 0.006259 -0.002974 0.000000 0.037074 0.000000
# 6 0.000000 0.000000 0.000000 0.000069 0.000000 0.027752
#
#
# Mechanical properties :
#
#
# Convention : Reuss Voigt Hill
#
# Bulk Modulus (GPa) = 57.79106 59.77673 58.78389
# Shear Modulus (GPa) = 34.63130 38.23591 36.43361
#
# Velocity S-wave (km/s) = 3.85452 4.05016 3.95355
# Velocity P-wave (km/s) = 6.67855 6.89324 6.78674
#
# Compressibility (1/GPa) = 0.01730372
#
# Stress axis : x y z
#
# Youngs Moduli (GPa) = 114.52458 71.96236 73.28047
#
# Poissons Ratio (x) = 0.20724 0.15790
# Poissons Ratio (y) = 0.32981 0.32615
# Poissons Ratio (z) = 0.24677 0.32028
#
# Static dielectric constant tensor:
#      x y z
#    x 4.210010 0.000000 -0.030150 
#    y 0.000000 4.280730 0.000000 
#    z -0.030150 0.000000 4.105420 
# 
# 
# High freq. dielectric constant tensor:
#      x y z
#    x 1.932490 0.000000 -0.000930 
#    y 0.000000 1.943380 0.000000 
#    z -0.000930 0.000000 1.933910 
# 
# From -- ./inp_files/7950.got.cif
#   From: 2010.03.12/outbox.cif.g09.slc.cpg/sg4_4_cif.got.tgz:7950.got - 2010.03.31 09:31:35.
