data_PCOD8047605
_publ_section_title
;
Structure prediction by ZEFSAII (Michael W. Deem and Ramdas Pophale) SiO2 
 PCOD8047605
Probable space group: P 21
;
_chemical_formula_sum "Si O2"
_cell_formula_units_Z 16
_cell_length_a 18.323527
_cell_length_b 8.545225
_cell_length_c 6.504374
_cell_angle_alpha 90.000000
_cell_angle_beta 44.769329
_cell_angle_gamma 90.000000
_cell_volume 717.245064
_symmetry_space_group_name_H-M "P 21"
_symmetry_group_IT_number 4
_symmetry_cell_setting 'monoclinic'
loop_
_space_group_symop_operation_xyz
x,y,z
-x,1/2+y,-z
loop_
_atom_site_type_symbol
_atom_site_label
_atom_site_fract_x
_atom_site_fract_y
_atom_site_fract_z
Si Si1 0.783095 0.433230 0.592966
Si Si2 0.597139 0.425528 0.691230
Si Si3 0.902861 0.925528 0.579787
Si Si4 0.470982 0.256645 0.269661
Si Si5 0.842954 0.762065 0.309957
Si Si6 0.716905 0.933230 0.225345
Si Si7 0.657046 0.262065 0.181773
Si Si8 0.029018 0.756645 0.653590
O O1 0.705997 0.369504 0.572172
O O2 0.790467 0.620239 0.541999
O O3 0.896310 0.356085 0.344551
O O4 0.738451 0.379670 0.906320
O O5 0.592023 0.612272 0.696323
O O6 0.591293 0.364159 0.472405
O O7 0.501164 0.364853 0.016742
O O8 0.908707 0.864160 0.337576
O O9 0.998836 0.864853 0.521398
O O10 0.907977 0.112272 0.564416
O O11 0.794003 0.869504 0.896160
O O12 0.396310 0.356085 0.570208
O O13 0.573165 0.197874 0.185728
O O14 0.761549 0.879670 0.360125
O O15 0.926835 0.697874 0.978388
O O16 0.709533 0.120239 0.203868
#
# Coordination Sequence:
#
# PCOD8047605 Si02
#       8
#     2   2   2   2   2   2   2   2
#     4  11  24  45  66 107 139 183 236 287 355 426
#     4  11  25  44  72  99 140 183 228 293 352 421
#     4  11  25  44  72  99 140 183 228 293 352 421
#     4  11  24  45  68 106 138 182 235 286 353 425
#     4  11  25  42  72 100 139 188 233 290 356 418
#     4  11  24  45  66 107 139 183 236 287 355 426
#     4  11  25  42  72 100 139 188 233 290 356 418
#     4  11  24  45  68 106 138 182 235 286 353 425
#
# _framework density 22.307576999999998
#
# number of rings (size 3 to 8) (size 9 to 14) (size 15 to 20)
#    0.000    1.000    2.500    3.000    3.500    6.000 
#    0.000    0.000    0.000    0.000    0.000    0.000 
#    0.000    0.000    0.000    0.000    0.000    0.000 
#
# Total GULP energy -198381.255798 kJ/mol
# GULP energy per Si atom -12398.828487 kJ/mol
# Density = 2.225680 g / cm^3
# Si number density = 22.307577 Si / 1000 Ang^3
#
#
#
# Elastic Constant Matrix: (Units=GPa)
#
#
# Indices 1 2 3 4 5 6 
#
# 1 100.8145 48.4235 38.0663 0.0000 -0.7488 0.0000
# 2 48.4235 133.9323 51.5263 0.0000 10.9238 0.0000
# 3 38.0663 51.5263 100.3333 0.0000 -0.9478 0.0000
# 4 0.0000 0.0000 0.0000 42.5915 0.0000 3.9623
# 5 -0.7488 10.9238 -0.9478 0.0000 30.5672 0.0000
# 6 0.0000 0.0000 0.0000 3.9623 0.0000 41.4660
#
#
#
# Elastic Compliance Matrix: (Units=1/GPa)
#
#
# Indices 1 2 3 4 5 6 
#
# 1 0.012786 -0.003595 -0.002991 0.000000 0.001505 0.000000
# 2 -0.003595 0.010700 -0.004169 0.000000 -0.004041 0.000000
# 3 -0.002991 -0.004169 0.013260 0.000000 0.001828 0.000000
# 4 0.000000 0.000000 0.000000 0.023689 0.000000 -0.002264
# 5 0.001505 -0.004041 0.001828 0.000000 0.034252 0.000000
# 6 0.000000 0.000000 0.000000 -0.002264 0.000000 0.024332
#
#
# Mechanical properties :
#
#
# Convention : Reuss Voigt Hill
#
# Bulk Modulus (GPa) = 65.63305 67.90135 66.76720
# Shear Modulus (GPa) = 34.33854 36.06254 35.20054
#
# Velocity S-wave (km/s) = 3.92768 4.02506 3.97667
# Velocity P-wave (km/s) = 7.07493 7.21847 7.14706
#
# Compressibility (1/GPa) = 0.01523623
#
# Stress axis : x y z
#
# Youngs Moduli (GPa) = 78.20770 93.45939 75.41636
#
# Poissons Ratio (x) = 0.33601 0.22554
# Poissons Ratio (y) = 0.28117 0.31442
# Poissons Ratio (z) = 0.23389 0.38964
#
# Static dielectric constant tensor:
#      x y z
#    x 3.973560 0.000000 -0.052610 
#    y 0.000000 3.829870 0.000000 
#    z -0.052610 0.000000 3.958620 
# 
# 
# High freq. dielectric constant tensor:
#      x y z
#    x 1.883420 0.000000 -0.006180 
#    y 0.000000 1.874530 0.000000 
#    z -0.006180 0.000000 1.881670 
# 
# From -- ./inp_files/3496.got.cif
#   From: 2010.03.12/outbox.cif.g09.slc.cpg/sg4_2_cif.got.tgz:3496.got - 2010.03.31 09:31:35.
