data_PCOD8047366
_publ_section_title
;
Structure prediction by ZEFSAII (Michael W. Deem and Ramdas Pophale) SiO2 
 PCOD8047366
Probable space group: P 21
;
_chemical_formula_sum "Si O2"
_cell_formula_units_Z 16
_cell_length_a 11.489736
_cell_length_b 8.126076
_cell_length_c 14.212498
_cell_angle_alpha 90.000000
_cell_angle_beta 32.919546
_cell_angle_gamma 90.000000
_cell_volume 721.156643
_symmetry_space_group_name_H-M "P 21"
_symmetry_group_IT_number 4
_symmetry_cell_setting 'monoclinic'
loop_
_space_group_symop_operation_xyz
x,y,z
-x,1/2+y,-z
loop_
_atom_site_type_symbol
_atom_site_label
_atom_site_fract_x
_atom_site_fract_y
_atom_site_fract_z
Si Si1 0.715044 0.627730 0.290043
Si Si2 0.853416 0.705917 0.994561
Si Si3 0.661645 0.386205 0.039654
Si Si4 0.025815 0.194920 0.700269
Si Si5 0.353147 0.581323 0.134768
Si Si6 0.438720 0.149074 0.325337
Si Si7 0.493353 0.407459 0.866239
Si Si8 0.661338 0.252040 0.346587
O O1 0.832726 0.716243 0.122204
O O2 0.881039 0.627528 0.264844
O O3 0.653003 0.438080 0.312255
O O4 0.495842 0.730777 0.456925
O O5 0.739641 0.538822 0.045563
O O6 0.738684 0.854917 0.017518
O O7 0.097040 0.702025 0.793661
O O8 0.438791 0.430955 0.138766
O O9 0.608816 0.242492 0.146213
O O10 0.850458 0.337666 0.838217
O O11 0.223507 0.250778 0.499443
O O12 0.897581 0.060585 0.722951
O O13 0.392698 0.754740 0.160177
O O14 0.473890 0.562476 0.951612
O O15 0.568983 0.120723 0.333505
O O16 0.378039 0.978461 0.312365
#
# Coordination Sequence:
#
# PCOD8047366 Si02
#       8
#     2   2   2   2   2   2   2   2
#     4  11  26  43  67 101 142 181 227 286 332 415
#     4  11  26  40  72  97 132 184 232 272 347 402
#     4  11  23  44  67  95 132 178 229 286 332 406
#     4  11  24  41  70  94 138 176 221 280 346 390
#     4  11  22  44  70  94 132 175 230 283 340 393
#     4  11  24  41  67  97 136 175 223 277 344 403
#     4  11  23  43  69 101 130 178 228 285 334 412
#     4  11  26  42  66 101 140 181 228 279 341 407
#
# _framework density 22.186579999999999
#
# number of rings (size 3 to 8) (size 9 to 14) (size 15 to 20)
#    0.000    1.000    3.750    1.500    8.750    1.000 
#    0.000    0.000    0.000    0.000    0.000    0.000 
#    0.000    0.000    0.000    0.000    0.000    0.000 
#
# Total GULP energy -198212.693547 kJ/mol
# GULP energy per Si atom -12388.293347 kJ/mol
# Density = 2.213608 g / cm^3
# Si number density = 22.186580 Si / 1000 Ang^3
#
#
#
# Elastic Constant Matrix: (Units=GPa)
#
#
# Indices 1 2 3 4 5 6 
#
# 1 123.1747 30.2339 48.1453 0.0000 -16.3197 0.0000
# 2 30.2339 64.9906 19.6945 0.0000 7.8252 0.0000
# 3 48.1453 19.6945 113.4473 0.0000 -13.6458 0.0000
# 4 0.0000 0.0000 0.0000 28.8984 0.0000 0.7049
# 5 -16.3197 7.8252 -13.6458 0.0000 28.4503 0.0000
# 6 0.0000 0.0000 0.0000 0.7049 0.0000 30.7062
#
#
#
# Elastic Compliance Matrix: (Units=1/GPa)
#
#
# Indices 1 2 3 4 5 6 
#
# 1 0.011494 -0.005156 -0.003204 0.000000 0.006475 0.000000
# 2 -0.005156 0.019645 -0.002364 0.000000 -0.009495 0.000000
# 3 -0.003204 -0.002364 0.011081 0.000000 0.004127 0.000000
# 4 0.000000 0.000000 0.000000 0.034623 0.000000 -0.000795
# 5 0.006475 -0.009495 0.004127 0.000000 0.043454 0.000000
# 6 0.000000 0.000000 0.000000 -0.000795 0.000000 0.032585
#
#
# Mechanical properties :
#
#
# Convention : Reuss Voigt Hill
#
# Bulk Modulus (GPa) = 48.14178 55.30667 51.72423
# Shear Modulus (GPa) = 27.58526 31.18022 29.38274
#
# Velocity S-wave (km/s) = 3.52991 3.75289 3.64311
# Velocity P-wave (km/s) = 6.19350 6.61521 6.40782
#
# Compressibility (1/GPa) = 0.02077198
#
# Stress axis : x y z
#
# Youngs Moduli (GPa) = 86.99948 50.90335 90.24142
#
# Poissons Ratio (x) = 0.26245 0.28915
# Poissons Ratio (y) = 0.44855 0.21337
# Poissons Ratio (z) = 0.27876 0.12036
#
# Static dielectric constant tensor:
#      x y z
#    x 4.362650 0.000000 0.032110 
#    y 0.000000 3.962480 0.000000 
#    z 0.032110 0.000000 4.048050 
# 
# 
# High freq. dielectric constant tensor:
#      x y z
#    x 1.892680 0.000000 0.002170 
#    y 0.000000 1.858530 0.000000 
#    z 0.002170 0.000000 1.863620 
# 
# From -- ./inp_files/13895.got.cif
#   From: 2010.03.12/outbox.cif.g09.slc.cpg/sg4_7_cif.got.tgz:13895.got - 2010.03.31 09:31:35.
