data_PCOD8047919
_publ_section_title
;
Structure prediction by ZEFSAII (Michael W. Deem and Ramdas Pophale) SiO2 
 PCOD8047919
Probable space group: P 21
;
_chemical_formula_sum "Si O2"
_cell_formula_units_Z 16
_cell_length_a 10.583760
_cell_length_b 5.121650
_cell_length_c 11.942648
_cell_angle_alpha 90.000000
_cell_angle_beta 102.272758
_cell_angle_gamma 90.000000
_cell_volume 632.572495
_symmetry_space_group_name_H-M "P 21"
_symmetry_group_IT_number 4
_symmetry_cell_setting 'monoclinic'
loop_
_space_group_symop_operation_xyz
x,y,z
-x,1/2+y,-z
loop_
_atom_site_type_symbol
_atom_site_label
_atom_site_fract_x
_atom_site_fract_y
_atom_site_fract_z
Si Si1 0.967371 0.927950 0.930208
Si Si2 0.953261 0.642329 0.546758
Si Si3 0.322773 0.062397 0.427643
Si Si4 0.581052 0.631746 0.997111
Si Si5 0.872540 0.377477 0.245355
Si Si6 0.719988 0.854715 0.231011
Si Si7 0.498763 0.705719 0.336337
Si Si8 0.316170 0.346479 0.200900
O O1 0.819725 0.974177 0.862404
O O2 0.073094 0.998988 0.857545
O O3 0.996413 0.625710 0.963922
O O4 0.811369 0.519388 0.533709
O O5 0.045163 0.397503 0.533227
O O6 0.003360 0.755517 0.672254
O O7 0.432787 0.083461 0.542434
O O8 0.305905 0.288615 0.332357
O O9 0.366126 0.827399 0.356857
O O10 0.646047 0.626808 0.884543
O O11 0.536834 0.338067 0.016107
O O12 0.687837 0.719685 0.106564
O O13 0.814614 0.629282 0.302574
O O14 0.770538 0.142606 0.215068
O O15 0.600030 0.899165 0.293531
O O16 0.445813 0.525090 0.225417
#
# Coordination Sequence:
#
# PCOD8047919 Si02
#       8
#     2   2   2   2   2   2   2   2
#     4  12  28  50  77 112 149 199 257 315 387 445
#     4  12  28  50  77 110 148 201 255 310 375 445
#     4  12  27  48  77 111 157 201 255 314 384 460
#     4  12  25  46  71 108 150 196 248 306 381 451
#     4  12  25  49  73 108 149 197 254 311 370 450
#     4  12  27  48  77 110 155 198 257 315 379 460
#     4  12  27  47  76 113 156 203 252 314 388 454
#     4  12  27  48  76 110 156 199 250 321 374 461
#
# _framework density 25.293544000000001
#
# number of rings (size 3 to 8) (size 9 to 14) (size 15 to 20)
#    0.000    0.000    3.750    6.000    5.250    2.000 
#    0.000    0.000    0.000    0.000    0.000    0.000 
#    0.000    0.000    0.000    0.000    0.000    0.000 
#
# Total GULP energy -198242.489986 kJ/mol
# GULP energy per Si atom -12390.155624 kJ/mol
# Density = 2.523597 g / cm^3
# Si number density = 25.293544 Si / 1000 Ang^3
#
#
#
# Elastic Constant Matrix: (Units=GPa)
#
#
# Indices 1 2 3 4 5 6 
#
# 1 120.4576 32.8580 30.0406 0.0000 -10.2480 0.0000
# 2 32.8580 73.9273 10.1339 0.0000 4.9923 0.0000
# 3 30.0406 10.1339 94.7416 0.0000 2.3938 0.0000
# 4 0.0000 0.0000 0.0000 31.8857 0.0000 0.5309
# 5 -10.2480 4.9923 2.3938 0.0000 46.6587 0.0000
# 6 0.0000 0.0000 0.0000 0.5309 0.0000 44.8989
#
#
#
# Elastic Compliance Matrix: (Units=1/GPa)
#
#
# Indices 1 2 3 4 5 6 
#
# 1 0.010498 -0.004463 -0.002926 0.000000 0.002933 0.000000
# 2 -0.004463 0.015717 -0.000199 0.000000 -0.002652 0.000000
# 3 -0.002926 -0.000199 0.011535 0.000000 -0.001213 0.000000
# 4 0.000000 0.000000 0.000000 0.031368 0.000000 -0.000371
# 5 0.002933 -0.002652 -0.001213 0.000000 0.022422 0.000000
# 6 0.000000 0.000000 0.000000 -0.000371 0.000000 0.022277
#
#
# Mechanical properties :
#
#
# Convention : Reuss Voigt Hill
#
# Bulk Modulus (GPa) = 44.29788 48.35462 46.32625
# Shear Modulus (GPa) = 36.62542 39.09490 37.86016
#
# Velocity S-wave (km/s) = 3.80941 3.93574 3.87309
# Velocity P-wave (km/s) = 6.07456 6.30969 6.19324
#
# Compressibility (1/GPa) = 0.02257445
#
# Stress axis : x y z
#
# Youngs Moduli (GPa) = 95.25379 63.62588 86.69586
#
# Poissons Ratio (x) = 0.28397 0.25363
# Poissons Ratio (y) = 0.42513 0.01725
# Poissons Ratio (z) = 0.27866 0.01266
#
# Static dielectric constant tensor:
#      x y z
#    x 4.606420 0.000000 0.091630 
#    y 0.000000 4.599110 0.000000 
#    z 0.091630 0.000000 4.800520 
# 
# 
# High freq. dielectric constant tensor:
#      x y z
#    x 2.020350 0.000000 0.002490 
#    y 0.000000 1.995530 0.000000 
#    z 0.002490 0.000000 2.032330 
# 
# From -- ./inp_files/7364.got.cif
#   From: 2010.03.12/outbox.cif.g09.slc.cpg/sg4_4_cif.got.tgz:7364.got - 2010.03.31 09:31:35.
