data_PCOD8047931
_publ_section_title
;
Structure prediction by ZEFSAII (Michael W. Deem and Ramdas Pophale) SiO2 
 PCOD8047931
Probable space group: P 21
;
_chemical_formula_sum "Si O2"
_cell_formula_units_Z 16
_cell_length_a 12.724571
_cell_length_b 8.371603
_cell_length_c 11.223139
_cell_angle_alpha 90.000000
_cell_angle_beta 35.546629
_cell_angle_gamma 90.000000
_cell_volume 695.048697
_symmetry_space_group_name_H-M "P 21"
_symmetry_group_IT_number 4
_symmetry_cell_setting 'monoclinic'
loop_
_space_group_symop_operation_xyz
x,y,z
-x,1/2+y,-z
loop_
_atom_site_type_symbol
_atom_site_label
_atom_site_fract_x
_atom_site_fract_y
_atom_site_fract_z
Si Si1 0.116692 0.991900 0.275195
Si Si2 0.564968 0.977947 0.538807
Si Si3 0.798887 0.142923 0.712754
Si Si4 0.652326 0.990143 0.077195
Si Si5 0.049348 0.594516 0.815895
Si Si6 0.542692 0.640657 0.133609
Si Si7 0.996092 0.464287 0.115988
Si Si8 0.637050 0.614701 0.495661
O O1 0.152956 0.808887 0.270817
O O2 0.984824 0.066885 0.495155
O O3 0.025214 0.004365 0.230658
O O4 0.309220 0.083910 0.100049
O O5 0.642387 0.799740 0.456921
O O6 0.734314 0.097165 0.379888
O O7 0.458432 0.008346 0.760216
O O8 0.439523 0.008701 0.541560
O O9 0.655829 0.163725 0.738418
O O10 0.705694 0.024740 0.892520
O O11 0.815437 0.039076 0.014386
O O12 0.604136 0.805253 0.135698
O O13 0.480256 0.094095 0.276371
O O14 0.989843 0.777340 0.870698
O O15 0.965851 0.500722 0.005051
O O16 0.837627 0.549523 0.337592
#
# Coordination Sequence:
#
# PCOD8047931 Si02
#       8
#     2   2   2   2   2   2   2   2
#     4  12  27  49  76 105 150 193 248 307 363 434
#     4  12  25  47  73 109 147 191 240 296 374 440
#     4  12  29  47  75 106 145 197 252 301 363 430
#     4  12  27  47  73 108 144 190 248 299 368 435
#     4  12  25  48  74 109 149 188 241 302 370 440
#     4  12  25  50  75 102 146 193 246 308 362 431
#     4  12  27  45  78 108 147 191 236 303 377 438
#     4  12  27  45  74 109 150 187 237 302 369 448
#
# _framework density 23.019969
#
# number of rings (size 3 to 8) (size 9 to 14) (size 15 to 20)
#    0.000    0.000    3.750    6.000    3.500    1.000 
#    0.000    0.000    0.000    0.000    0.000    0.000 
#    0.000    0.000    0.000    0.000    0.000    0.000 
#
# Total GULP energy -198543.033876 kJ/mol
# GULP energy per Si atom -12408.939617 kJ/mol
# Density = 2.296757 g / cm^3
# Si number density = 23.019969 Si / 1000 Ang^3
#
#
#
# Elastic Constant Matrix: (Units=GPa)
#
#
# Indices 1 2 3 4 5 6 
#
# 1 66.0648 24.2399 22.6848 0.0000 -2.6447 0.0000
# 2 24.2399 90.9030 17.6594 0.0000 -0.0591 0.0000
# 3 22.6848 17.6594 138.7131 0.0000 -5.2446 0.0000
# 4 0.0000 0.0000 0.0000 41.7756 0.0000 2.5800
# 5 -2.6447 -0.0591 -5.2446 0.0000 39.6308 0.0000
# 6 0.0000 0.0000 0.0000 2.5800 0.0000 29.2846
#
#
#
# Elastic Compliance Matrix: (Units=1/GPa)
#
#
# Indices 1 2 3 4 5 6 
#
# 1 0.017508 -0.004223 -0.002293 0.000000 0.000859 0.000000
# 2 -0.004223 0.012299 -0.000890 0.000000 -0.000381 0.000000
# 3 -0.002293 -0.000890 0.007730 0.000000 0.000869 0.000000
# 4 0.000000 0.000000 0.000000 0.024068 0.000000 -0.002120
# 5 0.000859 -0.000381 0.000869 0.000000 0.025405 0.000000
# 6 0.000000 0.000000 0.000000 -0.002120 0.000000 0.034334
#
#
# Mechanical properties :
#
#
# Convention : Reuss Voigt Hill
#
# Bulk Modulus (GPa) = 44.00138 47.20548 45.60343
# Shear Modulus (GPa) = 34.78726 37.54466 36.16596
#
# Velocity S-wave (km/s) = 3.89160 4.04290 3.96797
# Velocity P-wave (km/s) = 6.27285 6.50724 6.39112
#
# Compressibility (1/GPa) = 0.02272656
#
# Stress axis : x y z
#
# Youngs Moduli (GPa) = 57.11772 81.30556 129.36194
#
# Poissons Ratio (x) = 0.34331 0.29665
# Poissons Ratio (y) = 0.24118 0.11509
# Poissons Ratio (z) = 0.13098 0.07234
#
# Static dielectric constant tensor:
#      x y z
#    x 4.114070 0.000000 -0.160280 
#    y 0.000000 3.999150 0.000000 
#    z -0.160280 0.000000 4.464700 
# 
# 
# High freq. dielectric constant tensor:
#      x y z
#    x 1.911570 0.000000 -0.010560 
#    y 0.000000 1.911810 0.000000 
#    z -0.010560 0.000000 1.930170 
# 
# From -- ./inp_files/7941.got.cif
#   From: 2010.03.12/outbox.cif.g09.slc.cpg/sg4_4_cif.got.tgz:7941.got - 2010.03.31 09:31:35.
