data_PCOD8047356
_publ_section_title
;
Structure prediction by ZEFSAII (Michael W. Deem and Ramdas Pophale) SiO2 
 PCOD8047356
Probable space group: P 21
;
_chemical_formula_sum "Si O2"
_cell_formula_units_Z 14
_cell_length_a 8.963229
_cell_length_b 5.330893
_cell_length_c 20.008920
_cell_angle_alpha 90.000000
_cell_angle_beta 140.306422
_cell_angle_gamma 90.000000
_cell_volume 610.622065
_symmetry_space_group_name_H-M "P 21"
_symmetry_group_IT_number 4
_symmetry_cell_setting 'monoclinic'
loop_
_space_group_symop_operation_xyz
x,y,z
-x,1/2+y,-z
loop_
_atom_site_type_symbol
_atom_site_label
_atom_site_fract_x
_atom_site_fract_y
_atom_site_fract_z
Si Si1 0.622686 0.387100 0.741195
Si Si2 0.105204 0.476087 0.565297
Si Si3 0.417822 0.562556 0.401137
Si Si4 0.363841 0.887013 0.974537
Si Si5 0.882679 0.423413 0.621967
Si Si6 0.927553 0.698738 0.761857
Si Si7 0.152934 0.823243 0.046660
O O1 0.379092 0.538368 0.652733
O O2 0.852885 0.550144 0.802628
O O3 0.665243 0.279984 0.829897
O O4 0.606487 0.170468 0.681318
O O5 0.974340 0.740641 0.507938
O O6 0.067154 0.373732 0.627392
O O7 0.678722 0.592228 0.517748
O O8 0.242888 0.673961 0.395963
O O9 0.319293 0.284805 0.355759
O O10 0.118696 0.903880 0.849310
O O11 0.500344 0.642848 0.994029
O O12 0.308282 0.854718 0.033496
O O13 0.027679 0.535026 0.734798
O O14 0.991494 0.577309 0.989237
#
# Coordination Sequence:
#
# PCOD8047356 Si02
#       7
#     2   2   2   2   2   2   2
#     4  11  26  45  73 104 140 196 243 301 360 437
#     4  12  28  45  66 104 152 186 238 298 354 425
#     4  11  22  43  71 102 143 187 242 285 361 440
#     4  12  29  51  74 112 152 189 248 319 375 438
#     4  11  24  40  68 104 140 191 229 293 353 436
#     4  11  25  46  74 100 142 190 244 291 371 440
#     4  12  26  50  80 108 145 197 256 311 372 444
#
# _framework density 22.927437000000001
#
# number of rings (size 3 to 8) (size 9 to 14) (size 15 to 20)
#    0.000    0.571    4.286    2.571   10.000    0.000 
#    0.000    0.000    0.000    0.000    0.000    0.000 
#    0.000    0.000    0.000    0.000    0.000    0.000 
#
# Total GULP energy -173465.660238 kJ/mol
# GULP energy per Si atom -12390.404303 kJ/mol
# Density = 2.287525 g / cm^3
# Si number density = 22.927437 Si / 1000 Ang^3
#
#
#
# Elastic Constant Matrix: (Units=GPa)
#
#
# Indices 1 2 3 4 5 6 
#
# 1 135.9549 17.3442 34.6564 0.0000 -29.3024 0.0000
# 2 17.3442 83.9774 13.9690 0.0000 -6.3916 0.0000
# 3 34.6564 13.9690 110.0966 0.0000 -9.3886 0.0000
# 4 0.0000 0.0000 0.0000 27.2121 0.0000 9.7159
# 5 -29.3024 -6.3916 -9.3886 0.0000 34.3854 0.0000
# 6 0.0000 0.0000 0.0000 9.7159 0.0000 24.3042
#
#
#
# Elastic Compliance Matrix: (Units=1/GPa)
#
#
# Indices 1 2 3 4 5 6 
#
# 1 0.009670 -0.001053 -0.002277 0.000000 0.007423 0.000000
# 2 -0.001053 0.012400 -0.001148 0.000000 0.001094 0.000000
# 3 -0.002277 -0.001148 0.009995 0.000000 0.000575 0.000000
# 4 0.000000 0.000000 0.000000 0.042867 0.000000 -0.017137
# 5 0.007423 0.001094 0.000575 0.000000 0.035768 0.000000
# 6 0.000000 0.000000 0.000000 -0.017137 0.000000 0.047996
#
#
# Mechanical properties :
#
#
# Convention : Reuss Voigt Hill
#
# Bulk Modulus (GPa) = 43.27852 51.32979 47.30415
# Shear Modulus (GPa) = 28.51347 34.78428 31.64887
#
# Velocity S-wave (km/s) = 3.53035 3.89928 3.71939
# Velocity P-wave (km/s) = 5.96114 6.53522 6.25477
#
# Compressibility (1/GPa) = 0.02310615
#
# Stress axis : x y z
#
# Youngs Moduli (GPa) = 103.41070 80.64649 100.05484
#
# Poissons Ratio (x) = 0.08496 0.22786
# Poissons Ratio (y) = 0.10894 0.11490
# Poissons Ratio (z) = 0.23550 0.09262
#
# Static dielectric constant tensor:
#      x y z
#    x 4.345120 0.000000 -0.136270 
#    y 0.000000 3.921120 0.000000 
#    z -0.136270 0.000000 4.265810 
# 
# 
# High freq. dielectric constant tensor:
#      x y z
#    x 1.919720 0.000000 -0.015740 
#    y 0.000000 1.893010 0.000000 
#    z -0.015740 0.000000 1.915070 
# 
# From -- ./inp_files/7078.got.cif
#   From: 2010.03.12/outbox.cif.g09.slc.cpg/sg4_4_cif.got.tgz:7078.got - 2010.03.31 09:31:35.
