data_PCOD8047101
_publ_section_title
;
Structure prediction by ZEFSAII (Michael W. Deem and Ramdas Pophale) SiO2 
 PCOD8047101
Probable space group: P 21
;
_chemical_formula_sum "Si O2"
_cell_formula_units_Z 16
_cell_length_a 9.318994
_cell_length_b 7.844639
_cell_length_c 17.258412
_cell_angle_alpha 90.000000
_cell_angle_beta 147.848965
_cell_angle_gamma 90.000000
_cell_volume 671.396821
_symmetry_space_group_name_H-M "P 21"
_symmetry_group_IT_number 4
_symmetry_cell_setting 'monoclinic'
loop_
_space_group_symop_operation_xyz
x,y,z
-x,1/2+y,-z
loop_
_atom_site_type_symbol
_atom_site_label
_atom_site_fract_x
_atom_site_fract_y
_atom_site_fract_z
Si Si1 0.762378 0.191940 0.880689
Si Si2 0.692860 0.044998 0.092520
Si Si3 0.633339 0.866982 0.661399
Si Si4 0.670372 0.202151 0.340934
Si Si5 0.751688 0.818062 0.428338
Si Si6 0.227897 0.887855 0.963612
Si Si7 0.771967 0.634407 0.590798
Si Si8 0.724723 0.843166 0.954166
O O1 0.488487 0.189220 0.705041
O O2 0.789265 0.014950 0.936928
O O3 0.738513 0.347890 0.930457
O O4 0.021543 0.216587 0.943197
O O5 0.690813 0.222429 0.047848
O O6 0.948691 0.034415 0.267125
O O7 0.429270 0.036217 0.027414
O O8 0.694349 0.890197 0.030865
O O9 0.528450 0.806314 0.695563
O O10 0.659053 0.701891 0.619719
O O11 0.925467 0.950648 0.807994
O O12 0.438718 0.999801 0.534541
O O13 0.547292 0.244488 0.199503
O O14 0.974462 0.268545 0.490737
O O15 0.663742 0.006315 0.363953
O O16 0.804956 0.790171 0.544471
#
# Coordination Sequence:
#
# PCOD8047101 Si02
#       8
#     2   2   2   2   2   2   2   2
#     4  11  24  43  71 106 139 189 242 297 369 433
#     4  10  26  45  69 105 145 186 241 293 364 432
#     4  11  24  46  69 103 148 190 247 298 367 441
#     4  12  26  49  71 106 144 191 248 307 364 444
#     4  12  28  45  75 104 146 194 242 305 374 433
#     4  10  24  45  68 101 141 189 239 297 355 429
#     4  11  26  47  70 107 146 198 242 297 369 444
#     4  11  24  46  73 106 145 187 245 304 362 442
#
# _framework density 23.830912999999999
#
# number of rings (size 3 to 8) (size 9 to 14) (size 15 to 20)
#    0.000    1.000    1.250    3.750   12.250    2.000 
#    2.250    0.000    0.000    0.000    0.000    0.000 
#    0.000    0.000    0.000    0.000    0.000    0.000 
#
# Total GULP energy -198458.680991 kJ/mol
# GULP energy per Si atom -12403.667562 kJ/mol
# Density = 2.377667 g / cm^3
# Si number density = 23.830913 Si / 1000 Ang^3
#
#
#
# Elastic Constant Matrix: (Units=GPa)
#
#
# Indices 1 2 3 4 5 6 
#
# 1 51.9219 -17.7558 42.8608 0.0000 6.7222 0.0000
# 2 -17.7558 71.7974 26.9793 0.0000 -6.9730 0.0000
# 3 42.8608 26.9793 187.4036 0.0000 9.4495 0.0000
# 4 0.0000 0.0000 0.0000 24.4526 0.0000 -10.1923
# 5 6.7222 -6.9730 9.4495 0.0000 48.3881 0.0000
# 6 0.0000 0.0000 0.0000 -10.1923 0.0000 33.9580
#
#
#
# Elastic Compliance Matrix: (Units=1/GPa)
#
#
# Indices 1 2 3 4 5 6 
#
# 1 0.029732 0.010348 -0.008238 0.000000 -0.001030 0.000000
# 2 0.010348 0.018647 -0.005165 0.000000 0.002258 0.000000
# 3 -0.008238 -0.005165 0.008023 0.000000 -0.001167 0.000000
# 4 0.000000 0.000000 0.000000 0.046743 0.000000 0.014030
# 5 -0.001030 0.002258 -0.001167 0.000000 0.021363 0.000000
# 6 0.000000 0.000000 0.000000 0.014030 0.000000 0.033659
#
#
# Mechanical properties :
#
#
# Convention : Reuss Voigt Hill
#
# Bulk Modulus (GPa) = 19.88354 46.14351 33.01353
# Shear Modulus (GPa) = 27.61805 38.62897 33.12351
#
# Velocity S-wave (km/s) = 3.40798 4.03048 3.73223
# Velocity P-wave (km/s) = 4.88339 6.40817 5.69702
#
# Compressibility (1/GPa) = 0.05029285
#
# Stress axis : x y z
#
# Youngs Moduli (GPa) = 33.63361 53.62650 124.64849
#
# Poissons Ratio (x) = -0.55494 1.02683
# Poissons Ratio (y) = -0.34805 0.64383
# Poissons Ratio (z) = 0.27707 0.27699
#
# Static dielectric constant tensor:
#      x y z
#    x 4.687250 0.000000 -0.110800 
#    y 0.000000 4.238620 0.000000 
#    z -0.110800 0.000000 4.461820 
# 
# 
# High freq. dielectric constant tensor:
#      x y z
#    x 1.957810 0.000000 0.000090 
#    y 0.000000 1.952430 0.000000 
#    z 0.000090 0.000000 1.955950 
# 
# From -- ./inp_files/5518.got.cif
#   From: 2010.03.12/outbox.cif.g09.slc.cpg/sg4_3_cif.got.tgz:5518.got - 2010.03.31 09:31:35.
