data_PCOD8047157
_publ_section_title
;
Structure prediction by ZEFSAII (Michael W. Deem and Ramdas Pophale) SiO2 
 PCOD8047157
Probable space group: P 21
;
_chemical_formula_sum "Si O2"
_cell_formula_units_Z 14
_cell_length_a 17.896603
_cell_length_b 4.970698
_cell_length_c 10.949807
_cell_angle_alpha 90.000000
_cell_angle_beta 147.500487
_cell_angle_gamma 90.000000
_cell_volume 523.365603
_symmetry_space_group_name_H-M "P 21"
_symmetry_group_IT_number 4
_symmetry_cell_setting 'monoclinic'
loop_
_space_group_symop_operation_xyz
x,y,z
-x,1/2+y,-z
loop_
_atom_site_type_symbol
_atom_site_label
_atom_site_fract_x
_atom_site_fract_y
_atom_site_fract_z
Si Si1 0.719655 0.551120 0.803967
Si Si2 0.406890 0.913245 0.618407
Si Si3 0.678391 0.041367 0.893031
Si Si4 0.028482 0.483310 0.618043
Si Si5 0.547298 0.606996 0.998931
Si Si6 0.994819 0.011591 0.909986
Si Si7 0.807973 0.672290 0.491225
O O1 0.648203 0.392707 0.593855
O O2 0.723249 0.336940 0.916413
O O3 0.637820 0.825680 0.728721
O O4 0.877509 0.630981 0.990361
O O5 0.549873 0.089278 0.808613
O O6 0.284929 0.023749 0.535358
O O7 0.472079 0.633910 0.762833
O O8 0.813270 0.898167 0.137277
O O9 0.963714 0.271354 0.436388
O O10 0.938764 0.500838 0.620886
O O11 0.706469 0.722935 0.233957
O O12 0.542224 0.299093 0.033329
O O13 0.867094 0.939015 0.641898
O O14 0.049736 0.744393 0.057003
#
# Coordination Sequence:
#
# PCOD8047157 Si02
#       7
#     2   2   2   2   2   2   2
#     4  12  26  47  74 107 149 198 239 304 372 446
#     4  11  26  47  76 107 146 193 249 305 365 442
#     4  12  27  49  71 109 149 196 246 299 376 442
#     4  12  28  49  74 106 148 197 243 305 377 446
#     4  10  25  44  67 103 140 183 235 302 364 426
#     4  12  26  45  76 114 149 191 249 315 373 439
#     4  11  26  47  78 108 147 192 251 312 367 441
#
# _framework density 26.749942000000001
#
# number of rings (size 3 to 8) (size 9 to 14) (size 15 to 20)
#    0.000    0.571    2.857    3.429    2.000   10.286 
#    0.000    0.000    0.000    0.000    0.000    0.000 
#    0.000    0.000    0.000    0.000    0.000    0.000 
#
# Total GULP energy -173463.800253 kJ/mol
# GULP energy per Si atom -12390.271447 kJ/mol
# Density = 2.668906 g / cm^3
# Si number density = 26.749942 Si / 1000 Ang^3
#
#
#
# Elastic Constant Matrix: (Units=GPa)
#
#
# Indices 1 2 3 4 5 6 
#
# 1 126.1184 31.5546 22.1853 0.0000 28.2516 0.0000
# 2 31.5546 96.6140 -5.0532 0.0000 6.0288 0.0000
# 3 22.1853 -5.0532 111.0859 0.0000 16.0501 0.0000
# 4 0.0000 0.0000 0.0000 29.4495 0.0000 0.4766
# 5 28.2516 6.0288 16.0501 0.0000 39.5076 0.0000
# 6 0.0000 0.0000 0.0000 0.4766 0.0000 31.0024
#
#
#
# Elastic Compliance Matrix: (Units=1/GPa)
#
#
# Indices 1 2 3 4 5 6 
#
# 1 0.010355 -0.003048 -0.001279 0.000000 -0.006420 0.000000
# 2 -0.003048 0.011406 0.001131 0.000000 -0.000020 0.000000
# 3 -0.001279 0.001131 0.009775 0.000000 -0.003229 0.000000
# 4 0.000000 0.000000 0.000000 0.033965 0.000000 -0.000522
# 5 -0.006420 -0.000020 -0.003229 0.000000 0.031217 0.000000
# 6 0.000000 0.000000 0.000000 -0.000522 0.000000 0.032264
#
#
# Mechanical properties :
#
#
# Convention : Reuss Voigt Hill
#
# Bulk Modulus (GPa) = 39.77223 47.91019 43.84121
# Shear Modulus (GPa) = 34.78090 39.00069 36.89079
#
# Velocity S-wave (km/s) = 3.60977 3.82248 3.71765
# Velocity P-wave (km/s) = 5.68105 6.11810 5.90362
#
# Compressibility (1/GPa) = 0.02514317
#
# Stress axis : x y z
#
# Youngs Moduli (GPa) = 96.57330 87.66993 102.29678
#
# Poissons Ratio (x) = 0.26724 0.13085
# Poissons Ratio (y) = 0.29438 -0.11565
# Poissons Ratio (z) = 0.12353 -0.09912
#
# Static dielectric constant tensor:
#      x y z
#    x 5.017750 0.000000 -0.085780 
#    y 0.000000 4.372510 0.000000 
#    z -0.085780 0.000000 5.398730 
# 
# 
# High freq. dielectric constant tensor:
#      x y z
#    x 2.077580 0.000000 0.004490 
#    y 0.000000 2.056570 0.000000 
#    z 0.004490 0.000000 2.093270 
# 
# From -- ./inp_files/12777.got.cif
#   From: 2010.03.12/outbox.cif.g09.slc.cpg/sg4_7_cif.got.tgz:12777.got - 2010.03.31 09:31:35.
