data_PCOD8047528
_publ_section_title
;
Structure prediction by ZEFSAII (Michael W. Deem and Ramdas Pophale) SiO2 
 PCOD8047528
Probable space group: P 21
;
_chemical_formula_sum "Si O2"
_cell_formula_units_Z 14
_cell_length_a 9.101113
_cell_length_b 6.194772
_cell_length_c 18.058128
_cell_angle_alpha 90.000000
_cell_angle_beta 142.852144
_cell_angle_gamma 90.000000
_cell_volume 614.807079
_symmetry_space_group_name_H-M "P 21"
_symmetry_group_IT_number 4
_symmetry_cell_setting 'monoclinic'
loop_
_space_group_symop_operation_xyz
x,y,z
-x,1/2+y,-z
loop_
_atom_site_type_symbol
_atom_site_label
_atom_site_fract_x
_atom_site_fract_y
_atom_site_fract_z
Si Si1 0.528641 0.436120 0.239548
Si Si2 0.659403 0.760230 0.976041
Si Si3 0.083120 0.337933 0.269090
Si Si4 0.006508 0.110490 0.629756
Si Si5 0.818403 0.204597 0.804976
Si Si6 0.490998 0.116591 0.352130
Si Si7 0.264728 0.449234 0.839398
O O1 0.488235 0.426825 0.134788
O O2 0.338142 0.602282 0.194538
O O3 0.484033 0.211627 0.265668
O O4 0.799796 0.532241 0.354311
O O5 0.514339 0.535381 0.902353
O O6 0.643645 0.800233 0.057119
O O7 0.935807 0.788081 0.057050
O O8 0.064991 0.414000 0.345718
O O9 0.051937 0.544746 0.202767
O O10 0.352648 0.258631 0.357605
O O11 0.887467 0.144717 0.182599
O O12 0.768054 0.147511 0.486151
O O13 0.101353 0.321160 0.713271
O O14 0.642064 0.384246 0.697520
#
# Coordination Sequence:
#
# PCOD8047528 Si02
#       7
#     2   2   2   2   2   2   2
#     4  11  29  44  68 112 141 202 236 299 379 438
#     4  12  24  45  75 103 150 188 242 307 367 446
#     4  11  23  47  71 112 136 189 249 299 381 422
#     4  12  27  47  76 108 147 197 251 308 369 442
#     4  11  26  47  70 107 146 193 242 302 374 436
#     4  11  28  48  74 103 155 191 252 305 368 450
#     4  12  25  46  74 115 147 188 250 318 374 436
#
# _framework density 22.771370000000001
#
# number of rings (size 3 to 8) (size 9 to 14) (size 15 to 20)
#    0.000    0.571    4.286    1.714   10.000    1.143 
#    0.000    0.000    0.000    0.000    0.000    0.000 
#    0.000    0.000    0.000    0.000    0.000    0.000 
#
# Total GULP energy -173438.706226 kJ/mol
# GULP energy per Si atom -12388.479016 kJ/mol
# Density = 2.271954 g / cm^3
# Si number density = 22.771370 Si / 1000 Ang^3
#
#
#
# Elastic Constant Matrix: (Units=GPa)
#
#
# Indices 1 2 3 4 5 6 
#
# 1 116.9462 29.0338 38.2622 0.0000 18.6647 0.0000
# 2 29.0338 100.0725 45.1085 0.0000 7.2435 0.0000
# 3 38.2622 45.1085 136.4361 0.0000 27.0599 0.0000
# 4 0.0000 0.0000 0.0000 32.9386 0.0000 9.7944
# 5 18.6647 7.2435 27.0599 0.0000 34.9903 0.0000
# 6 0.0000 0.0000 0.0000 9.7944 0.0000 42.2523
#
#
#
# Elastic Compliance Matrix: (Units=1/GPa)
#
#
# Indices 1 2 3 4 5 6 
#
# 1 0.010135 -0.002028 -0.001397 0.000000 -0.003906 0.000000
# 2 -0.002028 0.012162 -0.003741 0.000000 0.001457 0.000000
# 3 -0.001397 -0.003741 0.010225 0.000000 -0.006388 0.000000
# 4 0.000000 0.000000 0.000000 0.032607 0.000000 -0.007559
# 5 -0.003906 0.001457 -0.006388 0.000000 0.035301 0.000000
# 6 0.000000 0.000000 0.000000 -0.007559 0.000000 0.025419
#
#
# Mechanical properties :
#
#
# Convention : Reuss Voigt Hill
#
# Bulk Modulus (GPa) = 54.97723 64.25153 59.61438
# Shear Modulus (GPa) = 34.18899 38.10626 36.14762
#
# Velocity S-wave (km/s) = 3.87900 4.09519 3.98856
# Velocity P-wave (km/s) = 6.65265 7.11604 6.88824
#
# Compressibility (1/GPa) = 0.01818935
#
# Stress axis : x y z
#
# Youngs Moduli (GPa) = 98.66894 82.22279 97.79818
#
# Poissons Ratio (x) = 0.16674 0.13663
# Poissons Ratio (y) = 0.20010 0.36590
# Poissons Ratio (z) = 0.13785 0.30763
#
# Static dielectric constant tensor:
#      x y z
#    x 4.259760 0.000000 0.300030 
#    y 0.000000 4.272640 0.000000 
#    z 0.300030 0.000000 3.998500 
# 
# 
# High freq. dielectric constant tensor:
#      x y z
#    x 1.915400 0.000000 0.021030 
#    y 0.000000 1.898130 0.000000 
#    z 0.021030 0.000000 1.894560 
# 
# From -- ./inp_files/7069.got.cif
#   From: 2010.03.12/outbox.cif.g09.slc.cpg/sg4_4_cif.got.tgz:7069.got - 2010.03.31 09:31:35.
