data_PCOD8047150
_publ_section_title
;
Structure prediction by ZEFSAII (Michael W. Deem and Ramdas Pophale) SiO2 
 PCOD8047150
Probable space group: P 21
;
_chemical_formula_sum "Si O2"
_cell_formula_units_Z 14
_cell_length_a 6.996586
_cell_length_b 8.311781
_cell_length_c 11.084639
_cell_angle_alpha 90.000000
_cell_angle_beta 82.288804
_cell_angle_gamma 90.000000
_cell_volume 638.787827
_symmetry_space_group_name_H-M "P 21"
_symmetry_group_IT_number 4
_symmetry_cell_setting 'monoclinic'
loop_
_space_group_symop_operation_xyz
x,y,z
-x,1/2+y,-z
loop_
_atom_site_type_symbol
_atom_site_label
_atom_site_fract_x
_atom_site_fract_y
_atom_site_fract_z
Si Si1 0.953265 0.072690 0.217372
Si Si2 0.738414 0.274754 0.427310
Si Si3 0.335051 0.235717 0.124590
Si Si4 0.004668 0.771449 0.366444
Si Si5 0.594200 0.629809 0.392296
Si Si6 0.312252 0.567782 0.216278
Si Si7 0.654638 0.002879 0.049295
O O1 0.813295 0.193616 0.299422
O O2 0.119722 0.170567 0.136946
O O3 0.837128 0.988943 0.119910
O O4 0.047967 0.939762 0.296553
O O5 0.917030 0.284460 0.504776
O O6 0.666626 0.451145 0.404632
O O7 0.561300 0.169879 0.492016
O O8 0.340850 0.373036 0.229191
O O9 0.479311 0.087362 0.136437
O O10 0.390316 0.321135 0.991799
O O11 0.109371 0.623486 0.290375
O O12 0.774341 0.749959 0.385711
O O13 0.490790 0.652523 0.270633
O O14 0.304863 0.610809 0.074612
#
# Coordination Sequence:
#
# PCOD8047150 Si02
#       7
#     2   2   2   2   2   2   2
#     4  12  26  41  71  97 132 175 217 269 331 384
#     4  11  25  44  64 102 128 174 219 269 324 389
#     4  10  25  42  64  95 135 164 219 269 318 393
#     4  11  25  41  68  96 133 172 219 270 324 386
#     4  11  23  43  68  90 137 168 218 268 329 381
#     4   9  24  41  65  95 128 173 214 267 324 386
#     4  10  26  42  66  97 129 172 222 264 330 383
#
# _framework density 21.916512999999998
#
# number of rings (size 3 to 8) (size 9 to 14) (size 15 to 20)
#    0.857    0.571    0.000    3.429    6.000    8.000 
#    0.000    0.000    0.000    0.000    0.000    0.000 
#    0.000    0.000    0.000    0.000    0.000    0.000 
#
# Total GULP energy -173568.505474 kJ/mol
# GULP energy per Si atom -12397.750391 kJ/mol
# Density = 2.186663 g / cm^3
# Si number density = 21.916513 Si / 1000 Ang^3
#
#
#
# Elastic Constant Matrix: (Units=GPa)
#
#
# Indices 1 2 3 4 5 6 
#
# 1 124.1424 21.9057 25.7265 0.0000 -2.9499 0.0000
# 2 21.9057 90.3822 11.3260 0.0000 -14.4462 0.0000
# 3 25.7265 11.3260 63.4270 0.0000 5.4215 0.0000
# 4 0.0000 0.0000 0.0000 33.3851 0.0000 -8.6265
# 5 -2.9499 -14.4462 5.4215 0.0000 34.6637 0.0000
# 6 0.0000 0.0000 0.0000 -8.6265 0.0000 38.6509
#
#
#
# Elastic Compliance Matrix: (Units=1/GPa)
#
#
# Indices 1 2 3 4 5 6 
#
# 1 0.009077 -0.001671 -0.003436 0.000000 0.000613 0.000000
# 2 -0.001671 0.012591 -0.002034 0.000000 0.005423 0.000000
# 3 -0.003436 -0.002034 0.017859 0.000000 -0.003933 0.000000
# 4 0.000000 0.000000 0.000000 0.031787 0.000000 0.007094
# 5 0.000613 0.005423 -0.003933 0.000000 0.031776 0.000000
# 6 0.000000 0.000000 0.000000 0.007094 0.000000 0.027456
#
#
# Mechanical properties :
#
#
# Convention : Reuss Voigt Hill
#
# Bulk Modulus (GPa) = 39.61196 43.98533 41.79865
# Shear Modulus (GPa) = 32.62810 35.93951 34.28380
#
# Velocity S-wave (km/s) = 3.86261 4.05388 3.95940
# Velocity P-wave (km/s) = 6.16492 6.48267 6.32579
#
# Compressibility (1/GPa) = 0.02524490
#
# Stress axis : x y z
#
# Youngs Moduli (GPa) = 110.17193 79.42240 55.99406
#
# Poissons Ratio (x) = 0.13274 0.19237
# Poissons Ratio (y) = 0.18414 0.11389
# Poissons Ratio (z) = 0.37850 0.16154
#
# Static dielectric constant tensor:
#      x y z
#    x 3.929090 0.000000 -0.013650 
#    y 0.000000 3.898250 0.000000 
#    z -0.013650 0.000000 3.878540 
# 
# 
# High freq. dielectric constant tensor:
#      x y z
#    x 1.867160 0.000000 0.001610 
#    y 0.000000 1.863560 0.000000 
#    z 0.001610 0.000000 1.856410 
# 
# From -- ./inp_files/10315.got.cif
#   From: 2010.03.12/outbox.cif.g09.slc.cpg/sg4_6_cif.got.tgz:10315.got - 2010.03.31 09:31:35.
