data_PCOD8047206
_publ_section_title
;
Structure prediction by ZEFSAII (Michael W. Deem and Ramdas Pophale) SiO2 
 PCOD8047206
Probable space group: P 21
;
_chemical_formula_sum "Si O2"
_cell_formula_units_Z 16
_cell_length_a 8.574487
_cell_length_b 11.402541
_cell_length_c 12.050845
_cell_angle_alpha 90.000000
_cell_angle_beta 38.292837
_cell_angle_gamma 90.000000
_cell_volume 730.121960
_symmetry_space_group_name_H-M "P 21"
_symmetry_group_IT_number 4
_symmetry_cell_setting 'monoclinic'
loop_
_space_group_symop_operation_xyz
x,y,z
-x,1/2+y,-z
loop_
_atom_site_type_symbol
_atom_site_label
_atom_site_fract_x
_atom_site_fract_y
_atom_site_fract_z
Si Si1 0.748735 0.982110 0.664987
Si Si2 0.475575 0.737145 0.791455
Si Si3 0.690010 0.509504 0.611697
Si Si4 0.351688 0.664569 0.458520
Si Si5 0.090430 0.782286 0.813994
Si Si6 0.275289 0.654085 0.134075
Si Si7 0.220849 0.035571 0.667494
Si Si8 0.514041 0.808942 0.167296
O O1 0.585282 0.866301 0.740430
O O2 0.771815 0.055755 0.538074
O O3 0.617260 0.053317 0.841065
O O4 0.034655 0.950694 0.533437
O O5 0.691810 0.650598 0.625576
O O6 0.234993 0.738124 0.843288
O O7 0.412089 0.675423 0.942541
O O8 0.604492 0.488636 0.531383
O O9 0.496878 0.450142 0.808425
O O10 0.183205 0.709020 0.655319
O O11 0.625759 0.620305 0.339625
O O12 0.398055 0.770151 0.349356
O O13 0.119142 0.922503 0.789381
O O14 0.792385 0.758721 0.990602
O O15 0.321220 0.774550 0.176733
O O16 0.989873 0.619542 0.269109
#
# Coordination Sequence:
#
# PCOD8047206 Si02
#       8
#     2   2   2   2   2   2   2   2
#     4  10  26  44  69 102 138 185 237 289 355 418
#     4  12  25  45  70 104 140 189 236 292 357 417
#     4  11  25  41  71 100 140 186 233 292 350 423
#     4  11  23  47  69 102 140 182 234 294 351 422
#     4  12  25  44  74 102 142 189 232 295 352 422
#     4  10  26  43  70  99 141 184 230 294 342 422
#     4  11  22  46  69 102 143 180 236 291 353 420
#     4  11  26  44  70 105 140 187 236 289 354 416
#
# _framework density 21.914147
#
# number of rings (size 3 to 8) (size 9 to 14) (size 15 to 20)
#    0.000    1.000    3.750    1.500   12.250    0.000 
#    0.000    0.000    0.000    0.000    0.000    0.000 
#    0.000    0.000    0.000    0.000    0.000    0.000 
#
# Total GULP energy -198241.511610 kJ/mol
# GULP energy per Si atom -12390.094476 kJ/mol
# Density = 2.186427 g / cm^3
# Si number density = 21.914147 Si / 1000 Ang^3
#
#
#
# Elastic Constant Matrix: (Units=GPa)
#
#
# Indices 1 2 3 4 5 6 
#
# 1 109.9344 32.4220 30.6060 0.0000 12.7934 0.0000
# 2 32.4220 94.2348 33.0160 0.0000 1.8812 0.0000
# 3 30.6060 33.0160 90.0518 0.0000 10.2080 0.0000
# 4 0.0000 0.0000 0.0000 23.9800 0.0000 -4.7642
# 5 12.7934 1.8812 10.2080 0.0000 31.1646 0.0000
# 6 0.0000 0.0000 0.0000 -4.7642 0.0000 30.0876
#
#
#
# Elastic Compliance Matrix: (Units=1/GPa)
#
#
# Indices 1 2 3 4 5 6 
#
# 1 0.011007 -0.002923 -0.002261 0.000000 -0.003601 0.000000
# 2 -0.002923 0.012969 -0.003956 0.000000 0.001713 0.000000
# 3 -0.002261 -0.003956 0.013700 0.000000 -0.003320 0.000000
# 4 0.000000 0.000000 0.000000 0.043056 0.000000 0.006818
# 5 -0.003601 0.001713 -0.003320 0.000000 0.034550 0.000000
# 6 0.000000 0.000000 0.000000 0.006818 0.000000 0.034316
#
#
# Mechanical properties :
#
#
# Convention : Reuss Voigt Hill
#
# Bulk Modulus (GPa) = 51.55517 54.03432 52.79474
# Shear Modulus (GPa) = 28.67912 30.25824 29.46868
#
# Velocity S-wave (km/s) = 3.62153 3.71989 3.67104
# Velocity P-wave (km/s) = 6.40814 6.56970 6.48942
#
# Compressibility (1/GPa) = 0.01939670
#
# Stress axis : x y z
#
# Youngs Moduli (GPa) = 90.85162 77.10605 72.99351
#
# Poissons Ratio (x) = 0.22538 0.16504
# Poissons Ratio (y) = 0.26555 0.28874
# Poissons Ratio (z) = 0.20542 0.30500
#
# Static dielectric constant tensor:
#      x y z
#    x 4.193890 0.000000 0.336010 
#    y 0.000000 4.059860 0.000000 
#    z 0.336010 0.000000 3.938720 
# 
# 
# High freq. dielectric constant tensor:
#      x y z
#    x 1.871220 0.000000 0.020260 
#    y 0.000000 1.870640 0.000000 
#    z 0.020260 0.000000 1.854710 
# 
# From -- ./inp_files/11239.got.cif
#   From: 2010.03.12/outbox.cif.g09.slc.cpg/sg4_6_cif.got.tgz:11239.got - 2010.03.31 09:31:35.
