data_PCOD8047282
_publ_section_title
;
Structure prediction by ZEFSAII (Michael W. Deem and Ramdas Pophale) SiO2 
 PCOD8047282
Probable space group: P 21
;
_chemical_formula_sum "Si O2"
_cell_formula_units_Z 14
_cell_length_a 7.703827
_cell_length_b 13.596297
_cell_length_c 7.418629
_cell_angle_alpha 90.000000
_cell_angle_beta 121.203027
_cell_angle_gamma 90.000000
_cell_volume 664.642366
_symmetry_space_group_name_H-M "P 21"
_symmetry_group_IT_number 4
_symmetry_cell_setting 'monoclinic'
loop_
_space_group_symop_operation_xyz
x,y,z
-x,1/2+y,-z
loop_
_atom_site_type_symbol
_atom_site_label
_atom_site_fract_x
_atom_site_fract_y
_atom_site_fract_z
Si Si1 0.913572 0.068500 0.009255
Si Si2 0.175189 0.034745 0.823941
Si Si3 0.174601 0.412882 0.492211
Si Si4 0.490244 0.875770 0.054942
Si Si5 0.485622 0.164687 0.768436
Si Si6 0.840764 0.716447 0.668076
Si Si7 0.736280 0.878397 0.847755
O O1 0.683395 0.100076 0.845057
O O2 0.060346 0.092784 0.920666
O O3 0.903440 0.950025 0.034267
O O4 0.001184 0.126312 0.230451
O O5 0.325531 0.110199 0.810647
O O6 0.008880 0.990902 0.594304
O O7 0.293521 0.942692 0.976356
O O8 0.320448 0.427257 0.740958
O O9 0.085299 0.299681 0.437635
O O10 0.304406 0.426347 0.374125
O O11 0.446647 0.768129 0.109168
O O12 0.538318 0.871199 0.866775
O O13 0.379383 0.178589 0.517056
O O14 0.821170 0.768326 0.855755
#
# Coordination Sequence:
#
# PCOD8047282 Si02
#       7
#     2   2   2   2   2   2   2
#     4  11  22  41  66  94 131 167 218 269 319 384
#     4  11  23  40  65  98 126 171 220 260 325 389
#     4   8  21  40  61  93 133 160 216 262 310 386
#     4  11  21  43  66  92 132 174 207 274 325 377
#     4  11  24  40  67  96 129 169 225 260 322 395
#     4   9  21  43  62  94 132 167 209 273 318 379
#     4   9  20  41  63  95 129 164 219 258 313 398
#
# _framework density 21.063960999999999
#
# number of rings (size 3 to 8) (size 9 to 14) (size 15 to 20)
#    0.857    1.143    1.429    1.714    2.000    2.286 
#    0.000    5.714    0.000    0.000    0.000    0.000 
#    0.000    0.000    0.000    0.000    0.000    0.000 
#
# Total GULP energy -173432.732328 kJ/mol
# GULP energy per Si atom -12388.052309 kJ/mol
# Density = 2.101602 g / cm^3
# Si number density = 21.063961 Si / 1000 Ang^3
#
#
#
# Elastic Constant Matrix: (Units=GPa)
#
#
# Indices 1 2 3 4 5 6 
#
# 1 101.2745 26.7478 24.3483 0.0000 4.3986 0.0000
# 2 26.7478 66.6457 38.2445 0.0000 6.1835 0.0000
# 3 24.3483 38.2445 75.7245 0.0000 10.7872 0.0000
# 4 0.0000 0.0000 0.0000 22.4483 0.0000 3.8983
# 5 4.3986 6.1835 10.7872 0.0000 23.8209 0.0000
# 6 0.0000 0.0000 0.0000 3.8983 0.0000 18.9703
#
#
#
# Elastic Compliance Matrix: (Units=1/GPa)
#
#
# Indices 1 2 3 4 5 6 
#
# 1 0.011235 -0.003425 -0.001832 0.000000 -0.000356 0.000000
# 2 -0.003425 0.022183 -0.010018 0.000000 -0.000589 0.000000
# 3 -0.001832 -0.010018 0.019707 0.000000 -0.005985 0.000000
# 4 0.000000 0.000000 0.000000 0.046195 0.000000 -0.009493
# 5 -0.000356 -0.000589 -0.005985 0.000000 0.044909 0.000000
# 6 0.000000 0.000000 0.000000 -0.009493 0.000000 0.054665
#
#
# Mechanical properties :
#
#
# Convention : Reuss Voigt Hill
#
# Bulk Modulus (GPa) = 44.29743 46.92509 45.61126
# Shear Modulus (GPa) = 21.09982 23.33482 22.21732
#
# Velocity S-wave (km/s) = 3.16840 3.33199 3.25122
# Velocity P-wave (km/s) = 5.87032 6.09333 5.98286
#
# Compressibility (1/GPa) = 0.02257467
#
# Stress axis : x y z
#
# Youngs Moduli (GPa) = 89.01123 45.07989 50.74273
#
# Poissons Ratio (x) = 0.15438 0.09296
# Poissons Ratio (y) = 0.30482 0.50836
# Poissons Ratio (z) = 0.16307 0.45163
#
# Static dielectric constant tensor:
#      x y z
#    x 3.525030 0.000000 -0.000720 
#    y 0.000000 3.999800 0.000000 
#    z -0.000720 0.000000 3.639650 
# 
# 
# High freq. dielectric constant tensor:
#      x y z
#    x 1.803290 0.000000 -0.000280 
#    y 0.000000 1.839220 0.000000 
#    z -0.000280 0.000000 1.806340 
# 
# From -- ./inp_files/6774.got.cif
#   From: 2010.03.12/outbox.cif.g09.slc.cpg/sg4_4_cif.got.tgz:6774.got - 2010.03.31 09:31:35.
