data_PCOD8047354
_publ_section_title
;
Structure prediction by ZEFSAII (Michael W. Deem and Ramdas Pophale) SiO2 
 PCOD8047354
Probable space group: P 21
;
_chemical_formula_sum "Si O2"
_cell_formula_units_Z 16
_cell_length_a 9.219240
_cell_length_b 5.041336
_cell_length_c 20.813583
_cell_angle_alpha 90.000000
_cell_angle_beta 130.850732
_cell_angle_gamma 90.000000
_cell_volume 731.725907
_symmetry_space_group_name_H-M "P 21"
_symmetry_group_IT_number 4
_symmetry_cell_setting 'monoclinic'
loop_
_space_group_symop_operation_xyz
x,y,z
-x,1/2+y,-z
loop_
_atom_site_type_symbol
_atom_site_label
_atom_site_fract_x
_atom_site_fract_y
_atom_site_fract_z
Si Si1 0.462337 0.631050 0.327512
Si Si2 0.956765 0.544153 0.328696
Si Si3 0.869255 0.570196 0.965673
Si Si4 0.387630 0.503783 0.444712
Si Si5 0.243249 0.543545 0.769388
Si Si6 0.573279 0.617323 0.767521
Si Si7 0.111958 0.137993 0.551641
Si Si8 0.468930 0.071810 0.033549
O O1 0.345527 0.564656 0.357746
O O2 0.447222 0.399849 0.271409
O O3 0.677668 0.677852 0.417174
O O4 0.377299 0.897156 0.271468
O O5 0.919636 0.819638 0.281723
O O6 0.848343 0.536220 0.365098
O O7 0.175858 0.496222 0.412806
O O8 0.869092 0.319240 0.257581
O O9 0.742036 0.644718 0.867667
O O10 0.740169 0.573257 0.993077
O O11 0.958951 0.281031 0.980001
O O12 0.511759 0.720929 0.518220
O O13 0.376085 0.532531 0.744658
O O14 0.369892 0.493900 0.868574
O O15 0.001342 0.417883 0.522046
O O16 0.479982 0.860231 0.979421
#
# Coordination Sequence:
#
# PCOD8047354 Si02
#       8
#     2   2   2   2   2   2   2   2
#     4  12  23  42  65  94 126 168 217 259 328 383
#     4  12  23  42  65  94 126 168 217 259 328 383
#     4  11  24  45  70 103 140 179 222 274 336 401
#     4  12  26  46  62  88 134 172 206 266 336 386
#     4  11  22  43  68  95 131 168 213 271 320 376
#     4  11  22  43  68  95 131 168 213 271 320 376
#     4  12  22  36  62  94 118 156 216 268 306 380
#     4  11  24  45  70 103 140 179 222 274 336 401
#
# _framework density 21.866109999999999
#
# number of rings (size 3 to 8) (size 9 to 14) (size 15 to 20)
#    0.000    0.500    2.500    6.750    0.000    4.000 
#   13.500    0.000    0.000    0.000    0.000    0.000 
#    0.000    0.000    0.000    0.000    0.000    0.000 
#
# Total GULP energy -198506.309474 kJ/mol
# GULP energy per Si atom -12406.644342 kJ/mol
# Density = 2.181634 g / cm^3
# Si number density = 21.866110 Si / 1000 Ang^3
#
#
#
# Elastic Constant Matrix: (Units=GPa)
#
#
# Indices 1 2 3 4 5 6 
#
# 1 70.3304 10.1270 20.7236 0.0000 2.7383 0.0000
# 2 10.1270 91.6159 16.9088 0.0000 7.8183 0.0000
# 3 20.7236 16.9088 75.4593 0.0000 3.1243 0.0000
# 4 0.0000 0.0000 0.0000 48.2964 0.0000 0.2943
# 5 2.7383 7.8183 3.1243 0.0000 32.2348 0.0000
# 6 0.0000 0.0000 0.0000 0.2943 0.0000 27.1210
#
#
#
# Elastic Compliance Matrix: (Units=1/GPa)
#
#
# Indices 1 2 3 4 5 6 
#
# 1 0.015569 -0.000915 -0.004041 0.000000 -0.000709 0.000000
# 2 -0.000915 0.011648 -0.002254 0.000000 -0.002529 0.000000
# 3 -0.004041 -0.002254 0.014890 0.000000 -0.000553 0.000000
# 4 0.000000 0.000000 0.000000 0.020707 0.000000 -0.000225
# 5 -0.000709 -0.002529 -0.000553 0.000000 0.031750 0.000000
# 6 0.000000 0.000000 0.000000 -0.000225 0.000000 0.036874
#
#
# Mechanical properties :
#
#
# Convention : Reuss Voigt Hill
#
# Bulk Modulus (GPa) = 36.11852 36.99159 36.55506
# Shear Modulus (GPa) = 32.24001 34.17351 33.20676
#
# Velocity S-wave (km/s) = 3.84399 3.95758 3.90120
# Velocity P-wave (km/s) = 6.02126 6.15120 6.08658
#
# Compressibility (1/GPa) = 0.02768663
#
# Stress axis : x y z
#
# Youngs Moduli (GPa) = 64.23134 85.85099 67.15872
#
# Poissons Ratio (x) = 0.07851 0.27141
# Poissons Ratio (y) = 0.05874 0.15139
# Poissons Ratio (z) = 0.25958 0.19353
#
# Static dielectric constant tensor:
#      x y z
#    x 3.893880 0.000000 0.027340 
#    y 0.000000 3.943340 0.000000 
#    z 0.027340 0.000000 3.824790 
# 
# 
# High freq. dielectric constant tensor:
#      x y z
#    x 1.853640 0.000000 -0.000990 
#    y 0.000000 1.874450 0.000000 
#    z -0.000990 0.000000 1.866590 
# 
# From -- ./inp_files/13486.got.cif
#   From: 2010.03.12/outbox.cif.g09.slc.cpg/sg4_7_cif.got.tgz:13486.got - 2010.03.31 09:31:35.
