data_PCOD8047835
_publ_section_title
;
Structure prediction by ZEFSAII (Michael W. Deem and Ramdas Pophale) SiO2 
 PCOD8047835
Probable space group: P 21
;
_chemical_formula_sum "Si O2"
_cell_formula_units_Z 16
_cell_length_a 31.386203
_cell_length_b 4.998242
_cell_length_c 24.754863
_cell_angle_alpha 90.000000
_cell_angle_beta 168.767939
_cell_angle_gamma 90.000000
_cell_volume 756.428978
_symmetry_space_group_name_H-M "P 21"
_symmetry_group_IT_number 4
_symmetry_cell_setting 'monoclinic'
loop_
_space_group_symop_operation_xyz
x,y,z
-x,1/2+y,-z
loop_
_atom_site_type_symbol
_atom_site_label
_atom_site_fract_x
_atom_site_fract_y
_atom_site_fract_z
Si Si1 0.067970 0.478470 0.486333
Si Si2 0.176980 0.048482 0.982882
Si Si3 0.401109 0.547239 0.213506
Si Si4 0.770100 0.979823 0.115100
Si Si5 0.351642 0.094295 0.315084
Si Si6 0.440256 0.487010 0.035596
Si Si7 0.278973 0.487415 0.636633
Si Si8 0.861690 0.540352 0.839283
O O1 0.206592 0.395440 0.606212
O O2 0.953163 0.758926 0.330797
O O3 0.220709 0.504274 0.727955
O O4 0.886594 0.258252 0.273661
O O5 0.237243 0.347956 0.040360
O O6 0.208492 0.006300 0.085863
O O7 0.333416 0.847913 0.144667
O O8 0.924814 0.994173 0.657206
O O9 0.649241 0.492911 0.538644
O O10 0.385979 0.509647 0.130595
O O11 0.620158 0.896350 0.979050
O O12 0.475669 0.366241 0.454498
O O13 0.196307 0.143498 0.173007
O O14 0.608195 0.276001 0.219088
O O15 0.548889 0.777239 0.172413
O O16 0.985891 0.259829 0.999270
#
# Coordination Sequence:
#
# PCOD8047835 Si02
#       8
#     2   2   2   2   2   2   2   2
#     4  12  23  44  68  94 129 182 222 263 327 402
#     4  12  23  43  71  95 128 173 226 265 311 393
#     4  12  23  44  68  94 132 174 216 269 319 393
#     4  12  24  43  69  95 130 179 223 261 331 398
#     4  12  23  43  71  97 126 173 217 261 314 387
#     4  12  26  41  64 101 138 163 219 288 326 375
#     4  12  24  42  66  97 133 172 220 271 336 378
#     4  12  26  42  67 101 136 164 209 268 334 380
#
# _framework density 21.152018000000002
#
# number of rings (size 3 to 8) (size 9 to 14) (size 15 to 20)
#    0.000    0.000    5.000    6.000    0.000    2.000 
#    0.000    0.000    0.000    0.000    0.000    0.000 
#    0.000    0.000    0.000    0.000    0.000    0.000 
#
# Total GULP energy -198584.231709 kJ/mol
# GULP energy per Si atom -12411.514482 kJ/mol
# Density = 2.110388 g / cm^3
# Si number density = 21.152018 Si / 1000 Ang^3
#
#
#
# Elastic Constant Matrix: (Units=GPa)
#
#
# Indices 1 2 3 4 5 6 
#
# 1 170.5150 -5.4908 24.6682 0.0000 -33.8259 0.0000
# 2 -5.4908 88.0528 24.4942 0.0000 5.7933 0.0000
# 3 24.6682 24.4942 98.9390 0.0000 -6.8961 0.0000
# 4 0.0000 0.0000 0.0000 31.7655 0.0000 -2.4330
# 5 -33.8259 5.7933 -6.8961 0.0000 39.1905 0.0000
# 6 0.0000 0.0000 0.0000 -2.4330 0.0000 24.9656
#
#
#
# Elastic Compliance Matrix: (Units=1/GPa)
#
#
# Indices 1 2 3 4 5 6 
#
# 1 0.007279 0.000486 -0.001521 0.000000 0.005943 0.000000
# 2 0.000486 0.012449 -0.003343 0.000000 -0.002009 0.000000
# 3 -0.001521 -0.003343 0.011397 0.000000 0.001187 0.000000
# 4 0.000000 0.000000 0.000000 0.031717 0.000000 0.003091
# 5 0.005943 -0.002009 0.001187 0.000000 0.031152 0.000000
# 6 0.000000 0.000000 0.000000 0.003091 0.000000 0.040356
#
#
# Mechanical properties :
#
#
# Convention : Reuss Voigt Hill
#
# Bulk Modulus (GPa) = 44.70481 49.42778 47.06630
# Shear Modulus (GPa) = 33.20842 40.10667 36.65755
#
# Velocity S-wave (km/s) = 3.96661 4.35917 4.16751
# Velocity P-wave (km/s) = 6.49304 6.98248 6.74220
#
# Compressibility (1/GPa) = 0.02236896
#
# Stress axis : x y z
#
# Youngs Moduli (GPa) = 137.37593 80.32558 87.74336
#
# Poissons Ratio (x) = -0.03904 0.13346
# Poissons Ratio (y) = -0.06676 0.29335
# Poissons Ratio (z) = 0.20895 0.26855
#
# Static dielectric constant tensor:
#      x y z
#    x 3.755050 0.000000 -0.137290 
#    y 0.000000 3.882730 0.000000 
#    z -0.137290 0.000000 3.843200 
# 
# 
# High freq. dielectric constant tensor:
#      x y z
#    x 1.836720 0.000000 -0.009940 
#    y 0.000000 1.844890 0.000000 
#    z -0.009940 0.000000 1.832810 
# 
# From -- ./inp_files/16267.got.cif
#   From: 2010.03.12/outbox.cif.g09.slc.cpg/sg4_9_cif.got.tgz:16267.got - 2010.03.31 09:31:35.
