data_PCOD8047786
_publ_section_title
;
Structure prediction by ZEFSAII (Michael W. Deem and Ramdas Pophale) SiO2 
 PCOD8047786
Probable space group: P 21
;
_chemical_formula_sum "Si O2"
_cell_formula_units_Z 14
_cell_length_a 13.493794
_cell_length_b 9.338614
_cell_length_c 8.386553
_cell_angle_alpha 90.000000
_cell_angle_beta 147.344515
_cell_angle_gamma 90.000000
_cell_volume 570.244308
_symmetry_space_group_name_H-M "P 21"
_symmetry_group_IT_number 4
_symmetry_cell_setting 'monoclinic'
loop_
_space_group_symop_operation_xyz
x,y,z
-x,1/2+y,-z
loop_
_atom_site_type_symbol
_atom_site_label
_atom_site_fract_x
_atom_site_fract_y
_atom_site_fract_z
Si Si1 0.435545 0.076000 0.274110
Si Si2 0.654086 0.370159 0.137414
Si Si3 0.647912 0.818682 0.040705
Si Si4 0.040341 0.770781 0.662847
Si Si5 0.064002 0.834781 0.231042
Si Si6 0.759125 0.013803 0.943363
Si Si7 0.065034 0.022251 0.922763
O O1 0.617816 0.023430 0.607170
O O2 0.466917 0.236682 0.253394
O O3 0.275717 0.070321 0.189516
O O4 0.390907 0.989373 0.052781
O O5 0.798718 0.260451 0.252676
O O6 0.758651 0.408990 0.444308
O O7 0.456515 0.312184 0.930438
O O8 0.840649 0.731331 0.323370
O O9 0.670185 0.980147 0.997998
O O10 0.011829 0.931594 0.692732
O O11 0.110779 0.654180 0.885931
O O12 0.067708 0.659807 0.228416
O O13 0.883440 0.873561 0.087349
O O14 0.044054 0.907146 0.033397
#
# Coordination Sequence:
#
# PCOD8047786 Si02
#       7
#     2   2   2   2   2   2   2
#     4  11  27  50  69 112 152 197 253 317 373 454
#     4  11  27  46  78 108 149 196 253 311 374 444
#     4  12  27  48  78 110 150 201 254 312 378 447
#     4  11  27  50  73 109 153 198 246 319 377 449
#     4  12  25  47  77 113 146 205 248 311 382 448
#     4  12  27  48  78 109 154 201 250 310 381 448
#     4  11  26  47  77 107 156 192 258 310 381 450
#
# _framework density 24.550879999999999
#
# number of rings (size 3 to 8) (size 9 to 14) (size 15 to 20)
#    0.000    0.571    2.857    2.571   16.000    0.000 
#    2.571    0.000    0.000    0.000    0.000    0.000 
#    0.000    0.000    0.000    0.000    0.000    0.000 
#
# Total GULP energy -173483.258296 kJ/mol
# GULP energy per Si atom -12391.661307 kJ/mol
# Density = 2.449500 g / cm^3
# Si number density = 24.550880 Si / 1000 Ang^3
#
#
#
# Elastic Constant Matrix: (Units=GPa)
#
#
# Indices 1 2 3 4 5 6 
#
# 1 140.8405 45.6870 31.2963 0.0000 6.7086 0.0000
# 2 45.6870 112.8101 47.2681 0.0000 2.0380 0.0000
# 3 31.2963 47.2681 135.9463 0.0000 -1.5183 0.0000
# 4 0.0000 0.0000 0.0000 31.3762 0.0000 -3.5336
# 5 6.7086 2.0380 -1.5183 0.0000 27.4501 0.0000
# 6 0.0000 0.0000 0.0000 -3.5336 0.0000 37.0620
#
#
#
# Elastic Compliance Matrix: (Units=1/GPa)
#
#
# Indices 1 2 3 4 5 6 
#
# 1 0.008355 -0.002967 -0.000912 0.000000 -0.001872 0.000000
# 2 -0.002967 0.011456 -0.003304 0.000000 -0.000308 0.000000
# 3 -0.000912 -0.003304 0.008725 0.000000 0.000951 0.000000
# 4 0.000000 0.000000 0.000000 0.032217 0.000000 0.003072
# 5 -0.001872 -0.000308 0.000951 0.000000 0.036963 0.000000
# 6 0.000000 0.000000 0.000000 0.003072 0.000000 0.027275
#
#
# Mechanical properties :
#
#
# Convention : Reuss Voigt Hill
#
# Bulk Modulus (GPa) = 70.57656 70.89998 70.73827
# Shear Modulus (GPa) = 34.70285 36.86736 35.78511
#
# Velocity S-wave (km/s) = 3.76374 3.87934 3.82198
# Velocity P-wave (km/s) = 6.90631 7.00052 6.95357
#
# Compressibility (1/GPa) = 0.01416901
#
# Stress axis : x y z
#
# Youngs Moduli (GPa) = 119.69213 87.29053 114.61112
#
# Poissons Ratio (x) = 0.25903 0.10458
# Poissons Ratio (y) = 0.35518 0.37862
# Poissons Ratio (z) = 0.10922 0.28837
#
# Static dielectric constant tensor:
#      x y z
#    x 4.607110 0.000000 0.133120 
#    y 0.000000 4.167960 0.000000 
#    z 0.133120 0.000000 4.299320 
# 
# 
# High freq. dielectric constant tensor:
#      x y z
#    x 1.988780 0.000000 0.000040 
#    y 0.000000 1.964550 0.000000 
#    z 0.000040 0.000000 1.976440 
# 
# From -- ./inp_files/9217.got.cif
#   From: 2010.03.12/outbox.cif.g09.slc.cpg/sg4_5_cif.got.tgz:9217.got - 2010.03.31 09:31:35.
