data_PCOD8047581
_publ_section_title
;
Structure prediction by ZEFSAII (Michael W. Deem and Ramdas Pophale) SiO2 
 PCOD8047581
Probable space group: P 21
;
_chemical_formula_sum "Si O2"
_cell_formula_units_Z 16
_cell_length_a 11.722725
_cell_length_b 11.597973
_cell_length_c 11.722080
_cell_angle_alpha 90.000000
_cell_angle_beta 23.580032
_cell_angle_gamma 90.000000
_cell_volume 637.540139
_symmetry_space_group_name_H-M "P 21"
_symmetry_group_IT_number 4
_symmetry_cell_setting 'monoclinic'
loop_
_space_group_symop_operation_xyz
x,y,z
-x,1/2+y,-z
loop_
_atom_site_type_symbol
_atom_site_label
_atom_site_fract_x
_atom_site_fract_y
_atom_site_fract_z
Si Si1 0.752083 0.798230 0.293350
Si Si2 0.232687 0.987473 0.096714
Si Si3 0.995693 0.800241 0.468196
Si Si4 0.292599 0.645732 0.752888
Si Si5 0.903396 0.956482 0.767116
Si Si6 0.696911 0.017621 0.481039
Si Si7 0.480957 0.426383 0.697089
Si Si8 0.468453 0.643662 0.995488
O O1 0.555483 0.722126 0.556784
O O2 0.845951 0.909725 0.278041
O O3 0.534929 0.833661 0.388890
O O4 0.009799 0.721812 0.011074
O O5 0.099613 0.862812 0.255875
O O6 0.960144 0.067216 0.314643
O O7 0.390383 0.044688 0.058227
O O8 0.437769 0.977655 0.798897
O O9 0.711349 0.721916 0.711020
O O10 0.262999 0.721994 0.262728
O O11 0.941749 0.899245 0.609533
O O12 0.388550 0.610382 0.535364
O O13 0.277874 0.534235 0.846232
O O14 0.201343 0.966423 0.561775
O O15 0.685678 0.876690 0.039539
O O16 0.743943 0.081083 0.900472
#
# Coordination Sequence:
#
# PCOD8047581 Si02
#       8
#     2   2   2   2   2   2   2   2
#     4  11  24  44  68 100 136 173 224 281 339 413
#     4  12  25  46  69 100 139 178 232 290 345 416
#     4  12  26  45  70 100 139 185 235 293 354 417
#     4  11  24  44  68 100 136 173 224 281 339 413
#     4  12  25  46  69 100 139 178 232 290 345 416
#     4  11  25  43  69 100 135 178 224 282 349 412
#     4  11  25  43  69 100 135 178 224 282 349 412
#     4  12  26  45  70 100 139 185 235 293 354 417
#
# _framework density 25.096458999999999
#
# number of rings (size 3 to 8) (size 9 to 14) (size 15 to 20)
#    0.000    0.500    0.000    9.000    0.000   14.000 
#    0.000    2.500    0.000    0.000    0.000    0.000 
#    0.000    0.000    0.000    0.000    0.000    0.000 
#
# Total GULP energy -198288.299839 kJ/mol
# GULP energy per Si atom -12393.018740 kJ/mol
# Density = 2.503934 g / cm^3
# Si number density = 25.096459 Si / 1000 Ang^3
#
#
#
# Elastic Constant Matrix: (Units=GPa)
#
#
# Indices 1 2 3 4 5 6 
#
# 1 72.0810 12.8034 37.8089 0.0000 -7.5177 0.0000
# 2 12.8034 89.9227 45.1393 0.0000 -6.0696 0.0000
# 3 37.8089 45.1393 180.9640 0.0000 -12.5170 0.0000
# 4 0.0000 0.0000 0.0000 52.8965 0.0000 -7.7885
# 5 -7.5177 -6.0696 -12.5170 0.0000 38.6059 0.0000
# 6 0.0000 0.0000 0.0000 -7.7885 0.0000 10.3498
#
#
#
# Elastic Compliance Matrix: (Units=1/GPa)
#
#
# Indices 1 2 3 4 5 6 
#
# 1 0.015765 -0.000601 -0.003006 0.000000 0.002001 0.000000
# 2 -0.000601 0.012773 -0.002997 0.000000 0.000919 0.000000
# 3 -0.003006 -0.002997 0.006985 0.000000 0.001208 0.000000
# 4 0.000000 0.000000 0.000000 0.021261 0.000000 0.015999
# 5 0.002001 0.000919 0.001208 0.000000 0.026829 0.000000
# 6 0.000000 0.000000 0.000000 0.015999 0.000000 0.108660
#
#
# Mechanical properties :
#
#
# Convention : Reuss Voigt Hill
#
# Bulk Modulus (GPa) = 44.81031 59.38566 52.09798
# Shear Modulus (GPa) = 23.48329 36.85151 30.16740
#
# Velocity S-wave (km/s) = 3.06227 3.83612 3.47083
# Velocity P-wave (km/s) = 5.51338 6.58297 6.07177
#
# Compressibility (1/GPa) = 0.02231629
#
# Stress axis : x y z
#
# Youngs Moduli (GPa) = 63.43077 78.29244 143.16374
#
# Poissons Ratio (x) = 0.04705 0.43028
# Poissons Ratio (y) = 0.03812 0.42904
# Poissons Ratio (z) = 0.19064 0.23463
#
# Static dielectric constant tensor:
#      x y z
#    x 4.412940 0.000000 -0.072220 
#    y 0.000000 4.584610 0.000000 
#    z -0.072220 0.000000 4.810800 
# 
# 
# High freq. dielectric constant tensor:
#      x y z
#    x 1.999580 0.000000 -0.004020 
#    y 0.000000 1.996750 0.000000 
#    z -0.004020 0.000000 2.021640 
# 
# From -- ./inp_files/12244.got.cif
#   From: 2010.03.12/outbox.cif.g09.slc.cpg/sg4_7_cif.got.tgz:12244.got - 2010.03.31 09:31:35.
