data_PCOD8047453
_publ_section_title
;
Structure prediction by ZEFSAII (Michael W. Deem and Ramdas Pophale) SiO2 
 PCOD8047453
Probable space group: P 21
;
_chemical_formula_sum "Si O2"
_cell_formula_units_Z 16
_cell_length_a 8.333523
_cell_length_b 5.279615
_cell_length_c 17.832191
_cell_angle_alpha 90.000000
_cell_angle_beta 56.010825
_cell_angle_gamma 90.000000
_cell_volume 650.526731
_symmetry_space_group_name_H-M "P 21"
_symmetry_group_IT_number 4
_symmetry_cell_setting 'monoclinic'
loop_
_space_group_symop_operation_xyz
x,y,z
-x,1/2+y,-z
loop_
_atom_site_type_symbol
_atom_site_label
_atom_site_fract_x
_atom_site_fract_y
_atom_site_fract_z
Si Si1 0.139203 0.733020 0.824795
Si Si2 0.238563 0.224257 0.995281
Si Si3 0.429146 0.069704 0.091655
Si Si4 0.532132 0.445023 0.178329
Si Si5 0.515380 0.326510 0.542458
Si Si6 0.862468 0.732798 0.271426
Si Si7 0.880479 0.470578 0.543911
Si Si8 0.786577 0.293708 0.721670
O O1 0.360408 0.733368 0.798440
O O2 0.096314 0.486515 0.786625
O O3 0.992175 0.740978 0.934265
O O4 0.103014 0.983176 0.785905
O O5 0.321910 0.049205 0.040684
O O6 0.345506 0.493818 0.977330
O O7 0.292831 0.125172 0.897608
O O8 0.321000 0.882171 0.175875
O O9 0.425047 0.341806 0.132050
O O10 0.359287 0.574412 0.271409
O O11 0.440029 0.579964 0.520157
O O12 0.357689 0.240512 0.644096
O O13 0.712427 0.403144 0.530755
O O14 0.999992 0.707116 0.308477
O O15 0.805476 0.496183 0.649511
O O16 0.967490 0.738731 0.496848
#
# Coordination Sequence:
#
# PCOD8047453 Si02
#       8
#     2   2   2   2   2   2   2   2
#     4  12  29  44  70 106 148 190 244 304 369 425
#     4  11  24  42  67  99 141 194 248 301 364 428
#     4  11  23  43  69  97 139 194 247 300 358 433
#     4  11  27  43  71 100 145 193 250 305 363 430
#     4  12  26  50  78 111 153 189 238 301 374 440
#     4  12  27  48  74 106 146 193 239 299 369 435
#     4  12  28  49  81 114 148 193 244 301 366 446
#     4  11  26  47  74 105 144 192 248 299 361 441
#
# _framework density 24.595452999999999
#
# number of rings (size 3 to 8) (size 9 to 14) (size 15 to 20)
#    0.000    0.500    2.500    4.500   12.250    0.000 
#    0.000    0.000    0.000    0.000    0.000    0.000 
#    0.000    0.000    0.000    0.000    0.000    0.000 
#
# Total GULP energy -198340.873561 kJ/mol
# GULP energy per Si atom -12396.304598 kJ/mol
# Density = 2.453947 g / cm^3
# Si number density = 24.595453 Si / 1000 Ang^3
#
#
#
# Elastic Constant Matrix: (Units=GPa)
#
#
# Indices 1 2 3 4 5 6 
#
# 1 95.3357 -1.7715 0.8160 0.0000 -5.2680 0.0000
# 2 -1.7715 96.6846 9.5056 0.0000 1.2770 0.0000
# 3 0.8160 9.5056 60.9964 0.0000 -8.6840 0.0000
# 4 0.0000 0.0000 0.0000 18.3291 0.0000 0.9903
# 5 -5.2680 1.2770 -8.6840 0.0000 40.2719 0.0000
# 6 0.0000 0.0000 0.0000 0.9903 0.0000 31.7639
#
#
#
# Elastic Compliance Matrix: (Units=1/GPa)
#
#
# Indices 1 2 3 4 5 6 
#
# 1 0.010569 0.000173 0.000029 0.000000 0.001383 0.000000
# 2 0.000173 0.010526 -0.001740 0.000000 -0.000687 0.000000
# 3 0.000029 -0.001740 0.017202 0.000000 0.003768 0.000000
# 4 0.000000 0.000000 0.000000 0.054650 0.000000 -0.001704
# 5 0.001383 -0.000687 0.003768 0.000000 0.025846 0.000000
# 6 0.000000 0.000000 0.000000 -0.001704 0.000000 0.031535
#
#
# Mechanical properties :
#
#
# Convention : Reuss Voigt Hill
#
# Bulk Modulus (GPa) = 28.39444 30.01298 29.20371
# Shear Modulus (GPa) = 30.27619 34.37078 32.32349
#
# Velocity S-wave (km/s) = 3.51232 3.74230 3.62913
# Velocity P-wave (km/s) = 5.29322 5.55897 5.42772
#
# Compressibility (1/GPa) = 0.03521816
#
# Stress axis : x y z
#
# Youngs Moduli (GPa) = 94.61953 95.00063 58.13370
#
# Poissons Ratio (x) = -0.01639 -0.00167
# Poissons Ratio (y) = -0.01633 0.10118
# Poissons Ratio (z) = -0.00271 0.16534
#
# Static dielectric constant tensor:
#      x y z
#    x 4.497260 0.000000 -0.096660 
#    y 0.000000 4.498760 0.000000 
#    z -0.096660 0.000000 4.495070 
# 
# 
# High freq. dielectric constant tensor:
#      x y z
#    x 1.985410 0.000000 -0.004480 
#    y 0.000000 1.976320 0.000000 
#    z -0.004480 0.000000 1.985240 
# 
# From -- ./inp_files/9518.got.cif
#   From: 2010.03.12/outbox.cif.g09.slc.cpg/sg4_5_cif.got.tgz:9518.got - 2010.03.31 09:31:35.
