data_PCOD8047325
_publ_section_title
;
Structure prediction by ZEFSAII (Michael W. Deem and Ramdas Pophale) SiO2 
 PCOD8047325
Probable space group: P 21
;
_chemical_formula_sum "Si O2"
_cell_formula_units_Z 16
_cell_length_a 10.092999
_cell_length_b 8.407384
_cell_length_c 19.542236
_cell_angle_alpha 90.000000
_cell_angle_beta 153.120792
_cell_angle_gamma 90.000000
_cell_volume 749.722415
_symmetry_space_group_name_H-M "P 21"
_symmetry_group_IT_number 4
_symmetry_cell_setting 'monoclinic'
loop_
_space_group_symop_operation_xyz
x,y,z
-x,1/2+y,-z
loop_
_atom_site_type_symbol
_atom_site_label
_atom_site_fract_x
_atom_site_fract_y
_atom_site_fract_z
Si Si1 0.644802 0.380260 0.805857
Si Si2 0.511479 0.770627 0.129570
Si Si3 0.610180 0.233539 0.649525
Si Si4 0.067717 0.236345 0.310250
Si Si5 0.738491 0.748565 0.870563
Si Si6 0.879026 0.901452 0.800141
Si Si7 0.890447 0.900081 0.189326
Si Si8 0.464258 0.900365 0.871167
O O1 0.417506 0.333454 0.761238
O O2 0.513650 0.331490 0.672384
O O3 0.712955 0.565358 0.839791
O O4 0.939445 0.279581 0.952316
O O5 0.786237 0.806919 0.208379
O O6 0.468085 0.582822 0.113839
O O7 0.223408 0.863938 0.969874
O O8 0.314363 0.175950 0.476440
O O9 0.777857 0.352057 0.675220
O O10 0.824698 0.088329 0.766580
O O11 0.223645 0.313507 0.316105
O O12 0.862357 0.368052 0.251898
O O13 0.870130 0.087846 0.195131
O O14 0.686596 0.844263 0.776085
O O15 0.504772 0.799377 0.820317
O O16 0.692104 0.847270 0.034119
#
# Coordination Sequence:
#
# PCOD8047325 Si02
#       8
#     2   2   2   2   2   2   2   2
#     4  11  22  40  63  99 133 170 220 275 340 391
#     4  11  23  39  69 100 127 166 225 283 324 374
#     4  12  26  43  66  97 141 181 213 270 345 412
#     4  12  26  44  65 100 139 176 220 274 340 403
#     4  11  22  38  69  98 128 170 226 283 324 388
#     4  11  22  41  66  98 134 172 222 277 329 392
#     4  12  23  41  68 100 128 175 226 273 329 391
#     4  12  22  42  68 100 128 170 228 277 323 387
#
# _framework density 21.341231000000001
#
# number of rings (size 3 to 8) (size 9 to 14) (size 15 to 20)
#    0.000    0.500    3.750    6.750    1.750    0.000 
#    0.000    7.500    0.000    0.000    0.000    0.000 
#    0.000    0.000    0.000    0.000    0.000    0.000 
#
# Total GULP energy -198473.328667 kJ/mol
# GULP energy per Si atom -12404.583042 kJ/mol
# Density = 2.129266 g / cm^3
# Si number density = 21.341231 Si / 1000 Ang^3
#
#
#
# Elastic Constant Matrix: (Units=GPa)
#
#
# Indices 1 2 3 4 5 6 
#
# 1 169.1492 35.4116 41.7920 0.0000 -22.0969 0.0000
# 2 35.4116 106.5192 27.3037 0.0000 -10.7434 0.0000
# 3 41.7920 27.3037 75.4113 0.0000 -8.6476 0.0000
# 4 0.0000 0.0000 0.0000 18.9767 0.0000 -0.5954
# 5 -22.0969 -10.7434 -8.6476 0.0000 22.5221 0.0000
# 6 0.0000 0.0000 0.0000 -0.5954 0.0000 39.2626
#
#
#
# Elastic Compliance Matrix: (Units=1/GPa)
#
#
# Indices 1 2 3 4 5 6 
#
# 1 0.007696 -0.001160 -0.003183 0.000000 0.005775 0.000000
# 2 -0.001160 0.010820 -0.002943 0.000000 0.002893 0.000000
# 3 -0.003183 -0.002943 0.016288 0.000000 0.001728 0.000000
# 4 0.000000 0.000000 0.000000 0.052721 0.000000 0.000800
# 5 0.005775 0.002893 0.001728 0.000000 0.052110 0.000000
# 6 0.000000 0.000000 0.000000 0.000800 0.000000 0.025482
#
#
# Mechanical properties :
#
#
# Convention : Reuss Voigt Hill
#
# Bulk Modulus (GPa) = 49.42566 62.23271 55.82918
# Shear Modulus (GPa) = 26.81955 32.59044 29.70500
#
# Velocity S-wave (km/s) = 3.54884 3.91207 3.73487
# Velocity P-wave (km/s) = 6.32474 7.04484 6.69448
#
# Compressibility (1/GPa) = 0.02023241
#
# Stress axis : x y z
#
# Youngs Moduli (GPa) = 129.94548 92.42351 61.39518
#
# Poissons Ratio (x) = 0.10722 0.19539
# Poissons Ratio (y) = 0.15075 0.18067
# Poissons Ratio (z) = 0.41355 0.27198
#
# Static dielectric constant tensor:
#      x y z
#    x 4.488890 0.000000 -0.296510 
#    y 0.000000 3.829750 0.000000 
#    z -0.296510 0.000000 3.442170 
# 
# 
# High freq. dielectric constant tensor:
#      x y z
#    x 1.862210 0.000000 -0.015190 
#    y 0.000000 1.850010 0.000000 
#    z -0.015190 0.000000 1.793920 
# 
# From -- ./inp_files/9206.got.cif
#   From: 2010.03.12/outbox.cif.g09.slc.cpg/sg4_5_cif.got.tgz:9206.got - 2010.03.31 09:31:35.
