data_PCOD8047438
_publ_section_title
;
Structure prediction by ZEFSAII (Michael W. Deem and Ramdas Pophale) SiO2 
 PCOD8047438
Probable space group: P 21
;
_chemical_formula_sum "Si O2"
_cell_formula_units_Z 16
_cell_length_a 9.427972
_cell_length_b 9.071362
_cell_length_c 8.881009
_cell_angle_alpha 90.000000
_cell_angle_beta 113.113834
_cell_angle_gamma 90.000000
_cell_volume 698.573177
_symmetry_space_group_name_H-M "P 21"
_symmetry_group_IT_number 4
_symmetry_cell_setting 'monoclinic'
loop_
_space_group_symop_operation_xyz
x,y,z
-x,1/2+y,-z
loop_
_atom_site_type_symbol
_atom_site_label
_atom_site_fract_x
_atom_site_fract_y
_atom_site_fract_z
Si Si1 0.398979 0.976040 0.820953
Si Si2 0.948436 0.845467 0.568857
Si Si3 0.899646 0.855317 0.017607
Si Si4 0.919893 0.522305 0.137769
Si Si5 0.592752 0.762229 0.734096
Si Si6 0.390555 0.238111 0.603564
Si Si7 0.880270 0.048876 0.296750
Si Si8 0.459726 0.502935 0.814549
O O1 0.234999 0.979015 0.836294
O O2 0.446855 0.819760 0.771026
O O3 0.414845 0.076324 0.679461
O O4 0.525699 0.013686 0.999739
O O5 0.789764 0.765438 0.473415
O O6 0.992489 0.934455 0.434067
O O7 0.942245 0.975187 0.691753
O O8 0.063266 0.717232 0.673127
O O9 0.931210 0.695824 0.105918
O O10 0.862611 0.982394 0.122541
O O11 0.754715 0.840647 0.841756
O O12 0.052154 0.917119 0.995982
O O13 0.548830 0.763021 0.540113
O O14 0.598154 0.593341 0.792038
O O15 0.482718 0.338889 0.760287
O O16 0.712101 0.052979 0.304212
#
# Coordination Sequence:
#
# PCOD8047438 Si02
#       8
#     2   2   2   2   2   2   2   2
#     4  12  24  46  76 102 143 188 239 293 365 435
#     4  11  23  42  70 100 147 184 243 293 366 419
#     4  12  25  45  72 103 148 186 245 297 361 428
#     4  12  25  47  69 108 143 193 240 302 359 433
#     4  12  24  46  69 105 143 188 237 300 358 433
#     4  11  25  45  69 102 143 184 236 301 356 433
#     4  11  23  43  70 107 140 196 237 303 354 438
#     4  11  23  42  71 103 139 187 243 291 363 423
#
# _framework density 22.903829000000002
#
# number of rings (size 3 to 8) (size 9 to 14) (size 15 to 20)
#    0.000    0.500    3.750    6.000    0.000    0.000 
#    2.250    1.250    0.000    0.000    0.000    0.000 
#    0.000    0.000    0.000    0.000    0.000    0.000 
#
# Total GULP energy -198236.099038 kJ/mol
# GULP energy per Si atom -12389.756190 kJ/mol
# Density = 2.285170 g / cm^3
# Si number density = 22.903829 Si / 1000 Ang^3
#
#
#
# Elastic Constant Matrix: (Units=GPa)
#
#
# Indices 1 2 3 4 5 6 
#
# 1 78.5013 41.2433 23.4667 0.0000 -23.0825 0.0000
# 2 41.2433 93.9035 42.2678 0.0000 -1.7757 0.0000
# 3 23.4667 42.2678 136.4258 0.0000 -11.0427 0.0000
# 4 0.0000 0.0000 0.0000 49.4109 0.0000 -6.0846
# 5 -23.0825 -1.7757 -11.0427 0.0000 28.5715 0.0000
# 6 0.0000 0.0000 0.0000 -6.0846 0.0000 36.1404
#
#
#
# Elastic Compliance Matrix: (Units=1/GPa)
#
#
# Indices 1 2 3 4 5 6 
#
# 1 0.023325 -0.010182 0.000636 0.000000 0.018457 0.000000
# 2 -0.010182 0.016835 -0.004176 0.000000 -0.008794 0.000000
# 3 0.000636 -0.004176 0.008811 0.000000 0.003660 0.000000
# 4 0.000000 0.000000 0.000000 0.020667 0.000000 0.003480
# 5 0.018457 -0.008794 0.003660 0.000000 0.050779 0.000000
# 6 0.000000 0.000000 0.000000 0.003480 0.000000 0.028256
#
#
# Mechanical properties :
#
#
# Convention : Reuss Voigt Hill
#
# Bulk Modulus (GPa) = 46.45352 58.08736 52.27044
# Shear Modulus (GPa) = 27.27902 36.28141 31.78022
#
# Velocity S-wave (km/s) = 3.45487 3.98436 3.72902
# Velocity P-wave (km/s) = 6.02004 6.82520 6.43522
#
# Compressibility (1/GPa) = 0.02152689
#
# Stress axis : x y z
#
# Youngs Moduli (GPa) = 42.87256 59.40104 113.49929
#
# Poissons Ratio (x) = 0.60482 -0.07223
# Poissons Ratio (y) = 0.43653 0.47399
# Poissons Ratio (z) = -0.02729 0.24807
#
# Static dielectric constant tensor:
#      x y z
#    x 3.916190 0.000000 -0.059710 
#    y 0.000000 4.204290 0.000000 
#    z -0.059710 0.000000 4.454150 
# 
# 
# High freq. dielectric constant tensor:
#      x y z
#    x 1.886070 0.000000 -0.005340 
#    y 0.000000 1.914730 0.000000 
#    z -0.005340 0.000000 1.918080 
# 
# From -- ./inp_files/5493.got.cif
#   From: 2010.03.12/outbox.cif.g09.slc.cpg/sg4_3_cif.got.tgz:5493.got - 2010.03.31 09:31:35.
