data_PCOD8047216
_publ_section_title
;
Structure prediction by ZEFSAII (Michael W. Deem and Ramdas Pophale) SiO2 
 PCOD8047216
Probable space group: P 21
;
_chemical_formula_sum "Si O2"
_cell_formula_units_Z 12
_cell_length_a 24.264787
_cell_length_b 5.019036
_cell_length_c 21.315025
_cell_angle_alpha 90.000000
_cell_angle_beta 169.296974
_cell_angle_gamma 90.000000
_cell_volume 482.100778
_symmetry_space_group_name_H-M "P 21"
_symmetry_group_IT_number 4
_symmetry_cell_setting 'monoclinic'
loop_
_space_group_symop_operation_xyz
x,y,z
-x,1/2+y,-z
loop_
_atom_site_type_symbol
_atom_site_label
_atom_site_fract_x
_atom_site_fract_y
_atom_site_fract_z
Si Si1 0.578631 0.153850 0.733065
Si Si2 0.064895 0.814545 0.220419
Si Si3 0.214654 0.989369 0.573846
Si Si4 0.838339 0.805708 0.837796
Si Si5 0.097655 0.471372 0.645815
Si Si6 0.022681 0.489803 0.285744
O O1 0.468238 0.253009 0.541214
O O2 0.348705 0.960887 0.509632
O O3 0.675664 0.402140 0.885896
O O4 0.888704 0.004627 0.070411
O O5 0.159379 0.563238 0.369327
O O6 0.839291 0.722494 0.912251
O O7 0.211299 0.251339 0.526768
O O8 0.026369 0.744495 0.335243
O O9 0.061547 0.062640 0.468314
O O10 0.556108 0.901139 0.960089
O O11 0.087256 0.618534 0.083804
O O12 0.069835 0.708920 0.565072
#
# Coordination Sequence:
#
# PCOD8047216 Si02
#       6
#     2   2   2   2   2   2
#     4  11  28  47  74 104 149 202 263 322 388 450
#     4  11  28  47  74 104 149 202 263 322 388 450
#     4  12  28  47  79 116 154 196 244 300 376 456
#     4  10  26  46  72 102 138 194 264 326 376 436
#     4  12  26  52  82 114 150 194 244 300 360 448
#     4  12  28  49  73 114 158 202 246 314 386 460
#
# _framework density 24.89106
#
# number of rings (size 3 to 8) (size 9 to 14) (size 15 to 20)
#    0.000    0.667    1.667    3.000   14.000    4.000 
#    0.000    0.000    0.000    0.000    0.000    0.000 
#    0.000    0.000    0.000    0.000    0.000    0.000 
#
# Total GULP energy -148791.417063 kJ/mol
# GULP energy per Si atom -12399.284755 kJ/mol
# Density = 2.483441 g / cm^3
# Si number density = 24.891060 Si / 1000 Ang^3
#
#
#
# Elastic Constant Matrix: (Units=GPa)
#
#
# Indices 1 2 3 4 5 6 
#
# 1 132.3712 28.8258 24.8642 0.0000 -9.3192 0.0000
# 2 28.8258 135.3435 60.8637 0.0000 -15.2007 0.0000
# 3 24.8642 60.8637 210.3274 0.0000 -8.4480 0.0000
# 4 0.0000 0.0000 0.0000 31.6426 0.0000 -6.6542
# 5 -9.3192 -15.2007 -8.4480 0.0000 46.9253 0.0000
# 6 0.0000 0.0000 0.0000 -6.6542 0.0000 38.3864
#
#
#
# Elastic Compliance Matrix: (Units=1/GPa)
#
#
# Indices 1 2 3 4 5 6 
#
# 1 0.008021 -0.001359 -0.000512 0.000000 0.001061 0.000000
# 2 -0.001359 0.008984 -0.002350 0.000000 0.002217 0.000000
# 3 -0.000512 -0.002350 0.005500 0.000000 0.000127 0.000000
# 4 0.000000 0.000000 0.000000 0.032799 0.000000 0.005686
# 5 0.001061 0.002217 0.000127 0.000000 0.022262 0.000000
# 6 0.000000 0.000000 0.000000 0.005686 0.000000 0.027036
#
#
# Mechanical properties :
#
#
# Convention : Reuss Voigt Hill
#
# Bulk Modulus (GPa) = 71.10958 78.57216 74.84087
# Shear Modulus (GPa) = 42.46903 47.62343 45.04623
#
# Velocity S-wave (km/s) = 4.13509 4.37884 4.25871
# Velocity P-wave (km/s) = 7.17140 7.56311 7.36986
#
# Compressibility (1/GPa) = 0.01406280
#
# Stress axis : x y z
#
# Youngs Moduli (GPa) = 124.66737 111.31099 181.81105
#
# Poissons Ratio (x) = 0.15125 0.09317
# Poissons Ratio (y) = 0.16940 0.42726
# Poissons Ratio (z) = 0.06388 0.26158
#
# Static dielectric constant tensor:
#      x y z
#    x 4.623740 0.000000 -0.443440 
#    y 0.000000 4.425530 0.000000 
#    z -0.443440 0.000000 4.426430 
# 
# 
# High freq. dielectric constant tensor:
#      x y z
#    x 1.996020 0.000000 -0.022400 
#    y 0.000000 2.006460 0.000000 
#    z -0.022400 0.000000 1.986680 
# 
# From -- ./inp_files/15940.got.cif
#   From: 2010.03.12/outbox.cif.g09.slc.cpg/sg4_8_cif.got.tgz:15940.got - 2010.03.31 09:31:35.
