data_PCOD8047131
_publ_section_title
;
Structure prediction by ZEFSAII (Michael W. Deem and Ramdas Pophale) SiO2 
 PCOD8047131
Probable space group: P 21
;
_chemical_formula_sum "Si O2"
_cell_formula_units_Z 16
_cell_length_a 13.797335
_cell_length_b 8.262144
_cell_length_c 11.849012
_cell_angle_alpha 90.000000
_cell_angle_beta 148.253594
_cell_angle_gamma 90.000000
_cell_volume 710.703441
_symmetry_space_group_name_H-M "P 21"
_symmetry_group_IT_number 4
_symmetry_cell_setting 'monoclinic'
loop_
_space_group_symop_operation_xyz
x,y,z
-x,1/2+y,-z
loop_
_atom_site_type_symbol
_atom_site_label
_atom_site_fract_x
_atom_site_fract_y
_atom_site_fract_z
Si Si1 0.025966 0.176920 0.333751
Si Si2 0.560947 0.305675 0.141714
Si Si3 0.324303 0.500219 0.081504
Si Si4 0.099070 0.032213 0.856331
Si Si5 0.756249 0.600418 0.240377
Si Si6 0.694122 0.096840 0.473221
Si Si7 0.627851 0.731102 0.455015
Si Si8 0.638712 0.708314 0.729541
O O1 0.940311 0.346539 0.210515
O O2 0.082051 0.171475 0.520864
O O3 0.208765 0.130799 0.443742
O O4 0.875097 0.040887 0.164217
O O5 0.443845 0.427404 0.100471
O O6 0.710803 0.411437 0.221513
O O7 0.659548 0.170072 0.315280
O O8 0.426534 0.210436 0.922407
O O9 0.428730 0.657134 0.232744
O O10 0.288767 0.375697 0.147579
O O11 0.178290 0.120247 0.823741
O O12 0.910410 0.115041 0.712646
O O13 0.247819 0.057515 0.103666
O O14 0.578036 0.189455 0.454827
O O15 0.629447 0.911269 0.407573
O O16 0.669667 0.719598 0.628370
#
# Coordination Sequence:
#
# PCOD8047131 Si02
#       8
#     2   2   2   2   2   2   2   2
#     4  11  28  42  69 105 142 185 235 290 355 430
#     4  11  27  43  73  98 145 189 232 293 354 432
#     4  11  24  45  66 103 142 183 235 297 346 427
#     4  11  26  44  71 102 147 184 236 292 351 432
#     4  12  27  45  72 108 140 192 232 292 359 430
#     4  10  24  47  69 103 142 187 234 299 352 422
#     4  11  24  47  72 102 142 186 241 294 363 417
#     4  11  24  45  74 103 140 190 239 293 358 420
#
# _framework density 22.512906000000001
#
# number of rings (size 3 to 8) (size 9 to 14) (size 15 to 20)
#    0.000    1.000    3.750    1.500   10.500    3.000 
#    0.000    0.000    0.000    0.000    0.000    0.000 
#    0.000    0.000    0.000    0.000    0.000    0.000 
#
# Total GULP energy -198465.386609 kJ/mol
# GULP energy per Si atom -12404.086663 kJ/mol
# Density = 2.246167 g / cm^3
# Si number density = 22.512906 Si / 1000 Ang^3
#
#
#
# Elastic Constant Matrix: (Units=GPa)
#
#
# Indices 1 2 3 4 5 6 
#
# 1 67.3939 13.0546 35.2968 0.0000 -3.9857 0.0000
# 2 13.0546 87.8950 36.1536 0.0000 -3.4794 0.0000
# 3 35.2968 36.1536 99.8178 0.0000 0.6158 0.0000
# 4 0.0000 0.0000 0.0000 41.8318 0.0000 3.8013
# 5 -3.9857 -3.4794 0.6158 0.0000 33.9873 0.0000
# 6 0.0000 0.0000 0.0000 3.8013 0.0000 24.5005
#
#
#
# Elastic Compliance Matrix: (Units=1/GPa)
#
#
# Indices 1 2 3 4 5 6 
#
# 1 0.018385 0.000046 -0.006532 0.000000 0.002279 0.000000
# 2 0.000046 0.013442 -0.004894 0.000000 0.001470 0.000000
# 3 -0.006532 -0.004894 0.014110 0.000000 -0.001523 0.000000
# 4 0.000000 0.000000 0.000000 0.024247 0.000000 -0.003762
# 5 0.002279 0.001470 -0.001523 0.000000 0.029868 0.000000
# 6 0.000000 0.000000 0.000000 -0.003762 0.000000 0.041399
#
#
# Mechanical properties :
#
#
# Convention : Reuss Voigt Hill
#
# Bulk Modulus (GPa) = 43.14546 47.12407 45.13477
# Shear Modulus (GPa) = 29.08060 31.43737 30.25899
#
# Velocity S-wave (km/s) = 3.59796 3.74092 3.67014
# Velocity P-wave (km/s) = 6.03878 6.29577 6.16861
#
# Compressibility (1/GPa) = 0.02317741
#
# Stress axis : x y z
#
# Youngs Moduli (GPa) = 54.39211 74.39629 70.87163
#
# Poissons Ratio (x) = -0.00345 0.46294
# Poissons Ratio (y) = -0.00252 0.34684
# Poissons Ratio (z) = 0.35529 0.36409
#
# Static dielectric constant tensor:
#      x y z
#    x 4.065790 0.000000 0.236530 
#    y 0.000000 4.132920 0.000000 
#    z 0.236530 0.000000 4.190800 
# 
# 
# High freq. dielectric constant tensor:
#      x y z
#    x 1.884860 0.000000 0.008840 
#    y 0.000000 1.891990 0.000000 
#    z 0.008840 0.000000 1.891700 
# 
# From -- ./inp_files/12673.got.cif
#   From: 2010.03.12/outbox.cif.g09.slc.cpg/sg4_7_cif.got.tgz:12673.got - 2010.03.31 09:31:35.
