data_PCOD8047770
_publ_section_title
;
Structure prediction by ZEFSAII (Michael W. Deem and Ramdas Pophale) SiO2 
 PCOD8047770
Probable space group: P 21
;
_chemical_formula_sum "Si O2"
_cell_formula_units_Z 14
_cell_length_a 5.244575
_cell_length_b 8.416802
_cell_length_c 16.380426
_cell_angle_alpha 90.000000
_cell_angle_beta 50.588365
_cell_angle_gamma 90.000000
_cell_volume 558.650161
_symmetry_space_group_name_H-M "P 21"
_symmetry_group_IT_number 4
_symmetry_cell_setting 'monoclinic'
loop_
_space_group_symop_operation_xyz
x,y,z
-x,1/2+y,-z
loop_
_atom_site_type_symbol
_atom_site_label
_atom_site_fract_x
_atom_site_fract_y
_atom_site_fract_z
Si Si1 0.879319 0.273990 0.922435
Si Si2 0.284788 0.750733 0.498086
Si Si3 0.069729 0.112132 0.288240
Si Si4 0.992668 0.758721 0.282939
Si Si5 0.206158 0.432842 0.001263
Si Si6 0.819386 0.034883 0.625343
Si Si7 0.306570 0.797241 0.770862
O O1 0.065223 0.220033 0.800990
O O2 0.778494 0.122970 0.997485
O O3 0.547824 0.365473 0.965299
O O4 0.131827 0.383118 0.922657
O O5 0.667339 0.772600 0.403650
O O6 0.124558 0.676518 0.449624
O O7 0.217422 0.628462 0.585625
O O8 0.131377 0.919860 0.552323
O O9 0.399065 0.198673 0.248946
O O10 0.930843 0.186205 0.233312
O O11 0.170969 0.929760 0.252647
O O12 0.201143 0.614183 0.279937
O O13 0.899140 0.373380 0.115494
O O14 0.478182 0.936626 0.681129
#
# Coordination Sequence:
#
# PCOD8047770 Si02
#       7
#     2   2   2   2   2   2   2
#     4  12  31  50  85 112 156 200 265 313 401 446
#     4  11  26  45  75 108 158 204 253 317 376 460
#     4  11  28  46  79 112 151 206 256 307 391 457
#     4  12  29  47  76 113 155 202 259 321 377 466
#     4  12  29  55  78 115 151 205 253 333 381 465
#     4  11  27  46  76 111 155 206 261 307 393 450
#     4  11  28  51  77 107 156 199 257 326 381 458
#
# _framework density 25.060403999999998
#
# number of rings (size 3 to 8) (size 9 to 14) (size 15 to 20)
#    0.000    0.571    0.000    4.286   32.000    0.000 
#    0.000    0.000    0.000    0.000    0.000    0.000 
#    0.000    0.000    0.000    0.000    0.000    0.000 
#
# Total GULP energy -173652.390647 kJ/mol
# GULP energy per Si atom -12403.742189 kJ/mol
# Density = 2.500337 g / cm^3
# Si number density = 25.060404 Si / 1000 Ang^3
#
#
#
# Elastic Constant Matrix: (Units=GPa)
#
#
# Indices 1 2 3 4 5 6 
#
# 1 135.9218 53.9382 11.9081 0.0000 7.5325 0.0000
# 2 53.9382 147.8174 18.0171 0.0000 18.3554 0.0000
# 3 11.9081 18.0171 73.6013 0.0000 6.8772 0.0000
# 4 0.0000 0.0000 0.0000 41.6742 0.0000 11.4894
# 5 7.5325 18.3554 6.8772 0.0000 60.1281 0.0000
# 6 0.0000 0.0000 0.0000 11.4894 0.0000 40.1212
#
#
#
# Elastic Compliance Matrix: (Units=1/GPa)
#
#
# Indices 1 2 3 4 5 6 
#
# 1 0.008633 -0.003063 -0.000640 0.000000 -0.000073 0.000000
# 2 -0.003063 0.008295 -0.001349 0.000000 -0.001994 0.000000
# 3 -0.000640 -0.001349 0.014125 0.000000 -0.001124 0.000000
# 4 0.000000 0.000000 0.000000 0.026053 0.000000 -0.007461
# 5 -0.000073 -0.001994 -0.001124 0.000000 0.017378 0.000000
# 6 0.000000 0.000000 0.000000 -0.007461 0.000000 0.027061
#
#
# Mechanical properties :
#
#
# Convention : Reuss Voigt Hill
#
# Bulk Modulus (GPa) = 47.73347 58.34082 53.03714
# Shear Modulus (GPa) = 42.14760 46.61649 44.38205
#
# Velocity S-wave (km/s) = 4.10547 4.31764 4.21289
# Velocity P-wave (km/s) = 6.44685 6.94166 6.69883
#
# Compressibility (1/GPa) = 0.02094966
#
# Stress axis : x y z
#
# Youngs Moduli (GPa) = 115.83731 120.55763 70.79440
#
# Poissons Ratio (x) = 0.36927 0.04531
# Poissons Ratio (y) = 0.35481 0.09547
# Poissons Ratio (z) = 0.07415 0.16259
#
# Static dielectric constant tensor:
#      x y z
#    x 4.194130 0.000000 0.147660 
#    y 0.000000 4.820350 0.000000 
#    z 0.147660 0.000000 4.834930 
# 
# 
# High freq. dielectric constant tensor:
#      x y z
#    x 1.997040 0.000000 -0.000560 
#    y 0.000000 2.013490 0.000000 
#    z -0.000560 0.000000 2.015110 
# 
# From -- ./inp_files/14705.got.cif
#   From: 2010.03.12/outbox.cif.g09.slc.cpg/sg4_8_cif.got.tgz:14705.got - 2010.03.31 09:31:35.
