data_PCOD8047171
_publ_section_title
;
Structure prediction by ZEFSAII (Michael W. Deem and Ramdas Pophale) SiO2 
 PCOD8047171
Probable space group: P 21
;
_chemical_formula_sum "Si O2"
_cell_formula_units_Z 14
_cell_length_a 13.290885
_cell_length_b 5.154529
_cell_length_c 8.031626
_cell_angle_alpha 90.000000
_cell_angle_beta 103.450780
_cell_angle_gamma 90.000000
_cell_volume 535.139834
_symmetry_space_group_name_H-M "P 21"
_symmetry_group_IT_number 4
_symmetry_cell_setting 'monoclinic'
loop_
_space_group_symop_operation_xyz
x,y,z
-x,1/2+y,-z
loop_
_atom_site_type_symbol
_atom_site_label
_atom_site_fract_x
_atom_site_fract_y
_atom_site_fract_z
Si Si1 0.549541 0.872060 0.953051
Si Si2 0.229061 0.598535 0.350389
Si Si3 0.446608 0.376392 0.418312
Si Si4 0.021482 0.393839 0.909310
Si Si5 0.167843 0.895870 0.641599
Si Si6 0.236143 0.626818 0.976276
Si Si7 0.063434 0.229809 0.386268
O O1 0.538615 0.772776 0.761795
O O2 0.525915 0.618732 0.052928
O O3 0.664609 0.965262 0.039633
O O4 0.325042 0.401685 0.412286
O O5 0.234891 0.786356 0.512442
O O6 0.118809 0.450123 0.298441
O O7 0.241352 0.732278 0.169997
O O8 0.501651 0.657627 0.447901
O O9 0.942405 0.465195 0.728298
O O10 0.140468 0.435540 0.906337
O O11 0.993380 0.595284 0.047635
O O12 0.225127 0.868208 0.841042
O O13 0.139206 0.191262 0.577292
O O14 0.052826 0.774320 0.601380
#
# Coordination Sequence:
#
# PCOD8047171 Si02
#       7
#     2   2   2   2   2   2   2
#     4  11  26  49  76 106 147 185 248 311 364 440
#     4  11  24  47  69 101 148 184 244 299 360 443
#     4  11  27  48  77 108 141 195 245 303 378 430
#     4  11  23  42  71 104 148 187 240 292 355 437
#     4  11  24  43  68 103 146 184 243 293 361 435
#     4  10  25  46  69 106 137 200 236 294 372 427
#     4  11  23  41  70 104 147 191 238 298 362 430
#
# _framework density 26.161384999999999
#
# number of rings (size 3 to 8) (size 9 to 14) (size 15 to 20)
#    0.000    1.143    2.857    1.714    6.000    1.143 
#    2.571    0.000    0.000    0.000    0.000    0.000 
#    0.000    0.000    0.000    0.000    0.000    0.000 
#
# Total GULP energy -173487.066907 kJ/mol
# GULP energy per Si atom -12391.933350 kJ/mol
# Density = 2.610184 g / cm^3
# Si number density = 26.161385 Si / 1000 Ang^3
#
#
#
# Elastic Constant Matrix: (Units=GPa)
#
#
# Indices 1 2 3 4 5 6 
#
# 1 77.4141 -8.5999 18.6893 0.0000 -12.0583 0.0000
# 2 -8.5999 41.9770 1.6970 0.0000 -7.9506 0.0000
# 3 18.6893 1.6970 109.1084 0.0000 -1.3518 0.0000
# 4 0.0000 0.0000 0.0000 37.7332 0.0000 1.9085
# 5 -12.0583 -7.9506 -1.3518 0.0000 35.0823 0.0000
# 6 0.0000 0.0000 0.0000 1.9085 0.0000 26.2532
#
#
#
# Elastic Compliance Matrix: (Units=1/GPa)
#
#
# Indices 1 2 3 4 5 6 
#
# 1 0.014949 0.004305 -0.002553 0.000000 0.006016 0.000000
# 2 0.004305 0.026142 -0.001053 0.000000 0.007364 0.000000
# 3 -0.002553 -0.001053 0.009610 0.000000 -0.000746 0.000000
# 4 0.000000 0.000000 0.000000 0.026600 0.000000 -0.001934
# 5 0.006016 0.007364 -0.000746 0.000000 0.032212 0.000000
# 6 0.000000 0.000000 0.000000 -0.001934 0.000000 0.038231
#
#
# Mechanical properties :
#
#
# Convention : Reuss Voigt Hill
#
# Bulk Modulus (GPa) = 19.19410 28.00804 23.60107
# Shear Modulus (GPa) = 30.54158 34.26131 32.40145
#
# Velocity S-wave (km/s) = 3.42047 3.62278 3.52308
# Velocity P-wave (km/s) = 4.79085 5.31305 5.05869
#
# Compressibility (1/GPa) = 0.05209935
#
# Stress axis : x y z
#
# Youngs Moduli (GPa) = 66.89331 38.25286 104.06201
#
# Poissons Ratio (x) = -0.16469 0.26568
# Poissons Ratio (y) = -0.28799 0.10956
# Poissons Ratio (z) = 0.17079 0.04027
#
# Static dielectric constant tensor:
#      x y z
#    x 4.826780 0.000000 -0.148570 
#    y 0.000000 4.388500 0.000000 
#    z -0.148570 0.000000 5.203530 
# 
# 
# High freq. dielectric constant tensor:
#      x y z
#    x 2.054360 0.000000 -0.005870 
#    y 0.000000 2.025080 0.000000 
#    z -0.005870 0.000000 2.065480 
# 
# From -- ./inp_files/7404.got.cif
#   From: 2010.03.12/outbox.cif.g09.slc.cpg/sg4_4_cif.got.tgz:7404.got - 2010.03.31 09:31:35.
