data_PCOD8047866
_publ_section_title
;
Structure prediction by ZEFSAII (Michael W. Deem and Ramdas Pophale) SiO2 
 PCOD8047866
Probable space group: P 21
;
_chemical_formula_sum "Si O2"
_cell_formula_units_Z 16
_cell_length_a 7.010540
_cell_length_b 5.251937
_cell_length_c 30.627614
_cell_angle_alpha 90.000000
_cell_angle_beta 37.853176
_cell_angle_gamma 90.000000
_cell_volume 691.986939
_symmetry_space_group_name_H-M "P 21"
_symmetry_group_IT_number 4
_symmetry_cell_setting 'monoclinic'
loop_
_space_group_symop_operation_xyz
x,y,z
-x,1/2+y,-z
loop_
_atom_site_type_symbol
_atom_site_label
_atom_site_fract_x
_atom_site_fract_y
_atom_site_fract_z
Si Si1 0.238012 0.640560 0.013298
Si Si2 0.319927 0.861834 0.226852
Si Si3 0.195597 0.460443 0.110395
Si Si4 0.393826 0.385905 0.640238
Si Si5 0.393376 0.284863 0.912340
Si Si6 0.483041 0.857297 0.759658
Si Si7 0.314602 0.386153 0.373598
Si Si8 0.402232 0.864359 0.492987
O O1 0.080784 0.627587 0.089578
O O2 0.960187 0.702491 0.030131
O O3 0.515569 0.837837 0.967264
O O4 0.409023 0.410288 0.957300
O O5 0.489634 0.943486 0.150802
O O6 0.458354 0.595214 0.218999
O O7 0.957733 0.821676 0.283781
O O8 0.369087 0.094526 0.250980
O O9 0.340008 0.568998 0.129246
O O10 0.888032 0.304610 0.179633
O O11 0.482307 0.646704 0.648209
O O12 0.426607 0.429200 0.582879
O O13 0.601180 0.147032 0.617237
O O14 0.641928 0.930250 0.685565
O O15 0.961205 0.321306 0.448991
O O16 0.547635 0.603129 0.484372
#
# Coordination Sequence:
#
# PCOD8047866 Si02
#       8
#     2   2   2   2   2   2   2   2
#     4  12  26  44  68  98 134 180 238 294 362 430
#     4  12  28  47  71 101 142 185 236 291 357 424
#     4  12  27  44  69  98 137 183 236 296 363 430
#     4  12  25  46  73 106 144 187 238 288 350 419
#     4  12  27  44  69  98 137 183 236 296 363 430
#     4  12  28  47  71 101 142 185 236 291 357 424
#     4  12  25  46  73 106 144 187 238 288 350 419
#     4  12  24  44  74 108 148 188 234 288 350 414
#
# _framework density 23.121822999999999
#
# number of rings (size 3 to 8) (size 9 to 14) (size 15 to 20)
#    0.000    0.000    3.750    6.000    8.750    0.000 
#    0.000    0.000    0.000    0.000    0.000    0.000 
#    0.000    0.000    0.000    0.000    0.000    0.000 
#
# Total GULP energy -198325.910507 kJ/mol
# GULP energy per Si atom -12395.369407 kJ/mol
# Density = 2.306920 g / cm^3
# Si number density = 23.121823 Si / 1000 Ang^3
#
#
#
# Elastic Constant Matrix: (Units=GPa)
#
#
# Indices 1 2 3 4 5 6 
#
# 1 97.3244 17.0965 32.0218 0.0001 8.7423 0.0001
# 2 17.0965 85.9512 5.9901 0.0000 -1.5212 0.0000
# 3 32.0218 5.9901 106.7760 0.0008 1.2224 0.0006
# 4 0.0001 0.0000 0.0008 30.9750 0.0000 0.4223
# 5 8.7423 -1.5212 1.2224 0.0000 44.2898 0.0001
# 6 0.0001 0.0000 0.0006 0.4223 0.0001 40.7499
#
#
#
# Elastic Compliance Matrix: (Units=1/GPa)
#
#
# Indices 1 2 3 4 5 6 
#
# 1 0.012006 -0.002189 -0.003451 0.000000 -0.002350 0.000000
# 2 -0.002189 0.012087 -0.000031 0.000000 0.000848 0.000000
# 3 -0.003451 -0.000031 0.010398 0.000000 0.000393 0.000000
# 4 0.000000 0.000000 0.000000 0.032289 0.000000 -0.000335
# 5 -0.002350 0.000848 0.000393 0.000000 0.023061 0.000000
# 6 0.000000 0.000000 0.000000 -0.000335 0.000000 0.024543
#
#
# Mechanical properties :
#
#
# Convention : Reuss Voigt Hill
#
# Bulk Modulus (GPa) = 43.20016 44.47428 43.83722
# Shear Modulus (GPa) = 37.46947 38.86582 38.16764
#
# Velocity S-wave (km/s) = 4.02994 4.10434 4.06731
# Velocity P-wave (km/s) = 6.35438 6.46045 6.40763
#
# Compressibility (1/GPa) = 0.02314806
#
# Stress axis : x y z
#
# Youngs Moduli (GPa) = 83.29204 82.73250 96.17653
#
# Poissons Ratio (x) = 0.18112 0.33189
# Poissons Ratio (y) = 0.18234 0.00301
# Poissons Ratio (z) = 0.28743 0.00259
#
# Static dielectric constant tensor:
#      x y z
#    x 4.213590 0.000000 -0.057280 
#    y 0.000000 3.891120 0.000000 
#    z -0.057280 0.000000 4.134840 
# 
# 
# High freq. dielectric constant tensor:
#      x y z
#    x 1.936210 0.000000 -0.003940 
#    y 0.000000 1.904840 0.000000 
#    z -0.003940 0.000000 1.931970 
# 
# From -- ./inp_files/3953.got.cif
#   From: 2010.03.12/outbox.cif.g09.slc.cpg/sg4_2_cif.got.tgz:3953.got - 2010.03.31 09:31:35.
