data_PCOD8047393
_publ_section_title
;
Structure prediction by ZEFSAII (Michael W. Deem and Ramdas Pophale) SiO2 
 PCOD8047393
Probable space group: P 21
;
_chemical_formula_sum "Si O2"
_cell_formula_units_Z 16
_cell_length_a 8.290062
_cell_length_b 12.905971
_cell_length_c 9.556945
_cell_angle_alpha 90.000000
_cell_angle_beta 45.449020
_cell_angle_gamma 90.000000
_cell_volume 728.667719
_symmetry_space_group_name_H-M "P 21"
_symmetry_group_IT_number 4
_symmetry_cell_setting 'monoclinic'
loop_
_space_group_symop_operation_xyz
x,y,z
-x,1/2+y,-z
loop_
_atom_site_type_symbol
_atom_site_label
_atom_site_fract_x
_atom_site_fract_y
_atom_site_fract_z
Si Si1 0.218947 0.825180 0.854961
Si Si2 0.578496 0.541423 0.331154
Si Si3 0.838664 0.120741 0.259702
Si Si4 0.949631 0.570640 0.324205
Si Si5 0.734504 0.263230 0.856281
Si Si6 0.188391 0.454075 0.953616
Si Si7 0.334292 0.124092 0.027472
Si Si8 0.682563 0.461978 0.726395
O O1 0.280055 0.724175 0.727032
O O2 0.372130 0.918609 0.703728
O O3 0.270063 0.804755 0.984329
O O4 0.950821 0.850743 0.001159
O O5 0.322178 0.560293 0.535431
O O6 0.744871 0.595112 0.342325
O O7 0.601947 0.591843 0.166816
O O8 0.068620 0.150784 0.200253
O O9 0.899887 0.045389 0.094036
O O10 0.860672 0.520755 0.521286
O O11 0.075912 0.676843 0.284730
O O12 0.126135 0.489943 0.148617
O O13 0.794406 0.356552 0.714493
O O14 0.480836 0.224037 0.979063
O O15 0.455888 0.435292 0.775221
O O16 0.393501 0.032367 0.097855
#
# Coordination Sequence:
#
# PCOD8047393 Si02
#       8
#     2   2   2   2   2   2   2   2
#     4  11  23  49  75 106 140 201 239 293 369 434
#     4  11  25  47  75 105 143 188 250 296 352 432
#     4  12  23  46  74 105 143 190 245 295 355 434
#     4  11  24  47  73 104 143 192 242 299 353 434
#     4  12  25  48  75 104 151 194 235 297 382 424
#     4  11  22  47  73 102 148 185 244 300 346 436
#     4  12  25  46  70 109 152 184 236 308 359 424
#     4  12  25  46  71 109 146 190 239 304 364 422
#
# _framework density 21.957879999999999
#
# number of rings (size 3 to 8) (size 9 to 14) (size 15 to 20)
#    0.000    0.500    7.500    0.750    1.750    2.000 
#    9.000    0.000    0.000    0.000    0.000    0.000 
#    0.000    0.000    0.000    0.000    0.000    0.000 
#
# Total GULP energy -198484.815723 kJ/mol
# GULP energy per Si atom -12405.300983 kJ/mol
# Density = 2.190790 g / cm^3
# Si number density = 21.957880 Si / 1000 Ang^3
#
#
#
# Elastic Constant Matrix: (Units=GPa)
#
#
# Indices 1 2 3 4 5 6 
#
# 1 107.9051 32.4561 59.0586 0.0000 6.2475 0.0000
# 2 32.4561 89.8748 49.9564 0.0000 7.7708 0.0000
# 3 59.0586 49.9564 125.1996 0.0000 -5.9813 0.0000
# 4 0.0000 0.0000 0.0000 40.2434 0.0000 1.4438
# 5 6.2475 7.7708 -5.9813 0.0000 28.7884 0.0000
# 6 0.0000 0.0000 0.0000 1.4438 0.0000 47.8862
#
#
#
# Elastic Compliance Matrix: (Units=1/GPa)
#
#
# Indices 1 2 3 4 5 6 
#
# 1 0.013042 -0.001113 -0.005887 0.000000 -0.003753 0.000000
# 2 -0.001113 0.015173 -0.005771 0.000000 -0.005053 0.000000
# 3 -0.005887 -0.005771 0.013335 0.000000 0.005606 0.000000
# 4 0.000000 0.000000 0.000000 0.024876 0.000000 -0.000750
# 5 -0.003753 -0.005053 0.005606 0.000000 0.038079 0.000000
# 6 0.000000 0.000000 0.000000 -0.000750 0.000000 0.020905
#
#
# Mechanical properties :
#
#
# Convention : Reuss Voigt Hill
#
# Bulk Modulus (GPa) = 62.46920 67.32463 64.89691
# Shear Modulus (GPa) = 31.99243 35.48418 33.73831
#
# Velocity S-wave (km/s) = 3.82120 4.02433 3.92408
# Velocity P-wave (km/s) = 6.92676 7.23332 7.08170
#
# Compressibility (1/GPa) = 0.01600789
#
# Stress axis : x y z
#
# Youngs Moduli (GPa) = 76.67789 65.90674 74.99224
#
# Poissons Ratio (x) = 0.07334 0.44149
# Poissons Ratio (y) = 0.08533 0.43276
# Poissons Ratio (z) = 0.45142 0.38033
#
# Static dielectric constant tensor:
#      x y z
#    x 4.198860 0.000000 0.012370 
#    y 0.000000 3.934530 0.000000 
#    z 0.012370 0.000000 3.839760 
# 
# 
# High freq. dielectric constant tensor:
#      x y z
#    x 1.877760 0.000000 0.003980 
#    y 0.000000 1.861480 0.000000 
#    z 0.003980 0.000000 1.860330 
# 
# From -- ./inp_files/6393.got.cif
#   From: 2010.03.12/outbox.cif.g09.slc.cpg/sg4_4_cif.got.tgz:6393.got - 2010.03.31 09:31:35.
