data_PCOD8047074
_publ_section_title
;
Structure prediction by ZEFSAII (Michael W. Deem and Ramdas Pophale) SiO2 
 PCOD8047074
Probable space group: P 21
;
_chemical_formula_sum "Si O2"
_cell_formula_units_Z 16
_cell_length_a 9.866254
_cell_length_b 8.205906
_cell_length_c 12.286603
_cell_angle_alpha 90.000000
_cell_angle_beta 135.462041
_cell_angle_gamma 90.000000
_cell_volume 697.694103
_symmetry_space_group_name_H-M "P 21"
_symmetry_group_IT_number 4
_symmetry_cell_setting 'monoclinic'
loop_
_space_group_symop_operation_xyz
x,y,z
-x,1/2+y,-z
loop_
_atom_site_type_symbol
_atom_site_label
_atom_site_fract_x
_atom_site_fract_y
_atom_site_fract_z
Si Si1 0.276639 0.908210 0.141139
Si Si2 0.082460 0.241341 0.009208
Si Si3 0.071035 0.883204 0.666187
Si Si4 0.916967 0.245006 0.566489
Si Si5 0.764890 0.889517 0.111835
Si Si6 0.557978 0.098823 0.457802
Si Si7 0.607086 0.251584 0.015029
Si Si8 0.226378 0.313835 0.330127
O O1 0.453821 0.980584 0.311034
O O2 0.131356 0.051897 0.016669
O O3 0.366571 0.810980 0.092666
O O4 0.145680 0.782739 0.137903
O O5 0.126942 0.289877 0.157963
O O6 0.211086 0.349329 0.001651
O O7 0.064868 0.807270 0.544464
O O8 0.284021 0.870758 0.838509
O O9 0.926365 0.780476 0.661373
O O10 0.014174 0.069834 0.630320
O O11 0.028176 0.369582 0.710168
O O12 0.690838 0.231007 0.470287
O O13 0.686166 0.070877 0.079120
O O14 0.618129 0.761843 0.083715
O O15 0.693088 0.996734 0.615668
O O16 0.402237 0.187866 0.443965
#
# Coordination Sequence:
#
# PCOD8047074 Si02
#       8
#     2   2   2   2   2   2   2   2
#     4  11  24  45  71 105 147 187 247 296 365 434
#     4  11  24  44  70 104 140 190 240 302 365 426
#     4  11  24  46  69 102 144 189 243 298 364 430
#     4  11  26  47  71 105 144 194 241 302 363 436
#     4  12  28  45  74 107 142 193 244 303 370 431
#     4  10  26  44  70 104 144 189 238 298 356 438
#     4  12  26  47  72 107 145 191 246 305 362 435
#     4  10  24  44  67 102 142 189 235 300 357 428
#
# _framework density 22.932687999999999
#
# number of rings (size 3 to 8) (size 9 to 14) (size 15 to 20)
#    0.000    1.000    1.250    3.750   14.000    2.000 
#    0.000    0.000    0.000    0.000    0.000    0.000 
#    0.000    0.000    0.000    0.000    0.000    0.000 
#
# Total GULP energy -198456.556655 kJ/mol
# GULP energy per Si atom -12403.534791 kJ/mol
# Density = 2.288049 g / cm^3
# Si number density = 22.932688 Si / 1000 Ang^3
#
#
#
# Elastic Constant Matrix: (Units=GPa)
#
#
# Indices 1 2 3 4 5 6 
#
# 1 101.2807 25.9391 32.2236 0.0000 1.3833 0.0000
# 2 25.9391 62.9288 17.0161 0.0000 -2.5725 0.0000
# 3 32.2236 17.0161 47.0136 0.0000 11.6553 0.0000
# 4 0.0000 0.0000 0.0000 44.6538 0.0000 7.0812
# 5 1.3833 -2.5725 11.6553 0.0000 38.2822 0.0000
# 6 0.0000 0.0000 0.0000 7.0812 0.0000 32.9189
#
#
#
# Elastic Compliance Matrix: (Units=1/GPa)
#
#
# Indices 1 2 3 4 5 6 
#
# 1 0.013349 -0.003131 -0.008485 0.000000 0.001891 0.000000
# 2 -0.003131 0.018763 -0.005393 0.000000 0.003016 0.000000
# 3 -0.008485 -0.005393 0.031424 0.000000 -0.009623 0.000000
# 4 0.000000 0.000000 0.000000 0.023185 0.000000 -0.004987
# 5 0.001891 0.003016 -0.009623 0.000000 0.029186 0.000000
# 6 0.000000 0.000000 0.000000 -0.004987 0.000000 0.031451
#
#
# Mechanical properties :
#
#
# Convention : Reuss Voigt Hill
#
# Bulk Modulus (GPa) = 33.87731 40.17564 37.02647
# Shear Modulus (GPa) = 26.14852 32.24059 29.19456
#
# Velocity S-wave (km/s) = 3.38039 3.75357 3.57186
# Velocity P-wave (km/s) = 5.48093 6.02849 5.76122
#
# Compressibility (1/GPa) = 0.02951828
#
# Stress axis : x y z
#
# Youngs Moduli (GPa) = 74.91059 53.29631 31.82294
#
# Poissons Ratio (x) = 0.16686 0.27003
# Poissons Ratio (y) = 0.23453 0.17162
# Poissons Ratio (z) = 0.63564 0.28742
#
# Static dielectric constant tensor:
#      x y z
#    x 4.424800 0.000000 0.213270 
#    y 0.000000 4.201710 0.000000 
#    z 0.213270 0.000000 4.182180 
# 
# 
# High freq. dielectric constant tensor:
#      x y z
#    x 1.919870 0.000000 0.006410 
#    y 0.000000 1.909350 0.000000 
#    z 0.006410 0.000000 1.907260 
# 
# From -- ./inp_files/11090.got.cif
#   From: 2010.03.12/outbox.cif.g09.slc.cpg/sg4_6_cif.got.tgz:11090.got - 2010.03.31 09:31:35.
