data_PCOD8047432
_publ_section_title
;
Structure prediction by ZEFSAII (Michael W. Deem and Ramdas Pophale) SiO2 
 PCOD8047432
Probable space group: P 21
;
_chemical_formula_sum "Si O2"
_cell_formula_units_Z 12
_cell_length_a 16.984971
_cell_length_b 4.985489
_cell_length_c 11.624704
_cell_angle_alpha 90.000000
_cell_angle_beta 147.661860
_cell_angle_gamma 90.000000
_cell_volume 526.549454
_symmetry_space_group_name_H-M "P 21"
_symmetry_group_IT_number 4
_symmetry_cell_setting 'monoclinic'
loop_
_space_group_symop_operation_xyz
x,y,z
-x,1/2+y,-z
loop_
_atom_site_type_symbol
_atom_site_label
_atom_site_fract_x
_atom_site_fract_y
_atom_site_fract_z
Si Si1 0.837204 0.229160 0.598660
Si Si2 0.966055 0.241602 0.176337
Si Si3 0.304274 0.761655 0.017080
Si Si4 0.727082 0.146391 0.711580
Si Si5 0.402885 0.761562 0.887327
Si Si6 0.595162 0.784535 0.724204
O O1 0.768129 0.106872 0.629848
O O2 0.707779 0.309646 0.353320
O O3 0.935251 0.490551 0.739388
O O4 0.935226 0.993905 0.667100
O O5 0.866165 0.188776 0.165976
O O6 0.857909 0.310691 0.935478
O O7 0.401430 0.503762 0.169371
O O8 0.359245 0.002600 0.165830
O O9 0.319246 0.830798 0.902170
O O10 0.571166 0.298765 0.529935
O O11 0.706395 0.865489 0.756736
O O12 0.458095 0.456562 0.955479
#
# Coordination Sequence:
#
# PCOD8047432 Si02
#       6
#     2   2   2   2   2   2
#     4  12  26  42  66  97 133 174 220 270 336 400
#     4  11  25  41  63  95 134 180 214 267 331 399
#     4  11  24  45  67  99 137 175 233 274 328 403
#     4  11  23  42  65  98 136 171 222 273 333 398
#     4  12  26  46  72  99 131 175 226 287 338 389
#     4  11  24  40  71 100 131 179 221 283 336 387
#
# _framework density 22.789883
#
# number of rings (size 3 to 8) (size 9 to 14) (size 15 to 20)
#    0.000    0.667    0.000    9.000    0.000    8.000 
#    0.000    0.000    0.000    0.000    0.000    0.000 
#    0.000    0.000    0.000    0.000    0.000    0.000 
#
# Total GULP energy -148824.064228 kJ/mol
# GULP energy per Si atom -12402.005352 kJ/mol
# Density = 2.273801 g / cm^3
# Si number density = 22.789883 Si / 1000 Ang^3
#
#
#
# Elastic Constant Matrix: (Units=GPa)
#
#
# Indices 1 2 3 4 5 6 
#
# 1 138.8541 1.6421 53.7724 0.0000 -19.0230 0.0000
# 2 1.6421 85.5207 21.1785 0.0000 11.4758 0.0000
# 3 53.7724 21.1785 99.8438 0.0000 5.2823 0.0000
# 4 0.0000 0.0000 0.0000 36.7035 0.0000 5.4999
# 5 -19.0230 11.4758 5.2823 0.0000 30.0368 0.0000
# 6 0.0000 0.0000 0.0000 5.4999 0.0000 31.9426
#
#
#
# Elastic Compliance Matrix: (Units=1/GPa)
#
#
# Indices 1 2 3 4 5 6 
#
# 1 0.010665 0.000297 -0.006216 0.000000 0.007734 0.000000
# 2 0.000297 0.012924 -0.002675 0.000000 -0.004279 0.000000
# 3 -0.006216 -0.002675 0.014217 0.000000 -0.005415 0.000000
# 4 0.000000 0.000000 0.000000 0.027967 0.000000 -0.004815
# 5 0.007734 -0.004279 -0.005415 0.000000 0.040778 0.000000
# 6 0.000000 0.000000 0.000000 -0.004815 0.000000 0.032135
#
#
# Mechanical properties :
#
#
# Convention : Reuss Voigt Hill
#
# Bulk Modulus (GPa) = 48.50079 53.04493 50.77286
# Shear Modulus (GPa) = 30.72247 36.24495 33.48371
#
# Velocity S-wave (km/s) = 3.67560 3.99230 3.83722
# Velocity P-wave (km/s) = 6.27226 6.67664 6.47761
#
# Compressibility (1/GPa) = 0.02061822
#
# Stress axis : x y z
#
# Youngs Moduli (GPa) = 93.76401 77.37534 70.33729
#
# Poissons Ratio (x) = -0.02296 0.43721
# Poissons Ratio (y) = -0.02782 0.18814
# Poissons Ratio (z) = 0.58283 0.20696
#
# Static dielectric constant tensor:
#      x y z
#    x 4.263650 0.000000 0.136440 
#    y 0.000000 4.088090 0.000000 
#    z 0.136440 0.000000 4.141720 
# 
# 
# High freq. dielectric constant tensor:
#      x y z
#    x 1.903530 0.000000 0.006600 
#    y 0.000000 1.903610 0.000000 
#    z 0.006600 0.000000 1.902230 
# 
# From -- ./inp_files/12831.got.cif
#   From: 2010.03.12/outbox.cif.g09.slc.cpg/sg4_7_cif.got.tgz:12831.got - 2010.03.31 09:31:35.
