data_PCOD8047958
_publ_section_title
;
Structure prediction by ZEFSAII (Michael W. Deem and Ramdas Pophale) SiO2 
 PCOD8047958
Probable space group: P 21
;
_chemical_formula_sum "Si O2"
_cell_formula_units_Z 16
_cell_length_a 5.669024
_cell_length_b 6.968560
_cell_length_c 17.354452
_cell_angle_alpha 90.000000
_cell_angle_beta 87.696815
_cell_angle_gamma 90.000000
_cell_volume 685.032637
_symmetry_space_group_name_H-M "P 21"
_symmetry_group_IT_number 4
_symmetry_cell_setting 'monoclinic'
loop_
_space_group_symop_operation_xyz
x,y,z
-x,1/2+y,-z
loop_
_atom_site_type_symbol
_atom_site_label
_atom_site_fract_x
_atom_site_fract_y
_atom_site_fract_z
Si Si1 0.741481 0.405190 0.565247
Si Si2 0.495693 0.338251 0.812727
Si Si3 0.765670 0.169268 0.937988
Si Si4 0.975441 0.849795 0.831800
Si Si5 0.235995 0.177536 0.577365
Si Si6 0.301572 0.163244 0.289972
Si Si7 0.645164 0.491360 0.273592
Si Si8 0.121632 0.492034 0.913822
O O1 0.486177 0.297689 0.578706
O O2 0.722985 0.512487 0.484973
O O3 0.780803 0.561924 0.631350
O O4 0.987294 0.283953 0.561886
O O5 0.556485 0.287217 0.901061
O O6 0.649448 0.509391 0.777293
O O7 0.522466 0.166456 0.751404
O O8 0.234966 0.421902 0.831346
O O9 0.974189 0.319791 0.952647
O O10 0.823625 0.015946 0.871375
O O11 0.702771 0.068745 0.020147
O O12 0.893749 0.798528 0.745841
O O13 0.965588 0.673033 0.890467
O O14 0.232036 0.935662 0.809197
O O15 0.192757 0.077114 0.660461
O O16 0.517097 0.303595 0.308619
#
# Coordination Sequence:
#
# PCOD8047958 Si02
#       8
#     2   2   2   2   2   2   2   2
#     4  12  29  51  80 116 161 204 254 311 377 454
#     4  12  26  46  70 108 142 186 250 308 370 450
#     4  12  26  44  69 101 142 188 244 310 377 447
#     4  12  26  42  74 102 142 194 246 308 380 446
#     4  12  29  51  80 116 161 204 254 311 377 454
#     4  12  27  45  76 109 148 194 248 309 380 443
#     4  12  27  45  76 109 148 194 248 309 380 443
#     4  12  26  44  69 101 142 188 244 310 377 447
#
# _framework density 23.356552000000001
#
# number of rings (size 3 to 8) (size 9 to 14) (size 15 to 20)
#    0.000    0.000    7.500    1.500    8.750    3.000 
#    0.000    0.000    0.000    0.000    0.000    0.000 
#    0.000    0.000    0.000    0.000    0.000    0.000 
#
# Total GULP energy -198210.809192 kJ/mol
# GULP energy per Si atom -12388.175574 kJ/mol
# Density = 2.330339 g / cm^3
# Si number density = 23.356552 Si / 1000 Ang^3
#
#
#
# Elastic Constant Matrix: (Units=GPa)
#
#
# Indices 1 2 3 4 5 6 
#
# 1 80.1248 26.6844 13.4141 0.0000 1.9144 0.0000
# 2 26.6844 113.3319 40.2473 0.0000 2.7433 0.0000
# 3 13.4141 40.2473 110.4908 0.0000 14.3533 0.0000
# 4 0.0000 0.0000 0.0000 51.4642 0.0000 10.3115
# 5 1.9144 2.7433 14.3533 0.0000 40.3290 0.0000
# 6 0.0000 0.0000 0.0000 10.3115 0.0000 35.6457
#
#
#
# Elastic Compliance Matrix: (Units=1/GPa)
#
#
# Indices 1 2 3 4 5 6 
#
# 1 0.013575 -0.003005 -0.000520 0.000000 -0.000255 0.000000
# 2 -0.003005 0.010817 -0.003668 0.000000 0.000712 0.000000
# 3 -0.000520 -0.003668 0.010919 0.000000 -0.003612 0.000000
# 4 0.000000 0.000000 0.000000 0.020627 0.000000 -0.005967
# 5 -0.000255 0.000712 -0.003612 0.000000 0.026045 0.000000
# 6 0.000000 0.000000 0.000000 -0.005967 0.000000 0.029780
#
#
# Mechanical properties :
#
#
# Convention : Reuss Voigt Hill
#
# Bulk Modulus (GPa) = 47.79290 51.62657 49.70973
# Shear Modulus (GPa) = 37.55938 40.39455 38.97696
#
# Velocity S-wave (km/s) = 4.01445 4.16321 4.08950
# Velocity P-wave (km/s) = 6.48031 6.72766 6.60514
#
# Compressibility (1/GPa) = 0.02092361
#
# Stress axis : x y z
#
# Youngs Moduli (GPa) = 73.66715 92.45131 91.58454
#
# Poissons Ratio (x) = 0.27784 0.04764
# Poissons Ratio (y) = 0.22139 0.33590
# Poissons Ratio (z) = 0.03832 0.33908
#
# Static dielectric constant tensor:
#      x y z
#    x 4.029860 0.000000 0.116520 
#    y 0.000000 4.476070 0.000000 
#    z 0.116520 0.000000 4.186090 
# 
# 
# High freq. dielectric constant tensor:
#      x y z
#    x 1.907650 0.000000 0.010620 
#    y 0.000000 1.950130 0.000000 
#    z 0.010620 0.000000 1.933820 
# 
# From -- ./inp_files/3959.got.cif
#   From: 2010.03.12/outbox.cif.g09.slc.cpg/sg4_2_cif.got.tgz:3959.got - 2010.03.31 09:31:35.
