data_PCOD8047288
_publ_section_title
;
Structure prediction by ZEFSAII (Michael W. Deem and Ramdas Pophale) SiO2 
 PCOD8047288
Probable space group: P 21
;
_chemical_formula_sum "Si O2"
_cell_formula_units_Z 12
_cell_length_a 12.239119
_cell_length_b 8.860871
_cell_length_c 8.567252
_cell_angle_alpha 90.000000
_cell_angle_beta 146.029882
_cell_angle_gamma 90.000000
_cell_volume 519.151093
_symmetry_space_group_name_H-M "P 21"
_symmetry_group_IT_number 4
_symmetry_cell_setting 'monoclinic'
loop_
_space_group_symop_operation_xyz
x,y,z
-x,1/2+y,-z
loop_
_atom_site_type_symbol
_atom_site_label
_atom_site_fract_x
_atom_site_fract_y
_atom_site_fract_z
Si Si1 0.223158 0.850730 0.588415
Si Si2 0.024516 0.586006 0.896441
Si Si3 0.544031 0.802916 0.749679
Si Si4 0.405264 0.490019 0.463156
Si Si5 0.752737 0.346536 0.017350
Si Si6 0.917606 0.652210 0.095005
O O1 0.452759 0.839344 0.811194
O O2 0.203398 0.853123 0.748377
O O3 0.131198 0.696845 0.410112
O O4 0.120725 0.996741 0.389832
O O5 0.165369 0.692131 0.958503
O O6 0.169375 0.470536 0.165166
O O7 0.904263 0.673408 0.890081
O O8 0.440940 0.662817 0.543792
O O9 0.499590 0.950142 0.592635
O O10 0.774327 0.765067 0.022775
O O11 0.517793 0.376005 0.716460
O O12 0.872408 0.480059 0.078625
#
# Coordination Sequence:
#
# PCOD8047288 Si02
#       6
#     2   2   2   2   2   2
#     4  12  24  46  68 103 143 175 229 291 357 396
#     4  12  23  45  75  98 137 191 232 282 334 426
#     4  11  23  43  69 101 133 182 233 283 335 421
#     4  11  21  43  69  98 131 183 238 270 335 414
#     4  11  26  44  66 107 141 176 230 293 353 397
#     4  11  23  45  73  97 135 181 240 279 338 420
#
# _framework density 23.114659
#
# number of rings (size 3 to 8) (size 9 to 14) (size 15 to 20)
#    0.000    0.667    5.000    4.000    0.000    0.000 
#    9.000    0.000    0.000    0.000    0.000    0.000 
#    0.000    0.000    0.000    0.000    0.000    0.000 
#
# Total GULP energy -148658.399782 kJ/mol
# GULP energy per Si atom -12388.199982 kJ/mol
# Density = 2.306205 g / cm^3
# Si number density = 23.114659 Si / 1000 Ang^3
#
#
#
# Elastic Constant Matrix: (Units=GPa)
#
#
# Indices 1 2 3 4 5 6 
#
# 1 151.8941 40.2172 58.3945 0.0000 -10.6519 0.0000
# 2 40.2172 85.1987 26.0872 0.0000 0.4825 0.0000
# 3 58.3945 26.0872 84.1663 0.0000 -8.2431 0.0000
# 4 0.0000 0.0000 0.0000 29.5991 0.0000 0.6811
# 5 -10.6519 0.4825 -8.2431 0.0000 38.5059 0.0000
# 6 0.0000 0.0000 0.0000 0.6811 0.0000 27.7994
#
#
#
# Elastic Compliance Matrix: (Units=1/GPa)
#
#
# Indices 1 2 3 4 5 6 
#
# 1 0.009602 -0.002813 -0.005645 0.000000 0.001483 0.000000
# 2 -0.002813 0.013833 -0.002481 0.000000 -0.001483 0.000000
# 3 -0.005645 -0.002481 0.016769 0.000000 0.002059 0.000000
# 4 0.000000 0.000000 0.000000 0.033804 0.000000 -0.000828
# 5 0.001483 -0.001483 0.002059 0.000000 0.026840 0.000000
# 6 0.000000 0.000000 0.000000 -0.000828 0.000000 0.035992
#
#
# Mechanical properties :
#
#
# Convention : Reuss Voigt Hill
#
# Bulk Modulus (GPa) = 54.56757 63.40633 58.98695
# Shear Modulus (GPa) = 30.33485 32.28491 31.30988
#
# Velocity S-wave (km/s) = 3.62659 3.74134 3.68441
# Velocity P-wave (km/s) = 6.41832 6.79369 6.60867
#
# Compressibility (1/GPa) = 0.01832590
#
# Stress axis : x y z
#
# Youngs Moduli (GPa) = 104.13965 72.29029 59.63527
#
# Poissons Ratio (x) = 0.20333 0.33665
# Poissons Ratio (y) = 0.29291 0.14797
# Poissons Ratio (z) = 0.58789 0.17938
#
# Static dielectric constant tensor:
#      x y z
#    x 4.278080 0.000000 0.344950 
#    y 0.000000 4.189490 0.000000 
#    z 0.344950 0.000000 4.283800 
# 
# 
# High freq. dielectric constant tensor:
#      x y z
#    x 1.914120 0.000000 0.014940 
#    y 0.000000 1.917530 0.000000 
#    z 0.014940 0.000000 1.899630 
# 
# From -- ./inp_files/7587.got.cif
#   From: 2010.03.12/outbox.cif.g09.slc.cpg/sg4_4_cif.got.tgz:7587.got - 2010.03.31 09:31:35.
