data_PCOD8047681
_publ_section_title
;
Structure prediction by ZEFSAII (Michael W. Deem and Ramdas Pophale) SiO2 
 PCOD8047681
Probable space group: P 21
;
_chemical_formula_sum "Si O2"
_cell_formula_units_Z 16
_cell_length_a 5.656181
_cell_length_b 8.726842
_cell_length_c 14.419984
_cell_angle_alpha 90.000000
_cell_angle_beta 106.026731
_cell_angle_gamma 90.000000
_cell_volume 684.114312
_symmetry_space_group_name_H-M "P 21"
_symmetry_group_IT_number 4
_symmetry_cell_setting 'monoclinic'
loop_
_space_group_symop_operation_xyz
x,y,z
-x,1/2+y,-z
loop_
_atom_site_type_symbol
_atom_site_label
_atom_site_fract_x
_atom_site_fract_y
_atom_site_fract_z
Si Si1 0.763258 0.172600 0.986792
Si Si2 0.962833 0.608571 0.229080
Si Si3 0.441452 0.713976 0.371350
Si Si4 0.446054 0.322178 0.807108
Si Si5 0.398018 0.676816 0.832091
Si Si6 0.172728 0.376288 0.103159
Si Si7 0.504051 0.869985 0.565808
Si Si8 0.082916 0.831908 0.662121
O O1 0.690205 0.256729 0.882933
O O2 0.751859 0.989629 0.972249
O O3 0.592995 0.207389 0.056803
O O4 0.030911 0.233498 0.043348
O O5 0.182642 0.709193 0.291600
O O6 0.025655 0.482455 0.158504
O O7 0.772837 0.730327 0.164335
O O8 0.857466 0.507351 0.303229
O O9 0.609803 0.777449 0.306130
O O10 0.436754 0.838344 0.452210
O O11 0.518511 0.550896 0.421093
O O12 0.456430 0.502549 0.816874
O O13 0.599636 0.799316 0.816151
O O14 0.139805 0.717486 0.754536
O O15 0.283166 0.790285 0.602557
O O16 0.788596 0.811432 0.610397
#
# Coordination Sequence:
#
# PCOD8047681 Si02
#       8
#     2   2   2   2   2   2   2   2
#     4  12  27  43  73 107 151 201 260 315 391 471
#     4  11  24  49  76 100 151 202 251 324 391 460
#     4  11  26  49  73 111 153 196 255 321 393 465
#     4  12  27  45  73 110 152 199 259 323 390 467
#     4  12  27  44  73 108 150 199 260 322 385 478
#     4  12  26  47  73 107 154 205 258 319 395 466
#     4  11  27  46  78 110 149 202 255 323 395 465
#     4  11  24  49  75 107 148 202 252 319 392 462
#
# _framework density 23.387906999999998
#
# number of rings (size 3 to 8) (size 9 to 14) (size 15 to 20)
#    0.000    0.500    3.750    3.750    8.750    2.000 
#    0.000    0.000    0.000    0.000    0.000    0.000 
#    0.000    0.000    0.000    0.000    0.000    0.000 
#
# Total GULP energy -198266.064396 kJ/mol
# GULP energy per Si atom -12391.629025 kJ/mol
# Density = 2.333467 g / cm^3
# Si number density = 23.387907 Si / 1000 Ang^3
#
#
#
# Elastic Constant Matrix: (Units=GPa)
#
#
# Indices 1 2 3 4 5 6 
#
# 1 100.6484 32.2951 28.3145 0.0000 -6.6629 0.0000
# 2 32.2951 127.0620 38.1288 0.0000 1.0611 0.0000
# 3 28.3145 38.1288 126.8518 0.0000 -16.4122 0.0000
# 4 0.0000 0.0000 0.0000 49.8319 0.0000 4.3655
# 5 -6.6629 1.0611 -16.4122 0.0000 29.7357 0.0000
# 6 0.0000 0.0000 0.0000 4.3655 0.0000 32.9335
#
#
#
# Elastic Compliance Matrix: (Units=1/GPa)
#
#
# Indices 1 2 3 4 5 6 
#
# 1 0.011264 -0.002408 -0.001564 0.000000 0.001746 0.000000
# 2 -0.002408 0.009264 -0.002541 0.000000 -0.002273 0.000000
# 3 -0.001564 -0.002541 0.009652 0.000000 0.005067 0.000000
# 4 0.000000 0.000000 0.000000 0.020303 0.000000 -0.002691
# 5 0.001746 -0.002273 0.005067 0.000000 0.036899 0.000000
# 6 0.000000 0.000000 0.000000 -0.002691 0.000000 0.030721
#
#
# Mechanical properties :
#
#
# Convention : Reuss Voigt Hill
#
# Bulk Modulus (GPa) = 58.30076 61.33767 59.81921
# Shear Modulus (GPa) = 36.53714 39.55514 38.04614
#
# Velocity S-wave (km/s) = 3.95679 4.11696 4.03767
# Velocity P-wave (km/s) = 6.77176 6.99159 6.88255
#
# Compressibility (1/GPa) = 0.01715244
#
# Stress axis : x y z
#
# Youngs Moduli (GPa) = 88.77853 107.94811 103.60765
#
# Poissons Ratio (x) = 0.25995 0.16209
# Poissons Ratio (y) = 0.21378 0.26327
# Poissons Ratio (z) = 0.13889 0.27430
#
# Static dielectric constant tensor:
#      x y z
#    x 4.317990 0.000000 -0.139810 
#    y 0.000000 4.162420 0.000000 
#    z -0.139810 0.000000 4.325990 
# 
# 
# High freq. dielectric constant tensor:
#      x y z
#    x 1.926540 0.000000 -0.004050 
#    y 0.000000 1.922870 0.000000 
#    z -0.004050 0.000000 1.931820 
# 
# From -- ./inp_files/3421.got.cif
#   From: 2010.03.12/outbox.cif.g09.slc.cpg/sg4_2_cif.got.tgz:3421.got - 2010.03.31 09:31:35.
