data_PCOD8047219
_publ_section_title
;
Structure prediction by ZEFSAII (Michael W. Deem and Ramdas Pophale) SiO2 
 PCOD8047219
Probable space group: P 21
;
_chemical_formula_sum "Si O2"
_cell_formula_units_Z 14
_cell_length_a 14.237632
_cell_length_b 7.547872
_cell_length_c 14.389689
_cell_angle_alpha 90.000000
_cell_angle_beta 19.976170
_cell_angle_gamma 90.000000
_cell_volume 528.285620
_symmetry_space_group_name_H-M "P 21"
_symmetry_group_IT_number 4
_symmetry_cell_setting 'monoclinic'
loop_
_space_group_symop_operation_xyz
x,y,z
-x,1/2+y,-z
loop_
_atom_site_type_symbol
_atom_site_label
_atom_site_fract_x
_atom_site_fract_y
_atom_site_fract_z
Si Si1 0.084557 0.536070 0.396004
Si Si2 0.338056 0.175033 0.087591
Si Si3 0.741523 0.338841 0.214808
Si Si4 0.469849 0.476317 0.640585
Si Si5 0.826694 0.950077 0.326979
Si Si6 0.155236 0.275988 0.065979
Si Si7 0.112183 0.120966 0.615209
O O1 0.197873 0.345031 0.265195
O O2 0.867176 0.520189 0.683968
O O3 0.903662 0.622884 0.481173
O O4 0.346454 0.658642 0.176059
O O5 0.341984 0.183668 0.971725
O O6 0.716387 0.411529 0.343593
O O7 0.499744 0.426807 0.377412
O O8 0.713063 0.124983 0.242034
O O9 0.035420 0.396072 0.900250
O O10 0.589725 0.564116 0.623272
O O11 0.302703 0.300872 0.828563
O O12 0.957223 0.816725 0.281929
O O13 0.889493 0.151831 0.297588
O O14 0.097542 0.474751 0.152304
#
# Coordination Sequence:
#
# PCOD8047219 Si02
#       7
#     2   2   2   2   2   2   2
#     4  11  26  47  72 107 144 187 240 297 360 430
#     4  11  27  45  74 107 143 190 237 298 363 430
#     4  11  26  45  72 106 142 193 239 297 357 426
#     4  11  25  46  73 104 149 187 245 297 359 428
#     4  11  26  45  70 107 141 190 239 292 361 424
#     4  11  26  45  74 103 146 187 241 297 360 428
#     4  10  26  47  71 102 149 186 239 298 358 424
#
# _framework density 26.500817999999999
#
# number of rings (size 3 to 8) (size 9 to 14) (size 15 to 20)
#    0.000    1.143    1.429    1.714   18.000    0.000 
#    0.000    0.000    0.000    0.000    0.000    0.000 
#    0.000    0.000    0.000    0.000    0.000    0.000 
#
# Total GULP energy -173592.606262 kJ/mol
# GULP energy per Si atom -12399.471876 kJ/mol
# Density = 2.644050 g / cm^3
# Si number density = 26.500818 Si / 1000 Ang^3
#
#
#
# Elastic Constant Matrix: (Units=GPa)
#
#
# Indices 1 2 3 4 5 6 
#
# 1 88.8464 22.6841 -4.4169 0.0000 3.2176 0.0000
# 2 22.6841 71.3299 -5.8468 0.0000 -4.1540 0.0000
# 3 -4.4169 -5.8468 52.7387 0.0000 1.4767 0.0000
# 4 0.0000 0.0000 0.0000 40.1551 0.0000 0.5407
# 5 3.2176 -4.1540 1.4767 0.0000 37.3983 0.0000
# 6 0.0000 0.0000 0.0000 0.5407 0.0000 42.6967
#
#
#
# Elastic Compliance Matrix: (Units=1/GPa)
#
#
# Indices 1 2 3 4 5 6 
#
# 1 0.012355 -0.003966 0.000638 0.000000 -0.001529 0.000000
# 2 -0.003966 0.015507 0.001331 0.000000 0.002011 0.000000
# 3 0.000638 0.001331 0.019181 0.000000 -0.000664 0.000000
# 4 0.000000 0.000000 0.000000 0.024908 0.000000 -0.000315
# 5 -0.001529 0.002011 -0.000664 0.000000 0.027120 0.000000
# 6 0.000000 0.000000 0.000000 -0.000315 0.000000 0.023425
#
#
# Mechanical properties :
#
#
# Convention : Reuss Voigt Hill
#
# Bulk Modulus (GPa) = 23.22979 26.41731 24.82355
# Shear Modulus (GPa) = 35.50137 37.41633 36.45885
#
# Velocity S-wave (km/s) = 3.66407 3.76159 3.71315
# Velocity P-wave (km/s) = 5.16578 5.37180 5.26980
#
# Compressibility (1/GPa) = 0.04304817
#
# Stress axis : x y z
#
# Youngs Moduli (GPa) = 80.93888 64.48805 52.13503
#
# Poissons Ratio (x) = 0.25575 -0.03326
# Poissons Ratio (y) = 0.32099 -0.06938
# Poissons Ratio (z) = -0.05163 -0.08581
#
# Static dielectric constant tensor:
#      x y z
#    x 4.989610 0.000000 0.157540 
#    y 0.000000 4.835020 0.000000 
#    z 0.157540 0.000000 4.482470 
# 
# 
# High freq. dielectric constant tensor:
#      x y z
#    x 2.070850 0.000000 -0.004370 
#    y 0.000000 2.073910 0.000000 
#    z -0.004370 0.000000 2.049310 
# 
# From -- ./inp_files/13239.got.cif
#   From: 2010.03.12/outbox.cif.g09.slc.cpg/sg4_7_cif.got.tgz:13239.got - 2010.03.31 09:31:35.
