data_PCOD8047448
_publ_section_title
;
Structure prediction by ZEFSAII (Michael W. Deem and Ramdas Pophale) SiO2 
 PCOD8047448
Probable space group: P 21
;
_chemical_formula_sum "Si O2"
_cell_formula_units_Z 16
_cell_length_a 12.554838
_cell_length_b 8.349673
_cell_length_c 9.344193
_cell_angle_alpha 90.000000
_cell_angle_beta 41.903461
_cell_angle_gamma 90.000000
_cell_volume 654.213050
_symmetry_space_group_name_H-M "P 21"
_symmetry_group_IT_number 4
_symmetry_cell_setting 'monoclinic'
loop_
_space_group_symop_operation_xyz
x,y,z
-x,1/2+y,-z
loop_
_atom_site_type_symbol
_atom_site_label
_atom_site_fract_x
_atom_site_fract_y
_atom_site_fract_z
Si Si1 0.970043 0.582420 0.220240
Si Si2 0.880068 0.776238 0.056804
Si Si3 0.533362 0.770645 0.508323
Si Si4 0.385154 0.958896 0.427681
Si Si5 0.880070 0.276235 0.683060
Si Si6 0.029957 0.582422 0.660328
Si Si7 0.533362 0.270645 0.924953
Si Si8 0.614843 0.958899 0.697992
O O1 0.079166 0.453255 0.033202
O O2 0.053003 0.636132 0.282562
O O3 0.795738 0.508629 0.420306
O O4 0.954143 0.742232 0.139429
O O5 0.947001 0.636138 0.888565
O O6 0.690411 0.761179 0.253272
O O7 0.390686 0.813478 0.539546
O O8 0.506433 0.601996 0.615658
O O9 0.541676 0.909204 0.619653
O O10 0.458324 0.909203 0.203007
O O11 0.920836 0.453249 0.691541
O O12 0.690413 0.261179 0.865899
O O13 0.954153 0.242230 0.452281
O O14 0.204267 0.508641 0.511777
O O15 0.506428 0.101997 0.871483
O O16 0.390688 0.313480 0.179081
#
# Coordination Sequence:
#
# PCOD8047448 Si02
#       8
#     2   2   2   2   2   2   2   2
#     4  11  23  43  66  96 135 180 232 290 347 411
#     4  11  24  42  68  98 132 180 232 288 348 412
#     4  11  25  43  68  98 136 182 231 286 346 411
#     4  11  24  44  66 100 139 182 231 288 345 414
#     4  11  24  42  68  98 132 180 232 288 348 412
#     4  11  23  43  66  96 135 180 232 290 347 411
#     4  11  25  43  68  98 136 182 231 286 346 411
#     4  11  24  44  66 100 139 182 231 288 345 414
#
# _framework density 24.456866999999999
#
# number of rings (size 3 to 8) (size 9 to 14) (size 15 to 20)
#    0.000    1.000    0.000    7.500    0.000   10.000 
#    0.000    0.000    0.000    0.000    0.000    0.000 
#    0.000    0.000    0.000    0.000    0.000    0.000 
#
# Total GULP energy -198459.690961 kJ/mol
# GULP energy per Si atom -12403.730685 kJ/mol
# Density = 2.440120 g / cm^3
# Si number density = 24.456867 Si / 1000 Ang^3
#
#
#
# Elastic Constant Matrix: (Units=GPa)
#
#
# Indices 1 2 3 4 5 6 
#
# 1 115.4666 19.4433 24.1441 0.0000 12.3848 0.0000
# 2 19.4433 72.6855 21.7282 0.0000 -7.5558 0.0000
# 3 24.1441 21.7282 105.9152 0.0000 19.1846 0.0000
# 4 0.0000 0.0000 0.0000 43.8407 0.0000 6.2595
# 5 12.3848 -7.5558 19.1846 0.0000 21.3161 0.0000
# 6 0.0000 0.0000 0.0000 6.2595 0.0000 45.7333
#
#
#
# Elastic Compliance Matrix: (Units=1/GPa)
#
#
# Indices 1 2 3 4 5 6 
#
# 1 0.009998 -0.003230 -0.000426 0.000000 -0.006570 0.000000
# 2 -0.003230 0.017484 -0.005153 0.000000 0.012712 0.000000
# 3 -0.000426 -0.005153 0.013001 0.000000 -0.013280 0.000000
# 4 0.000000 0.000000 0.000000 0.023264 0.000000 -0.003184
# 5 -0.006570 0.012712 -0.013280 0.000000 0.067188 0.000000
# 6 0.000000 0.000000 0.000000 -0.003184 0.000000 0.022302
#
#
# Mechanical properties :
#
#
# Convention : Reuss Voigt Hill
#
# Bulk Modulus (GPa) = 43.73609 47.18874 45.46242
# Shear Modulus (GPa) = 28.01470 37.42815 32.72142
#
# Velocity S-wave (km/s) = 3.38816 3.91624 3.66173
# Velocity P-wave (km/s) = 5.76437 6.30760 6.04209
#
# Compressibility (1/GPa) = 0.02286441
#
# Stress axis : x y z
#
# Youngs Moduli (GPa) = 100.01702 57.19607 76.91568
#
# Poissons Ratio (x) = 0.18474 0.03280
# Poissons Ratio (y) = 0.32306 0.39634
# Poissons Ratio (z) = 0.04266 0.29473
#
# Static dielectric constant tensor:
#      x y z
#    x 4.464810 0.000000 0.303190 
#    y 0.000000 4.642070 0.000000 
#    z 0.303190 0.000000 4.373060 
# 
# 
# High freq. dielectric constant tensor:
#      x y z
#    x 1.974260 0.000000 0.021810 
#    y 0.000000 1.986080 0.000000 
#    z 0.021810 0.000000 1.967660 
# 
# From -- ./inp_files/7958.got.cif
#   From: 2010.03.12/outbox.cif.g09.slc.cpg/sg4_4_cif.got.tgz:7958.got - 2010.03.31 09:31:35.
