data_PCOD8047468
_publ_section_title
;
Structure prediction by ZEFSAII (Michael W. Deem and Ramdas Pophale) SiO2 
 PCOD8047468
Probable space group: P 21
;
_chemical_formula_sum "Si O2"
_cell_formula_units_Z 16
_cell_length_a 18.007921
_cell_length_b 8.537159
_cell_length_c 9.210052
_cell_angle_alpha 90.000000
_cell_angle_beta 151.262300
_cell_angle_gamma 90.000000
_cell_volume 680.775599
_symmetry_space_group_name_H-M "P 21"
_symmetry_group_IT_number 4
_symmetry_cell_setting 'monoclinic'
loop_
_space_group_symop_operation_xyz
x,y,z
-x,1/2+y,-z
loop_
_atom_site_type_symbol
_atom_site_label
_atom_site_fract_x
_atom_site_fract_y
_atom_site_fract_z
Si Si1 0.711657 0.520150 0.757565
Si Si2 0.481608 0.396923 0.851100
Si Si3 0.985690 0.456004 0.812889
Si Si4 0.430911 0.451951 0.080990
Si Si5 0.778964 0.229737 0.265724
Si Si6 0.465046 0.136617 0.286949
Si Si7 0.211924 0.691792 0.043910
Si Si8 0.824181 0.718703 0.713452
O O1 0.552596 0.532692 0.395976
O O2 0.673526 0.551474 0.862430
O O3 0.804836 0.356482 0.898614
O O4 0.820325 0.651735 0.872228
O O5 0.448378 0.549736 0.697768
O O6 0.340186 0.278766 0.620560
O O7 0.523827 0.435886 0.089037
O O8 0.621505 0.324553 0.002476
O O9 0.901549 0.320119 0.575927
O O10 0.870438 0.587794 0.675363
O O11 0.117491 0.547094 0.948358
O O12 0.059776 0.366155 0.077813
O O13 0.385308 0.289112 0.079991
O O14 0.272981 0.551385 0.779888
O O15 0.846626 0.219026 0.219984
O O16 0.603026 0.163560 0.638654
#
# Coordination Sequence:
#
# PCOD8047468 Si02
#       8
#     2   2   2   2   2   2   2   2
#     4  11  23  45  78 111 146 193 263 319 374 444
#     4  12  24  46  75 111 144 194 256 320 374 446
#     4  12  30  48  73 109 160 206 251 307 390 470
#     4  11  25  40  75 113 148 185 252 326 379 429
#     4  12  26  47  74 110 149 192 255 322 374 438
#     4  11  23  43  78 114 143 196 256 321 379 443
#     4  11  24  48  73 106 155 204 248 308 386 462
#     4  12  27  49  74 106 151 206 257 305 388 460
#
# _framework density 23.502606
#
# number of rings (size 3 to 8) (size 9 to 14) (size 15 to 20)
#    0.000    0.500    5.000    2.250    7.000    3.000 
#    2.250    0.000    0.000    0.000    0.000    0.000 
#    0.000    0.000    0.000    0.000    0.000    0.000 
#
# Total GULP energy -198287.069517 kJ/mol
# GULP energy per Si atom -12392.941845 kJ/mol
# Density = 2.344911 g / cm^3
# Si number density = 23.502606 Si / 1000 Ang^3
#
#
#
# Elastic Constant Matrix: (Units=GPa)
#
#
# Indices 1 2 3 4 5 6 
#
# 1 108.1428 45.4356 29.6090 0.0000 -15.5508 0.0000
# 2 45.4356 131.2050 37.4265 0.0000 1.4079 0.0000
# 3 29.6090 37.4265 62.9324 0.0000 -4.9104 0.0000
# 4 0.0000 0.0000 0.0000 46.9175 0.0000 2.4067
# 5 -15.5508 1.4079 -4.9104 0.0000 29.3605 0.0000
# 6 0.0000 0.0000 0.0000 2.4067 0.0000 47.6498
#
#
#
# Elastic Compliance Matrix: (Units=1/GPa)
#
#
# Indices 1 2 3 4 5 6 
#
# 1 0.012506 -0.003442 -0.003351 0.000000 0.006229 0.000000
# 2 -0.003442 0.010181 -0.004677 0.000000 -0.003093 0.000000
# 3 -0.003351 -0.004677 0.020393 0.000000 0.001860 0.000000
# 4 0.000000 0.000000 0.000000 0.021369 0.000000 -0.001079
# 5 0.006229 -0.003093 0.001860 0.000000 0.037818 0.000000
# 6 0.000000 0.000000 0.000000 -0.001079 0.000000 0.021041
#
#
# Mechanical properties :
#
#
# Convention : Reuss Voigt Hill
#
# Bulk Modulus (GPa) = 49.65017 58.58028 54.11523
# Shear Modulus (GPa) = 32.68806 37.43948 35.06377
#
# Velocity S-wave (km/s) = 3.73343 3.99556 3.86672
# Velocity P-wave (km/s) = 6.30523 6.80185 6.55824
#
# Compressibility (1/GPa) = 0.02014092
#
# Stress axis : x y z
#
# Youngs Moduli (GPa) = 79.95993 98.22481 49.03613
#
# Poissons Ratio (x) = 0.33806 0.16433
# Poissons Ratio (y) = 0.27520 0.22932
# Poissons Ratio (z) = 0.26796 0.45936
#
# Static dielectric constant tensor:
#      x y z
#    x 4.168650 0.000000 -0.009270 
#    y 0.000000 4.568350 0.000000 
#    z -0.009270 0.000000 3.885780 
# 
# 
# High freq. dielectric constant tensor:
#      x y z
#    x 1.931610 0.000000 -0.009850 
#    y 0.000000 1.951070 0.000000 
#    z -0.009850 0.000000 1.905720 
# 
# From -- ./inp_files/9654.got.cif
#   From: 2010.03.12/outbox.cif.g09.slc.cpg/sg4_5_cif.got.tgz:9654.got - 2010.03.31 09:31:35.
