data_PCOD8047714
_publ_section_title
;
Structure prediction by ZEFSAII (Michael W. Deem and Ramdas Pophale) SiO2 
 PCOD8047714
Probable space group: P 21
;
_chemical_formula_sum "Si O2"
_cell_formula_units_Z 16
_cell_length_a 13.816322
_cell_length_b 8.532782
_cell_length_c 9.988117
_cell_angle_alpha 90.000000
_cell_angle_beta 37.285874
_cell_angle_gamma 90.000000
_cell_volume 713.329917
_symmetry_space_group_name_H-M "P 21"
_symmetry_group_IT_number 4
_symmetry_cell_setting 'monoclinic'
loop_
_space_group_symop_operation_xyz
x,y,z
-x,1/2+y,-z
loop_
_atom_site_type_symbol
_atom_site_label
_atom_site_fract_x
_atom_site_fract_y
_atom_site_fract_z
Si Si1 0.818171 0.468550 0.147288
Si Si2 0.465567 0.128974 0.448898
Si Si3 0.075107 0.335660 0.252910
Si Si4 0.583655 0.811983 0.231371
Si Si5 0.851907 0.162466 0.693481
Si Si6 0.111467 0.682458 0.767584
Si Si7 0.382345 0.616836 0.287448
Si Si8 0.632345 0.379332 0.100071
O O1 0.714199 0.561260 0.373608
O O2 0.834824 0.283994 0.163190
O O3 0.713670 0.479817 0.127611
O O4 0.986730 0.551697 0.948730
O O5 0.482026 0.197460 0.580045
O O6 0.502148 0.257452 0.297871
O O7 0.589097 0.986848 0.285220
O O8 0.092188 0.515485 0.279341
O O9 0.009651 0.228156 0.446321
O O10 0.951162 0.315241 0.267397
O O11 0.241145 0.267701 0.014957
O O12 0.461799 0.785763 0.240056
O O13 0.706659 0.113839 0.755965
O O14 0.780516 0.300256 0.861946
O O15 0.252961 0.580700 0.546204
O O16 0.527095 0.492359 0.122038
#
# Coordination Sequence:
#
# PCOD8047714 Si02
#       8
#     2   2   2   2   2   2   2   2
#     4  12  26  43  71 105 142 182 222 289 363 416
#     4  12  22  41  72 106 135 182 219 289 360 407
#     4  11  26  49  69  98 143 187 238 284 347 408
#     4  12  22  45  73 102 143 178 234 291 348 420
#     4  11  29  47  71 100 137 195 235 287 343 408
#     4  11  26  45  69 105 141 182 230 288 349 426
#     4  11  25  46  67 102 136 184 241 283 337 413
#     4  12  26  46  74 102 139 182 235 287 351 414
#
# _framework density 22.430014
#
# number of rings (size 3 to 8) (size 9 to 14) (size 15 to 20)
#    0.000    0.500    6.250    0.000   10.500    1.000 
#    2.250    0.000    0.000    0.000    0.000    0.000 
#    0.000    0.000    0.000    0.000    0.000    0.000 
#
# Total GULP energy -198345.345911 kJ/mol
# GULP energy per Si atom -12396.584119 kJ/mol
# Density = 2.237896 g / cm^3
# Si number density = 22.430014 Si / 1000 Ang^3
#
#
#
# Elastic Constant Matrix: (Units=GPa)
#
#
# Indices 1 2 3 4 5 6 
#
# 1 48.3300 13.3821 8.0509 0.0000 -1.4025 0.0000
# 2 13.3821 89.7086 22.1723 0.0000 7.4045 0.0000
# 3 8.0509 22.1723 114.5844 0.0000 -3.0068 0.0000
# 4 0.0000 0.0000 0.0000 48.7294 0.0000 -7.9480
# 5 -1.4025 7.4045 -3.0068 0.0000 28.4554 0.0000
# 6 0.0000 0.0000 0.0000 -7.9480 0.0000 35.1640
#
#
#
# Elastic Compliance Matrix: (Units=1/GPa)
#
#
# Indices 1 2 3 4 5 6 
#
# 1 0.021769 -0.003183 -0.000866 0.000000 0.001810 0.000000
# 2 -0.003183 0.012489 -0.002289 0.000000 -0.003648 0.000000
# 3 -0.000866 -0.002289 0.009271 0.000000 0.001533 0.000000
# 4 0.000000 0.000000 0.000000 0.021307 0.000000 0.004816
# 5 0.001810 -0.003648 0.001533 0.000000 0.036343 0.000000
# 6 0.000000 0.000000 0.000000 0.004816 0.000000 0.029527
#
#
# Mechanical properties :
#
#
# Convention : Reuss Voigt Hill
#
# Bulk Modulus (GPa) = 32.41080 37.75929 35.08504
# Shear Modulus (GPa) = 32.53817 36.40429 34.47123
#
# Velocity S-wave (km/s) = 3.81288 4.03304 3.92450
# Velocity P-wave (km/s) = 5.81938 6.20951 6.01761
#
# Compressibility (1/GPa) = 0.03085391
#
# Stress axis : x y z
#
# Youngs Moduli (GPa) = 45.93662 80.07181 107.86161
#
# Poissons Ratio (x) = 0.25484 0.09343
# Poissons Ratio (y) = 0.14620 0.24686
# Poissons Ratio (z) = 0.03979 0.18326
#
# Static dielectric constant tensor:
#      x y z
#    x 3.863200 0.000000 -0.042260 
#    y 0.000000 3.975690 0.000000 
#    z -0.042260 0.000000 4.338960 
# 
# 
# High freq. dielectric constant tensor:
#      x y z
#    x 1.864670 0.000000 -0.010440 
#    y 0.000000 1.887580 0.000000 
#    z -0.010440 0.000000 1.903480 
# 
# From -- ./inp_files/7946.got.cif
#   From: 2010.03.12/outbox.cif.g09.slc.cpg/sg4_4_cif.got.tgz:7946.got - 2010.03.31 09:31:35.
