data_PCOD8047122
_publ_section_title
;
Structure prediction by ZEFSAII (Michael W. Deem and Ramdas Pophale) SiO2 
 PCOD8047122
Probable space group: P 21
;
_chemical_formula_sum "Si O2"
_cell_formula_units_Z 14
_cell_length_a 9.112441
_cell_length_b 8.609694
_cell_length_c 8.320726
_cell_angle_alpha 90.000000
_cell_angle_beta 123.374953
_cell_angle_gamma 90.000000
_cell_volume 545.150145
_symmetry_space_group_name_H-M "P 21"
_symmetry_group_IT_number 4
_symmetry_cell_setting 'monoclinic'
loop_
_space_group_symop_operation_xyz
x,y,z
-x,1/2+y,-z
loop_
_atom_site_type_symbol
_atom_site_label
_atom_site_fract_x
_atom_site_fract_y
_atom_site_fract_z
Si Si1 0.090952 0.830010 0.350039
Si Si2 0.063632 0.511085 0.484194
Si Si3 0.535237 0.416086 0.497868
Si Si4 0.442982 0.462383 0.793932
Si Si5 0.484517 0.611253 0.144835
Si Si6 0.096486 0.556520 0.974238
Si Si7 0.159391 0.323566 0.262979
O O1 0.011527 0.667639 0.361101
O O2 0.287296 0.812688 0.397374
O O3 0.090879 0.967330 0.484807
O O4 0.954745 0.891688 0.136113
O O5 0.249869 0.539503 0.685080
O O6 0.084377 0.351802 0.394745
O O7 0.529608 0.502765 0.670347
O O8 0.539186 0.524686 0.342459
O O9 0.370177 0.296703 0.388008
O O10 0.426197 0.277845 0.801140
O O11 0.546044 0.526695 0.014598
O O12 0.272997 0.631308 0.010458
O O13 0.936202 0.677394 0.873847
O O14 0.128182 0.497702 0.173445
#
# Coordination Sequence:
#
# PCOD8047122 Si02
#       7
#     2   2   2   2   2   2   2
#     4  12  26  46  76 107 150 196 256 318 383 456
#     4  11  26  46  72 107 151 198 254 314 384 459
#     4  10  28  46  80 111 153 200 262 315 387 456
#     4  11  27  50  77 110 156 199 258 316 385 459
#     4  11  27  49  75 115 153 202 256 322 387 461
#     4  11  24  47  72 111 147 196 252 315 379 460
#     4  10  24  46  72 107 148 197 252 312 385 447
#
# _framework density 25.681000000000001
#
# number of rings (size 3 to 8) (size 9 to 14) (size 15 to 20)
#    0.000    1.143    1.429    1.714   16.000    0.000 
#    2.571    0.000    0.000    0.000    0.000    0.000 
#    0.000    0.000    0.000    0.000    0.000    0.000 
#
# Total GULP energy -173470.245477 kJ/mol
# GULP energy per Si atom -12390.731820 kJ/mol
# Density = 2.562255 g / cm^3
# Si number density = 25.681000 Si / 1000 Ang^3
#
#
#
# Elastic Constant Matrix: (Units=GPa)
#
#
# Indices 1 2 3 4 5 6 
#
# 1 110.0396 9.0554 25.2007 0.0000 -9.5067 0.0000
# 2 9.0554 81.4256 23.7115 0.0000 -14.3259 0.0000
# 3 25.2007 23.7115 87.7488 0.0000 -39.8588 0.0000
# 4 0.0000 0.0000 0.0000 47.5716 0.0000 -2.4994
# 5 -9.5067 -14.3259 -39.8588 0.0000 47.7076 0.0000
# 6 0.0000 0.0000 0.0000 -2.4994 0.0000 29.5879
#
#
#
# Elastic Compliance Matrix: (Units=1/GPa)
#
#
# Indices 1 2 3 4 5 6 
#
# 1 0.009747 -0.000324 -0.003020 0.000000 -0.000678 0.000000
# 2 -0.000324 0.013417 -0.002791 0.000000 0.001633 0.000000
# 3 -0.003020 -0.002791 0.019925 0.000000 0.015207 0.000000
# 4 0.000000 0.000000 0.000000 0.021115 0.000000 0.001784
# 5 -0.000678 0.001633 0.015207 0.000000 0.034022 0.000000
# 6 0.000000 0.000000 0.000000 0.001784 0.000000 0.033948
#
#
# Mechanical properties :
#
#
# Convention : Reuss Voigt Hill
#
# Bulk Modulus (GPa) = 32.44575 43.90546 38.17561
# Shear Modulus (GPa) = 32.31705 39.72318 36.02012
#
# Velocity S-wave (km/s) = 3.55125 3.93720 3.74919
# Velocity P-wave (km/s) = 5.42925 6.14835 5.79996
#
# Compressibility (1/GPa) = 0.03082068
#
# Stress axis : x y z
#
# Youngs Moduli (GPa) = 102.59259 74.53145 50.18734
#
# Poissons Ratio (x) = 0.02414 0.15155
# Poissons Ratio (y) = 0.03323 0.14007
# Poissons Ratio (z) = 0.30980 0.20801
#
# Static dielectric constant tensor:
#      x y z
#    x 4.606840 0.000000 -0.331070 
#    y 0.000000 4.126490 0.000000 
#    z -0.331070 0.000000 5.004050 
# 
# 
# High freq. dielectric constant tensor:
#      x y z
#    x 2.023760 0.000000 -0.018090 
#    y 0.000000 2.016000 0.000000 
#    z -0.018090 0.000000 2.040320 
# 
# From -- ./inp_files/5254.got.cif
#   From: 2010.03.12/outbox.cif.g09.slc.cpg/sg4_3_cif.got.tgz:5254.got - 2010.03.31 09:31:35.
