data_PCOD8047877
_publ_section_title
;
Structure prediction by ZEFSAII (Michael W. Deem and Ramdas Pophale) SiO2 
 PCOD8047877
Probable space group: P 21
;
_chemical_formula_sum "Si O2"
_cell_formula_units_Z 14
_cell_length_a 15.935170
_cell_length_b 4.884566
_cell_length_c 9.781444
_cell_angle_alpha 90.000000
_cell_angle_beta 37.082204
_cell_angle_gamma 90.000000
_cell_volume 459.065149
_symmetry_space_group_name_H-M "P 21"
_symmetry_group_IT_number 4
_symmetry_cell_setting 'monoclinic'
loop_
_space_group_symop_operation_xyz
x,y,z
-x,1/2+y,-z
loop_
_atom_site_type_symbol
_atom_site_label
_atom_site_fract_x
_atom_site_fract_y
_atom_site_fract_z
Si Si1 0.415342 0.336190 0.146588
Si Si2 0.643741 0.497500 0.178950
Si Si3 0.873009 0.390532 0.344201
Si Si4 0.075919 0.998917 0.425546
Si Si5 0.262085 0.522794 0.095382
Si Si6 0.659811 0.037341 0.481371
Si Si7 0.142219 0.162695 0.905747
O O1 0.364208 0.301249 0.369988
O O2 0.547208 0.546205 0.971969
O O3 0.296979 0.480870 0.208744
O O4 0.739158 0.718573 0.972538
O O5 0.486458 0.616547 0.403284
O O6 0.737029 0.450641 0.196368
O O7 0.620393 0.205618 0.133636
O O8 0.919176 0.600862 0.165414
O O9 0.850721 0.525912 0.522190
O O10 0.724669 0.277156 0.489317
O O11 0.006857 0.184731 0.180420
O O12 0.072679 0.317494 0.368455
O O13 0.135594 0.755149 0.249283
O O14 0.769841 0.944859 0.222864
#
# Coordination Sequence:
#
# PCOD8047877 Si02
#       7
#     2   2   2   2   2   2   2
#     4  12  24  46  75 112 152 192 253 320 396 465
#     4  12  30  49  82 115 161 207 263 334 391 471
#     4  12  28  51  78 110 160 214 265 326 389 476
#     4  12  28  48  81 117 155 206 267 330 404 470
#     4  12  24  49  74 115 157 200 257 329 400 461
#     4  12  28  48  79 112 156 211 261 325 395 475
#     4  12  30  51  77 113 161 214 272 318 391 472
#
# _framework density 30.496759999999998
#
# number of rings (size 3 to 8) (size 9 to 14) (size 15 to 20)
#    0.000    0.000    5.714    2.571   10.000    2.286 
#    0.000    0.000    0.000    0.000    0.000    0.000 
#    0.000    0.000    0.000    0.000    0.000    0.000 
#
# Total GULP energy -173456.799897 kJ/mol
# GULP energy per Si atom -12389.771421 kJ/mol
# Density = 3.042735 g / cm^3
# Si number density = 30.496760 Si / 1000 Ang^3
#
#
#
# Elastic Constant Matrix: (Units=GPa)
#
#
# Indices 1 2 3 4 5 6 
#
# 1 160.1892 21.7126 11.5278 0.0000 -16.4907 0.0000
# 2 21.7126 193.1085 13.5388 0.0000 -4.8399 0.0000
# 3 11.5278 13.5388 56.2523 0.0000 -13.1377 0.0000
# 4 0.0000 0.0000 0.0000 31.7870 0.0000 1.0507
# 5 -16.4907 -4.8399 -13.1377 0.0000 48.8184 0.0000
# 6 0.0000 0.0000 0.0000 1.0507 0.0000 42.7188
#
#
#
# Elastic Compliance Matrix: (Units=1/GPa)
#
#
# Indices 1 2 3 4 5 6 
#
# 1 0.006584 -0.000639 -0.000737 0.000000 0.001962 0.000000
# 2 -0.000639 0.005331 -0.001151 0.000000 0.000003 0.000000
# 3 -0.000737 -0.001151 0.019336 0.000000 0.004840 0.000000
# 4 0.000000 0.000000 0.000000 0.031485 0.000000 -0.000774
# 5 0.001962 0.000003 0.004840 0.000000 0.022450 0.000000
# 6 0.000000 0.000000 0.000000 -0.000774 0.000000 0.023428
#
#
# Mechanical properties :
#
#
# Convention : Reuss Voigt Hill
#
# Bulk Modulus (GPa) = 38.17496 55.90093 47.03794
# Shear Modulus (GPa) = 40.84912 48.84957 44.84935
#
# Velocity S-wave (km/s) = 3.66383 4.00659 3.83904
# Velocity P-wave (km/s) = 5.51753 6.30663 5.92523
#
# Compressibility (1/GPa) = 0.02619518
#
# Stress axis : x y z
#
# Youngs Moduli (GPa) = 151.87505 187.57748 51.71783
#
# Poissons Ratio (x) = 0.11995 0.03812
# Poissons Ratio (y) = 0.09712 0.05955
# Poissons Ratio (z) = 0.11195 0.21598
#
# Static dielectric constant tensor:
#      x y z
#    x 5.783650 0.000000 -0.087390 
#    y 0.000000 5.582290 0.000000 
#    z -0.087390 0.000000 6.383770 
# 
# 
# High freq. dielectric constant tensor:
#      x y z
#    x 2.253190 0.000000 -0.024780 
#    y 0.000000 2.254890 0.000000 
#    z -0.024780 0.000000 2.273280 
# 
# From -- ./inp_files/8897.got.cif
#   From: 2010.03.12/outbox.cif.g09.slc.cpg/sg4_5_cif.got.tgz:8897.got - 2010.03.31 09:31:35.
