data_PCOD8047215
_publ_section_title
;
Structure prediction by ZEFSAII (Michael W. Deem and Ramdas Pophale) SiO2 
 PCOD8047215
Probable space group: P 21
;
_chemical_formula_sum "Si O2"
_cell_formula_units_Z 16
_cell_length_a 14.764024
_cell_length_b 8.654961
_cell_length_c 11.669549
_cell_angle_alpha 90.000000
_cell_angle_beta 151.854735
_cell_angle_gamma 90.000000
_cell_volume 703.392537
_symmetry_space_group_name_H-M "P 21"
_symmetry_group_IT_number 4
_symmetry_cell_setting 'monoclinic'
loop_
_space_group_symop_operation_xyz
x,y,z
-x,1/2+y,-z
loop_
_atom_site_type_symbol
_atom_site_label
_atom_site_fract_x
_atom_site_fract_y
_atom_site_fract_z
Si Si1 0.661095 0.829070 0.735608
Si Si2 0.262718 0.572605 0.994701
Si Si3 0.016879 0.671848 0.227273
Si Si4 0.606263 0.051973 0.471574
Si Si5 0.903384 0.409737 0.489877
Si Si6 0.471755 0.107077 0.903671
Si Si7 0.939385 0.375979 0.262382
Si Si8 0.626366 0.924818 0.262936
O O1 0.507270 0.698987 0.603185
O O2 0.611699 0.898184 0.556493
O O3 0.874478 0.759032 0.982051
O O4 0.670095 0.984975 0.818329
O O5 0.185765 0.744062 0.940420
O O6 0.104879 0.488513 0.741771
O O7 0.460882 0.565206 0.147359
O O8 0.887233 0.543508 0.150427
O O9 0.179813 0.604860 0.325629
O O10 0.119514 0.774654 0.440719
O O11 0.513611 0.983713 0.250788
O O12 0.738919 0.538512 0.314301
O O13 0.908799 0.352842 0.364452
O O14 0.488393 0.291815 0.930647
O O15 0.626339 0.064308 0.173015
O O16 0.162698 0.359504 0.476137
#
# Coordination Sequence:
#
# PCOD8047215 Si02
#       8
#     2   2   2   2   2   2   2   2
#     4  11  28  48  77  97 137 190 235 301 351 418
#     4  11  24  42  67 103 139 189 235 278 358 413
#     4  10  26  46  71 105 142 185 236 294 348 420
#     4  11  28  52  69 107 138 179 250 291 354 420
#     4  11  22  41  68 104 148 186 228 284 346 432
#     4  12  25  40  68 105 143 188 229 289 353 423
#     4  11  22  42  66 104 151 183 232 283 353 427
#     4  11  27  41  70 105 146 190 229 292 353 425
#
# _framework density 22.746901000000001
#
# number of rings (size 3 to 8) (size 9 to 14) (size 15 to 20)
#    0.000    1.000    2.500    2.250   12.250    3.000 
#    0.000    0.000    0.000    0.000    0.000    0.000 
#    0.000    0.000    0.000    0.000    0.000    0.000 
#
# Total GULP energy -198261.092984 kJ/mol
# GULP energy per Si atom -12391.318312 kJ/mol
# Density = 2.269513 g / cm^3
# Si number density = 22.746901 Si / 1000 Ang^3
#
#
#
# Elastic Constant Matrix: (Units=GPa)
#
#
# Indices 1 2 3 4 5 6 
#
# 1 116.4089 63.6908 28.3271 0.0000 6.2081 0.0000
# 2 63.6908 143.2596 40.9150 0.0000 -16.7836 0.0000
# 3 28.3271 40.9150 50.2397 0.0000 -5.5895 0.0000
# 4 0.0000 0.0000 0.0000 44.0694 0.0000 -4.0637
# 5 6.2081 -16.7836 -5.5895 0.0000 29.4846 0.0000
# 6 0.0000 0.0000 0.0000 -4.0637 0.0000 47.0186
#
#
#
# Elastic Compliance Matrix: (Units=1/GPa)
#
#
# Indices 1 2 3 4 5 6 
#
# 1 0.012751 -0.005427 -0.003486 0.000000 -0.006435 0.000000
# 2 -0.005427 0.011856 -0.005841 0.000000 0.006784 0.000000
# 3 -0.003486 -0.005841 0.026906 0.000000 0.002510 0.000000
# 4 0.000000 0.000000 0.000000 0.022874 0.000000 0.001977
# 5 -0.006435 0.006784 0.002510 0.000000 0.039609 0.000000
# 6 0.000000 0.000000 0.000000 0.001977 0.000000 0.021439
#
#
# Mechanical properties :
#
#
# Convention : Reuss Voigt Hill
#
# Bulk Modulus (GPa) = 45.44225 63.97489 54.70857
# Shear Modulus (GPa) = 29.02300 35.91286 32.46793
#
# Velocity S-wave (km/s) = 3.57586 3.97773 3.78214
# Velocity P-wave (km/s) = 6.08849 7.02012 6.57084
#
# Compressibility (1/GPa) = 0.02200595
#
# Stress axis : x y z
#
# Youngs Moduli (GPa) = 78.42352 84.34399 37.16694
#
# Poissons Ratio (x) = 0.45777 0.12955
# Poissons Ratio (y) = 0.42564 0.21708
# Poissons Ratio (z) = 0.27335 0.49262
#
# Static dielectric constant tensor:
#      x y z
#    x 4.066540 0.000000 -0.034460 
#    y 0.000000 4.461720 0.000000 
#    z -0.034460 0.000000 4.064110 
# 
# 
# High freq. dielectric constant tensor:
#      x y z
#    x 1.893080 0.000000 0.009990 
#    y 0.000000 1.917000 0.000000 
#    z 0.009990 0.000000 1.898470 
# 
# From -- ./inp_files/12691.got.cif
#   From: 2010.03.12/outbox.cif.g09.slc.cpg/sg4_7_cif.got.tgz:12691.got - 2010.03.31 09:31:35.
