data_PCOD8047508
_publ_section_title
;
Structure prediction by ZEFSAII (Michael W. Deem and Ramdas Pophale) SiO2 
 PCOD8047508
Probable space group: P 21
;
_chemical_formula_sum "Si O2"
_cell_formula_units_Z 16
_cell_length_a 9.514354
_cell_length_b 5.190391
_cell_length_c 23.228533
_cell_angle_alpha 90.000000
_cell_angle_beta 34.307209
_cell_angle_gamma 90.000000
_cell_volume 646.539783
_symmetry_space_group_name_H-M "P 21"
_symmetry_group_IT_number 4
_symmetry_cell_setting 'monoclinic'
loop_
_space_group_symop_operation_xyz
x,y,z
-x,1/2+y,-z
loop_
_atom_site_type_symbol
_atom_site_label
_atom_site_fract_x
_atom_site_fract_y
_atom_site_fract_z
Si Si1 0.248920 0.880430 0.798770
Si Si2 0.914275 0.681268 0.995735
Si Si3 0.871845 0.275199 0.880112
Si Si4 0.301008 0.362318 0.274170
Si Si5 0.465078 0.919285 0.606016
Si Si6 0.986208 0.367939 0.623156
Si Si7 0.823094 0.944279 0.318676
Si Si8 0.552611 0.991495 0.895980
O O1 0.429128 0.931240 0.791984
O O2 0.415500 0.814052 0.687317
O O3 0.059330 0.651853 0.884357
O O4 0.082407 0.132776 0.845333
O O5 0.619198 0.699667 0.080806
O O6 0.997155 0.448724 0.007647
O O7 0.767864 0.093713 0.863973
O O8 0.003779 0.500942 0.796856
O O9 0.642638 0.333476 0.999160
O O10 0.315471 0.329586 0.199533
O O11 0.116679 0.587785 0.357885
O O12 0.202832 0.092183 0.332901
O O13 0.756535 0.917857 0.496322
O O14 0.331957 0.701264 0.611568
O O15 0.360688 0.203909 0.631275
O O16 0.008316 0.373995 0.684399
#
# Coordination Sequence:
#
# PCOD8047508 Si02
#       8
#     2   2   2   2   2   2   2   2
#     4  11  27  48  71 108 144 194 242 300 359 437
#     4  12  26  45  75 104 148 194 240 286 362 437
#     4  11  26  45  74 109 150 188 249 298 367 424
#     4  12  29  44  75 103 152 188 243 290 368 433
#     4  11  25  46  76 105 145 186 244 304 367 419
#     4  12  26  47  73 107 142 193 241 303 362 438
#     4  11  23  45  75 108 144 187 239 303 364 437
#     4  12  26  46  73 112 147 198 236 306 355 433
#
# _framework density 24.747126000000002
#
# number of rings (size 3 to 8) (size 9 to 14) (size 15 to 20)
#    0.000    0.500    2.500    4.500    5.250    4.000 
#    0.000    0.000    0.000    0.000    0.000    0.000 
#    0.000    0.000    0.000    0.000    0.000    0.000 
#
# Total GULP energy -198368.351214 kJ/mol
# GULP energy per Si atom -12398.021951 kJ/mol
# Density = 2.469080 g / cm^3
# Si number density = 24.747126 Si / 1000 Ang^3
#
#
#
# Elastic Constant Matrix: (Units=GPa)
#
#
# Indices 1 2 3 4 5 6 
#
# 1 64.3694 -5.7457 -4.9092 0.0000 -3.1550 0.0000
# 2 -5.7457 84.2955 18.2977 0.0000 3.0696 0.0000
# 3 -4.9092 18.2977 103.7279 0.0000 8.5866 0.0000
# 4 0.0000 0.0000 0.0000 41.3496 0.0000 0.2267
# 5 -3.1550 3.0696 8.5866 0.0000 31.6648 0.0000
# 6 0.0000 0.0000 0.0000 0.2267 0.0000 16.4737
#
#
#
# Elastic Compliance Matrix: (Units=1/GPa)
#
#
# Indices 1 2 3 4 5 6 
#
# 1 0.015719 0.000920 0.000470 0.000000 0.001350 0.000000
# 2 0.000920 0.012401 -0.002099 0.000000 -0.000541 0.000000
# 3 0.000470 -0.002099 0.010242 0.000000 -0.002527 0.000000
# 4 0.000000 0.000000 0.000000 0.024186 0.000000 -0.000333
# 5 0.001350 -0.000541 -0.002527 0.000000 0.032453 0.000000
# 6 0.000000 0.000000 0.000000 -0.000333 0.000000 0.060707
#
#
# Mechanical properties :
#
#
# Convention : Reuss Voigt Hill
#
# Bulk Modulus (GPa) = 27.06730 29.74206 28.40468
# Shear Modulus (GPa) = 29.50856 34.21427 31.86141
#
# Velocity S-wave (km/s) = 3.45687 3.72231 3.59204
# Velocity P-wave (km/s) = 5.18599 5.52436 5.35785
#
# Compressibility (1/GPa) = 0.03694494
#
# Stress axis : x y z
#
# Youngs Moduli (GPa) = 63.61534 80.63781 97.63387
#
# Poissons Ratio (x) = -0.07421 -0.04588
# Poissons Ratio (y) = -0.05855 0.20495
# Poissons Ratio (z) = -0.02989 0.16928
#
# Static dielectric constant tensor:
#      x y z
#    x 4.680110 0.000000 0.126090 
#    y 0.000000 4.346180 0.000000 
#    z 0.126090 0.000000 4.715090 
# 
# 
# High freq. dielectric constant tensor:
#      x y z
#    x 1.994580 0.000000 0.002980 
#    y 0.000000 1.975180 0.000000 
#    z 0.002980 0.000000 2.004310 
# 
# From -- ./inp_files/16044.got.cif
#   From: 2010.03.12/outbox.cif.g09.slc.cpg/sg4_9_cif.got.tgz:16044.got - 2010.03.31 09:31:35.
