data_PCOD8047620
_publ_section_title
;
Structure prediction by ZEFSAII (Michael W. Deem and Ramdas Pophale) SiO2 
 PCOD8047620
Probable space group: P 21
;
_chemical_formula_sum "Si O2"
_cell_formula_units_Z 16
_cell_length_a 8.042637
_cell_length_b 9.749195
_cell_length_c 11.995669
_cell_angle_alpha 90.000000
_cell_angle_beta 128.521850
_cell_angle_gamma 90.000000
_cell_volume 735.875386
_symmetry_space_group_name_H-M "P 21"
_symmetry_group_IT_number 4
_symmetry_cell_setting 'monoclinic'
loop_
_space_group_symop_operation_xyz
x,y,z
-x,1/2+y,-z
loop_
_atom_site_type_symbol
_atom_site_label
_atom_site_fract_x
_atom_site_fract_y
_atom_site_fract_z
Si Si1 0.012361 0.332550 0.335667
Si Si2 0.790248 0.505826 0.867627
Si Si3 0.698476 0.585667 0.585596
Si Si4 0.097044 0.709379 0.079387
Si Si5 0.790465 0.115934 0.635763
Si Si6 0.395952 0.438001 0.841398
Si Si7 0.344061 0.697609 0.964584
Si Si8 0.940131 0.365123 0.561776
O O1 0.209221 0.227588 0.422933
O O2 0.089067 0.472223 0.311222
O O3 0.821552 0.276370 0.182355
O O4 0.929031 0.357638 0.424842
O O5 0.809925 0.552579 0.748970
O O6 0.940569 0.372524 0.947766
O O7 0.551163 0.465795 0.801669
O O8 0.872929 0.629366 0.980648
O O9 0.449909 0.597239 0.503545
O O10 0.747992 0.463054 0.520436
O O11 0.215361 0.681431 0.244436
O O12 0.240572 0.653310 0.038361
O O13 0.911411 0.213961 0.599633
O O14 0.425531 0.560452 0.940926
O O15 0.159420 0.432114 0.694952
O O16 0.455515 0.296813 0.928428
#
# Coordination Sequence:
#
# PCOD8047620 Si02
#       8
#     2   2   2   2   2   2   2   2
#     4  12  26  47  69 106 143 181 238 286 351 416
#     4  11  24  45  74 100 143 180 235 290 346 414
#     4  12  25  48  70 104 138 189 234 288 350 411
#     4  11  24  46  71 104 138 184 231 288 342 414
#     4  12  27  43  75 104 137 189 239 280 351 422
#     4  11  26  45  72 104 140 183 230 288 360 411
#     4  11  26  46  70 105 140 184 229 289 352 421
#     4  12  26  48  73  99 147 184 228 301 348 411
#
# _framework density 21.742811
#
# number of rings (size 3 to 8) (size 9 to 14) (size 15 to 20)
#    0.000    0.500    3.750    3.750    8.750    1.000 
#    0.000    0.000    0.000    0.000    0.000    0.000 
#    0.000    0.000    0.000    0.000    0.000    0.000 
#
# Total GULP energy -198526.921932 kJ/mol
# GULP energy per Si atom -12407.932621 kJ/mol
# Density = 2.169332 g / cm^3
# Si number density = 21.742811 Si / 1000 Ang^3
#
#
#
# Elastic Constant Matrix: (Units=GPa)
#
#
# Indices 1 2 3 4 5 6 
#
# 1 71.0199 37.0049 29.5538 0.0000 -7.1660 0.0000
# 2 37.0049 89.9738 8.9722 0.0000 -1.1334 0.0000
# 3 29.5538 8.9722 73.1360 0.0000 -12.6544 0.0000
# 4 0.0000 0.0000 0.0000 30.2637 0.0000 0.0918
# 5 -7.1660 -1.1334 -12.6544 0.0000 37.0657 0.0000
# 6 0.0000 0.0000 0.0000 0.0918 0.0000 44.3346
#
#
#
# Elastic Compliance Matrix: (Units=1/GPa)
#
#
# Indices 1 2 3 4 5 6 
#
# 1 0.021551 -0.008101 -0.007479 0.000000 0.001366 0.000000
# 2 -0.008101 0.014298 0.001407 0.000000 -0.000648 0.000000
# 3 -0.007479 0.001407 0.017302 0.000000 0.004504 0.000000
# 4 0.000000 0.000000 0.000000 0.033043 0.000000 -0.000068
# 5 0.001366 -0.000648 0.004504 0.000000 0.028761 0.000000
# 6 0.000000 0.000000 0.000000 -0.000068 0.000000 0.022556
#
#
# Mechanical properties :
#
#
# Convention : Reuss Voigt Hill
#
# Bulk Modulus (GPa) = 40.31206 42.79906 41.55556
# Shear Modulus (GPa) = 28.71514 32.90607 30.81060
#
# Velocity S-wave (km/s) = 3.63805 3.89449 3.76845
# Velocity P-wave (km/s) = 6.01896 6.32058 6.17161
#
# Compressibility (1/GPa) = 0.02480647
#
# Stress axis : x y z
#
# Youngs Moduli (GPa) = 46.40069 69.94191 57.79697
#
# Poissons Ratio (x) = 0.56659 0.43225
# Poissons Ratio (y) = 0.37588 -0.08134
# Poissons Ratio (z) = 0.34702 -0.09843
#
# Static dielectric constant tensor:
#      x y z
#    x 3.914070 0.000000 -0.127600 
#    y 0.000000 4.209780 0.000000 
#    z -0.127600 0.000000 3.822420 
# 
# 
# High freq. dielectric constant tensor:
#      x y z
#    x 1.859150 0.000000 -0.010880 
#    y 0.000000 1.872720 0.000000 
#    z -0.010880 0.000000 1.854400 
# 
# From -- ./inp_files/5594.got.cif
#   From: 2010.03.12/outbox.cif.g09.slc.cpg/sg4_3_cif.got.tgz:5594.got - 2010.03.31 09:31:35.
