data_PCOD8047361
_publ_section_title
;
Structure prediction by ZEFSAII (Michael W. Deem and Ramdas Pophale) SiO2 
 PCOD8047361
Probable space group: P 21
;
_chemical_formula_sum "Si O2"
_cell_formula_units_Z 14
_cell_length_a 7.637674
_cell_length_b 6.698407
_cell_length_c 13.006402
_cell_angle_alpha 90.000000
_cell_angle_beta 81.326411
_cell_angle_gamma 90.000000
_cell_volume 657.800799
_symmetry_space_group_name_H-M "P 21"
_symmetry_group_IT_number 4
_symmetry_cell_setting 'monoclinic'
loop_
_space_group_symop_operation_xyz
x,y,z
-x,1/2+y,-z
loop_
_atom_site_type_symbol
_atom_site_label
_atom_site_fract_x
_atom_site_fract_y
_atom_site_fract_z
Si Si1 0.765222 0.139630 0.531058
Si Si2 0.046909 0.707246 0.782540
Si Si3 0.736072 0.888639 0.345886
Si Si4 0.685751 0.545488 0.891545
Si Si5 0.439721 0.727672 0.249358
Si Si6 0.622629 0.365149 0.116423
Si Si7 0.894560 0.490992 0.400681
O O1 0.670343 0.134445 0.647979
O O2 0.758280 0.354706 0.477062
O O3 0.677613 0.981456 0.460575
O O4 0.969610 0.083041 0.530128
O O5 0.099983 0.504868 0.718733
O O6 0.204667 0.777415 0.842872
O O7 0.006336 0.870896 0.698750
O O8 0.866506 0.670302 0.860700
O O9 0.573924 0.894121 0.281200
O O10 0.779644 0.658532 0.356754
O O11 0.683278 0.352626 0.817222
O O12 0.518156 0.689472 0.890263
O O13 0.688692 0.460128 0.005203
O O14 0.535633 0.542321 0.188434
#
# Coordination Sequence:
#
# PCOD8047361 Si02
#       7
#     2   2   2   2   2   2   2
#     4  11  25  39  67 100 138 190 231 285 354 423
#     4  11  26  46  73 103 139 186 234 293 364 420
#     4  11  24  43  67 101 142 181 235 288 351 429
#     4  12  27  48  75 103 141 187 241 296 366 422
#     4  12  26  45  71 100 148 185 236 299 358 422
#     4  12  26  49  72 106 140 183 242 303 354 437
#     4  11  22  44  65  99 142 180 237 288 343 437
#
# _framework density 21.283038999999999
#
# number of rings (size 3 to 8) (size 9 to 14) (size 15 to 20)
#    0.000    0.571    5.714    1.714    4.000    3.429 
#    2.571    0.000    0.000    0.000    0.000    0.000 
#    0.000    0.000    0.000    0.000    0.000    0.000 
#
# Total GULP energy -173641.402554 kJ/mol
# GULP energy per Si atom -12402.957325 kJ/mol
# Density = 2.123460 g / cm^3
# Si number density = 21.283039 Si / 1000 Ang^3
#
#
#
# Elastic Constant Matrix: (Units=GPa)
#
#
# Indices 1 2 3 4 5 6 
#
# 1 88.2410 44.1193 41.2526 0.0000 0.1581 0.0000
# 2 44.1193 112.0962 58.3627 0.0000 -1.7285 0.0000
# 3 41.2526 58.3627 155.9785 0.0000 -9.8368 0.0000
# 4 0.0000 0.0000 0.0000 42.7199 0.0000 8.2999
# 5 0.1581 -1.7285 -9.8368 0.0000 36.0410 0.0000
# 6 0.0000 0.0000 0.0000 8.2999 0.0000 32.9012
#
#
#
# Elastic Compliance Matrix: (Units=1/GPa)
#
#
# Indices 1 2 3 4 5 6 
#
# 1 0.014687 -0.004648 -0.002201 0.000000 -0.000888 0.000000
# 2 -0.004648 0.012564 -0.003492 0.000000 -0.000330 0.000000
# 3 -0.002201 -0.003492 0.008435 0.000000 0.002144 0.000000
# 4 0.000000 0.000000 0.000000 0.024615 0.000000 -0.006209
# 5 -0.000888 -0.000330 0.002144 0.000000 0.028319 0.000000
# 6 0.000000 0.000000 0.000000 -0.006209 0.000000 0.031960
#
#
# Mechanical properties :
#
#
# Convention : Reuss Voigt Hill
#
# Bulk Modulus (GPa) = 66.65597 71.53164 69.09380
# Shear Modulus (GPa) = 34.18436 36.50450 35.34443
#
# Velocity S-wave (km/s) = 4.01206 4.14598 4.07957
# Velocity P-wave (km/s) = 7.26973 7.52340 7.39765
#
# Compressibility (1/GPa) = 0.01500241
#
# Stress axis : x y z
#
# Youngs Moduli (GPa) = 68.08570 79.59473 118.54952
#
# Poissons Ratio (x) = 0.36999 0.26095
# Poissons Ratio (y) = 0.31649 0.41402
# Poissons Ratio (z) = 0.14987 0.27798
#
# Static dielectric constant tensor:
#      x y z
#    x 3.710860 0.000000 0.176000 
#    y 0.000000 3.953660 0.000000 
#    z 0.176000 0.000000 3.966570 
# 
# 
# High freq. dielectric constant tensor:
#      x y z
#    x 1.829690 0.000000 0.012310 
#    y 0.000000 1.850460 0.000000 
#    z 0.012310 0.000000 1.849290 
# 
# From -- ./inp_files/7068.got.cif
#   From: 2010.03.12/outbox.cif.g09.slc.cpg/sg4_4_cif.got.tgz:7068.got - 2010.03.31 09:31:35.
