data_PCOD8047272
_publ_section_title
;
Structure prediction by ZEFSAII (Michael W. Deem and Ramdas Pophale) SiO2 
 PCOD8047272
Probable space group: P 21
;
_chemical_formula_sum "Si O2"
_cell_formula_units_Z 12
_cell_length_a 15.214859
_cell_length_b 4.958868
_cell_length_c 20.768899
_cell_angle_alpha 90.000000
_cell_angle_beta 158.319885
_cell_angle_gamma 90.000000
_cell_volume 578.881113
_symmetry_space_group_name_H-M "P 21"
_symmetry_group_IT_number 4
_symmetry_cell_setting 'monoclinic'
loop_
_space_group_symop_operation_xyz
x,y,z
-x,1/2+y,-z
loop_
_atom_site_type_symbol
_atom_site_label
_atom_site_fract_x
_atom_site_fract_y
_atom_site_fract_z
Si Si1 0.662235 0.217160 0.118360
Si Si2 0.655153 0.012119 0.613062
Si Si3 0.333361 0.345625 0.071200
Si Si4 0.006720 0.186927 0.961360
Si Si5 0.148540 0.783933 0.615387
Si Si6 0.113500 0.855673 0.856821
O O1 0.791561 0.164823 0.273707
O O2 0.862188 0.278083 0.201070
O O3 0.476426 0.457189 0.000754
O O4 0.463465 0.780365 0.496995
O O5 0.836584 0.899222 0.683139
O O6 0.787602 0.086007 0.769095
O O7 0.618422 0.363127 0.267112
O O8 0.220489 0.633595 0.977844
O O9 0.237220 0.253644 0.075233
O O10 0.259338 0.130892 0.966424
O O11 0.919880 0.452855 0.939343
O O12 0.007359 0.552281 0.481485
#
# Coordination Sequence:
#
# PCOD8047272 Si02
#       6
#     2   2   2   2   2   2
#     4  12  22  42  70  93 122 168 222 254 296 399
#     4  11  23  42  66  95 131 162 207 275 323 355
#     4  11  22  42  69  90 126 174 212 253 316 385
#     4  11  23  43  68  93 124 171 219 254 309 394
#     4  12  25  42  63  97 136 160 202 272 328 355
#     4  11  21  41  70  94 119 173 220 250 308 386
#
# _framework density 20.729642999999999
#
# number of rings (size 3 to 8) (size 9 to 14) (size 15 to 20)
#    0.000    0.667    3.333    7.000    0.000    0.000 
#    9.000    0.000    0.000    0.000    0.000    0.000 
#    0.000    0.000    0.000    0.000    0.000    0.000 
#
# Total GULP energy -148888.263954 kJ/mol
# GULP energy per Si atom -12407.355330 kJ/mol
# Density = 2.068246 g / cm^3
# Si number density = 20.729643 Si / 1000 Ang^3
#
#
#
# Elastic Constant Matrix: (Units=GPa)
#
#
# Indices 1 2 3 4 5 6 
#
# 1 118.9824 11.0192 40.2707 0.0000 6.6682 0.0000
# 2 11.0192 112.0919 39.8848 0.0000 7.5818 0.0000
# 3 40.2707 39.8848 109.1010 0.0000 12.3304 0.0000
# 4 0.0000 0.0000 0.0000 45.4272 0.0000 -1.3931
# 5 6.6682 7.5818 12.3304 0.0000 19.8300 0.0000
# 6 0.0000 0.0000 0.0000 -1.3931 0.0000 36.5496
#
#
#
# Elastic Compliance Matrix: (Units=1/GPa)
#
#
# Indices 1 2 3 4 5 6 
#
# 1 0.009643 0.000403 -0.003574 0.000000 -0.001174 0.000000
# 2 0.000403 0.010326 -0.003724 0.000000 -0.001768 0.000000
# 3 -0.003574 -0.003724 0.012423 0.000000 -0.005099 0.000000
# 4 0.000000 0.000000 0.000000 0.022039 0.000000 0.000840
# 5 -0.001174 -0.001768 -0.005099 0.000000 0.054670 0.000000
# 6 0.000000 0.000000 0.000000 0.000840 0.000000 0.027392
#
#
# Mechanical properties :
#
#
# Convention : Reuss Voigt Hill
#
# Bulk Modulus (GPa) = 53.75727 58.05832 55.90780
# Shear Modulus (GPa) = 31.95233 36.96141 34.45687
#
# Velocity S-wave (km/s) = 3.93031 4.22717 4.08144
# Velocity P-wave (km/s) = 6.82534 7.20371 7.01707
#
# Compressibility (1/GPa) = 0.01860213
#
# Stress axis : x y z
#
# Youngs Moduli (GPa) = 103.70524 96.83996 80.49785
#
# Poissons Ratio (x) = -0.03905 0.28769
# Poissons Ratio (y) = -0.04181 0.29978
# Poissons Ratio (z) = 0.37064 0.36064
#
# Static dielectric constant tensor:
#      x y z
#    x 3.723630 0.000000 0.152970 
#    y 0.000000 3.948120 0.000000 
#    z 0.152970 0.000000 3.644460 
# 
# 
# High freq. dielectric constant tensor:
#      x y z
#    x 1.813430 0.000000 0.011900 
#    y 0.000000 1.836430 0.000000 
#    z 0.011900 0.000000 1.798420 
# 
# From -- ./inp_files/8986.got.cif
#   From: 2010.03.12/outbox.cif.g09.slc.cpg/sg4_5_cif.got.tgz:8986.got - 2010.03.31 09:31:35.
