data_PCOD8047125
_publ_section_title
;
Structure prediction by ZEFSAII (Michael W. Deem and Ramdas Pophale) SiO2 
 PCOD8047125
Probable space group: P 21
;
_chemical_formula_sum "Si O2"
_cell_formula_units_Z 16
_cell_length_a 9.303781
_cell_length_b 13.780039
_cell_length_c 4.851556
_cell_angle_alpha 90.000000
_cell_angle_beta 64.834195
_cell_angle_gamma 90.000000
_cell_volume 562.961148
_symmetry_space_group_name_H-M "P 21"
_symmetry_group_IT_number 4
_symmetry_cell_setting 'monoclinic'
loop_
_space_group_symop_operation_xyz
x,y,z
-x,1/2+y,-z
loop_
_atom_site_type_symbol
_atom_site_label
_atom_site_fract_x
_atom_site_fract_y
_atom_site_fract_z
Si Si1 0.170304 0.689300 0.204500
Si Si2 0.899995 0.693054 0.018719
Si Si3 0.321275 0.871346 0.880275
Si Si4 0.642436 0.583360 0.011509
Si Si5 0.032824 0.879489 0.786632
Si Si6 0.327751 0.598217 0.573111
Si Si7 0.377534 0.245510 0.404667
Si Si8 0.829534 0.911284 0.482822
O O1 0.207530 0.805572 0.170338
O O2 0.298308 0.629701 0.911255
O O3 0.194296 0.652000 0.495296
O O4 0.997321 0.665719 0.216197
O O5 0.832557 0.595698 0.926025
O O6 0.724922 0.737018 0.232271
O O7 0.002759 0.764147 0.729174
O O8 0.456354 0.798226 0.661288
O O9 0.382046 0.966582 0.995297
O O10 0.218195 0.903767 0.692100
O O11 0.511689 0.622311 0.347315
O O12 0.603467 0.641683 0.764633
O O13 0.946793 0.878317 0.149781
O O14 0.945571 0.949532 0.636963
O O15 0.296516 0.485682 0.541515
O O16 0.273249 0.321907 0.307260
#
# Coordination Sequence:
#
# PCOD8047125 Si02
#       8
#     2   2   2   2   2   2   2   2
#     4  11  27  49  74 106 149 195 252 317 367 452
#     4  10  25  44  72 102 146 199 247 313 381 444
#     4  11  25  47  71 113 146 200 255 314 379 459
#     4  12  25  45  71 109 148 203 249 310 388 454
#     4  10  24  46  73 105 149 192 249 309 374 440
#     4  12  26  46  75 107 148 196 246 307 383 445
#     4  11  23  49  68 105 156 193 251 310 381 456
#     4  11  23  46  72 107 144 200 241 304 375 448
#
# _framework density 28.421144000000002
#
# number of rings (size 3 to 8) (size 9 to 14) (size 15 to 20)
#    0.000    1.000    3.750    1.500    5.250    3.000 
#    4.500    0.000    0.000    0.000    0.000    0.000 
#    0.000    0.000    0.000    0.000    0.000    0.000 
#
# Total GULP energy -198260.555959 kJ/mol
# GULP energy per Si atom -12391.284747 kJ/mol
# Density = 2.835646 g / cm^3
# Si number density = 28.421144 Si / 1000 Ang^3
#
#
#
# Elastic Constant Matrix: (Units=GPa)
#
#
# Indices 1 2 3 4 5 6 
#
# 1 139.8660 12.4522 -7.1011 0.0000 -10.8648 0.0000
# 2 12.4522 118.6133 9.7915 0.0000 -15.3787 0.0000
# 3 -7.1011 9.7915 13.6499 0.0000 -2.3146 0.0000
# 4 0.0000 0.0000 0.0000 24.7106 0.0000 -2.7813
# 5 -10.8648 -15.3787 -2.3146 0.0000 34.7144 0.0000
# 6 0.0000 0.0000 0.0000 -2.7813 0.0000 55.9011
#
#
#
# Elastic Compliance Matrix: (Units=1/GPa)
#
#
# Indices 1 2 3 4 5 6 
#
# 1 0.007669 -0.000919 0.005044 0.000000 0.002329 0.000000
# 2 -0.000919 0.009535 -0.006726 0.000000 0.003488 0.000000
# 3 0.005044 -0.006726 0.081392 0.000000 0.004026 0.000000
# 4 0.000000 0.000000 0.000000 0.040696 0.000000 0.002025
# 5 0.002329 0.003488 0.004026 0.000000 0.031349 0.000000
# 6 0.000000 0.000000 0.000000 0.002025 0.000000 0.017989
#
#
# Mechanical properties :
#
#
# Convention : Reuss Voigt Hill
#
# Bulk Modulus (GPa) = 10.70761 33.60159 22.15460
# Shear Modulus (GPa) = 22.22569 40.19765 31.21167
#
# Velocity S-wave (km/s) = 2.79948 3.76487 3.31748
# Velocity P-wave (km/s) = 3.77162 5.54504 4.74197
#
# Compressibility (1/GPa) = 0.09339152
#
# Stress axis : x y z
#
# Youngs Moduli (GPa) = 130.40252 104.87955 12.28618
#
# Poissons Ratio (x) = 0.09643 -0.06197
# Poissons Ratio (y) = 0.11990 0.08264
# Poissons Ratio (z) = -0.65774 0.70547
#
# Static dielectric constant tensor:
#      x y z
#    x 5.493360 0.000000 -0.296900 
#    y 0.000000 5.467940 0.000000 
#    z -0.296900 0.000000 4.774620 
# 
# 
# High freq. dielectric constant tensor:
#      x y z
#    x 2.175820 0.000000 -0.018300 
#    y 0.000000 2.150080 0.000000 
#    z -0.018300 0.000000 2.136140 
# 
# From -- ./inp_files/1922.got.cif
#   From: 2010.03.12/outbox.cif.g09.slc.cpg/sg4_1_cif.got.tgz:1922.got - 2010.03.31 09:31:35.
