data_PCOD8047971
_publ_section_title
;
Structure prediction by ZEFSAII (Michael W. Deem and Ramdas Pophale) SiO2 
 PCOD8047971
Probable space group: P 21
;
_chemical_formula_sum "Si O2"
_cell_formula_units_Z 16
_cell_length_a 6.676310
_cell_length_b 15.163716
_cell_length_c 9.572931
_cell_angle_alpha 90.000000
_cell_angle_beta 134.220095
_cell_angle_gamma 90.000000
_cell_volume 694.550609
_symmetry_space_group_name_H-M "P 21"
_symmetry_group_IT_number 4
_symmetry_cell_setting 'monoclinic'
loop_
_space_group_symop_operation_xyz
x,y,z
-x,1/2+y,-z
loop_
_atom_site_type_symbol
_atom_site_label
_atom_site_fract_x
_atom_site_fract_y
_atom_site_fract_z
Si Si1 0.760890 0.407460 0.499995
Si Si2 0.679485 0.389568 0.776456
Si Si3 0.756584 0.034433 0.344702
Si Si4 0.126560 0.425344 0.223533
Si Si5 0.500864 0.157455 0.000875
Si Si6 0.932809 0.280480 0.344696
Si Si7 0.894437 0.116999 0.681753
Si Si8 0.469057 0.197910 0.681754
O O1 0.803747 0.382429 0.681810
O O2 0.440116 0.432487 0.318178
O O3 0.949613 0.491399 0.554495
O O4 0.840633 0.323524 0.445503
O O5 0.445191 0.465293 0.674714
O O6 0.540869 0.298398 0.753833
O O7 0.939648 0.407463 0.999992
O O8 0.604380 0.070730 0.132442
O O9 0.815876 0.116251 0.478912
O O10 0.095750 0.349610 0.325260
O O11 0.033193 0.516510 0.246176
O O12 0.660481 0.244180 0.132442
O O13 0.544344 0.141152 0.856140
O O14 0.167912 0.173759 0.856141
O O15 0.141938 0.198662 0.478913
O O16 0.632670 0.157448 0.632682
#
# Coordination Sequence:
#
# PCOD8047971 Si02
#       8
#     2   2   2   2   2   2   2   2
#     4  12  26  46  80 102 140 204 248 310 372 452
#     4  12  26  49  75 107 151 196 254 310 371 462
#     4  12  27  51  75 108 149 199 258 306 383 454
#     4  12  26  49  75 107 151 196 254 310 371 462
#     4  12  30  44  74 108 154 196 246 324 374 452
#     4  12  27  51  75 108 149 199 258 306 383 454
#     4  12  28  48  72 112 154 194 251 319 376 442
#     4  12  28  48  72 112 154 194 251 319 376 442
#
# _framework density 23.036477999999999
#
# number of rings (size 3 to 8) (size 9 to 14) (size 15 to 20)
#    0.000    0.000    7.500    0.750   10.500    2.000 
#    0.000    0.000    0.000    0.000    0.000    0.000 
#    0.000    0.000    0.000    0.000    0.000    0.000 
#
# Total GULP energy -198491.821593 kJ/mol
# GULP energy per Si atom -12405.738850 kJ/mol
# Density = 2.298405 g / cm^3
# Si number density = 23.036478 Si / 1000 Ang^3
#
#
#
# Elastic Constant Matrix: (Units=GPa)
#
#
# Indices 1 2 3 4 5 6 
#
# 1 161.2563 39.1425 70.9683 0.0000 -0.6337 0.0000
# 2 39.1425 74.4006 30.2392 0.0000 -0.1481 0.0000
# 3 70.9683 30.2392 169.4262 0.0000 0.7712 0.0000
# 4 0.0000 0.0000 0.0000 39.6058 0.0000 0.0689
# 5 -0.6337 -0.1481 0.7712 0.0000 25.9028 0.0000
# 6 0.0000 0.0000 0.0000 0.0689 0.0000 35.4806
#
#
#
# Elastic Compliance Matrix: (Units=1/GPa)
#
#
# Indices 1 2 3 4 5 6 
#
# 1 0.008241 -0.003161 -0.002889 0.000000 0.000270 0.000000
# 2 -0.003161 0.015705 -0.001479 0.000000 0.000057 0.000000
# 3 -0.002889 -0.001479 0.007378 0.000000 -0.000299 0.000000
# 4 0.000000 0.000000 0.000000 0.025249 0.000000 -0.000049
# 5 0.000270 0.000057 -0.000299 0.000000 0.038622 0.000000
# 6 0.000000 0.000000 0.000000 -0.000049 0.000000 0.028185
#
#
# Mechanical properties :
#
#
# Convention : Reuss Voigt Hill
#
# Bulk Modulus (GPa) = 61.47986 76.19812 68.83899
# Shear Modulus (GPa) = 34.75615 37.84671 36.30143
#
# Velocity S-wave (km/s) = 3.88847 4.05767 3.97397
# Velocity P-wave (km/s) = 6.84881 7.42307 7.14171
#
# Compressibility (1/GPa) = 0.01626549
#
# Stress axis : x y z
#
# Youngs Moduli (GPa) = 121.34311 63.67364 135.54167
#
# Poissons Ratio (x) = 0.20127 0.39159
# Poissons Ratio (y) = 0.38356 0.20050
# Poissons Ratio (z) = 0.35057 0.09419
#
# Static dielectric constant tensor:
#      x y z
#    x 4.119850 0.000000 0.004220 
#    y 0.000000 4.138080 0.000000 
#    z 0.004220 0.000000 4.374960 
# 
# 
# High freq. dielectric constant tensor:
#      x y z
#    x 1.918590 0.000000 0.000200 
#    y 0.000000 1.910420 0.000000 
#    z 0.000200 0.000000 1.930770 
# 
# From -- ./inp_files/1908.got.cif
#   From: 2010.03.12/outbox.cif.g09.slc.cpg/sg4_1_cif.got.tgz:1908.got - 2010.03.31 09:31:35.
