data_PCOD8047107
_publ_section_title
;
Structure prediction by ZEFSAII (Michael W. Deem and Ramdas Pophale) SiO2 
 PCOD8047107
Probable space group: P 21
;
_chemical_formula_sum "Si O2"
_cell_formula_units_Z 16
_cell_length_a 24.768392
_cell_length_b 5.220449
_cell_length_c 9.624861
_cell_angle_alpha 90.000000
_cell_angle_beta 149.814072
_cell_angle_gamma 90.000000
_cell_volume 625.751680
_symmetry_space_group_name_H-M "P 21"
_symmetry_group_IT_number 4
_symmetry_cell_setting 'monoclinic'
loop_
_space_group_symop_operation_xyz
x,y,z
-x,1/2+y,-z
loop_
_atom_site_type_symbol
_atom_site_label
_atom_site_fract_x
_atom_site_fract_y
_atom_site_fract_z
Si Si1 0.567448 0.106170 0.628267
Si Si2 0.643757 0.468390 0.243317
Si Si3 0.433777 0.682502 0.685490
Si Si4 0.876842 0.933961 0.164259
Si Si5 0.071581 0.502696 0.169794
Si Si6 0.116299 0.942124 0.652505
Si Si7 0.245551 0.376040 0.367620
Si Si8 0.250114 0.658163 0.750337
O O1 0.499303 0.343041 0.539260
O O2 0.608267 0.199542 0.566725
O O3 0.667622 0.039668 0.952942
O O4 0.585300 0.436606 0.264810
O O5 0.749041 0.634316 0.515723
O O6 0.684506 0.225581 0.245145
O O7 0.559397 0.614589 0.957143
O O8 0.365179 0.488078 0.627516
O O9 0.867458 0.735457 0.269295
O O10 0.990705 0.905787 0.338404
O O11 0.854349 0.223147 0.166885
O O12 0.786092 0.824441 0.860913
O O13 0.152754 0.561408 0.221898
O O14 0.148105 0.480305 0.478635
O O15 0.989381 0.737332 0.992069
O O16 0.193980 0.908267 0.693115
#
# Coordination Sequence:
#
# PCOD8047107 Si02
#       8
#     2   2   2   2   2   2   2   2
#     4  12  31  50  80 115 163 207 265 325 402 472
#     4  12  27  49  78 112 160 208 267 327 401 477
#     4  12  27  50  77 113 156 207 265 326 391 482
#     4  10  24  45  72 107 145 199 249 318 383 462
#     4  12  29  50  78 119 163 208 267 333 397 477
#     4  10  24  46  72 104 151 195 253 310 389 467
#     4  12  27  45  78 108 152 207 263 320 396 468
#     4  12  27  51  77 118 158 211 259 335 399 471
#
# _framework density 25.569244999999999
#
# number of rings (size 3 to 8) (size 9 to 14) (size 15 to 20)
#    0.000    0.500    3.750    2.250    8.750    7.000 
#    0.000    0.000    0.000    0.000    0.000    0.000 
#    0.000    0.000    0.000    0.000    0.000    0.000 
#
# Total GULP energy -198249.061644 kJ/mol
# GULP energy per Si atom -12390.566353 kJ/mol
# Density = 2.551105 g / cm^3
# Si number density = 25.569245 Si / 1000 Ang^3
#
#
#
# Elastic Constant Matrix: (Units=GPa)
#
#
# Indices 1 2 3 4 5 6 
#
# 1 110.9735 -1.2317 26.3851 0.0000 -6.1736 0.0000
# 2 -1.2317 78.2635 29.4774 0.0000 1.9902 0.0000
# 3 26.3851 29.4774 166.8879 0.0000 -15.7288 0.0000
# 4 0.0000 0.0000 0.0000 26.6049 0.0000 2.1935
# 5 -6.1736 1.9902 -15.7288 0.0000 39.9516 0.0000
# 6 0.0000 0.0000 0.0000 2.1935 0.0000 25.4120
#
#
#
# Elastic Compliance Matrix: (Units=1/GPa)
#
#
# Indices 1 2 3 4 5 6 
#
# 1 0.009430 0.000707 -0.001539 0.000000 0.000816 0.000000
# 2 0.000707 0.013853 -0.002714 0.000000 -0.001649 0.000000
# 3 -0.001539 -0.002714 0.006963 0.000000 0.002639 0.000000
# 4 0.000000 0.000000 0.000000 0.037856 0.000000 -0.003268
# 5 0.000816 -0.001649 0.002639 0.000000 0.026277 0.000000
# 6 0.000000 0.000000 0.000000 -0.003268 0.000000 0.039634
#
#
# Mechanical properties :
#
#
# Convention : Reuss Voigt Hill
#
# Bulk Modulus (GPa) = 43.18725 51.70960 47.44843
# Shear Modulus (GPa) = 33.59680 38.49330 36.04505
#
# Velocity S-wave (km/s) = 3.62878 3.88423 3.75867
# Velocity P-wave (km/s) = 5.87234 6.35480 6.11833
#
# Compressibility (1/GPa) = 0.02315498
#
# Stress axis : x y z
#
# Youngs Moduli (GPa) = 106.04102 72.18835 143.60710
#
# Poissons Ratio (x) = -0.05106 0.22100
# Poissons Ratio (y) = -0.07500 0.38976
# Poissons Ratio (z) = 0.16319 0.19592
#
# Static dielectric constant tensor:
#      x y z
#    x 4.641030 0.000000 0.101600 
#    y 0.000000 4.307040 0.000000 
#    z 0.101600 0.000000 4.814500 
# 
# 
# High freq. dielectric constant tensor:
#      x y z
#    x 2.029570 0.000000 0.003350 
#    y 0.000000 1.998290 0.000000 
#    z 0.003350 0.000000 2.039350 
# 
# From -- ./inp_files/10044.got.cif
#   From: 2010.03.12/outbox.cif.g09.slc.cpg/sg4_6_cif.got.tgz:10044.got - 2010.03.31 09:31:35.
