data_PCOD8047499
_publ_section_title
;
Structure prediction by ZEFSAII (Michael W. Deem and Ramdas Pophale) SiO2 
 PCOD8047499
Probable space group: P 21
;
_chemical_formula_sum "Si O2"
_cell_formula_units_Z 16
_cell_length_a 10.902642
_cell_length_b 4.810026
_cell_length_c 11.952761
_cell_angle_alpha 90.000000
_cell_angle_beta 100.722892
_cell_angle_gamma 90.000000
_cell_volume 615.881281
_symmetry_space_group_name_H-M "P 21"
_symmetry_group_IT_number 4
_symmetry_cell_setting 'monoclinic'
loop_
_space_group_symop_operation_xyz
x,y,z
-x,1/2+y,-z
loop_
_atom_site_type_symbol
_atom_site_label
_atom_site_fract_x
_atom_site_fract_y
_atom_site_fract_z
Si Si1 0.636911 0.282260 0.833817
Si Si2 0.733245 0.461988 0.339656
Si Si3 0.194452 0.137298 0.276854
Si Si4 0.012367 0.656049 0.575143
Si Si5 0.329294 0.279877 0.013280
Si Si6 0.586865 0.666917 0.524119
Si Si7 0.076800 0.380434 0.040623
Si Si8 0.378733 0.448871 0.783294
O O1 0.757104 0.356898 0.777323
O O2 0.635214 0.467108 0.947890
O O3 0.507024 0.341821 0.746256
O O4 0.642107 0.962204 0.870370
O O5 0.868346 0.323208 0.360713
O O6 0.677196 0.505836 0.452853
O O7 0.737089 0.761203 0.279273
O O8 0.642190 0.268989 0.249639
O O9 0.320767 0.257977 0.357837
O O10 0.130963 0.342146 0.175397
O O11 0.085656 0.066559 0.346513
O O12 0.056496 0.371507 0.521765
O O13 0.180924 0.299073 0.966551
O O14 0.400419 0.400663 0.918858
O O15 0.524744 0.949107 0.464954
O O16 0.044843 0.701256 0.011538
#
# Coordination Sequence:
#
# PCOD8047499 Si02
#       8
#     2   2   2   2   2   2   2   2
#     4  11  23  45  70 110 137 195 245 297 375 453
#     4  12  26  46  68 112 140 191 248 303 371 453
#     4  11  27  48  79 103 150 201 236 317 376 432
#     4  12  28  49  74 105 149 191 255 302 374 458
#     4  11  24  43  70 103 148 187 248 299 369 442
#     4  12  27  48  77 110 148 192 250 313 376 454
#     4  11  26  45  70 106 142 191 252 295 356 445
#     4  12  25  44  74 105 152 188 240 310 375 437
#
# _framework density 25.979032
#
# number of rings (size 3 to 8) (size 9 to 14) (size 15 to 20)
#    0.000    0.500    1.250    6.750    5.250    7.000 
#    0.000    0.000    0.000    0.000    0.000    0.000 
#    0.000    0.000    0.000    0.000    0.000    0.000 
#
# Total GULP energy -198338.858322 kJ/mol
# GULP energy per Si atom -12396.178645 kJ/mol
# Density = 2.591990 g / cm^3
# Si number density = 25.979032 Si / 1000 Ang^3
#
#
#
# Elastic Constant Matrix: (Units=GPa)
#
#
# Indices 1 2 3 4 5 6 
#
# 1 118.0416 4.5198 40.9149 0.0000 -0.3532 0.0000
# 2 4.5198 73.9812 16.5865 0.0000 1.7248 0.0000
# 3 40.9149 16.5865 119.4275 0.0000 4.1242 0.0000
# 4 0.0000 0.0000 0.0000 37.4013 0.0000 7.4459
# 5 -0.3532 1.7248 4.1242 0.0000 42.9175 0.0000
# 6 0.0000 0.0000 0.0000 7.4459 0.0000 37.9321
#
#
#
# Elastic Compliance Matrix: (Units=1/GPa)
#
#
# Indices 1 2 3 4 5 6 
#
# 1 0.009621 0.000150 -0.003331 0.000000 0.000393 0.000000
# 2 0.000150 0.013960 -0.001977 0.000000 -0.000370 0.000000
# 3 -0.003331 -0.001977 0.009820 0.000000 -0.000892 0.000000
# 4 0.000000 0.000000 0.000000 0.027824 0.000000 -0.005462
# 5 0.000393 -0.000370 -0.000892 0.000000 0.023404 0.000000
# 6 0.000000 0.000000 0.000000 -0.005462 0.000000 0.027435
#
#
# Mechanical properties :
#
#
# Convention : Reuss Voigt Hill
#
# Bulk Modulus (GPa) = 43.31900 48.38808 45.85354
# Shear Modulus (GPa) = 38.43911 40.27879 39.35895
#
# Velocity S-wave (km/s) = 3.85076 3.94183 3.89656
# Velocity P-wave (km/s) = 6.04003 6.27564 6.15896
#
# Compressibility (1/GPa) = 0.02308456
#
# Stress axis : x y z
#
# Youngs Moduli (GPa) = 103.93427 71.63466 101.83588
#
# Poissons Ratio (x) = -0.01073 0.33918
# Poissons Ratio (y) = -0.01556 0.20136
# Poissons Ratio (z) = 0.34616 0.14164
#
# Static dielectric constant tensor:
#      x y z
#    x 4.854130 0.000000 0.063070 
#    y 0.000000 4.548300 0.000000 
#    z 0.063070 0.000000 4.537530 
# 
# 
# High freq. dielectric constant tensor:
#      x y z
#    x 2.054550 0.000000 0.009350 
#    y 0.000000 2.039470 0.000000 
#    z 0.009350 0.000000 2.034660 
# 
# From -- ./inp_files/11714.got.cif
#   From: 2010.03.12/outbox.cif.g09.slc.cpg/sg4_6_cif.got.tgz:11714.got - 2010.03.31 09:31:35.
