data_PCOD8047433
_publ_section_title
;
Structure prediction by ZEFSAII (Michael W. Deem and Ramdas Pophale) SiO2 
 PCOD8047433
Probable space group: P 21
;
_chemical_formula_sum "Si O2"
_cell_formula_units_Z 12
_cell_length_a 9.251876
_cell_length_b 12.126860
_cell_length_c 4.822093
_cell_angle_alpha 90.000000
_cell_angle_beta 105.878203
_cell_angle_gamma 90.000000
_cell_volume 520.378146
_symmetry_space_group_name_H-M "P 21"
_symmetry_group_IT_number 4
_symmetry_cell_setting 'monoclinic'
loop_
_space_group_symop_operation_xyz
x,y,z
-x,1/2+y,-z
loop_
_atom_site_type_symbol
_atom_site_label
_atom_site_fract_x
_atom_site_fract_y
_atom_site_fract_z
Si Si1 0.683307 0.943850 0.926202
Si Si2 0.195899 0.566413 0.506699
Si Si3 0.881650 0.755211 0.898372
Si Si4 0.869130 0.609252 0.382624
Si Si5 0.335983 0.909608 0.740664
Si Si6 0.210106 0.791409 0.175483
O O1 0.761467 0.825536 0.016807
O O2 0.510041 0.925790 0.768870
O O3 0.774788 0.969978 0.693817
O O4 0.698764 0.037542 0.171805
O O5 0.240297 0.678304 0.363316
O O6 0.030304 0.557937 0.558805
O O7 0.820768 0.705419 0.574842
O O8 0.918371 0.653126 0.111421
O O9 0.045522 0.811966 0.955839
O O10 0.735446 0.527593 0.227495
O O11 0.246951 0.885600 0.412466
O O12 0.317635 0.813718 0.965034
#
# Coordination Sequence:
#
# PCOD8047433 Si02
#       6
#     2   2   2   2   2   2
#     4  12  25  41  64  97 133 169 209 269 334 390
#     4  11  23  43  67  92 125 171 222 267 318 387
#     4  11  23  42  66  93 124 168 218 266 317 381
#     4  11  23  42  66  93 124 168 218 266 317 381
#     4  12  25  41  64  97 133 169 209 269 334 390
#     4  11  23  43  67  92 125 171 222 267 318 387
#
# _framework density 23.060155999999999
#
# number of rings (size 3 to 8) (size 9 to 14) (size 15 to 20)
#    0.000    0.667    0.000   10.000    0.000    4.000 
#    0.000    0.000    0.000    0.000    0.000    0.000 
#    0.000    0.000    0.000    0.000    0.000    0.000 
#
# Total GULP energy -148660.287815 kJ/mol
# GULP energy per Si atom -12388.357318 kJ/mol
# Density = 2.300767 g / cm^3
# Si number density = 23.060156 Si / 1000 Ang^3
#
#
#
# Elastic Constant Matrix: (Units=GPa)
#
#
# Indices 1 2 3 4 5 6 
#
# 1 96.6748 54.9455 39.1423 0.0000 1.3548 0.0000
# 2 54.9455 69.1587 28.4455 0.0000 10.6371 0.0000
# 3 39.1423 28.4455 103.1137 0.0000 -16.9804 0.0000
# 4 0.0000 0.0000 0.0000 39.7482 0.0000 -6.9014
# 5 1.3548 10.6371 -16.9804 0.0000 21.7486 0.0000
# 6 0.0000 0.0000 0.0000 -6.9014 0.0000 21.5275
#
#
#
# Elastic Compliance Matrix: (Units=1/GPa)
#
#
# Indices 1 2 3 4 5 6 
#
# 1 0.020269 -0.015677 -0.002656 0.000000 0.004331 0.000000
# 2 -0.015677 0.032564 -0.006305 0.000000 -0.019873 0.000000
# 3 -0.002656 -0.006305 0.014896 0.000000 0.014879 0.000000
# 4 0.000000 0.000000 0.000000 0.026641 0.000000 0.008541
# 5 0.004331 -0.019873 0.014879 0.000000 0.067047 0.000000
# 6 0.000000 0.000000 0.000000 0.008541 0.000000 0.049190
#
#
# Mechanical properties :
#
#
# Convention : Reuss Voigt Hill
#
# Bulk Modulus (GPa) = 54.19177 57.11265 55.65221
# Shear Modulus (GPa) = 18.79451 26.36579 22.58015
#
# Velocity S-wave (km/s) = 2.85795 3.38501 3.13259
# Velocity P-wave (km/s) = 5.86871 6.33232 6.10492
#
# Compressibility (1/GPa) = 0.01845299
#
# Stress axis : x y z
#
# Youngs Moduli (GPa) = 49.33718 30.70832 67.13238
#
# Poissons Ratio (x) = 0.48141 0.17831
# Poissons Ratio (y) = 0.77345 0.42328
# Poissons Ratio (z) = 0.13105 0.19362
#
# Static dielectric constant tensor:
#      x y z
#    x 4.042680 0.000000 -0.066650 
#    y 0.000000 4.156060 0.000000 
#    z -0.066650 0.000000 4.231390 
# 
# 
# High freq. dielectric constant tensor:
#      x y z
#    x 1.901060 0.000000 -0.010520 
#    y 0.000000 1.911130 0.000000 
#    z -0.010520 0.000000 1.922990 
# 
# From -- ./inp_files/1278.got.cif
#   From: 2010.03.12/outbox.cif.g09.slc.cpg/sg4_1_cif.got.tgz:1278.got - 2010.03.31 09:31:35.
