data_PCOD8047426
_publ_section_title
;
Structure prediction by ZEFSAII (Michael W. Deem and Ramdas Pophale) SiO2 
 PCOD8047426
Probable space group: P 21
;
_chemical_formula_sum "Si O2"
_cell_formula_units_Z 14
_cell_length_a 11.597785
_cell_length_b 10.421403
_cell_length_c 11.291257
_cell_angle_alpha 90.000000
_cell_angle_beta 24.967015
_cell_angle_gamma 90.000000
_cell_volume 576.043418
_symmetry_space_group_name_H-M "P 21"
_symmetry_group_IT_number 4
_symmetry_cell_setting 'monoclinic'
loop_
_space_group_symop_operation_xyz
x,y,z
-x,1/2+y,-z
loop_
_atom_site_type_symbol
_atom_site_label
_atom_site_fract_x
_atom_site_fract_y
_atom_site_fract_z
Si Si1 0.532416 0.650410 0.442502
Si Si2 0.721666 0.996609 0.126526
Si Si3 0.278081 0.351201 0.318469
Si Si4 0.731666 0.778854 0.934290
Si Si5 0.269395 0.615928 0.444267
Si Si6 0.846957 0.252938 0.877005
Si Si7 0.949323 0.318234 0.032368
O O1 0.519228 0.546865 0.562334
O O2 0.428020 0.585559 0.418736
O O3 0.837593 0.702531 0.141027
O O4 0.346449 0.773531 0.647468
O O5 0.973383 0.951650 0.976296
O O6 0.634497 0.874858 0.129401
O O7 0.809296 0.108647 0.956922
O O8 0.227743 0.355131 0.225244
O O9 0.177868 0.485547 0.466439
O O10 0.086008 0.243833 0.557144
O O11 0.587252 0.316361 0.057780
O O12 0.010261 0.706886 0.710216
O O13 0.481530 0.680504 0.154638
O O14 0.935486 0.343898 0.904287
#
# Coordination Sequence:
#
# PCOD8047426 Si02
#       7
#     2   2   2   2   2   2   2
#     4  11  23  41  70 103 144 178 232 290 363 423
#     4  11  25  45  76 108 144 180 238 302 357 430
#     4  12  28  48  72 105 146 193 243 294 344 428
#     4  12  28  46  75 105 143 189 248 287 362 421
#     4  12  25  51  72 105 144 195 233 298 360 427
#     4  11  26  47  73 108 143 190 239 297 359 415
#     4  11  23  44  66 110 140 183 229 290 361 426
#
# _framework density 24.303723000000002
#
# number of rings (size 3 to 8) (size 9 to 14) (size 15 to 20)
#    0.000    0.571    2.857    4.286    4.000    9.143 
#    0.000    0.000    0.000    0.000    0.000    0.000 
#    0.000    0.000    0.000    0.000    0.000    0.000 
#
# Total GULP energy -173658.852782 kJ/mol
# GULP energy per Si atom -12404.203770 kJ/mol
# Density = 2.424841 g / cm^3
# Si number density = 24.303723 Si / 1000 Ang^3
#
#
#
# Elastic Constant Matrix: (Units=GPa)
#
#
# Indices 1 2 3 4 5 6 
#
# 1 121.9933 31.3169 15.9295 0.0000 11.2256 0.0000
# 2 31.3169 91.8264 12.9921 0.0000 6.1043 0.0000
# 3 15.9295 12.9921 78.2981 0.0000 4.7778 0.0000
# 4 0.0000 0.0000 0.0000 24.6755 0.0000 9.4407
# 5 11.2256 6.1043 4.7778 0.0000 41.7173 0.0000
# 6 0.0000 0.0000 0.0000 9.4407 0.0000 32.6912
#
#
#
# Elastic Compliance Matrix: (Units=1/GPa)
#
#
# Indices 1 2 3 4 5 6 
#
# 1 0.009276 -0.002852 -0.001296 0.000000 -0.001930 0.000000
# 2 -0.002852 0.012114 -0.001378 0.000000 -0.000847 0.000000
# 3 -0.001296 -0.001378 0.013324 0.000000 -0.000975 0.000000
# 4 0.000000 0.000000 0.000000 0.045560 0.000000 -0.013157
# 5 -0.001930 -0.000847 -0.000975 0.000000 0.024726 0.000000
# 6 0.000000 0.000000 0.000000 -0.013157 0.000000 0.034389
#
#
# Mechanical properties :
#
#
# Convention : Reuss Voigt Hill
#
# Bulk Modulus (GPa) = 42.26308 45.84386 44.05347
# Shear Modulus (GPa) = 31.58001 35.27543 33.42772
#
# Velocity S-wave (km/s) = 3.60862 3.81391 3.71268
# Velocity P-wave (km/s) = 5.89831 6.18857 6.04518
#
# Compressibility (1/GPa) = 0.02366131
#
# Stress axis : x y z
#
# Youngs Moduli (GPa) = 107.80331 82.54877 75.05469
#
# Poissons Ratio (x) = 0.23542 0.09729
# Poissons Ratio (y) = 0.30744 0.10344
# Poissons Ratio (z) = 0.13973 0.11377
#
# Static dielectric constant tensor:
#      x y z
#    x 4.485990 0.000000 0.105050 
#    y 0.000000 4.270330 0.000000 
#    z 0.105050 0.000000 4.303760 
# 
# 
# High freq. dielectric constant tensor:
#      x y z
#    x 1.969760 0.000000 0.008720 
#    y 0.000000 1.963170 0.000000 
#    z 0.008720 0.000000 1.974040 
# 
# From -- ./inp_files/12243.got.cif
#   From: 2010.03.12/outbox.cif.g09.slc.cpg/sg4_7_cif.got.tgz:12243.got - 2010.03.31 09:31:35.
