data_PCOD8047303
_publ_section_title
;
Structure prediction by ZEFSAII (Michael W. Deem and Ramdas Pophale) SiO2 
 PCOD8047303
Probable space group: P 21
;
_chemical_formula_sum "Si O2"
_cell_formula_units_Z 16
_cell_length_a 6.674945
_cell_length_b 14.598225
_cell_length_c 8.209727
_cell_angle_alpha 90.000000
_cell_angle_beta 77.794165
_cell_angle_gamma 90.000000
_cell_volume 781.891141
_symmetry_space_group_name_H-M "P 21"
_symmetry_group_IT_number 4
_symmetry_cell_setting 'monoclinic'
loop_
_space_group_symop_operation_xyz
x,y,z
-x,1/2+y,-z
loop_
_atom_site_type_symbol
_atom_site_label
_atom_site_fract_x
_atom_site_fract_y
_atom_site_fract_z
Si Si1 0.355968 0.168520 0.612557
Si Si2 0.520688 0.351170 0.448888
Si Si3 0.156988 0.428873 0.327459
Si Si4 0.598728 0.083066 0.853113
Si Si5 0.139960 0.858744 0.864663
Si Si6 0.783765 0.507918 0.568441
Si Si7 0.807189 0.538895 0.934983
Si Si8 0.974713 0.189370 0.909354
O O1 0.495238 0.255683 0.546759
O O2 0.492691 0.102758 0.699440
O O3 0.150628 0.198131 0.743245
O O4 0.304888 0.108098 0.461455
O O5 0.290556 0.381312 0.443912
O O6 0.646391 0.334302 0.260457
O O7 0.628415 0.425675 0.547780
O O8 0.296779 0.484391 0.177433
O O9 0.036306 0.353800 0.242675
O O10 0.995165 0.498167 0.435203
O O11 0.761535 0.160402 0.866335
O O12 0.424858 0.077277 0.021221
O O13 0.073554 0.789057 0.014194
O O14 0.159754 0.959288 0.938476
O O15 0.842595 0.502787 0.747594
O O16 0.963635 0.620121 0.955655
#
# Coordination Sequence:
#
# PCOD8047303 Si02
#       8
#     2   2   2   2   2   2   2   2
#     4  11  25  42  65  95 130 164 217 261 314 383
#     4  11  25  43  65  96 127 171 212 261 321 374
#     4  11  21  45  68  84 130 174 204 261 318 370
#     4  11  21  45  68  84 130 174 204 261 318 370
#     4  11  25  42  65  95 130 164 217 261 314 383
#     4  11  25  43  64  98 130 165 217 260 314 383
#     4  11  25  43  64  98 130 165 217 260 314 383
#     4  11  25  43  65  96 127 171 212 261 321 374
#
# _framework density 20.463206
#
# number of rings (size 3 to 8) (size 9 to 14) (size 15 to 20)
#    0.000    1.000    5.000    1.500    7.000    5.000 
#    0.000    0.000    0.000    0.000    0.000    0.000 
#    0.000    0.000    0.000    0.000    0.000    0.000 
#
# Total GULP energy -198452.404769 kJ/mol
# GULP energy per Si atom -12403.275298 kJ/mol
# Density = 2.041663 g / cm^3
# Si number density = 20.463206 Si / 1000 Ang^3
#
#
#
# Elastic Constant Matrix: (Units=GPa)
#
#
# Indices 1 2 3 4 5 6 
#
# 1 96.5137 13.0480 15.4611 0.0000 -3.9547 0.0000
# 2 13.0480 85.3355 18.0391 0.0000 -10.5255 0.0000
# 3 15.4611 18.0391 71.8190 0.0000 5.2981 0.0000
# 4 0.0000 0.0000 0.0000 41.3799 0.0000 -1.5360
# 5 -3.9547 -10.5255 5.2981 0.0000 22.2618 0.0000
# 6 0.0000 0.0000 0.0000 -1.5360 0.0000 26.9947
#
#
#
# Elastic Compliance Matrix: (Units=1/GPa)
#
#
# Indices 1 2 3 4 5 6 
#
# 1 0.010935 -0.000941 -0.002268 0.000000 0.002037 0.000000
# 2 -0.000941 0.013526 -0.003719 0.000000 0.007113 0.000000
# 3 -0.002268 -0.003719 0.015783 0.000000 -0.005918 0.000000
# 4 0.000000 0.000000 0.000000 0.024217 0.000000 0.001378
# 5 0.002037 0.007113 -0.005918 0.000000 0.050053 0.000000
# 6 0.000000 0.000000 0.000000 0.001378 0.000000 0.037123
#
#
# Mechanical properties :
#
#
# Convention : Reuss Voigt Hill
#
# Bulk Modulus (GPa) = 37.89798 38.52941 38.21369
# Shear Modulus (GPa) = 28.68769 31.93528 30.31148
#
# Velocity S-wave (km/s) = 3.74828 3.95475 3.85290
# Velocity P-wave (km/s) = 6.10680 6.30261 6.20548
#
# Compressibility (1/GPa) = 0.02638663
#
# Stress axis : x y z
#
# Youngs Moduli (GPa) = 91.44706 73.93173 63.35960
#
# Poissons Ratio (x) = 0.06959 0.14370
# Poissons Ratio (y) = 0.08608 0.23566
# Poissons Ratio (z) = 0.20740 0.27499
#
# Static dielectric constant tensor:
#      x y z
#    x 3.934820 0.000000 -0.033680 
#    y 0.000000 3.604510 0.000000 
#    z -0.033680 0.000000 3.633540 
# 
# 
# High freq. dielectric constant tensor:
#      x y z
#    x 1.816820 0.000000 -0.002160 
#    y 0.000000 1.799180 0.000000 
#    z -0.002160 0.000000 1.792160 
# 
# From -- ./inp_files/1598.got.cif
#   From: 2010.03.12/outbox.cif.g09.slc.cpg/sg4_1_cif.got.tgz:1598.got - 2010.03.31 09:31:35.
