data_PCOD8047946
_publ_section_title
;
Structure prediction by ZEFSAII (Michael W. Deem and Ramdas Pophale) SiO2 
 PCOD8047946
Probable space group: P 21
;
_chemical_formula_sum "Si O2"
_cell_formula_units_Z 12
_cell_length_a 13.888243
_cell_length_b 5.794477
_cell_length_c 9.420281
_cell_angle_alpha 90.000000
_cell_angle_beta 137.488838
_cell_angle_gamma 90.000000
_cell_volume 512.272529
_symmetry_space_group_name_H-M "P 21"
_symmetry_group_IT_number 4
_symmetry_cell_setting 'monoclinic'
loop_
_space_group_symop_operation_xyz
x,y,z
-x,1/2+y,-z
loop_
_atom_site_type_symbol
_atom_site_label
_atom_site_fract_x
_atom_site_fract_y
_atom_site_fract_z
Si Si1 0.077145 0.589830 0.939876
Si Si2 0.781965 0.731083 0.736870
Si Si3 0.705997 0.448361 0.911994
Si Si4 0.362731 0.306892 0.939876
Si Si5 0.939879 0.948361 0.379759
Si Si6 0.454905 0.165639 0.736870
O O1 0.039790 0.417515 0.768885
O O2 0.938600 0.629812 0.883509
O O3 0.194883 0.489864 0.178348
O O4 0.144135 0.814309 0.937404
O O5 0.690944 0.604560 0.757520
O O6 0.699720 0.698361 0.500000
O O7 0.566577 0.292162 0.757520
O O8 0.706731 0.582413 0.062596
O O9 0.229095 0.479206 0.768884
O O10 0.444910 0.266909 0.883510
O O11 0.483465 0.406858 0.178348
O O12 0.992620 0.698360 0.500000
#
# Coordination Sequence:
#
# PCOD8047946 Si02
#       6
#     2   2   2   2   2   2
#     4  12  26  49  75 109 159 198 264 328 381 471
#     4  12  28  47  76 111 151 208 256 318 397 468
#     4  12  25  49  76 102 156 202 249 325 388 462
#     4  12  26  49  75 109 159 198 264 328 381 471
#     4  12  27  47  82 116 156 212 269 325 398 464
#     4  12  28  47  76 111 151 208 256 318 397 468
#
# _framework density 23.425032999999999
#
# number of rings (size 3 to 8) (size 9 to 14) (size 15 to 20)
#    0.000    0.000    6.667    2.000    4.667    2.667 
#    0.000    0.000    0.000    0.000    0.000    0.000 
#    0.000    0.000    0.000    0.000    0.000    0.000 
#
# Total GULP energy -148700.480591 kJ/mol
# GULP energy per Si atom -12391.706716 kJ/mol
# Density = 2.337172 g / cm^3
# Si number density = 23.425033 Si / 1000 Ang^3
#
#
#
# Elastic Constant Matrix: (Units=GPa)
#
#
# Indices 1 2 3 4 5 6 
#
# 1 138.3580 32.1325 21.0410 0.0000 -2.9398 0.0000
# 2 32.1325 100.1985 54.5505 0.0000 1.0749 0.0000
# 3 21.0410 54.5505 132.0686 0.0000 2.6386 0.0000
# 4 0.0000 0.0000 0.0000 35.3024 0.0000 -0.6562
# 5 -2.9398 1.0749 2.6386 0.0000 28.2667 0.0000
# 6 0.0000 0.0000 0.0000 -0.6562 0.0000 48.9891
#
#
#
# Elastic Compliance Matrix: (Units=1/GPa)
#
#
# Indices 1 2 3 4 5 6 
#
# 1 0.007841 -0.002366 -0.000290 0.000000 0.000933 0.000000
# 2 -0.002366 0.013590 -0.005231 0.000000 -0.000275 0.000000
# 3 -0.000290 -0.005231 0.009794 0.000000 -0.000745 0.000000
# 4 0.000000 0.000000 0.000000 0.028334 0.000000 0.000380
# 5 0.000933 -0.000275 -0.000745 0.000000 0.035554 0.000000
# 6 0.000000 0.000000 0.000000 0.000380 0.000000 0.020418
#
#
# Mechanical properties :
#
#
# Convention : Reuss Voigt Hill
#
# Bulk Modulus (GPa) = 64.72789 65.11922 64.92356
# Shear Modulus (GPa) = 36.64205 40.03838 38.34021
#
# Velocity S-wave (km/s) = 3.95932 4.13875 4.05003
# Velocity P-wave (km/s) = 6.97091 7.12028 7.04599
#
# Compressibility (1/GPa) = 0.01544929
#
# Stress axis : x y z
#
# Youngs Moduli (GPa) = 127.53150 73.58487 102.10853
#
# Poissons Ratio (x) = 0.17414 0.02965
# Poissons Ratio (y) = 0.30180 0.53410
# Poissons Ratio (z) = 0.03704 0.38490
#
# Static dielectric constant tensor:
#      x y z
#    x 4.399170 0.000000 -0.012970 
#    y 0.000000 4.545990 0.000000 
#    z -0.012970 0.000000 4.128550 
# 
# 
# High freq. dielectric constant tensor:
#      x y z
#    x 1.953070 0.000000 -0.001780 
#    y 0.000000 1.923560 0.000000 
#    z -0.001780 0.000000 1.915850 
# 
# From -- ./inp_files/8788.got.cif
#   From: 2010.03.12/outbox.cif.g09.slc.cpg/sg4_5_cif.got.tgz:8788.got - 2010.03.31 09:31:35.
