data_PCOD8047102
_publ_section_title
;
Structure prediction by ZEFSAII (Michael W. Deem and Ramdas Pophale) SiO2 
 PCOD8047102
Probable space group: P 21
;
_chemical_formula_sum "Si O2"
_cell_formula_units_Z 16
_cell_length_a 8.736716
_cell_length_b 8.402679
_cell_length_c 10.194505
_cell_angle_alpha 90.000000
_cell_angle_beta 63.678306
_cell_angle_gamma 90.000000
_cell_volume 670.802305
_symmetry_space_group_name_H-M "P 21"
_symmetry_group_IT_number 4
_symmetry_cell_setting 'monoclinic'
loop_
_space_group_symop_operation_xyz
x,y,z
-x,1/2+y,-z
loop_
_atom_site_type_symbol
_atom_site_label
_atom_site_fract_x
_atom_site_fract_y
_atom_site_fract_z
Si Si1 0.956047 0.036890 0.663048
Si Si2 0.705986 0.684901 0.375248
Si Si3 0.770915 0.278705 0.072396
Si Si4 0.037101 0.076110 0.112590
Si Si5 0.582590 0.351254 0.402796
Si Si6 0.878098 0.195015 0.423965
Si Si7 0.361230 0.235808 0.901478
Si Si8 0.378896 0.543504 0.050097
O O1 0.876109 0.115526 0.565425
O O2 0.805305 0.005053 0.821258
O O3 0.092452 0.159954 0.676295
O O4 0.037909 0.868402 0.600236
O O5 0.608417 0.524594 0.451760
O O6 0.619964 0.810490 0.510502
O O7 0.668094 0.747562 0.243079
O O8 0.899120 0.402992 0.955324
O O9 0.632196 0.209145 0.025582
O O10 0.663540 0.363124 0.227298
O O11 0.877138 0.127430 0.084474
O O12 0.979549 0.077728 0.286388
O O13 0.182237 0.208043 0.040882
O O14 0.683321 0.219486 0.451254
O O15 0.480914 0.082631 0.891168
O O16 0.437497 0.400953 0.930485
#
# Coordination Sequence:
#
# PCOD8047102 Si02
#       8
#     2   2   2   2   2   2   2   2
#     4  11  25  48  70 104 138 189 233 289 347 421
#     4  11  25  46  74 100 143 184 235 286 350 420
#     4  11  24  43  73 104 141 184 234 287 352 422
#     4  11  22  45  72 104 141 183 231 290 348 422
#     4  10  24  45  68 103 140 183 232 287 346 415
#     4  10  24  45  70 103 143 180 236 285 350 415
#     4  12  25  45  71 102 144 182 234 293 352 414
#     4  12  27  45  70 104 142 183 237 291 355 417
#
# _framework density 23.852035999999998
#
# number of rings (size 3 to 8) (size 9 to 14) (size 15 to 20)
#    0.000    1.000    2.500    3.000    5.250    3.000 
#    2.250    0.000    0.000    0.000    0.000    0.000 
#    0.000    0.000    0.000    0.000    0.000    0.000 
#
# Total GULP energy -198404.578853 kJ/mol
# GULP energy per Si atom -12400.286178 kJ/mol
# Density = 2.379775 g / cm^3
# Si number density = 23.852036 Si / 1000 Ang^3
#
#
#
# Elastic Constant Matrix: (Units=GPa)
#
#
# Indices 1 2 3 4 5 6 
#
# 1 69.2663 0.9163 31.2554 0.0000 1.7174 0.0000
# 2 0.9163 65.1501 38.9666 0.0000 11.9820 0.0000
# 3 31.2554 38.9666 84.8530 0.0000 5.4555 0.0000
# 4 0.0000 0.0000 0.0000 42.0745 0.0000 -2.0430
# 5 1.7174 11.9820 5.4555 0.0000 37.5745 0.0000
# 6 0.0000 0.0000 0.0000 -2.0430 0.0000 36.3058
#
#
#
# Elastic Compliance Matrix: (Units=1/GPa)
#
#
# Indices 1 2 3 4 5 6 
#
# 1 0.018598 0.005542 -0.009314 0.000000 -0.001265 0.000000
# 2 0.005542 0.023951 -0.012651 0.000000 -0.006054 0.000000
# 3 -0.009314 -0.012651 0.020934 0.000000 0.001421 0.000000
# 4 0.000000 0.000000 0.000000 0.023832 0.000000 0.001341
# 5 -0.001265 -0.006054 0.001421 0.000000 0.028396 0.000000
# 6 0.000000 0.000000 0.000000 0.001341 0.000000 0.027619
#
#
# Mechanical properties :
#
#
# Convention : Reuss Voigt Hill
#
# Bulk Modulus (GPa) = 32.64041 40.17180 36.40611
# Shear Modulus (GPa) = 26.82535 33.06636 29.94585
#
# Velocity S-wave (km/s) = 3.35723 3.72736 3.54713
# Velocity P-wave (km/s) = 5.36118 5.95004 5.66327
#
# Compressibility (1/GPa) = 0.03063687
#
# Stress axis : x y z
#
# Youngs Moduli (GPa) = 53.76926 41.75111 47.76829
#
# Poissons Ratio (x) = -0.23138 0.44492
# Poissons Ratio (y) = -0.29799 0.60433
# Poissons Ratio (z) = 0.50082 0.52820
#
# Static dielectric constant tensor:
#      x y z
#    x 4.367440 0.000000 0.024760 
#    y 0.000000 4.184720 0.000000 
#    z 0.024760 0.000000 4.124130 
# 
# 
# High freq. dielectric constant tensor:
#      x y z
#    x 1.947070 0.000000 -0.001600 
#    y 0.000000 1.955920 0.000000 
#    z -0.001600 0.000000 1.941420 
# 
# From -- ./inp_files/5431.got.cif
#   From: 2010.03.12/outbox.cif.g09.slc.cpg/sg4_3_cif.got.tgz:5431.got - 2010.03.31 09:31:35.
