data_PCOD8047408
_publ_section_title
;
Structure prediction by ZEFSAII (Michael W. Deem and Ramdas Pophale) SiO2 
 PCOD8047408
Probable space group: P 21
;
_chemical_formula_sum "Si O2"
_cell_formula_units_Z 12
_cell_length_a 14.482440
_cell_length_b 7.741652
_cell_length_c 14.471310
_cell_angle_alpha 90.000000
_cell_angle_beta 160.395956
_cell_angle_gamma 90.000000
_cell_volume 544.376204
_symmetry_space_group_name_H-M "P 21"
_symmetry_group_IT_number 4
_symmetry_cell_setting 'monoclinic'
loop_
_space_group_symop_operation_xyz
x,y,z
-x,1/2+y,-z
loop_
_atom_site_type_symbol
_atom_site_label
_atom_site_fract_x
_atom_site_fract_y
_atom_site_fract_z
Si Si1 0.910425 0.262220 0.871966
Si Si2 0.636523 0.616413 0.586889
Si Si3 0.355420 0.036031 0.612737
Si Si4 0.737229 0.795447 0.316132
Si Si5 0.876743 0.799531 0.126697
Si Si6 0.764778 0.535630 0.176289
O O1 0.759585 0.442544 0.745250
O O2 0.686873 0.121236 0.694552
O O3 0.184937 0.264175 0.193537
O O4 0.981200 0.228193 0.831818
O O5 0.685520 0.630601 0.523587
O O6 0.394802 0.181255 0.727188
O O7 0.620531 0.916139 0.857217
O O8 0.092318 0.915824 0.388143
O O9 0.811207 0.673585 0.300498
O O10 0.013460 0.883855 0.612395
O O11 0.530767 0.946391 0.090691
O O12 0.779847 0.634630 0.093366
#
# Coordination Sequence:
#
# PCOD8047408 Si02
#       6
#     2   2   2   2   2   2
#     4  11  23  40  62  90 125 166 207 255 309 363
#     4  11  23  40  62  90 125 166 207 255 309 363
#     4  11  23  43  64  90 126 166 206 255 309 363
#     4  12  25  43  67  96 125 162 204 254 309 370
#     4  11  23  43  64  90 126 166 206 255 309 363
#     4  12  25  43  67  96 125 162 204 254 309 370
#
# _framework density 22.043578
#
# number of rings (size 3 to 8) (size 9 to 14) (size 15 to 20)
#    0.000    0.667    0.000   10.000    0.000    4.000 
#    0.000    0.000    0.000    0.000    0.000    0.000 
#    0.000    0.000    0.000    0.000    0.000    0.000 
#
# Total GULP energy -148889.556211 kJ/mol
# GULP energy per Si atom -12407.463018 kJ/mol
# Density = 2.199341 g / cm^3
# Si number density = 22.043578 Si / 1000 Ang^3
#
#
#
# Elastic Constant Matrix: (Units=GPa)
#
#
# Indices 1 2 3 4 5 6 
#
# 1 74.8310 13.2711 13.1113 0.0000 -4.0967 0.0000
# 2 13.2711 40.9650 10.2486 0.0000 -3.0791 0.0000
# 3 13.1113 10.2486 100.0642 0.0000 7.1440 0.0000
# 4 0.0000 0.0000 0.0000 56.2410 0.0000 3.3233
# 5 -4.0967 -3.0791 7.1440 0.0000 28.0838 0.0000
# 6 0.0000 0.0000 0.0000 3.3233 0.0000 23.2872
#
#
#
# Elastic Compliance Matrix: (Units=1/GPa)
#
#
# Indices 1 2 3 4 5 6 
#
# 1 0.014495 -0.004134 -0.001624 0.000000 0.002074 0.000000
# 2 -0.004134 0.026567 -0.002388 0.000000 0.002917 0.000000
# 3 -0.001624 -0.002388 0.010680 0.000000 -0.003216 0.000000
# 4 0.000000 0.000000 0.000000 0.017932 0.000000 -0.002559
# 5 0.002074 0.002917 -0.003216 0.000000 0.037048 0.000000
# 6 0.000000 0.000000 0.000000 -0.002559 0.000000 0.043307
#
#
# Mechanical properties :
#
#
# Convention : Reuss Voigt Hill
#
# Bulk Modulus (GPa) = 28.20744 32.12471 30.16607
# Shear Modulus (GPa) = 28.06835 33.47100 30.76968
#
# Velocity S-wave (km/s) = 3.57222 3.90089 3.74017
# Velocity P-wave (km/s) = 5.46245 5.90713 5.68914
#
# Compressibility (1/GPa) = 0.03545164
#
# Stress axis : x y z
#
# Youngs Moduli (GPa) = 68.99118 37.64100 93.62869
#
# Poissons Ratio (x) = 0.15559 0.15205
# Poissons Ratio (y) = 0.28518 0.22355
# Poissons Ratio (z) = 0.11204 0.08987
#
# Static dielectric constant tensor:
#      x y z
#    x 3.881860 0.000000 0.077330 
#    y 0.000000 3.976590 0.000000 
#    z 0.077330 0.000000 4.330600 
# 
# 
# High freq. dielectric constant tensor:
#      x y z
#    x 1.869680 0.000000 0.003380 
#    y 0.000000 1.872550 0.000000 
#    z 0.003380 0.000000 1.887190 
# 
# From -- ./inp_files/12163.got.cif
#   From: 2010.03.12/outbox.cif.g09.slc.cpg/sg4_7_cif.got.tgz:12163.got - 2010.03.31 09:31:35.
