data_PCOD8047880
_publ_section_title
;
Structure prediction by ZEFSAII (Michael W. Deem and Ramdas Pophale) SiO2 
 PCOD8047880
Probable space group: P 21
;
_chemical_formula_sum "Si O2"
_cell_formula_units_Z 14
_cell_length_a 14.038488
_cell_length_b 7.627225
_cell_length_c 14.389433
_cell_angle_alpha 90.000000
_cell_angle_beta 20.628821
_cell_angle_gamma 90.000000
_cell_volume 542.823423
_symmetry_space_group_name_H-M "P 21"
_symmetry_group_IT_number 4
_symmetry_cell_setting 'monoclinic'
loop_
_space_group_symop_operation_xyz
x,y,z
-x,1/2+y,-z
loop_
_atom_site_type_symbol
_atom_site_label
_atom_site_fract_x
_atom_site_fract_y
_atom_site_fract_z
Si Si1 0.863223 0.603640 0.025281
Si Si2 0.986383 0.654710 0.716118
Si Si3 0.551781 0.815408 0.582315
Si Si4 0.777399 0.699764 0.556162
Si Si5 0.682515 0.339968 0.895854
Si Si6 0.282273 0.465456 0.766255
Si Si7 0.449514 0.843158 0.196818
O O1 0.066598 0.612360 0.750674
O O2 0.996219 0.560544 0.004401
O O3 0.674151 0.442498 0.168765
O O4 0.726490 0.796574 0.158755
O O5 0.264249 0.687050 0.407346
O O6 0.821704 0.510367 0.810258
O O7 0.768875 0.814228 0.920362
O O8 0.777996 0.805129 0.456914
O O9 0.465959 0.613650 0.643838
O O10 0.631024 0.902760 0.414173
O O11 0.647152 0.511432 0.657126
O O12 0.089919 0.686174 0.304210
O O13 0.595156 0.798092 0.798838
O O14 0.611263 0.376915 0.855094
#
# Coordination Sequence:
#
# PCOD8047880 Si02
#       7
#     2   2   2   2   2   2   2
#     4  12  26  47  72 108 145 188 245 298 371 430
#     4  12  27  46  74 105 148 190 240 305 362 434
#     4  12  26  47  71 109 144 188 246 298 370 431
#     4  12  27  46  74 105 148 190 241 306 361 435
#     4  12  24  47  73 105 145 193 240 300 365 433
#     4  12  26  45  76 103 145 190 239 305 359 441
#     4  12  26  46  72 109 143 191 247 296 364 438
#
# _framework density 25.791077999999999
#
# number of rings (size 3 to 8) (size 9 to 14) (size 15 to 20)
#    0.000    0.000    4.286    6.000    2.000    2.286 
#    0.000    0.000    0.000    0.000    0.000    0.000 
#    0.000    0.000    0.000    0.000    0.000    0.000 
#
# Total GULP energy -173550.627769 kJ/mol
# GULP energy per Si atom -12396.473412 kJ/mol
# Density = 2.573238 g / cm^3
# Si number density = 25.791078 Si / 1000 Ang^3
#
#
#
# Elastic Constant Matrix: (Units=GPa)
#
#
# Indices 1 2 3 4 5 6 
#
# 1 114.1048 1.3198 13.9707 0.0000 17.4142 0.0000
# 2 1.3198 97.5720 8.5081 0.0000 18.9081 0.0000
# 3 13.9707 8.5081 65.8608 0.0000 11.4098 0.0000
# 4 0.0000 0.0000 0.0000 37.5806 0.0000 4.2460
# 5 17.4142 18.9081 11.4098 0.0000 41.4687 0.0000
# 6 0.0000 0.0000 0.0000 4.2460 0.0000 29.8468
#
#
#
# Elastic Compliance Matrix: (Units=1/GPa)
#
#
# Indices 1 2 3 4 5 6 
#
# 1 0.009535 0.000763 -0.001436 0.000000 -0.003957 0.000000
# 2 0.000763 0.011325 -0.000709 0.000000 -0.005289 0.000000
# 3 -0.001436 -0.000709 0.016191 0.000000 -0.003529 0.000000
# 4 0.000000 0.000000 0.000000 0.027044 0.000000 -0.003847
# 5 -0.003957 -0.005289 -0.003529 0.000000 0.029159 0.000000
# 6 0.000000 0.000000 0.000000 -0.003847 0.000000 0.034052
#
#
# Mechanical properties :
#
#
# Convention : Reuss Voigt Hill
#
# Bulk Modulus (GPa) = 29.16423 36.12609 32.64516
# Shear Modulus (GPa) = 35.33631 38.69518 37.01574
#
# Velocity S-wave (km/s) = 3.70550 3.87761 3.79253
# Velocity P-wave (km/s) = 5.44427 5.83828 5.64471
#
# Compressibility (1/GPa) = 0.03428858
#
# Stress axis : x y z
#
# Youngs Moduli (GPa) = 104.88008 88.29780 61.76292
#
# Poissons Ratio (x) = -0.06737 0.08867
# Poissons Ratio (y) = -0.08002 0.04376
# Poissons Ratio (z) = 0.15057 0.06256
#
# Static dielectric constant tensor:
#      x y z
#    x 4.816730 0.000000 -0.265470 
#    y 0.000000 5.163940 0.000000 
#    z -0.265470 0.000000 5.083780 
# 
# 
# High freq. dielectric constant tensor:
#      x y z
#    x 2.046390 0.000000 0.007260 
#    y 0.000000 2.049760 0.000000 
#    z 0.007260 0.000000 2.024710 
# 
# From -- ./inp_files/13215.got.cif
#   From: 2010.03.12/outbox.cif.g09.slc.cpg/sg4_7_cif.got.tgz:13215.got - 2010.03.31 09:31:35.
