data_PCOD8047576
_publ_section_title
;
Structure prediction by ZEFSAII (Michael W. Deem and Ramdas Pophale) SiO2 
 PCOD8047576
Probable space group: P 21
;
_chemical_formula_sum "Si O2"
_cell_formula_units_Z 16
_cell_length_a 6.588479
_cell_length_b 7.422904
_cell_length_c 23.088309
_cell_angle_alpha 90.000000
_cell_angle_beta 40.812192
_cell_angle_gamma 90.000000
_cell_volume 737.990889
_symmetry_space_group_name_H-M "P 21"
_symmetry_group_IT_number 4
_symmetry_cell_setting 'monoclinic'
loop_
_space_group_symop_operation_xyz
x,y,z
-x,1/2+y,-z
loop_
_atom_site_type_symbol
_atom_site_label
_atom_site_fract_x
_atom_site_fract_y
_atom_site_fract_z
Si Si1 0.218188 0.736490 0.022658
Si Si2 0.231800 0.655975 0.386344
Si Si3 0.071428 0.223149 0.143641
Si Si4 0.819373 0.310893 0.476726
Si Si5 0.187900 0.565388 0.905531
Si Si6 0.920704 0.602148 0.201425
Si Si7 0.832763 0.949133 0.407453
Si Si8 0.857115 0.423927 0.778735
O O1 0.102802 0.940211 0.046766
O O2 0.040314 0.626708 0.110299
O O3 0.582811 0.742855 0.956542
O O4 0.137932 0.650209 0.978559
O O5 0.279214 0.742065 0.438931
O O6 0.559464 0.650609 0.283149
O O7 0.100091 0.453110 0.419999
O O8 0.009282 0.781289 0.396993
O O9 0.980180 0.392925 0.203561
O O10 0.041829 0.047334 0.189515
O O11 0.828977 0.213668 0.142157
O O12 0.533394 0.411081 0.507176
O O13 0.926587 0.137165 0.416998
O O14 0.508137 0.457090 0.832989
O O15 0.116637 0.718545 0.205187
O O16 0.910002 0.964899 0.323353
#
# Coordination Sequence:
#
# PCOD8047576 Si02
#       8
#     2   2   2   2   2   2   2   2
#     4  11  24  43  71  98 145 187 239 292 356 422
#     4  12  27  47  73 109 143 188 238 302 360 427
#     4  11  26  46  68 102 144 189 241 293 355 422
#     4  12  26  47  77 104 146 189 238 293 365 431
#     4  11  24  44  69 103 140 192 235 292 360 417
#     4  12  26  45  73 104 143 186 240 296 354 427
#     4  12  26  47  74 107 143 186 240 293 362 434
#     4  11  27  45  69 103 144 185 233 299 352 426
#
# _framework density 21.680485999999998
#
# number of rings (size 3 to 8) (size 9 to 14) (size 15 to 20)
#    0.000    0.500    5.000    2.250    7.000    3.000 
#    2.250    0.000    0.000    0.000    0.000    0.000 
#    0.000    0.000    0.000    0.000    0.000    0.000 
#
# Total GULP energy -198502.555596 kJ/mol
# GULP energy per Si atom -12406.409725 kJ/mol
# Density = 2.163114 g / cm^3
# Si number density = 21.680486 Si / 1000 Ang^3
#
#
#
# Elastic Constant Matrix: (Units=GPa)
#
#
# Indices 1 2 3 4 5 6 
#
# 1 113.0589 35.8855 42.0865 0.0000 -5.4019 0.0000
# 2 35.8855 110.3776 37.5280 0.0000 -15.1224 0.0000
# 3 42.0865 37.5280 100.4376 0.0000 5.6472 0.0000
# 4 0.0000 0.0000 0.0000 28.2416 0.0000 0.3626
# 5 -5.4019 -15.1224 5.6472 0.0000 20.8886 0.0000
# 6 0.0000 0.0000 0.0000 0.3626 0.0000 38.5604
#
#
#
# Elastic Compliance Matrix: (Units=1/GPa)
#
#
# Indices 1 2 3 4 5 6 
#
# 1 0.011085 -0.001847 -0.004103 0.000000 0.002638 0.000000
# 2 -0.001847 0.012515 -0.004452 0.000000 0.009786 0.000000
# 3 -0.004103 -0.004452 0.013790 0.000000 -0.008012 0.000000
# 4 0.000000 0.000000 0.000000 0.035413 0.000000 -0.000333
# 5 0.002638 0.009786 -0.008012 0.000000 0.057806 0.000000
# 6 0.000000 0.000000 0.000000 -0.000333 0.000000 0.025936
#
#
# Mechanical properties :
#
#
# Convention : Reuss Voigt Hill
#
# Bulk Modulus (GPa) = 60.29812 61.65269 60.97540
# Shear Modulus (GPa) = 27.34060 31.42973 29.38517
#
# Velocity S-wave (km/s) = 3.55501 3.81159 3.68553
# Velocity P-wave (km/s) = 6.68755 6.91879 6.80415
#
# Compressibility (1/GPa) = 0.01658426
#
# Stress axis : x y z
#
# Youngs Moduli (GPa) = 90.21442 79.90449 72.51755
#
# Poissons Ratio (x) = 0.14761 0.29753
# Poissons Ratio (y) = 0.16666 0.32287
# Poissons Ratio (z) = 0.37014 0.35576
#
# Static dielectric constant tensor:
#      x y z
#    x 3.978030 0.000000 0.067080 
#    y 0.000000 4.097390 0.000000 
#    z 0.067080 0.000000 3.940120 
# 
# 
# High freq. dielectric constant tensor:
#      x y z
#    x 1.859350 0.000000 0.002290 
#    y 0.000000 1.865480 0.000000 
#    z 0.002290 0.000000 1.854270 
# 
# From -- ./inp_files/4055.got.cif
#   From: 2010.03.12/outbox.cif.g09.slc.cpg/sg4_3_cif.got.tgz:4055.got - 2010.03.31 09:31:35.
