data_PCOD8047745
_publ_section_title
;
Structure prediction by ZEFSAII (Michael W. Deem and Ramdas Pophale) SiO2 
 PCOD8047745
Probable space group: P 21
;
_chemical_formula_sum "Si O2"
_cell_formula_units_Z 12
_cell_length_a 8.465221
_cell_length_b 7.676174
_cell_length_c 11.025725
_cell_angle_alpha 90.000000
_cell_angle_beta 136.612249
_cell_angle_gamma 90.000000
_cell_volume 492.157513
_symmetry_space_group_name_H-M "P 21"
_symmetry_group_IT_number 4
_symmetry_cell_setting 'monoclinic'
loop_
_space_group_symop_operation_xyz
x,y,z
-x,1/2+y,-z
loop_
_atom_site_type_symbol
_atom_site_label
_atom_site_fract_x
_atom_site_fract_y
_atom_site_fract_z
Si Si1 0.855637 0.939790 0.858463
Si Si2 0.672315 0.563722 0.808273
Si Si3 0.414311 0.460220 0.881095
Si Si4 0.985498 0.630903 0.547461
Si Si5 0.801078 0.986934 0.553256
Si Si6 0.474826 0.079388 0.805440
O O1 0.747501 0.748371 0.795585
O O2 0.874165 0.014216 0.732389
O O3 0.699076 0.071286 0.847685
O O4 0.106905 0.936877 0.060157
O O5 0.567829 0.592182 0.885108
O O6 0.477681 0.476548 0.613068
O O7 0.440515 0.273997 0.833958
O O8 0.149476 0.524950 0.731368
O O9 0.504196 0.450741 0.067996
O O10 0.926853 0.817567 0.569643
O O11 0.746701 0.524135 0.396938
O O12 0.107813 0.644659 0.481950
#
# Coordination Sequence:
#
# PCOD8047745 Si02
#       6
#     2   2   2   2   2   2
#     4  12  29  46  78 106 154 190 242 309 369 435
#     4  11  26  49  69 112 146 195 245 296 373 432
#     4  11  26  46  75 108 145 195 250 293 366 435
#     4  11  25  47  74 103 145 192 250 299 359 434
#     4  11  28  48  74 108 145 193 250 300 370 431
#     4  12  26  46  78 109 149 191 241 307 363 439
#
# _framework density 24.382435999999998
#
# number of rings (size 3 to 8) (size 9 to 14) (size 15 to 20)
#    0.000    0.667    3.333    3.000   14.000    0.000 
#    0.000    1.667    0.000    0.000    0.000    0.000 
#    0.000    0.000    0.000    0.000    0.000    0.000 
#
# Total GULP energy -148784.517368 kJ/mol
# GULP energy per Si atom -12398.709781 kJ/mol
# Density = 2.432694 g / cm^3
# Si number density = 24.382436 Si / 1000 Ang^3
#
#
#
# Elastic Constant Matrix: (Units=GPa)
#
#
# Indices 1 2 3 4 5 6 
#
# 1 106.5735 32.9605 48.2798 0.0000 6.4026 0.0000
# 2 32.9605 102.7050 34.3516 0.0000 11.7712 0.0000
# 3 48.2798 34.3516 107.5590 0.0000 29.1428 0.0000
# 4 0.0000 0.0000 0.0000 30.1370 0.0000 5.0913
# 5 6.4026 11.7712 29.1428 0.0000 50.3364 0.0000
# 6 0.0000 0.0000 0.0000 5.0913 0.0000 49.0205
#
#
#
# Elastic Compliance Matrix: (Units=1/GPa)
#
#
# Indices 1 2 3 4 5 6 
#
# 1 0.012447 -0.002436 -0.005378 0.000000 0.002100 0.000000
# 2 -0.002436 0.011395 -0.002263 0.000000 -0.001045 0.000000
# 3 -0.005378 -0.002263 0.014357 0.000000 -0.007099 0.000000
# 4 0.000000 0.000000 0.000000 0.033774 0.000000 -0.003508
# 5 0.002100 -0.001045 -0.007099 0.000000 0.023954 0.000000
# 6 0.000000 0.000000 0.000000 -0.003508 0.000000 0.020764
#
#
# Mechanical properties :
#
#
# Convention : Reuss Voigt Hill
#
# Bulk Modulus (GPa) = 55.41569 60.89127 58.15348
# Shear Modulus (GPa) = 34.99928 39.31515 37.15721
#
# Velocity S-wave (km/s) = 3.79282 4.01987 3.90799
# Velocity P-wave (km/s) = 6.47747 6.82448 6.65324
#
# Compressibility (1/GPa) = 0.01804543
#
# Stress axis : x y z
#
# Youngs Moduli (GPa) = 80.34170 87.75744 69.65122
#
# Poissons Ratio (x) = 0.21382 0.37458
# Poissons Ratio (y) = 0.19575 0.15759
# Poissons Ratio (z) = 0.43207 0.19855
#
# Static dielectric constant tensor:
#      x y z
#    x 4.660990 0.000000 0.086120 
#    y 0.000000 4.098830 0.000000 
#    z 0.086120 0.000000 4.856010 
# 
# 
# High freq. dielectric constant tensor:
#      x y z
#    x 1.966670 0.000000 0.016350 
#    y 0.000000 1.956860 0.000000 
#    z 0.016350 0.000000 1.985400 
# 
# From -- ./inp_files/7445.got.cif
#   From: 2010.03.12/outbox.cif.g09.slc.cpg/sg4_4_cif.got.tgz:7445.got - 2010.03.31 09:31:35.
