data_PCOD8047295
_publ_section_title
;
Structure prediction by ZEFSAII (Michael W. Deem and Ramdas Pophale) SiO2 
 PCOD8047295
Probable space group: P 21
;
_chemical_formula_sum "Si O2"
_cell_formula_units_Z 16
_cell_length_a 14.846483
_cell_length_b 6.620034
_cell_length_c 16.018101
_cell_angle_alpha 90.000000
_cell_angle_beta 152.600080
_cell_angle_gamma 90.000000
_cell_volume 724.502810
_symmetry_space_group_name_H-M "P 21"
_symmetry_group_IT_number 4
_symmetry_cell_setting 'monoclinic'
loop_
_space_group_symop_operation_xyz
x,y,z
-x,1/2+y,-z
loop_
_atom_site_type_symbol
_atom_site_label
_atom_site_fract_x
_atom_site_fract_y
_atom_site_fract_z
Si Si1 0.644954 0.304810 0.931706
Si Si2 0.688455 0.964268 0.094337
Si Si3 0.663468 0.126258 0.360009
Si Si4 0.529760 0.800272 0.639311
Si Si5 0.088362 0.068093 0.735450
Si Si6 0.239221 0.977468 0.271449
Si Si7 0.824526 0.148436 0.915319
Si Si8 0.276344 0.811590 0.761206
O O1 0.447100 0.436481 0.772470
O O2 0.702678 0.268954 0.884044
O O3 0.815620 0.426933 0.116994
O O4 0.617192 0.090938 0.954855
O O5 0.846453 0.798559 0.196862
O O6 0.787672 0.103748 0.246309
O O7 0.498154 0.852592 0.974935
O O8 0.526683 0.237327 0.313622
O O9 0.731599 0.286230 0.344874
O O10 0.858891 0.046912 0.564786
O O11 0.341730 0.905033 0.441361
O O12 0.596834 0.606121 0.642079
O O13 0.715245 0.945245 0.799197
O O14 0.139445 0.993229 0.682747
O O15 0.166255 0.786809 0.158594
O O16 0.043317 0.105438 0.129963
#
# Coordination Sequence:
#
# PCOD8047295 Si02
#       8
#     2   2   2   2   2   2   2   2
#     4  11  26  45  69 103 141 184 236 292 351 424
#     4  11  21  44  71  97 138 187 228 296 353 406
#     4  12  27  45  71 104 144 187 236 299 355 426
#     4  12  27  48  71 111 145 182 238 304 353 424
#     4  11  27  44  67 104 143 183 242 294 352 423
#     4  12  26  47  77 107 146 187 235 293 362 427
#     4  12  26  46  77 105 141 192 235 288 364 431
#     4  11  22  43  69  97 136 186 234 288 354 419
#
# _framework density 22.084111
#
# number of rings (size 3 to 8) (size 9 to 14) (size 15 to 20)
#    0.000    0.500    6.250    1.500    3.500    3.000 
#    4.500    0.000    0.000    0.000    0.000    0.000 
#    0.000    0.000    0.000    0.000    0.000    0.000 
#
# Total GULP energy -198487.237482 kJ/mol
# GULP energy per Si atom -12405.452343 kJ/mol
# Density = 2.203385 g / cm^3
# Si number density = 22.084111 Si / 1000 Ang^3
#
#
#
# Elastic Constant Matrix: (Units=GPa)
#
#
# Indices 1 2 3 4 5 6 
#
# 1 62.8864 20.1785 4.2745 0.0000 -9.3182 0.0000
# 2 20.1785 99.1166 29.9622 0.0000 -5.6535 0.0000
# 3 4.2745 29.9622 101.0295 0.0000 10.7581 0.0000
# 4 0.0000 0.0000 0.0000 28.1401 0.0000 -8.3726
# 5 -9.3182 -5.6535 10.7581 0.0000 37.0787 0.0000
# 6 0.0000 0.0000 0.0000 -8.3726 0.0000 35.8428
#
#
#
# Elastic Compliance Matrix: (Units=1/GPa)
#
#
# Indices 1 2 3 4 5 6 
#
# 1 0.017558 -0.003291 -0.000189 0.000000 0.003966 0.000000
# 2 -0.003291 0.011974 -0.003630 0.000000 0.002052 0.000000
# 3 -0.000189 -0.003630 0.011399 0.000000 -0.003908 0.000000
# 4 0.000000 0.000000 0.000000 0.038191 0.000000 0.008921
# 5 0.003966 0.002052 -0.003908 0.000000 0.029413 0.000000
# 6 0.000000 0.000000 0.000000 0.008921 0.000000 0.029983
#
#
# Mechanical properties :
#
#
# Convention : Reuss Voigt Hill
#
# Bulk Modulus (GPa) = 37.43967 41.31809 39.37888
# Shear Modulus (GPa) = 30.93251 34.12015 32.52633
#
# Velocity S-wave (km/s) = 3.74661 3.93492 3.84192
# Velocity P-wave (km/s) = 5.97546 6.27653 6.12785
#
# Compressibility (1/GPa) = 0.02670964
#
# Stress axis : x y z
#
# Youngs Moduli (GPa) = 56.95342 83.51714 87.72786
#
# Poissons Ratio (x) = 0.27487 0.01659
# Poissons Ratio (y) = 0.18745 0.31847
# Poissons Ratio (z) = 0.01077 0.30319
#
# Static dielectric constant tensor:
#      x y z
#    x 3.855930 0.000000 -0.009570 
#    y 0.000000 4.091290 0.000000 
#    z -0.009570 0.000000 3.863790 
# 
# 
# High freq. dielectric constant tensor:
#      x y z
#    x 1.864930 0.000000 -0.000330 
#    y 0.000000 1.879540 0.000000 
#    z -0.000330 0.000000 1.868320 
# 
# From -- ./inp_files/14062.got.cif
#   From: 2010.03.12/outbox.cif.g09.slc.cpg/sg4_8_cif.got.tgz:14062.got - 2010.03.31 09:31:35.
