data_PCOD8047338
_publ_section_title
;
Structure prediction by ZEFSAII (Michael W. Deem and Ramdas Pophale) SiO2 
 PCOD8047338
Probable space group: P 21
;
_chemical_formula_sum "Si O2"
_cell_formula_units_Z 16
_cell_length_a 11.849243
_cell_length_b 14.533059
_cell_length_c 6.582278
_cell_angle_alpha 90.000000
_cell_angle_beta 43.602292
_cell_angle_gamma 90.000000
_cell_volume 781.720798
_symmetry_space_group_name_H-M "P 21"
_symmetry_group_IT_number 4
_symmetry_cell_setting 'monoclinic'
loop_
_space_group_symop_operation_xyz
x,y,z
-x,1/2+y,-z
loop_
_atom_site_type_symbol
_atom_site_label
_atom_site_fract_x
_atom_site_fract_y
_atom_site_fract_z
Si Si1 0.302854 0.191190 0.720723
Si Si2 0.948298 0.751650 0.622204
Si Si3 0.199532 0.347300 0.568462
Si Si4 0.057417 0.906098 0.768207
Si Si5 0.642596 0.504410 0.499965
Si Si6 0.397040 0.593166 0.558741
Si Si7 0.380633 0.509849 0.169004
Si Si8 0.889738 0.072815 0.782952
O O1 0.283176 0.262088 0.566675
O O2 0.243786 0.093264 0.702636
O O3 0.496039 0.183431 0.523747
O O4 0.207612 0.217514 0.048191
O O5 0.896689 0.816384 0.505296
O O6 0.061245 0.813889 0.624786
O O7 0.036588 0.662165 0.420068
O O8 0.351081 0.412160 0.314219
O O9 0.078538 0.399796 0.879772
O O10 0.235361 0.917107 0.645535
O O11 0.024543 0.997574 0.675078
O O12 0.495812 0.502204 0.521335
O O13 0.555141 0.513731 0.832129
O O14 0.383125 0.588781 0.335566
O O15 0.216007 0.604715 0.884931
O O16 0.229170 0.523837 0.218810
#
# Coordination Sequence:
#
# PCOD8047338 Si02
#       8
#     2   2   2   2   2   2   2   2
#     4   9  23  39  62  94 129 167 216 264 317 387
#     4  11  25  39  67  98 129 173 217 266 332 381
#     4  11  23  41  64  95 130 171 214 271 325 384
#     4  11  23  42  63 100 131 165 222 270 317 388
#     4   9  23  40  65  95 127 171 212 259 325 380
#     4   9  22  41  63  93 126 173 211 261 324 381
#     4  11  22  41  68  90 127 175 211 258 332 383
#     4  11  23  41  66  95 131 169 217 265 322 390
#
# _framework density 20.467663999999999
#
# number of rings (size 3 to 8) (size 9 to 14) (size 15 to 20)
#    0.750    1.000    2.500    0.750    5.250    4.000 
#    0.000    2.500    0.000    0.000    0.000    0.000 
#    0.000    0.000    0.000    0.000    0.000    0.000 
#
# Total GULP energy -198282.539725 kJ/mol
# GULP energy per Si atom -12392.658733 kJ/mol
# Density = 2.042108 g / cm^3
# Si number density = 20.467664 Si / 1000 Ang^3
#
#
#
# Elastic Constant Matrix: (Units=GPa)
#
#
# Indices 1 2 3 4 5 6 
#
# 1 37.8099 5.0193 9.6115 0.0000 6.1599 0.0000
# 2 5.0193 76.6417 25.1276 0.0000 2.6710 0.0000
# 3 9.6115 25.1276 74.9298 0.0000 15.6635 0.0000
# 4 0.0000 0.0000 0.0000 37.4261 0.0000 -3.1342
# 5 6.1599 2.6710 15.6635 0.0000 28.6217 0.0000
# 6 0.0000 0.0000 0.0000 -3.1342 0.0000 27.3690
#
#
#
# Elastic Compliance Matrix: (Units=1/GPa)
#
#
# Indices 1 2 3 4 5 6 
#
# 1 0.027914 -0.000911 -0.002300 0.000000 -0.004664 0.000000
# 2 -0.000911 0.014746 -0.005173 0.000000 0.001651 0.000000
# 3 -0.002300 -0.005173 0.017131 0.000000 -0.008397 0.000000
# 4 0.000000 0.000000 0.000000 0.026978 0.000000 0.003089
# 5 -0.004664 0.001651 -0.008397 0.000000 0.040384 0.000000
# 6 0.000000 0.000000 0.000000 0.003089 0.000000 0.036891
#
#
# Mechanical properties :
#
#
# Convention : Reuss Voigt Hill
#
# Bulk Modulus (GPa) = 23.24438 29.87757 26.56097
# Shear Modulus (GPa) = 25.62082 28.65822 27.13952
#
# Velocity S-wave (km/s) = 3.54188 3.74594 3.64534
# Velocity P-wave (km/s) = 5.30168 5.77396 5.54285
#
# Compressibility (1/GPa) = 0.04302116
#
# Stress axis : x y z
#
# Youngs Moduli (GPa) = 35.82490 67.81510 58.37332
#
# Poissons Ratio (x) = 0.06181 0.13426
# Poissons Ratio (y) = 0.03265 0.30198
# Poissons Ratio (z) = 0.08240 0.35083
#
# Static dielectric constant tensor:
#      x y z
#    x 3.699900 0.000000 0.136030 
#    y 0.000000 3.634810 0.000000 
#    z 0.136030 0.000000 3.805010 
# 
# 
# High freq. dielectric constant tensor:
#      x y z
#    x 1.798200 0.000000 0.013310 
#    y 0.000000 1.786880 0.000000 
#    z 0.013310 0.000000 1.808000 
# 
# From -- ./inp_files/3163.got.cif
#   From: 2010.03.12/outbox.cif.g09.slc.cpg/sg4_2_cif.got.tgz:3163.got - 2010.03.31 09:31:35.
