data_PCOD8047784
_publ_section_title
;
Structure prediction by ZEFSAII (Michael W. Deem and Ramdas Pophale) SiO2 
 PCOD8047784
Probable space group: P 21
;
_chemical_formula_sum "Si O2"
_cell_formula_units_Z 16
_cell_length_a 9.238153
_cell_length_b 9.272590
_cell_length_c 11.989801
_cell_angle_alpha 90.000000
_cell_angle_beta 139.894348
_cell_angle_gamma 90.000000
_cell_volume 661.634717
_symmetry_space_group_name_H-M "P 21"
_symmetry_group_IT_number 4
_symmetry_cell_setting 'monoclinic'
loop_
_space_group_symop_operation_xyz
x,y,z
-x,1/2+y,-z
loop_
_atom_site_type_symbol
_atom_site_label
_atom_site_fract_x
_atom_site_fract_y
_atom_site_fract_z
Si Si1 0.968674 0.389040 0.050925
Si Si2 0.180129 0.346336 0.626339
Si Si3 0.906578 0.073952 0.067924
Si Si4 0.544164 0.570453 0.862438
Si Si5 0.712829 0.870449 0.557870
Si Si6 0.329161 0.852990 0.648954
Si Si7 0.425552 0.084892 0.871227
Si Si8 0.359308 0.047468 0.456247
O O1 0.942739 0.218672 0.016583
O O2 0.095810 0.410924 0.241502
O O3 0.730545 0.474129 0.908791
O O4 0.120622 0.445667 0.037815
O O5 0.323139 0.476692 0.763519
O O6 0.160630 0.378507 0.484129
O O7 0.307334 0.197673 0.720467
O O8 0.933091 0.327999 0.532139
O O9 0.101145 0.032834 0.269153
O O10 0.692280 0.097845 0.018190
O O11 0.472328 0.704924 0.741738
O O12 0.643786 0.616134 0.041726
O O13 0.589908 0.716174 0.498270
O O14 0.517104 0.989981 0.449413
O O15 0.351384 0.928353 0.782936
O O16 0.421365 0.953820 0.603129
#
# Coordination Sequence:
#
# PCOD8047784 Si02
#       8
#     2   2   2   2   2   2   2   2
#     4  11  26  47  74 108 141 187 238 294 358 422
#     4  12  25  48  72 102 143 190 235 298 353 419
#     4  11  26  47  75 104 145 184 238 297 355 423
#     4  12  27  45  73 106 143 185 243 290 357 424
#     4  11  26  47  75 104 145 184 238 297 355 423
#     4  12  27  45  73 106 143 185 243 290 357 424
#     4  12  25  48  72 102 143 190 235 298 353 419
#     4  11  26  47  74 108 141 187 238 294 358 422
#
# _framework density 24.182527
#
# number of rings (size 3 to 8) (size 9 to 14) (size 15 to 20)
#    0.000    0.500    2.500    4.500   10.500    0.000 
#    0.000    0.000    0.000    0.000    0.000    0.000 
#    0.000    0.000    0.000    0.000    0.000    0.000 
#
# Total GULP energy -198463.708404 kJ/mol
# GULP energy per Si atom -12403.981775 kJ/mol
# Density = 2.412749 g / cm^3
# Si number density = 24.182527 Si / 1000 Ang^3
#
#
#
# Elastic Constant Matrix: (Units=GPa)
#
#
# Indices 1 2 3 4 5 6 
#
# 1 43.6992 5.3658 -0.6557 0.0000 -7.0028 0.0000
# 2 5.3658 111.1968 26.5289 0.0000 5.3690 0.0000
# 3 -0.6557 26.5289 82.2307 0.0000 5.6334 0.0000
# 4 0.0000 0.0000 0.0000 48.6752 0.0000 -0.2622
# 5 -7.0028 5.3690 5.6334 0.0000 40.0531 0.0000
# 6 0.0000 0.0000 0.0000 -0.2622 0.0000 36.1334
#
#
#
# Elastic Compliance Matrix: (Units=1/GPa)
#
#
# Indices 1 2 3 4 5 6 
#
# 1 0.023754 -0.001439 0.000360 0.000000 0.004296 0.000000
# 2 -0.001439 0.009860 -0.003115 0.000000 -0.001135 0.000000
# 3 0.000360 -0.003115 0.013264 0.000000 -0.001385 0.000000
# 4 0.000000 0.000000 0.000000 0.020545 0.000000 0.000149
# 5 0.004296 -0.001135 -0.001385 0.000000 0.026065 0.000000
# 6 0.000000 0.000000 0.000000 0.000149 0.000000 0.027676
#
#
# Mechanical properties :
#
#
# Convention : Reuss Voigt Hill
#
# Bulk Modulus (GPa) = 25.98165 33.28943 29.63554
# Shear Modulus (GPa) = 35.11639 38.69819 36.90729
#
# Velocity S-wave (km/s) = 3.81483 4.00466 3.91089
# Velocity P-wave (km/s) = 5.49283 5.93117 5.71621
#
# Compressibility (1/GPa) = 0.03848871
#
# Stress axis : x y z
#
# Youngs Moduli (GPa) = 42.09781 101.41498 75.39456
#
# Poissons Ratio (x) = 0.14598 -0.02711
# Poissons Ratio (y) = 0.06060 0.23484
# Poissons Ratio (z) = -0.01513 0.31589
#
# Static dielectric constant tensor:
#      x y z
#    x 4.102980 0.000000 0.067370 
#    y 0.000000 4.422580 0.000000 
#    z 0.067370 0.000000 4.351890 
# 
# 
# High freq. dielectric constant tensor:
#      x y z
#    x 1.954150 0.000000 0.000460 
#    y 0.000000 1.963870 0.000000 
#    z 0.000460 0.000000 1.973950 
# 
# From -- ./inp_files/8092.got.cif
#   From: 2010.03.12/outbox.cif.g09.slc.cpg/sg4_5_cif.got.tgz:8092.got - 2010.03.31 09:31:35.
