data_PCOD8047574
_publ_section_title
;
Structure prediction by ZEFSAII (Michael W. Deem and Ramdas Pophale) SiO2 
 PCOD8047574
Probable space group: P 21
;
_chemical_formula_sum "Si O2"
_cell_formula_units_Z 14
_cell_length_a 6.111812
_cell_length_b 8.350765
_cell_length_c 14.384294
_cell_angle_alpha 90.000000
_cell_angle_beta 49.008405
_cell_angle_gamma 90.000000
_cell_volume 554.140684
_symmetry_space_group_name_H-M "P 21"
_symmetry_group_IT_number 4
_symmetry_cell_setting 'monoclinic'
loop_
_space_group_symop_operation_xyz
x,y,z
-x,1/2+y,-z
loop_
_atom_site_type_symbol
_atom_site_label
_atom_site_fract_x
_atom_site_fract_y
_atom_site_fract_z
Si Si1 0.911626 0.437930 0.631082
Si Si2 0.911197 0.456396 0.423151
Si Si3 0.790451 0.742636 0.978394
Si Si4 0.296943 0.492255 0.147309
Si Si5 0.107231 0.256635 0.745939
Si Si6 0.433923 0.671877 0.508515
Si Si7 0.728377 0.001879 0.153782
O O1 0.971927 0.382263 0.507808
O O2 0.605783 0.529674 0.725764
O O3 0.927546 0.292741 0.700065
O O4 0.172376 0.551019 0.587641
O O5 0.715281 0.617962 0.490431
O O6 0.696800 0.341460 0.421789
O O7 0.205253 0.475038 0.281730
O O8 0.705106 0.816925 0.901227
O O9 0.120648 0.676729 0.894990
O O10 0.602070 0.584845 0.055242
O O11 0.744373 0.892870 0.058296
O O12 0.058722 0.605964 0.162040
O O13 0.438844 0.202768 0.631868
O O14 0.099594 0.409747 0.813104
#
# Coordination Sequence:
#
# PCOD8047574 Si02
#       7
#     2   2   2   2   2   2   2
#     4  12  25  45  79 110 155 201 247 322 399 456
#     4  11  27  44  77 112 151 195 249 312 397 468
#     4  12  28  51  81 113 154 214 270 323 389 456
#     4  11  27  49  81 108 156 204 263 325 389 461
#     4  11  24  50  74 109 157 198 261 325 387 472
#     4  11  24  43  70 109 158 189 243 307 386 471
#     4  12  27  50  80 111 153 209 267 328 381 468
#
# _framework density 25.264340000000001
#
# number of rings (size 3 to 8) (size 9 to 14) (size 15 to 20)
#    0.000    0.571    4.286    1.714   10.000    1.143 
#    2.571    0.000    0.000    0.000    0.000    0.000 
#    0.000    0.000    0.000    0.000    0.000    0.000 
#
# Total GULP energy -173464.103466 kJ/mol
# GULP energy per Si atom -12390.293105 kJ/mol
# Density = 2.520684 g / cm^3
# Si number density = 25.264340 Si / 1000 Ang^3
#
#
#
# Elastic Constant Matrix: (Units=GPa)
#
#
# Indices 1 2 3 4 5 6 
#
# 1 65.0351 3.9455 44.2998 0.0000 2.0537 0.0000
# 2 3.9455 56.5064 24.5491 0.0000 -6.4838 0.0000
# 3 44.2998 24.5491 132.9081 0.0000 -9.1702 0.0000
# 4 0.0000 0.0000 0.0000 46.8129 0.0000 -9.6695
# 5 2.0537 -6.4838 -9.1702 0.0000 46.5178 0.0000
# 6 0.0000 0.0000 0.0000 -9.6695 0.0000 40.7617
#
#
#
# Elastic Compliance Matrix: (Units=1/GPa)
#
#
# Indices 1 2 3 4 5 6 
#
# 1 0.020229 0.001456 -0.007156 0.000000 -0.002101 0.000000
# 2 0.001456 0.019533 -0.003963 0.000000 0.001877 0.000000
# 3 -0.007156 -0.003963 0.010772 0.000000 0.001887 0.000000
# 4 0.000000 0.000000 0.000000 0.022462 0.000000 0.005328
# 5 -0.002101 0.001877 0.001887 0.000000 0.022224 0.000000
# 6 0.000000 0.000000 0.000000 0.005328 0.000000 0.025797
#
#
# Mechanical properties :
#
#
# Convention : Reuss Voigt Hill
#
# Bulk Modulus (GPa) = 32.04642 44.44869 38.24756
# Shear Modulus (GPa) = 33.16832 38.92883 36.04858
#
# Velocity S-wave (km/s) = 3.62726 3.92964 3.78147
# Velocity P-wave (km/s) = 5.50042 6.18232 5.85131
#
# Compressibility (1/GPa) = 0.03120473
#
# Stress axis : x y z
#
# Youngs Moduli (GPa) = 49.43389 51.19601 92.83691
#
# Poissons Ratio (x) = -0.07452 0.66438
# Poissons Ratio (y) = -0.07195 0.36796
# Poissons Ratio (z) = 0.35377 0.20292
#
# Static dielectric constant tensor:
#      x y z
#    x 4.326500 0.000000 -0.095120 
#    y 0.000000 4.811770 0.000000 
#    z -0.095120 0.000000 4.862720 
# 
# 
# High freq. dielectric constant tensor:
#      x y z
#    x 1.982710 0.000000 -0.017250 
#    y 0.000000 2.013730 0.000000 
#    z -0.017250 0.000000 2.021680 
# 
# From -- ./inp_files/10251.got.cif
#   From: 2010.03.12/outbox.cif.g09.slc.cpg/sg4_6_cif.got.tgz:10251.got - 2010.03.31 09:31:35.
