data_PCOD8047855
_publ_section_title
;
Structure prediction by ZEFSAII (Michael W. Deem and Ramdas Pophale) SiO2 
 PCOD8047855
Probable space group: P 21
;
_chemical_formula_sum "Si O2"
_cell_formula_units_Z 14
_cell_length_a 12.794645
_cell_length_b 11.112704
_cell_length_c 10.665173
_cell_angle_alpha 90.000000
_cell_angle_beta 22.315240
_cell_angle_gamma 90.000000
_cell_volume 575.783283
_symmetry_space_group_name_H-M "P 21"
_symmetry_group_IT_number 4
_symmetry_cell_setting 'monoclinic'
loop_
_space_group_symop_operation_xyz
x,y,z
-x,1/2+y,-z
loop_
_atom_site_type_symbol
_atom_site_label
_atom_site_fract_x
_atom_site_fract_y
_atom_site_fract_z
Si Si1 0.399874 0.151700 0.323666
Si Si2 0.851843 0.521770 0.944220
Si Si3 0.037632 0.854212 0.959975
Si Si4 0.623606 0.391855 0.652849
Si Si5 0.464779 0.189355 0.532786
Si Si6 0.923736 0.758010 0.720095
Si Si7 0.932249 0.285533 0.711604
O O1 0.446503 0.127891 0.418553
O O2 0.113932 0.224010 0.620074
O O3 0.421865 0.021779 0.234148
O O4 0.655077 0.219743 0.981224
O O5 0.987198 0.627578 0.711397
O O6 0.813919 0.415956 0.884700
O O7 0.024432 0.458299 0.866460
O O8 0.584540 0.585256 0.306421
O O9 0.188433 0.915685 0.676668
O O10 0.232873 0.746123 0.792103
O O11 0.757831 0.797448 0.217231
O O12 0.791566 0.323801 0.572100
O O13 0.348086 0.319563 0.917941
O O14 0.874766 0.771768 0.625213
#
# Coordination Sequence:
#
# PCOD8047855 Si02
#       7
#     2   2   2   2   2   2   2
#     4  12  25  47  73 104 147 192 240 307 363 429
#     4  12  26  46  80 104 154 192 244 306 380 424
#     4  12  24  44  68 109 145 177 240 298 364 435
#     4  12  25  47  73 104 147 192 240 307 363 429
#     4  12  24  44  68 109 145 177 240 298 364 435
#     4  12  29  49  71 108 149 198 252 290 365 443
#     4  12  29  49  71 108 149 198 252 290 365 443
#
# _framework density 24.314703000000002
#
# number of rings (size 3 to 8) (size 9 to 14) (size 15 to 20)
#    0.000    0.000    7.143    1.714    4.000    4.571 
#    0.000    0.000    0.000    0.000    0.000    0.000 
#    0.000    0.000    0.000    0.000    0.000    0.000 
#
# Total GULP energy -173460.120671 kJ/mol
# GULP energy per Si atom -12390.008619 kJ/mol
# Density = 2.425936 g / cm^3
# Si number density = 24.314703 Si / 1000 Ang^3
#
#
#
# Elastic Constant Matrix: (Units=GPa)
#
#
# Indices 1 2 3 4 5 6 
#
# 1 83.9764 18.8583 23.2964 0.0000 9.2413 0.0000
# 2 18.8583 106.4962 24.0201 0.0000 -10.0416 0.0000
# 3 23.2964 24.0201 80.6754 0.0000 -2.9919 0.0000
# 4 0.0000 0.0000 0.0000 26.7195 0.0000 1.8158
# 5 9.2413 -10.0416 -2.9919 0.0000 51.5911 0.0000
# 6 0.0000 0.0000 0.0000 1.8158 0.0000 27.6465
#
#
#
# Elastic Compliance Matrix: (Units=1/GPa)
#
#
# Indices 1 2 3 4 5 6 
#
# 1 0.013635 -0.001914 -0.003479 0.000000 -0.003017 0.000000
# 2 -0.001914 0.010502 -0.002491 0.000000 0.002243 0.000000
# 3 -0.003479 -0.002491 0.014177 0.000000 0.000961 0.000000
# 4 0.000000 0.000000 0.000000 0.037594 0.000000 -0.002469
# 5 -0.003017 0.002243 0.000961 0.000000 0.020416 0.000000
# 6 0.000000 0.000000 0.000000 -0.002469 0.000000 0.036333
#
#
# Mechanical properties :
#
#
# Convention : Reuss Voigt Hill
#
# Bulk Modulus (GPa) = 44.35429 44.83306 44.59367
# Shear Modulus (GPa) = 32.06326 34.85630 33.45978
#
# Velocity S-wave (km/s) = 3.63530 3.79033 3.71362
# Velocity P-wave (km/s) = 5.99182 6.13467 6.06366
#
# Compressibility (1/GPa) = 0.02254573
#
# Stress axis : x y z
#
# Youngs Moduli (GPa) = 73.33961 95.21761 70.53497
#
# Poissons Ratio (x) = 0.18227 0.24542
# Poissons Ratio (y) = 0.14039 0.17570
# Poissons Ratio (z) = 0.25517 0.23719
#
# Static dielectric constant tensor:
#      x y z
#    x 4.371440 0.000000 0.097400 
#    y 0.000000 5.005300 0.000000 
#    z 0.097400 0.000000 4.320210 
# 
# 
# High freq. dielectric constant tensor:
#      x y z
#    x 1.966320 0.000000 0.012570 
#    y 0.000000 1.974640 0.000000 
#    z 0.012570 0.000000 1.959760 
# 
# From -- ./inp_files/12287.got.cif
#   From: 2010.03.12/outbox.cif.g09.slc.cpg/sg4_7_cif.got.tgz:12287.got - 2010.03.31 09:31:35.
