data_PCOD8047669
_publ_section_title
;
Structure prediction by ZEFSAII (Michael W. Deem and Ramdas Pophale) SiO2 
 PCOD8047669
Probable space group: P 21
;
_chemical_formula_sum "Si O2"
_cell_formula_units_Z 16
_cell_length_a 9.449560
_cell_length_b 12.119274
_cell_length_c 6.661432
_cell_angle_alpha 90.000000
_cell_angle_beta 107.461699
_cell_angle_gamma 90.000000
_cell_volume 727.724040
_symmetry_space_group_name_H-M "P 21"
_symmetry_group_IT_number 4
_symmetry_cell_setting 'monoclinic'
loop_
_space_group_symop_operation_xyz
x,y,z
-x,1/2+y,-z
loop_
_atom_site_type_symbol
_atom_site_label
_atom_site_fract_x
_atom_site_fract_y
_atom_site_fract_z
Si Si1 0.672301 0.002270 0.277279
Si Si2 0.007872 0.029055 0.320450
Si Si3 0.402488 0.749753 0.644546
Si Si4 0.383897 0.937355 0.952463
Si Si5 0.061074 0.220711 0.051531
Si Si6 0.202448 0.847146 0.229369
Si Si7 0.205307 0.140366 0.716045
Si Si8 0.299536 0.307410 0.428156
O O1 0.621002 0.125233 0.299921
O O2 0.835894 0.998620 0.254677
O O3 0.670486 0.931261 0.482106
O O4 0.559317 0.951691 0.066053
O O5 0.040603 0.100952 0.138404
O O6 0.059541 0.091448 0.544017
O O7 0.101677 0.917821 0.337570
O O8 0.355037 0.830265 0.804496
O O9 0.306583 0.769938 0.405789
O O10 0.573879 0.767501 0.668470
O O11 0.321301 0.044685 0.815568
O O12 0.302718 0.924548 0.131657
O O13 0.146864 0.303324 0.238206
O O14 0.150906 0.207674 0.884608
O O15 0.899331 0.271072 0.952558
O O16 0.293712 0.225392 0.614623
#
# Coordination Sequence:
#
# PCOD8047669 Si02
#       8
#     2   2   2   2   2   2   2   2
#     4  12  28  47  73 108 146 188 247 296 358 431
#     4  11  25  46  71 110 145 186 238 299 355 427
#     4  12  28  49  73 105 149 190 241 300 358 427
#     4  12  27  47  75 105 145 194 237 297 360 429
#     4  11  25  44  76 106 146 191 239 292 363 424
#     4  12  25  46  73 108 146 189 240 293 362 423
#     4  11  24  48  76 104 148 189 237 296 362 430
#     4  11  28  45  73 110 145 189 241 301 354 425
#
# _framework density 21.986357000000002
#
# number of rings (size 3 to 8) (size 9 to 14) (size 15 to 20)
#    0.000    0.500    3.750    3.000   10.500    4.000 
#    0.000    0.000    0.000    0.000    0.000    0.000 
#    0.000    0.000    0.000    0.000    0.000    0.000 
#
# Total GULP energy -198539.101834 kJ/mol
# GULP energy per Si atom -12408.693865 kJ/mol
# Density = 2.193631 g / cm^3
# Si number density = 21.986357 Si / 1000 Ang^3
#
#
#
# Elastic Constant Matrix: (Units=GPa)
#
#
# Indices 1 2 3 4 5 6 
#
# 1 114.6876 18.2545 30.8065 0.0000 7.5375 0.0000
# 2 18.2545 93.4308 35.3779 0.0000 5.9719 0.0000
# 3 30.8065 35.3779 109.1688 0.0000 12.8505 0.0000
# 4 0.0000 0.0000 0.0000 33.9056 0.0000 3.5004
# 5 7.5375 5.9719 12.8505 0.0000 47.3094 0.0000
# 6 0.0000 0.0000 0.0000 3.5004 0.0000 37.4419
#
#
#
# Elastic Compliance Matrix: (Units=1/GPa)
#
#
# Indices 1 2 3 4 5 6 
#
# 1 0.009537 -0.000945 -0.002293 0.000000 -0.000777 0.000000
# 2 -0.000945 0.012304 -0.003673 0.000000 -0.000405 0.000000
# 3 -0.002293 -0.003673 0.011260 0.000000 -0.002229 0.000000
# 4 0.000000 0.000000 0.000000 0.029781 0.000000 -0.002784
# 5 -0.000777 -0.000405 -0.002229 0.000000 0.021918 0.000000
# 6 0.000000 0.000000 0.000000 -0.002784 0.000000 0.026968
#
#
# Mechanical properties :
#
#
# Convention : Reuss Voigt Hill
#
# Bulk Modulus (GPa) = 51.87262 54.01836 52.94549
# Shear Modulus (GPa) = 37.87352 39.25460 38.56406
#
# Velocity S-wave (km/s) = 4.15491 4.22999 4.19262
# Velocity P-wave (km/s) = 6.83096 6.96272 6.89716
#
# Compressibility (1/GPa) = 0.01927799
#
# Stress axis : x y z
#
# Youngs Moduli (GPa) = 104.85576 81.27115 88.80938
#
# Poissons Ratio (x) = 0.07682 0.20368
# Poissons Ratio (y) = 0.09911 0.32620
# Poissons Ratio (z) = 0.24048 0.29851
#
# Static dielectric constant tensor:
#      x y z
#    x 4.078610 0.000000 0.139730 
#    y 0.000000 4.029870 0.000000 
#    z 0.139730 0.000000 4.068380 
# 
# 
# High freq. dielectric constant tensor:
#      x y z
#    x 1.874680 0.000000 0.007930 
#    y 0.000000 1.872510 0.000000 
#    z 0.007930 0.000000 1.875310 
# 
# From -- ./inp_files/1391.got.cif
#   From: 2010.03.12/outbox.cif.g09.slc.cpg/sg4_1_cif.got.tgz:1391.got - 2010.03.31 09:31:35.
