data_PCOD8047043
_publ_section_title
;
Structure prediction by ZEFSAII (Michael W. Deem and Ramdas Pophale) SiO2 
 PCOD8047043
Probable space group: P 21
;
_chemical_formula_sum "Si O2"
_cell_formula_units_Z 14
_cell_length_a 10.860653
_cell_length_b 9.279260
_cell_length_c 12.263494
_cell_angle_alpha 90.000000
_cell_angle_beta 146.212843
_cell_angle_gamma 90.000000
_cell_volume 687.295799
_symmetry_space_group_name_H-M "P 21"
_symmetry_group_IT_number 4
_symmetry_cell_setting 'monoclinic'
loop_
_space_group_symop_operation_xyz
x,y,z
-x,1/2+y,-z
loop_
_atom_site_type_symbol
_atom_site_label
_atom_site_fract_x
_atom_site_fract_y
_atom_site_fract_z
Si Si1 0.500020 0.317260 0.101867
Si Si2 0.257682 0.579919 0.851159
Si Si3 0.373870 0.692262 0.160446
Si Si4 0.193692 0.262885 0.082572
Si Si5 0.494371 0.466273 0.413809
Si Si6 0.780256 0.525446 0.436468
Si Si7 0.219192 0.949143 0.173605
O O1 0.571370 0.181344 0.085232
O O2 0.343273 0.269044 0.085457
O O3 0.718331 0.405407 0.300776
O O4 0.355562 0.419975 0.918315
O O5 0.031059 0.576466 0.616503
O O6 0.217663 0.632524 0.947216
O O7 0.347996 0.598097 0.253807
O O8 0.626530 0.668262 0.304330
O O9 0.312801 0.856991 0.140118
O O10 0.340426 0.324382 0.291178
O O11 0.124481 0.099275 0.058382
O O12 0.971819 0.358408 0.905991
O O13 0.720370 0.453221 0.509277
O O14 0.570039 0.483613 0.593904
#
# Coordination Sequence:
#
# PCOD8047043 Si02
#       7
#     2   2   2   2   2   2   2
#     4  10  24  42  64  98 123 167 214 259 316 377
#     4  11  21  43  70  86 134 163 205 272 311 369
#     4   9  22  38  63  98 118 169 213 251 324 372
#     4  11  24  40  61  96 126 166 215 253 323 373
#     4   9  20  40  60  87 123 164 206 266 305 372
#     4   8  20  40  63  85 124 162 208 249 327 361
#     4  12  23  37  67  90 132 165 209 264 314 380
#
# _framework density 20.369686000000002
#
# number of rings (size 3 to 8) (size 9 to 14) (size 15 to 20)
#    0.857    1.143    1.429    2.571    4.000    2.286 
#    0.000    0.000    0.000    0.000    0.000    0.000 
#    0.000    0.000    0.000    0.000    0.000    0.000 
#
# Total GULP energy -173462.277897 kJ/mol
# GULP energy per Si atom -12390.162707 kJ/mol
# Density = 2.032332 g / cm^3
# Si number density = 20.369686 Si / 1000 Ang^3
#
#
#
# Elastic Constant Matrix: (Units=GPa)
#
#
# Indices 1 2 3 4 5 6 
#
# 1 54.9770 36.9992 28.0450 0.0000 5.2510 0.0000
# 2 36.9992 125.4906 30.3418 0.0000 7.6209 0.0000
# 3 28.0450 30.3418 88.4025 0.0000 7.7114 0.0000
# 4 0.0000 0.0000 0.0000 21.0074 0.0000 1.5451
# 5 5.2510 7.6209 7.7114 0.0000 20.8938 0.0000
# 6 0.0000 0.0000 0.0000 1.5451 0.0000 35.9979
#
#
#
# Elastic Compliance Matrix: (Units=1/GPa)
#
#
# Indices 1 2 3 4 5 6 
#
# 1 0.025357 -0.005943 -0.005825 0.000000 -0.002055 0.000000
# 2 -0.005943 0.010176 -0.001461 0.000000 -0.001679 0.000000
# 3 -0.005825 -0.001461 0.013936 0.000000 -0.003147 0.000000
# 4 0.000000 0.000000 0.000000 0.047753 0.000000 -0.002050
# 5 -0.002055 -0.001679 -0.003147 0.000000 0.050151 0.000000
# 6 0.000000 0.000000 0.000000 -0.002050 0.000000 0.027867
#
#
# Mechanical properties :
#
#
# Convention : Reuss Voigt Hill
#
# Bulk Modulus (GPa) = 43.45807 51.07134 47.26471
# Shear Modulus (GPa) = 23.88133 27.14543 25.51338
#
# Velocity S-wave (km/s) = 3.42774 3.65449 3.54293
# Velocity P-wave (km/s) = 6.08661 6.55238 6.32379
#
# Compressibility (1/GPa) = 0.02301068
#
# Stress axis : x y z
#
# Youngs Moduli (GPa) = 39.43717 98.26964 71.75765
#
# Poissons Ratio (x) = 0.58400 0.41801
# Poissons Ratio (y) = 0.23437 0.10483
# Poissons Ratio (z) = 0.22973 0.14356
#
# Static dielectric constant tensor:
#      x y z
#    x 3.334220 0.000000 0.002500 
#    y 0.000000 3.642710 0.000000 
#    z 0.002500 0.000000 3.567880 
# 
# 
# High freq. dielectric constant tensor:
#      x y z
#    x 1.768200 0.000000 0.004950 
#    y 0.000000 1.790940 0.000000 
#    z 0.004950 0.000000 1.796180 
# 
# From -- ./inp_files/2565.got.cif
#   From: 2010.03.12/outbox.cif.g09.slc.cpg/sg4_2_cif.got.tgz:2565.got - 2010.03.31 09:31:35.
