data_PCOD8047828
_publ_section_title
;
Structure prediction by ZEFSAII (Michael W. Deem and Ramdas Pophale) SiO2 
 PCOD8047828
Probable space group: P 21
;
_chemical_formula_sum "Si O2"
_cell_formula_units_Z 16
_cell_length_a 8.828278
_cell_length_b 8.747447
_cell_length_c 18.301187
_cell_angle_alpha 90.000000
_cell_angle_beta 28.927136
_cell_angle_gamma 90.000000
_cell_volume 683.612408
_symmetry_space_group_name_H-M "P 21"
_symmetry_group_IT_number 4
_symmetry_cell_setting 'monoclinic'
loop_
_space_group_symop_operation_xyz
x,y,z
-x,1/2+y,-z
loop_
_atom_site_type_symbol
_atom_site_label
_atom_site_fract_x
_atom_site_fract_y
_atom_site_fract_z
Si Si1 0.161038 0.953600 0.229898
Si Si2 0.276033 0.782600 0.815758
Si Si3 0.774372 0.465146 0.402899
Si Si4 0.799791 0.046828 0.024399
Si Si5 0.228481 0.770837 0.471245
Si Si6 0.913547 0.925780 0.484117
Si Si7 0.765527 0.179109 0.321240
Si Si8 0.071026 0.209047 0.773582
O O1 0.945116 0.880557 0.385612
O O2 0.125004 0.853015 0.172160
O O3 0.511760 0.956376 0.110970
O O4 0.053382 0.124150 0.251315
O O5 0.310123 0.649671 0.861208
O O6 0.611806 0.851515 0.650099
O O7 0.123814 0.702190 0.808908
O O8 0.058599 0.920249 0.937384
O O9 0.963401 0.373801 0.387346
O O10 0.634143 0.340789 0.405610
O O11 0.498820 0.550774 0.561890
O O12 0.979807 0.578763 0.266866
O O13 0.937249 0.161169 0.907113
O O14 0.074038 0.608849 0.519055
O O15 0.565919 0.747225 0.366134
O O16 0.220017 0.865396 0.398935
#
# Coordination Sequence:
#
# PCOD8047828 Si02
#       8
#     2   2   2   2   2   2   2   2
#     4  12  28  47  79 113 148 200 264 315 376 454
#     4  12  29  52  75 107 160 206 252 315 382 460
#     4  12  22  43  79 113 145 194 252 317 377 436
#     4  12  31  52  73 111 157 209 251 305 397 463
#     4  12  26  44  75 115 154 195 250 319 381 436
#     4  12  27  50  75 118 148 197 267 314 371 460
#     4  12  23  45  76 110 149 195 257 319 371 444
#     4  12  26  51  76 109 157 202 253 316 383 457
#
# _framework density 23.405073999999999
#
# number of rings (size 3 to 8) (size 9 to 14) (size 15 to 20)
#    0.000    0.000    6.250    2.250   10.500    0.000 
#    0.000    0.000    0.000    0.000    0.000    0.000 
#    0.000    0.000    0.000    0.000    0.000    0.000 
#
# Total GULP energy -198332.867553 kJ/mol
# GULP energy per Si atom -12395.804222 kJ/mol
# Density = 2.335180 g / cm^3
# Si number density = 23.405074 Si / 1000 Ang^3
#
#
#
# Elastic Constant Matrix: (Units=GPa)
#
#
# Indices 1 2 3 4 5 6 
#
# 1 105.5162 32.0573 13.8737 0.0000 16.0829 0.0000
# 2 32.0573 99.4351 15.6401 0.0000 5.6886 0.0000
# 3 13.8737 15.6401 59.5028 0.0000 5.9347 0.0000
# 4 0.0000 0.0000 0.0000 31.4153 0.0000 15.0025
# 5 16.0829 5.6886 5.9347 0.0000 36.4069 0.0000
# 6 0.0000 0.0000 0.0000 15.0025 0.0000 57.0668
#
#
#
# Elastic Compliance Matrix: (Units=1/GPa)
#
#
# Indices 1 2 3 4 5 6 
#
# 1 0.011271 -0.003175 -0.001369 0.000000 -0.004260 0.000000
# 2 -0.003175 0.011437 -0.002265 0.000000 -0.000016 0.000000
# 3 -0.001369 -0.002265 0.017916 0.000000 -0.001962 0.000000
# 4 0.000000 0.000000 0.000000 0.036402 0.000000 -0.009570
# 5 -0.004260 -0.000016 -0.001962 0.000000 0.029671 0.000000
# 6 0.000000 0.000000 0.000000 -0.009570 0.000000 0.020039
#
#
# Mechanical properties :
#
#
# Convention : Reuss Voigt Hill
#
# Bulk Modulus (GPa) = 37.02523 43.06626 40.04575
# Shear Modulus (GPa) = 33.47726 38.50334 35.99030
#
# Velocity S-wave (km/s) = 3.78609 4.06037 3.92562
# Velocity P-wave (km/s) = 5.91323 6.35786 6.13957
#
# Compressibility (1/GPa) = 0.02700861
#
# Stress axis : x y z
#
# Youngs Moduli (GPa) = 88.72336 87.43250 55.81622
#
# Poissons Ratio (x) = 0.27757 0.07639
# Poissons Ratio (y) = 0.28167 0.12640
# Poissons Ratio (z) = 0.12143 0.19799
#
# Static dielectric constant tensor:
#      x y z
#    x 4.415310 0.000000 0.308070 
#    y 0.000000 4.511610 0.000000 
#    z 0.308070 0.000000 4.079250 
# 
# 
# High freq. dielectric constant tensor:
#      x y z
#    x 1.937940 0.000000 0.021110 
#    y 0.000000 1.946470 0.000000 
#    z 0.021110 0.000000 1.897100 
# 
# From -- ./inp_files/14960.got.cif
#   From: 2010.03.12/outbox.cif.g09.slc.cpg/sg4_8_cif.got.tgz:14960.got - 2010.03.31 09:31:35.
