data_PCOD8047762
_publ_section_title
;
Structure prediction by ZEFSAII (Michael W. Deem and Ramdas Pophale) SiO2 
 PCOD8047762
Probable space group: P 21
;
_chemical_formula_sum "Si O2"
_cell_formula_units_Z 16
_cell_length_a 9.965738
_cell_length_b 8.103988
_cell_length_c 8.958434
_cell_angle_alpha 90.000000
_cell_angle_beta 119.439295
_cell_angle_gamma 90.000000
_cell_volume 630.082097
_symmetry_space_group_name_H-M "P 21"
_symmetry_group_IT_number 4
_symmetry_cell_setting 'monoclinic'
loop_
_space_group_symop_operation_xyz
x,y,z
-x,1/2+y,-z
loop_
_atom_site_type_symbol
_atom_site_label
_atom_site_fract_x
_atom_site_fract_y
_atom_site_fract_z
Si Si1 0.776666 0.948950 0.977317
Si Si2 0.665276 0.423680 0.667631
Si Si3 0.060724 0.289303 0.673092
Si Si4 0.260574 0.816361 0.981884
Si Si5 0.195782 0.034576 0.526827
Si Si6 0.554927 0.325420 0.202420
Si Si7 0.049575 0.476326 0.227938
Si Si8 0.652011 0.084154 0.489525
O O1 0.627785 0.833529 0.868098
O O2 0.902848 0.929470 0.915330
O O3 0.836953 0.917368 0.177842
O O4 0.725973 0.136613 0.943663
O O5 0.781448 0.548724 0.641026
O O6 0.682979 0.236021 0.619238
O O7 0.490423 0.473675 0.538357
O O8 0.712526 0.442265 0.866134
O O9 0.150227 0.200263 0.586857
O O10 0.927734 0.388366 0.513379
O O11 0.007080 0.163623 0.774038
O O12 0.403389 0.836710 0.948380
O O13 0.095581 0.856862 0.812503
O O14 0.363718 0.980619 0.675318
O O15 0.621878 0.154271 0.306947
O O16 0.198287 0.462019 0.420428
#
# Coordination Sequence:
#
# PCOD8047762 Si02
#       8
#     2   2   2   2   2   2   2   2
#     4  12  28  48  75 113 154 206 259 322 391 470
#     4  11  25  51  78 112 157 203 266 317 393 467
#     4  12  27  48  78 112 157 204 261 324 394 465
#     4  12  28  49  77 113 155 205 259 321 388 471
#     4  11  25  52  73 113 151 204 257 322 387 468
#     4  11  27  48  74 109 159 194 263 314 388 464
#     4  12  23  51  76 111 153 203 259 320 387 460
#     4  11  25  49  77 113 150 209 258 324 382 469
#
# _framework density 25.393515000000001
#
# number of rings (size 3 to 8) (size 9 to 14) (size 15 to 20)
#    0.000    0.500    5.000    3.000    7.000    0.000 
#   11.250    0.000    0.000    0.000    0.000    0.000 
#    0.000    0.000    0.000    0.000    0.000    0.000 
#
# Total GULP energy -198331.709202 kJ/mol
# GULP energy per Si atom -12395.731825 kJ/mol
# Density = 2.533572 g / cm^3
# Si number density = 25.393515 Si / 1000 Ang^3
#
#
#
# Elastic Constant Matrix: (Units=GPa)
#
#
# Indices 1 2 3 4 5 6 
#
# 1 111.4187 19.7868 35.2160 0.0000 -3.4277 0.0000
# 2 19.7868 45.9012 23.8095 0.0000 -7.8076 0.0000
# 3 35.2160 23.8095 111.6100 0.0000 -12.2288 0.0000
# 4 0.0000 0.0000 0.0000 44.7700 0.0000 -4.9617
# 5 -3.4277 -7.8076 -12.2288 0.0000 51.1197 0.0000
# 6 0.0000 0.0000 0.0000 -4.9617 0.0000 39.3256
#
#
#
# Elastic Compliance Matrix: (Units=1/GPa)
#
#
# Indices 1 2 3 4 5 6 
#
# 1 0.010359 -0.003168 -0.002639 0.000000 -0.000421 0.000000
# 2 -0.003168 0.025796 -0.004205 0.000000 0.002721 0.000000
# 3 -0.002639 -0.004205 0.010885 0.000000 0.001785 0.000000
# 4 0.000000 0.000000 0.000000 0.022653 0.000000 0.002858
# 5 -0.000421 0.002721 0.001785 0.000000 0.020376 0.000000
# 6 0.000000 0.000000 0.000000 0.002858 0.000000 0.025789
#
#
# Mechanical properties :
#
#
# Convention : Reuss Voigt Hill
#
# Bulk Modulus (GPa) = 37.01574 47.39495 42.20535
# Shear Modulus (GPa) = 34.50949 39.71758 37.11353
#
# Velocity S-wave (km/s) = 3.69045 3.95914 3.82715
# Velocity P-wave (km/s) = 5.72431 6.29321 6.01548
#
# Compressibility (1/GPa) = 0.02701553
#
# Stress axis : x y z
#
# Youngs Moduli (GPa) = 96.53559 38.76601 91.86993
#
# Poissons Ratio (x) = 0.12282 0.24242
# Poissons Ratio (y) = 0.30585 0.38632
# Poissons Ratio (z) = 0.25473 0.16301
#
# Static dielectric constant tensor:
#      x y z
#    x 4.819630 0.000000 -0.130150 
#    y 0.000000 4.268010 0.000000 
#    z -0.130150 0.000000 4.723440 
# 
# 
# High freq. dielectric constant tensor:
#      x y z
#    x 2.026570 0.000000 -0.003100 
#    y 0.000000 1.994190 0.000000 
#    z -0.003100 0.000000 2.018030 
# 
# From -- ./inp_files/5861.got.cif
#   From: 2010.03.12/outbox.cif.g09.slc.cpg/sg4_3_cif.got.tgz:5861.got - 2010.03.31 09:31:35.
