data_PCOD8047731
_publ_section_title
;
Structure prediction by ZEFSAII (Michael W. Deem and Ramdas Pophale) SiO2 
 PCOD8047731
Probable space group: P 21
;
_chemical_formula_sum "Si O2"
_cell_formula_units_Z 16
_cell_length_a 8.892116
_cell_length_b 13.833234
_cell_length_c 5.199788
_cell_angle_alpha 90.000000
_cell_angle_beta 97.988999
_cell_angle_gamma 90.000000
_cell_volume 633.401324
_symmetry_space_group_name_H-M "P 21"
_symmetry_group_IT_number 4
_symmetry_cell_setting 'monoclinic'
loop_
_space_group_symop_operation_xyz
x,y,z
-x,1/2+y,-z
loop_
_atom_site_type_symbol
_atom_site_label
_atom_site_fract_x
_atom_site_fract_y
_atom_site_fract_z
Si Si1 0.368773 0.442440 0.718753
Si Si2 0.124703 0.137515 0.262088
Si Si3 0.369591 0.055660 0.947569
Si Si4 0.028838 0.449731 0.750859
Si Si5 0.389586 0.225473 0.586273
Si Si6 0.671553 0.134675 0.480016
Si Si7 0.139206 0.908551 0.768957
Si Si8 0.823910 0.207199 0.027091
O O1 0.426356 0.337353 0.645755
O O2 0.353612 0.518982 0.476037
O O3 0.206266 0.428011 0.814010
O O4 0.488392 0.490244 0.940733
O O5 0.211594 0.211038 0.474720
O O6 0.009242 0.200648 0.058659
O O7 0.016340 0.056821 0.369904
O O8 0.260177 0.081672 0.155418
O O9 0.428468 0.155326 0.835849
O O10 0.266059 0.989905 0.732026
O O11 0.950347 0.380641 0.516336
O O12 0.973013 0.442331 0.030249
O O13 0.510191 0.189553 0.399711
O O14 0.756939 0.135732 0.226124
O O15 0.765120 0.183409 0.730271
O O16 0.224804 0.814077 0.897132
#
# Coordination Sequence:
#
# PCOD8047731 Si02
#       8
#     2   2   2   2   2   2   2   2
#     4  12  27  50  75 115 152 210 258 319 388 467
#     4  11  25  47  74 108 152 201 249 322 384 453
#     4  11  26  49  72 109 158 197 257 320 381 456
#     4  11  25  46  76 113 153 198 253 315 384 457
#     4  12  27  50  79 109 159 207 258 319 395 459
#     4  12  28  50  74 113 154 201 256 319 379 460
#     4  11  25  48  78 113 151 201 252 315 388 461
#     4  12  27  48  80 110 155 199 255 317 389 459
#
# _framework density 25.260442999999999
#
# number of rings (size 3 to 8) (size 9 to 14) (size 15 to 20)
#    0.000    0.500    3.750    3.000    7.000    2.000 
#    4.500    0.000    0.000    0.000    0.000    0.000 
#    0.000    0.000    0.000    0.000    0.000    0.000 
#
# Total GULP energy -198293.841681 kJ/mol
# GULP energy per Si atom -12393.365105 kJ/mol
# Density = 2.520295 g / cm^3
# Si number density = 25.260443 Si / 1000 Ang^3
#
#
#
# Elastic Constant Matrix: (Units=GPa)
#
#
# Indices 1 2 3 4 5 6 
#
# 1 112.3383 24.0713 28.3059 0.0000 21.1620 0.0000
# 2 24.0713 142.4698 -12.5522 0.0000 7.6344 0.0000
# 3 28.3059 -12.5522 59.8413 0.0000 11.2771 0.0000
# 4 0.0000 0.0000 0.0000 36.3085 0.0000 5.7810
# 5 21.1620 7.6344 11.2771 0.0000 30.2671 0.0000
# 6 0.0000 0.0000 0.0000 5.7810 0.0000 34.8895
#
#
#
# Elastic Compliance Matrix: (Units=1/GPa)
#
#
# Indices 1 2 3 4 5 6 
#
# 1 0.011671 -0.002088 -0.004861 0.000000 -0.005822 0.000000
# 2 -0.002088 0.007711 0.002900 0.000000 -0.001566 0.000000
# 3 -0.004861 0.002900 0.020560 0.000000 -0.004993 0.000000
# 4 0.000000 0.000000 0.000000 0.028288 0.000000 -0.004687
# 5 -0.005822 -0.001566 -0.004993 0.000000 0.039365 0.000000
# 6 0.000000 0.000000 0.000000 -0.004687 0.000000 0.029439
#
#
# Mechanical properties :
#
#
# Convention : Reuss Voigt Hill
#
# Bulk Modulus (GPa) = 31.40391 43.81107 37.60749
# Shear Modulus (GPa) = 32.10354 38.61462 35.35908
#
# Velocity S-wave (km/s) = 3.56884 3.91405 3.74542
# Velocity P-wave (km/s) = 5.42597 6.14880 5.79866
#
# Compressibility (1/GPa) = 0.03184316
#
# Stress axis : x y z
#
# Youngs Moduli (GPa) = 85.68420 129.68031 48.63907
#
# Poissons Ratio (x) = 0.27080 0.23645
# Poissons Ratio (y) = 0.17892 -0.14107
# Poissons Ratio (z) = 0.41654 -0.37611
#
# Static dielectric constant tensor:
#      x y z
#    x 4.922980 0.000000 0.339320 
#    y 0.000000 4.800840 0.000000 
#    z 0.339320 0.000000 4.218470 
# 
# 
# High freq. dielectric constant tensor:
#      x y z
#    x 2.022940 0.000000 0.019700 
#    y 0.000000 2.016390 0.000000 
#    z 0.019700 0.000000 1.987850 
# 
# From -- ./inp_files/1948.got.cif
#   From: 2010.03.12/outbox.cif.g09.slc.cpg/sg4_1_cif.got.tgz:1948.got - 2010.03.31 09:31:35.
