data_PCOD8047015
_publ_section_title
;
Structure prediction by ZEFSAII (Michael W. Deem and Ramdas Pophale) SiO2 
 PCOD8047015
Probable space group: P 21
;
_chemical_formula_sum "Si O2"
_cell_formula_units_Z 16
_cell_length_a 22.570932
_cell_length_b 5.407076
_cell_length_c 19.500949
_cell_angle_alpha 90.000000
_cell_angle_beta 16.927863
_cell_angle_gamma 90.000000
_cell_volume 692.963801
_symmetry_space_group_name_H-M "P 21"
_symmetry_group_IT_number 4
_symmetry_cell_setting 'monoclinic'
loop_
_space_group_symop_operation_xyz
x,y,z
-x,1/2+y,-z
loop_
_atom_site_type_symbol
_atom_site_label
_atom_site_fract_x
_atom_site_fract_y
_atom_site_fract_z
Si Si1 0.905345 0.406760 0.308418
Si Si2 0.927002 0.129882 0.614743
Si Si3 0.994300 0.285745 0.902609
Si Si4 0.400899 0.811544 0.580333
Si Si5 0.186785 0.017485 0.033222
Si Si6 0.106434 0.232834 0.552866
Si Si7 0.501361 0.293000 0.040151
Si Si8 0.366495 0.607294 0.476902
O O1 0.820308 0.584139 0.461189
O O2 0.728876 0.207800 0.488552
O O3 0.942386 0.511376 0.190496
O O4 0.120777 0.302713 0.097333
O O5 0.692273 0.210107 0.874403
O O6 0.052883 0.372683 0.449350
O O7 0.003782 0.068468 0.606570
O O8 0.883230 0.383599 0.957918
O O9 0.203540 0.421390 0.691541
O O10 0.839831 0.298133 0.136750
O O11 0.510683 0.572357 0.491835
O O12 0.426392 0.804182 0.469845
O O13 0.426619 0.975803 0.777025
O O14 0.066161 0.926875 0.233773
O O15 0.310161 0.364530 0.299715
O O16 0.559736 0.548398 0.936727
#
# Coordination Sequence:
#
# PCOD8047015 Si02
#       8
#     2   2   2   2   2   2   2   2
#     4  10  25  44  71 100 148 189 248 300 361 441
#     4  12  25  46  73 109 146 189 237 298 364 434
#     4  10  24  44  68 104 143 187 249 302 368 436
#     4  12  27  45  77 108 148 197 246 309 387 425
#     4  10  23  48  67 101 146 188 242 301 361 446
#     4  11  26  44  75 103 147 189 246 292 377 430
#     4  12  25  47  75 108 150 187 242 300 361 436
#     4  11  25  44  74 103 148 192 250 308 367 436
#
# _framework density 23.089227999999999
#
# number of rings (size 3 to 8) (size 9 to 14) (size 15 to 20)
#    0.000    1.000    3.750    0.750    8.750    6.000 
#    0.000    0.000    0.000    0.000    0.000    0.000 
#    0.000    0.000    0.000    0.000    0.000    0.000 
#
# Total GULP energy -198286.381565 kJ/mol
# GULP energy per Si atom -12392.898848 kJ/mol
# Density = 2.303668 g / cm^3
# Si number density = 23.089228 Si / 1000 Ang^3
#
#
#
# Elastic Constant Matrix: (Units=GPa)
#
#
# Indices 1 2 3 4 5 6 
#
# 1 68.4972 13.1508 35.4832 0.0000 -1.3193 0.0000
# 2 13.1508 98.6205 27.9511 0.0000 -0.2274 0.0000
# 3 35.4832 27.9511 183.8191 0.0000 -6.1086 0.0000
# 4 0.0000 0.0000 0.0000 27.9913 0.0000 -6.3128
# 5 -1.3193 -0.2274 -6.1086 0.0000 38.8302 0.0000
# 6 0.0000 0.0000 0.0000 -6.3128 0.0000 28.6975
#
#
#
# Elastic Compliance Matrix: (Units=1/GPa)
#
#
# Indices 1 2 3 4 5 6 
#
# 1 0.016391 -0.001348 -0.002956 0.000000 0.000084 0.000000
# 2 -0.001348 0.010709 -0.001375 0.000000 -0.000199 0.000000
# 3 -0.002956 -0.001375 0.006249 0.000000 0.000875 0.000000
# 4 0.000000 0.000000 0.000000 0.037590 0.000000 0.008269
# 5 0.000084 -0.000199 0.000875 0.000000 0.025892 0.000000
# 6 0.000000 0.000000 0.000000 0.008269 0.000000 0.036665
#
#
# Mechanical properties :
#
#
# Convention : Reuss Voigt Hill
#
# Bulk Modulus (GPa) = 45.47294 56.01188 50.74241
# Shear Modulus (GPa) = 32.85490 37.39393 35.12441
#
# Velocity S-wave (km/s) = 3.77630 4.02872 3.90455
# Velocity P-wave (km/s) = 6.22504 6.77881 6.50782
#
# Compressibility (1/GPa) = 0.02199110
#
# Stress axis : x y z
#
# Youngs Moduli (GPa) = 61.00945 93.38131 160.02786
#
# Poissons Ratio (x) = 0.12584 0.47309
# Poissons Ratio (y) = 0.08222 0.22001
# Poissons Ratio (z) = 0.18036 0.12838
#
# Static dielectric constant tensor:
#      x y z
#    x 4.098460 0.000000 -0.053490 
#    y 0.000000 4.485050 0.000000 
#    z -0.053490 0.000000 4.299700 
# 
# 
# High freq. dielectric constant tensor:
#      x y z
#    x 1.910570 0.000000 -0.010290 
#    y 0.000000 1.907150 0.000000 
#    z -0.010290 0.000000 1.920770 
# 
# From -- ./inp_files/15354.got.cif
#   From: 2010.03.12/outbox.cif.g09.slc.cpg/sg4_8_cif.got.tgz:15354.got - 2010.03.31 09:31:35.
