data_PCOD8047268
_publ_section_title
;
Structure prediction by ZEFSAII (Michael W. Deem and Ramdas Pophale) SiO2 
 PCOD8047268
Probable space group: P 21
;
_chemical_formula_sum "Si O2"
_cell_formula_units_Z 12
_cell_length_a 13.590008
_cell_length_b 5.144928
_cell_length_c 24.721129
_cell_angle_alpha 90.000000
_cell_angle_beta 16.641666
_cell_angle_gamma 90.000000
_cell_volume 495.014447
_symmetry_space_group_name_H-M "P 21"
_symmetry_group_IT_number 4
_symmetry_cell_setting 'monoclinic'
loop_
_space_group_symop_operation_xyz
x,y,z
-x,1/2+y,-z
loop_
_atom_site_type_symbol
_atom_site_label
_atom_site_fract_x
_atom_site_fract_y
_atom_site_fract_z
Si Si1 0.684691 0.520690 0.763646
Si Si2 0.561678 0.517351 0.711188
Si Si3 0.406066 0.546911 0.581648
Si Si4 0.225331 0.015117 0.019656
Si Si5 0.356710 0.302362 0.438430
Si Si6 0.144486 0.184000 0.867677
O O1 0.795893 0.538739 0.641171
O O2 0.020312 0.485194 0.623987
O O3 0.413295 0.285289 0.908987
O O4 0.502239 0.783967 0.879211
O O5 0.737550 0.661149 0.568323
O O6 0.469634 0.229812 0.736893
O O7 0.185010 0.626826 0.923232
O O8 0.527228 0.263177 0.499005
O O9 0.624233 0.611942 0.520640
O O10 0.995973 0.540308 0.808885
O O11 0.946215 0.942283 0.119759
O O12 0.719910 0.458388 0.244192
#
# Coordination Sequence:
#
# PCOD8047268 Si02
#       6
#     2   2   2   2   2   2
#     4  11  28  42  71 108 155 183 219 281 373 435
#     4  11  22  37  68 101 149 187 230 271 347 425
#     4  12  26  49  79 104 127 183 255 309 344 405
#     4  11  24  49  70 104 143 188 230 294 352 426
#     4  12  27  43  70 108 144 188 239 295 346 422
#     4  11  21  40  68 103 142 193 237 278 328 433
#
# _framework density 24.241717999999999
#
# number of rings (size 3 to 8) (size 9 to 14) (size 15 to 20)
#    0.000    0.667    3.333    5.000    7.000    0.000 
#    0.000    3.333    0.000    2.000    0.000    0.000 
#    0.000    0.000    0.000    0.000    0.000    0.000 
#
# Total GULP energy -148748.528021 kJ/mol
# GULP energy per Si atom -12395.710668 kJ/mol
# Density = 2.418654 g / cm^3
# Si number density = 24.241718 Si / 1000 Ang^3
#
#
#
# Elastic Constant Matrix: (Units=GPa)
#
#
# Indices 1 2 3 4 5 6 
#
# 1 58.7003 4.0866 44.9062 0.0000 2.6821 0.0000
# 2 4.0866 46.8987 -10.4009 -0.0002 14.3410 0.0000
# 3 44.9062 -10.4009 64.1112 -0.0002 12.9281 0.0000
# 4 0.0000 -0.0002 -0.0002 40.5129 0.0000 5.2427
# 5 2.6821 14.3410 12.9281 0.0000 38.6353 0.0000
# 6 0.0000 0.0000 0.0000 5.2427 0.0000 40.7017
#
#
#
# Elastic Compliance Matrix: (Units=1/GPa)
#
#
# Indices 1 2 3 4 5 6 
#
# 1 0.048282 -0.018283 -0.040189 0.000000 0.016883 0.000000
# 2 -0.018283 0.033440 0.021960 0.000000 -0.018492 0.000000
# 3 -0.040189 0.021960 0.051894 0.000000 -0.022726 0.000000
# 4 0.000000 0.000000 0.000000 0.025102 0.000000 -0.003233
# 5 0.016883 -0.018492 -0.022726 0.000000 0.039180 0.000000
# 6 0.000000 0.000000 0.000000 -0.003233 0.000000 0.024985
#
#
# Mechanical properties :
#
#
# Convention : Reuss Voigt Hill
#
# Bulk Modulus (GPa) = 16.50385 27.43264 21.96825
# Shear Modulus (GPa) = 15.81753 32.71119 24.26436
#
# Velocity S-wave (km/s) = 2.55716 3.67737 3.16719
# Velocity P-wave (km/s) = 3.94228 5.41956 4.73884
#
# Compressibility (1/GPa) = 0.06059192
#
# Stress axis : x y z
#
# Youngs Moduli (GPa) = 20.71150 29.90406 19.27018
#
# Poissons Ratio (x) = 0.54672 0.77446
# Poissons Ratio (y) = 0.37866 -0.42317
# Poissons Ratio (z) = 0.83238 -0.65669
#
# Static dielectric constant tensor:
#      x y z
#    x 4.214050 0.000000 0.179430 
#    y 0.000000 4.539630 0.000000 
#    z 0.179430 0.000000 4.417510 
# 
# 
# High freq. dielectric constant tensor:
#      x y z
#    x 1.933620 0.000000 0.000700 
#    y 0.000000 1.978460 0.000000 
#    z 0.000700 0.000000 1.971540 
# 
# From -- ./inp_files/7165.got.cif
#   From: 2010.03.12/outbox.cif.g09.slc.cpg/sg4_4_cif.got.tgz:7165.got - 2010.03.31 09:31:35.
