data_PCOD8047536
_publ_section_title
;
Structure prediction by ZEFSAII (Michael W. Deem and Ramdas Pophale) SiO2 
 PCOD8047536
Probable space group: P 21
;
_chemical_formula_sum "Si O2"
_cell_formula_units_Z 14
_cell_length_a 14.742769
_cell_length_b 10.200962
_cell_length_c 9.272968
_cell_angle_alpha 90.000000
_cell_angle_beta 154.950584
_cell_angle_gamma 90.000000
_cell_volume 590.458758
_symmetry_space_group_name_H-M "P 21"
_symmetry_group_IT_number 4
_symmetry_cell_setting 'monoclinic'
loop_
_space_group_symop_operation_xyz
x,y,z
-x,1/2+y,-z
loop_
_atom_site_type_symbol
_atom_site_label
_atom_site_fract_x
_atom_site_fract_y
_atom_site_fract_z
Si Si1 0.885095 0.913150 0.032976
Si Si2 0.596028 0.245934 0.915883
Si Si3 0.308656 0.496819 0.785101
Si Si4 0.677700 0.758233 0.976452
Si Si5 0.303057 0.676803 0.251860
Si Si6 0.260565 0.008690 0.759894
Si Si7 0.119986 0.324843 0.291749
O O1 0.817344 0.793377 0.037321
O O2 0.949916 0.861981 0.969563
O O3 0.080785 0.993211 0.381244
O O4 0.692999 0.018326 0.739633
O O5 0.574284 0.223608 0.714569
O O6 0.355375 0.256246 0.635404
O O7 0.730857 0.378367 0.130354
O O8 0.738215 0.130064 0.193978
O O9 0.127691 0.453798 0.407635
O O10 0.340357 0.379374 0.942181
O O11 0.518802 0.531807 0.000876
O O12 0.435452 0.724414 0.580997
O O13 0.791362 0.634134 0.215368
O O14 0.059421 0.728038 0.905677
#
# Coordination Sequence:
#
# PCOD8047536 Si02
#       7
#     2   2   2   2   2   2   2
#     4  12  26  47  72 108 147 189 253 297 366 437
#     4  11  24  46  74 108 148 193 238 301 360 429
#     4  11  23  47  76 105 148 189 243 298 366 433
#     4  12  26  46  76 105 147 196 239 304 369 429
#     4  12  25  46  74 105 149 189 244 305 356 430
#     4  11  26  45  72 106 145 191 245 300 361 435
#     4  11  26  47  72 113 144 197 242 301 362 437
#
# _framework density 23.710377000000001
#
# number of rings (size 3 to 8) (size 9 to 14) (size 15 to 20)
#    0.000    0.571    2.857    6.000    4.000    1.143 
#    2.571    0.000    0.000    0.000    0.000    0.000 
#    0.000    0.000    0.000    0.000    0.000    0.000 
#
# Total GULP energy -173637.700826 kJ/mol
# GULP energy per Si atom -12402.692916 kJ/mol
# Density = 2.365641 g / cm^3
# Si number density = 23.710377 Si / 1000 Ang^3
#
#
#
# Elastic Constant Matrix: (Units=GPa)
#
#
# Indices 1 2 3 4 5 6 
#
# 1 89.3450 32.0780 22.7966 0.0000 -27.3341 0.0000
# 2 32.0780 153.3218 28.1985 0.0000 -24.4465 0.0000
# 3 22.7966 28.1985 90.3858 0.0000 -18.6833 0.0000
# 4 0.0000 0.0000 0.0000 28.3076 0.0000 -8.9644
# 5 -27.3341 -24.4465 -18.6833 0.0000 35.1177 0.0000
# 6 0.0000 0.0000 0.0000 -8.9644 0.0000 30.0650
#
#
#
# Elastic Compliance Matrix: (Units=1/GPa)
#
#
# Indices 1 2 3 4 5 6 
#
# 1 0.015098 -0.001300 -0.001304 0.000000 0.010153 0.000000
# 2 -0.001300 0.007606 -0.001303 0.000000 0.003590 0.000000
# 3 -0.001304 -0.001303 0.012811 0.000000 0.004894 0.000000
# 4 0.000000 0.000000 0.000000 0.039010 0.000000 0.011631
# 5 0.010153 0.003590 0.004894 0.000000 0.041481 0.000000
# 6 0.000000 0.000000 0.000000 0.011631 0.000000 0.036729
#
#
# Mechanical properties :
#
#
# Convention : Reuss Voigt Hill
#
# Bulk Modulus (GPa) = 36.09942 55.46653 45.78297
# Shear Modulus (GPa) = 29.44942 35.36335 32.40638
#
# Velocity S-wave (km/s) = 3.52809 3.86615 3.70098
# Velocity P-wave (km/s) = 5.64401 6.58586 6.13304
#
# Compressibility (1/GPa) = 0.02770127
#
# Stress axis : x y z
#
# Youngs Moduli (GPa) = 66.23279 131.47041 78.06054
#
# Poissons Ratio (x) = 0.17094 0.10176
# Poissons Ratio (y) = 0.08612 0.10172
# Poissons Ratio (z) = 0.08634 0.17131
#
# Static dielectric constant tensor:
#      x y z
#    x 4.290880 0.000000 -0.297230 
#    y 0.000000 4.537620 0.000000 
#    z -0.297230 0.000000 4.296600 
# 
# 
# High freq. dielectric constant tensor:
#      x y z
#    x 1.943910 0.000000 -0.016970 
#    y 0.000000 1.949780 0.000000 
#    z -0.016970 0.000000 1.940060 
# 
# From -- ./inp_files/5245.got.cif
#   From: 2010.03.12/outbox.cif.g09.slc.cpg/sg4_3_cif.got.tgz:5245.got - 2010.03.31 09:31:35.
