data_PCOD8047719
_publ_section_title
;
Structure prediction by ZEFSAII (Michael W. Deem and Ramdas Pophale) SiO2 
 PCOD8047719
Probable space group: P 21
;
_chemical_formula_sum "Si O2"
_cell_formula_units_Z 12
_cell_length_a 10.963585
_cell_length_b 10.650978
_cell_length_c 10.449421
_cell_angle_alpha 90.000000
_cell_angle_beta 26.428947
_cell_angle_gamma 90.000000
_cell_volume 543.100060
_symmetry_space_group_name_H-M "P 21"
_symmetry_group_IT_number 4
_symmetry_cell_setting 'monoclinic'
loop_
_space_group_symop_operation_xyz
x,y,z
-x,1/2+y,-z
loop_
_atom_site_type_symbol
_atom_site_label
_atom_site_fract_x
_atom_site_fract_y
_atom_site_fract_z
Si Si1 0.177177 0.786130 0.446364
Si Si2 0.295752 0.194372 0.931980
Si Si3 0.875409 0.420199 0.985287
Si Si4 0.898410 0.204981 0.763516
Si Si5 0.413219 0.044274 0.304294
Si Si6 0.423556 0.392810 0.609440
O O1 0.429253 0.694247 0.241630
O O2 0.054175 0.753455 0.424463
O O3 0.283453 0.929057 0.347727
O O4 0.940966 0.771240 0.773539
O O5 0.352367 0.260839 0.742919
O O6 0.216084 0.052422 0.984078
O O7 0.707448 0.377355 0.267525
O O8 0.820956 0.320455 0.925910
O O9 0.192153 0.431927 0.726089
O O10 0.179852 0.146462 0.550820
O O11 0.655403 0.103334 0.992411
O O12 0.541327 0.001534 0.318462
#
# Coordination Sequence:
#
# PCOD8047719 Si02
#       6
#     2   2   2   2   2   2
#     4  11  25  47  72  99 138 185 225 287 344 406
#     4  11  25  48  70 100 137 184 229 279 353 400
#     4  12  27  43  72 106 134 179 229 287 337 411
#     4  12  27  42  75 103 138 176 235 284 339 408
#     4  11  25  48  68 104 136 185 226 281 350 405
#     4  11  25  46  71  98 141 179 226 282 347 406
#
# _framework density 22.095376999999999
#
# number of rings (size 3 to 8) (size 9 to 14) (size 15 to 20)
#    0.000    0.667    0.000    8.000   11.667    0.000 
#    0.000    0.000    0.000    0.000    0.000    0.000 
#    0.000    0.000    0.000    0.000    0.000    0.000 
#
# Total GULP energy -148910.506869 kJ/mol
# GULP energy per Si atom -12409.208906 kJ/mol
# Density = 2.204509 g / cm^3
# Si number density = 22.095377 Si / 1000 Ang^3
#
#
#
# Elastic Constant Matrix: (Units=GPa)
#
#
# Indices 1 2 3 4 5 6 
#
# 1 90.7450 41.7782 12.4558 0.0000 2.7659 0.0000
# 2 41.7782 96.3770 3.8926 0.0000 8.6052 0.0000
# 3 12.4558 3.8926 89.0752 0.0000 0.6187 0.0000
# 4 0.0000 0.0000 0.0000 36.6171 0.0000 -2.6152
# 5 2.7659 8.6052 0.6187 0.0000 37.0407 0.0000
# 6 0.0000 0.0000 0.0000 -2.6152 0.0000 23.5064
#
#
#
# Elastic Compliance Matrix: (Units=1/GPa)
#
#
# Indices 1 2 3 4 5 6 
#
# 1 0.014025 -0.006045 -0.001700 0.000000 0.000386 0.000000
# 2 -0.006045 0.013219 0.000286 0.000000 -0.002624 0.000000
# 3 -0.001700 0.000286 0.011453 0.000000 -0.000131 0.000000
# 4 0.000000 0.000000 0.000000 0.027528 0.000000 0.003063
# 5 0.000386 -0.002624 -0.000131 0.000000 0.027580 0.000000
# 6 0.000000 0.000000 0.000000 0.003063 0.000000 0.042882
#
#
# Mechanical properties :
#
#
# Convention : Reuss Voigt Hill
#
# Bulk Modulus (GPa) = 42.05498 43.60559 42.83028
# Shear Modulus (GPa) = 31.34174 33.97089 32.65632
#
# Velocity S-wave (km/s) = 3.77035 3.92531 3.84861
# Velocity P-wave (km/s) = 6.16675 6.34997 6.25903
#
# Compressibility (1/GPa) = 0.02377840
#
# Stress axis : x y z
#
# Youngs Moduli (GPa) = 71.30319 75.64727 87.31679
#
# Poissons Ratio (x) = 0.45731 0.14841
# Poissons Ratio (y) = 0.43105 -0.02496
# Poissons Ratio (z) = 0.12119 -0.02163
#
# Static dielectric constant tensor:
#      x y z
#    x 3.909760 0.000000 -0.094430 
#    y 0.000000 3.938200 0.000000 
#    z -0.094430 0.000000 4.209430 
# 
# 
# High freq. dielectric constant tensor:
#      x y z
#    x 1.871010 0.000000 -0.005460 
#    y 0.000000 1.875620 0.000000 
#    z -0.005460 0.000000 1.888690 
# 
# From -- ./inp_files/12085.got.cif
#   From: 2010.03.12/outbox.cif.g09.slc.cpg/sg4_7_cif.got.tgz:12085.got - 2010.03.31 09:31:35.
