data_PCOD8047826
_publ_section_title
;
Structure prediction by ZEFSAII (Michael W. Deem and Ramdas Pophale) SiO2 
 PCOD8047826
Probable space group: P 21
;
_chemical_formula_sum "Si O2"
_cell_formula_units_Z 16
_cell_length_a 10.001534
_cell_length_b 6.585857
_cell_length_c 11.523915
_cell_angle_alpha 90.000000
_cell_angle_beta 112.029882
_cell_angle_gamma 90.000000
_cell_volume 703.644403
_symmetry_space_group_name_H-M "P 21"
_symmetry_group_IT_number 4
_symmetry_cell_setting 'monoclinic'
loop_
_space_group_symop_operation_xyz
x,y,z
-x,1/2+y,-z
loop_
_atom_site_type_symbol
_atom_site_label
_atom_site_fract_x
_atom_site_fract_y
_atom_site_fract_z
Si Si1 0.674193 0.178320 0.741605
Si Si2 0.164645 0.384796 0.377644
Si Si3 0.146902 0.956886 0.722920
Si Si4 0.886043 0.704767 0.072891
Si Si5 0.616525 0.150987 0.174696
Si Si6 0.352580 0.268275 0.655420
Si Si7 0.377118 0.447471 0.057287
Si Si8 0.122852 0.031475 0.181053
O O1 0.502105 0.162419 0.665446
O O2 0.724812 0.411905 0.771313
O O3 0.763268 0.069819 0.668788
O O4 0.713314 0.068603 0.875284
O O5 0.275178 0.334884 0.514267
O O6 0.133333 0.189743 0.288433
O O7 0.011488 0.445406 0.387962
O O8 0.109105 0.008289 0.844320
O O9 0.247288 0.120444 0.692087
O O10 0.222476 0.736704 0.752333
O O11 0.725942 0.787847 0.038273
O O12 0.913986 0.648309 0.949266
O O13 0.997619 0.867845 0.160275
O O14 0.507305 0.335332 0.167196
O O15 0.598210 0.958321 0.250751
O O16 0.573763 0.100697 0.027601
#
# Coordination Sequence:
#
# PCOD8047826 Si02
#       8
#     2   2   2   2   2   2   2   2
#     4  12  26  50  72 110 146 190 245 297 368 430
#     4  12  30  48  76 106 144 199 245 298 356 431
#     4  12  26  50  72 110 146 190 245 297 368 430
#     4  12  22  43  74 106 145 188 234 297 367 428
#     4  12  25  46  73 109 148 188 243 299 365 431
#     4  12  30  48  76 106 144 199 245 298 356 431
#     4  12  22  43  74 106 145 188 234 297 367 428
#     4  12  25  46  73 109 148 188 243 299 365 431
#
# _framework density 22.738759000000002
#
# number of rings (size 3 to 8) (size 9 to 14) (size 15 to 20)
#    0.000    0.000    5.000    5.250    3.500    1.000 
#    0.000    0.000    0.000    0.000    0.000    0.000 
#    0.000    0.000    0.000    0.000    0.000    0.000 
#
# Total GULP energy -198421.180984 kJ/mol
# GULP energy per Si atom -12401.323812 kJ/mol
# Density = 2.268700 g / cm^3
# Si number density = 22.738759 Si / 1000 Ang^3
#
#
#
# Elastic Constant Matrix: (Units=GPa)
#
#
# Indices 1 2 3 4 5 6 
#
# 1 131.1639 40.0105 25.9204 0.0000 24.2059 0.0000
# 2 40.0105 93.1286 25.9855 0.0000 2.9229 0.0000
# 3 25.9204 25.9855 95.9842 0.0000 8.6082 0.0000
# 4 0.0000 0.0000 0.0000 22.6533 0.0000 10.4544
# 5 24.2059 2.9229 8.6082 0.0000 34.9237 0.0000
# 6 0.0000 0.0000 0.0000 10.4544 0.0000 42.6871
#
#
#
# Elastic Compliance Matrix: (Units=1/GPa)
#
#
# Indices 1 2 3 4 5 6 
#
# 1 0.010226 -0.003874 -0.001131 0.000000 -0.006485 0.000000
# 2 -0.003874 0.013084 -0.002698 0.000000 0.002255 0.000000
# 3 -0.001131 -0.002698 0.011621 0.000000 -0.001855 0.000000
# 4 0.000000 0.000000 0.000000 0.049769 0.000000 -0.012189
# 5 -0.006485 0.002255 -0.001855 0.000000 0.033397 0.000000
# 6 0.000000 0.000000 0.000000 -0.012189 0.000000 0.026411
#
#
# Mechanical properties :
#
#
# Convention : Reuss Voigt Hill
#
# Bulk Modulus (GPa) = 51.21949 56.01217 53.61583
# Shear Modulus (GPa) = 30.04380 35.27683 32.66031
#
# Velocity S-wave (km/s) = 3.63886 3.94305 3.79400
# Velocity P-wave (km/s) = 6.34264 6.73918 6.54392
#
# Compressibility (1/GPa) = 0.01952382
#
# Stress axis : x y z
#
# Youngs Moduli (GPa) = 97.78858 76.42655 86.05363
#
# Poissons Ratio (x) = 0.29610 0.09734
# Poissons Ratio (y) = 0.37886 0.23220
# Poissons Ratio (z) = 0.11061 0.20622
#
# Static dielectric constant tensor:
#      x y z
#    x 4.303730 0.000000 0.174500 
#    y 0.000000 4.271080 0.000000 
#    z 0.174500 0.000000 4.008710 
# 
# 
# High freq. dielectric constant tensor:
#      x y z
#    x 1.913160 0.000000 0.013180 
#    y 0.000000 1.908040 0.000000 
#    z 0.013180 0.000000 1.887910 
# 
# From -- ./inp_files/9466.got.cif
#   From: 2010.03.12/outbox.cif.g09.slc.cpg/sg4_5_cif.got.tgz:9466.got - 2010.03.31 09:31:35.
