data_PCOD8047423
_publ_section_title
;
Structure prediction by ZEFSAII (Michael W. Deem and Ramdas Pophale) SiO2 
 PCOD8047423
Probable space group: P 21
;
_chemical_formula_sum "Si O2"
_cell_formula_units_Z 14
_cell_length_a 11.546556
_cell_length_b 10.000202
_cell_length_c 9.707990
_cell_angle_alpha 90.000000
_cell_angle_beta 34.353943
_cell_angle_gamma 90.000000
_cell_volume 632.562361
_symmetry_space_group_name_H-M "P 21"
_symmetry_group_IT_number 4
_symmetry_cell_setting 'monoclinic'
loop_
_space_group_symop_operation_xyz
x,y,z
-x,1/2+y,-z
loop_
_atom_site_type_symbol
_atom_site_label
_atom_site_fract_x
_atom_site_fract_y
_atom_site_fract_z
Si Si1 0.028964 0.081200 0.707931
Si Si2 0.648497 0.776032 0.707655
Si Si3 0.856368 0.607301 0.909207
Si Si4 0.261000 0.816617 0.897814
Si Si5 0.169478 0.820064 0.686653
Si Si6 0.537167 0.217004 0.824939
Si Si7 0.136072 0.517067 0.412907
O O1 0.248661 0.136294 0.437404
O O2 0.069156 0.968203 0.783623
O O3 0.910552 0.003078 0.702374
O O4 0.886225 0.198182 0.906398
O O5 0.477576 0.814691 0.763477
O O6 0.841104 0.877921 0.526996
O O7 0.552394 0.791650 0.954473
O O8 0.996211 0.704722 0.864221
O O9 0.951115 0.600766 0.662394
O O10 0.849802 0.459184 0.977832
O O11 0.632456 0.670400 0.117376
O O12 0.303619 0.800450 0.692878
O O13 0.308080 0.810110 0.413100
O O14 0.647206 0.088848 0.780337
#
# Coordination Sequence:
#
# PCOD8047423 Si02
#       7
#     2   2   2   2   2   2   2
#     4  12  26  45  73 106 143 181 241 292 353 415
#     4  12  25  42  73 104 137 181 237 296 347 419
#     4  11  23  47  73  97 144 183 233 293 350 414
#     4  12  26  47  70 105 144 188 236 286 351 424
#     4  11  29  45  69 104 145 194 231 282 356 426
#     4  11  24  43  70 101 136 179 234 291 350 408
#     4  11  23  41  68 107 131 178 234 292 351 404
#
# _framework density 22.132204999999999
#
# number of rings (size 3 to 8) (size 9 to 14) (size 15 to 20)
#    0.000    0.571    5.714    1.714    6.000    3.429 
#    0.000    0.000    0.000    0.000    0.000    0.000 
#    0.000    0.000    0.000    0.000    0.000    0.000 
#
# Total GULP energy -173601.081204 kJ/mol
# GULP energy per Si atom -12400.077229 kJ/mol
# Density = 2.208183 g / cm^3
# Si number density = 22.132205 Si / 1000 Ang^3
#
#
#
# Elastic Constant Matrix: (Units=GPa)
#
#
# Indices 1 2 3 4 5 6 
#
# 1 142.2223 54.9090 47.7376 0.0000 11.4953 0.0000
# 2 54.9090 130.5172 26.7795 0.0000 -5.1796 0.0000
# 3 47.7376 26.7795 63.2033 0.0000 -0.9669 0.0000
# 4 0.0000 0.0000 0.0000 27.0702 0.0000 -6.1607
# 5 11.4953 -5.1796 -0.9669 0.0000 33.6283 0.0000
# 6 0.0000 0.0000 0.0000 -6.1607 0.0000 33.9343
#
#
#
# Elastic Compliance Matrix: (Units=1/GPa)
#
#
# Indices 1 2 3 4 5 6 
#
# 1 0.011046 -0.003395 -0.006974 0.000000 -0.004499 0.000000
# 2 -0.003395 0.009483 -0.001414 0.000000 0.002580 0.000000
# 3 -0.006974 -0.001414 0.021731 0.000000 0.002791 0.000000
# 4 0.000000 0.000000 0.000000 0.038533 0.000000 0.006996
# 5 -0.004499 0.002580 0.002791 0.000000 0.031753 0.000000
# 6 0.000000 0.000000 0.000000 0.006996 0.000000 0.030739
#
#
# Mechanical properties :
#
#
# Convention : Reuss Voigt Hill
#
# Bulk Modulus (GPa) = 53.49175 66.08833 59.79004
# Shear Modulus (GPa) = 28.88809 32.69435 30.79122
#
# Velocity S-wave (km/s) = 3.61675 3.84764 3.73398
# Velocity P-wave (km/s) = 6.45467 7.04732 6.75749
#
# Compressibility (1/GPa) = 0.01869447
#
# Stress axis : x y z
#
# Youngs Moduli (GPa) = 90.52716 105.45574 46.01695
#
# Poissons Ratio (x) = 0.35802 0.32091
# Poissons Ratio (y) = 0.30733 0.06508
# Poissons Ratio (z) = 0.63131 0.14913
#
# Static dielectric constant tensor:
#      x y z
#    x 3.909350 0.000000 -0.040850 
#    y 0.000000 4.136480 0.000000 
#    z -0.040850 0.000000 3.808550 
# 
# 
# High freq. dielectric constant tensor:
#      x y z
#    x 1.877570 0.000000 -0.005050 
#    y 0.000000 1.879170 0.000000 
#    z -0.005050 0.000000 1.861740 
# 
# From -- ./inp_files/1182.got.cif
#   From: 2010.03.12/outbox.cif.g09.slc.cpg/sg4_1_cif.got.tgz:1182.got - 2010.03.31 09:31:35.
