data_PCOD8047562
_publ_section_title
;
Structure prediction by ZEFSAII (Michael W. Deem and Ramdas Pophale) SiO2 
 PCOD8047562
Probable space group: P 21
;
_chemical_formula_sum "Si O2"
_cell_formula_units_Z 16
_cell_length_a 9.134486
_cell_length_b 8.790580
_cell_length_c 8.752777
_cell_angle_alpha 90.000000
_cell_angle_beta 90.877749
_cell_angle_gamma 90.000000
_cell_volume 702.743026
_symmetry_space_group_name_H-M "P 21"
_symmetry_group_IT_number 4
_symmetry_cell_setting 'monoclinic'
loop_
_space_group_symop_operation_xyz
x,y,z
-x,1/2+y,-z
loop_
_atom_site_type_symbol
_atom_site_label
_atom_site_fract_x
_atom_site_fract_y
_atom_site_fract_z
Si Si1 0.683593 0.311020 0.584872
Si Si2 0.183279 0.750828 0.083448
Si Si3 0.316720 0.310199 0.916555
Si Si4 0.816401 0.749992 0.415132
Si Si5 0.955120 0.429165 0.417044
Si Si6 0.544873 0.631839 0.582950
Si Si7 0.046008 0.429286 0.085393
Si Si8 0.546010 0.131737 0.085393
O O1 0.749010 0.282909 0.751554
O O2 0.810676 0.338783 0.464577
O O3 0.571843 0.452138 0.584646
O O4 0.589619 0.163893 0.534682
O O5 0.072341 0.609152 0.087477
O O6 0.309065 0.721392 0.961997
O O7 0.088336 0.896852 0.032175
O O8 0.249028 0.278138 0.751541
O O9 0.427666 0.451870 0.912556
O O10 0.190928 0.339626 0.038001
O O11 0.411658 0.164177 0.967837
O O12 0.928144 0.608868 0.415340
O O13 0.689326 0.722215 0.535435
O O14 0.910379 0.897111 0.465336
O O15 0.000701 0.368911 0.251223
O O16 0.499272 0.692095 0.748763
#
# Coordination Sequence:
#
# PCOD8047562 Si02
#       8
#     2   2   2   2   2   2   2   2
#     4  11  25  44  66  95 132 169 212 266 318 378
#     4  11  25  44  66  95 132 169 212 266 318 378
#     4  11  25  44  66  95 132 169 212 266 318 378
#     4  11  25  44  66  95 132 169 212 266 318 378
#     4  11  24  42  67  95 129 170 214 262 319 379
#     4  11  24  42  67  95 129 170 214 262 319 379
#     4  11  24  42  67  95 129 170 214 262 319 379
#     4  11  24  42  67  95 129 170 214 262 319 379
#
# _framework density 22.767925999999999
#
# number of rings (size 3 to 8) (size 9 to 14) (size 15 to 20)
#    0.000    1.000    0.000    6.000    0.000   16.000 
#    0.000    0.000    0.000    0.000    0.000    0.000 
#    0.000    0.000    0.000    0.000    0.000    0.000 
#
# Total GULP energy -198510.446497 kJ/mol
# GULP energy per Si atom -12406.902906 kJ/mol
# Density = 2.271610 g / cm^3
# Si number density = 22.767926 Si / 1000 Ang^3
#
#
#
# Elastic Constant Matrix: (Units=GPa)
#
#
# Indices 1 2 3 4 5 6 
#
# 1 129.8255 71.3598 92.4543 0.0000 9.6777 0.0000
# 2 71.3598 110.6831 65.0761 0.0000 18.5800 0.0000
# 3 92.4543 65.0761 171.5492 0.0000 6.2417 0.0000
# 4 0.0000 0.0000 0.0000 31.1796 0.0000 12.1737
# 5 9.6777 18.5800 6.2417 0.0000 63.9812 0.0000
# 6 0.0000 0.0000 0.0000 12.1737 0.0000 59.4730
#
#
#
# Elastic Compliance Matrix: (Units=1/GPa)
#
#
# Indices 1 2 3 4 5 6 
#
# 1 0.015460 -0.006549 -0.005853 0.000000 0.000134 0.000000
# 2 -0.006549 0.014988 -0.002041 0.000000 -0.003163 0.000000
# 3 -0.005853 -0.002041 0.009739 0.000000 0.000528 0.000000
# 4 0.000000 0.000000 0.000000 0.034858 0.000000 -0.007135
# 5 0.000134 -0.003163 0.000528 0.000000 0.016476 0.000000
# 6 0.000000 0.000000 0.000000 -0.007135 0.000000 0.018275
#
#
# Mechanical properties :
#
#
# Convention : Reuss Voigt Hill
#
# Bulk Modulus (GPa) = 88.48495 96.64870 92.56683
# Shear Modulus (GPa) = 35.10031 43.13793 39.11912
#
# Velocity S-wave (km/s) = 3.93065 4.35751 4.14958
# Velocity P-wave (km/s) = 7.71675 8.23765 7.98145
#
# Compressibility (1/GPa) = 0.01130136
#
# Stress axis : x y z
#
# Youngs Moduli (GPa) = 64.68147 66.71967 102.68506
#
# Poissons Ratio (x) = 0.43695 0.60099
# Poissons Ratio (y) = 0.42360 0.20958
# Poissons Ratio (z) = 0.37856 0.13618
#
# Static dielectric constant tensor:
#      x y z
#    x 4.358410 0.000000 -0.223060 
#    y 0.000000 4.006050 0.000000 
#    z -0.223060 0.000000 4.163760 
# 
# 
# High freq. dielectric constant tensor:
#      x y z
#    x 1.923010 0.000000 -0.012120 
#    y 0.000000 1.888030 0.000000 
#    z -0.012120 0.000000 1.908930 
# 
# From -- ./inp_files/5830.got.cif
#   From: 2010.03.12/outbox.cif.g09.slc.cpg/sg4_3_cif.got.tgz:5830.got - 2010.03.31 09:31:35.
