data_PCOD8047034
_publ_section_title
;
Structure prediction by ZEFSAII (Michael W. Deem and Ramdas Pophale) SiO2 
 PCOD8047034
Probable space group: P 21
;
_chemical_formula_sum "Si O2"
_cell_formula_units_Z 14
_cell_length_a 4.908868
_cell_length_b 8.340023
_cell_length_c 14.274607
_cell_angle_alpha 90.000000
_cell_angle_beta 102.219003
_cell_angle_gamma 90.000000
_cell_volume 571.164218
_symmetry_space_group_name_H-M "P 21"
_symmetry_group_IT_number 4
_symmetry_cell_setting 'monoclinic'
loop_
_space_group_symop_operation_xyz
x,y,z
-x,1/2+y,-z
loop_
_atom_site_type_symbol
_atom_site_label
_atom_site_fract_x
_atom_site_fract_y
_atom_site_fract_z
Si Si1 0.607873 0.630640 0.713842
Si Si2 0.696435 0.526704 0.916412
Si Si3 0.520068 0.521363 0.104135
Si Si4 0.695108 0.415643 0.546208
Si Si5 0.864798 0.046812 0.558126
Si Si6 0.014984 0.213688 0.922593
Si Si7 0.143689 0.836945 0.724399
O O1 0.522280 0.564528 0.810895
O O2 0.644534 0.483824 0.646170
O O3 0.337426 0.736749 0.664375
O O4 0.889437 0.732233 0.743543
O O5 0.917343 0.392189 0.902544
O O6 0.511929 0.465259 0.992776
O O7 0.873625 0.683372 0.962587
O O8 0.221165 0.579382 0.117597
O O9 0.642461 0.378614 0.175900
O O10 0.731996 0.673530 0.129953
O O11 0.407083 0.433259 0.468012
O O12 0.938723 0.520933 0.517468
O O13 0.778558 0.230942 0.560304
O O14 0.031311 0.994248 0.663215
#
# Coordination Sequence:
#
# PCOD8047034 Si02
#       7
#     2   2   2   2   2   2   2
#     4  12  27  44  75 105 144 183 242 283 362 411
#     4  10  26  41  70  95 145 178 238 286 348 406
#     4  10  25  40  69  96 139 180 236 272 354 398
#     4  12  26  48  77 109 141 189 230 298 356 431
#     4  12  26  49  78 105 148 181 238 292 361 424
#     4  10  24  40  66  92 137 181 231 285 342 411
#     4  12  26  48  73 104 142 190 233 294 349 427
#
# _framework density 24.511339
#
# number of rings (size 3 to 8) (size 9 to 14) (size 15 to 20)
#    0.857    0.000    0.000    6.857   10.000    0.000 
#    2.571    0.000    0.000    0.000    0.000    0.000 
#    0.000    0.000    0.000    0.000    0.000    0.000 
#
# Total GULP energy -173567.227905 kJ/mol
# GULP energy per Si atom -12397.659136 kJ/mol
# Density = 2.445555 g / cm^3
# Si number density = 24.511339 Si / 1000 Ang^3
#
#
#
# Elastic Constant Matrix: (Units=GPa)
#
#
# Indices 1 2 3 4 5 6 
#
# 1 100.4011 7.9260 30.4449 0.0000 0.1484 0.0000
# 2 7.9260 84.9919 45.1826 0.0000 -4.2705 0.0000
# 3 30.4449 45.1826 120.2885 0.0000 4.0971 0.0000
# 4 0.0000 0.0000 0.0000 26.5289 0.0000 -1.0583
# 5 0.1484 -4.2705 4.0971 0.0000 28.9231 0.0000
# 6 0.0000 0.0000 0.0000 -1.0583 0.0000 41.5886
#
#
#
# Elastic Compliance Matrix: (Units=1/GPa)
#
#
# Indices 1 2 3 4 5 6 
#
# 1 0.010815 0.000597 -0.002977 0.000000 0.000454 0.000000
# 2 0.000597 0.014992 -0.005886 0.000000 0.003044 0.000000
# 3 -0.002977 -0.005886 0.011362 0.000000 -0.002463 0.000000
# 4 0.000000 0.000000 0.000000 0.037733 0.000000 0.000960
# 5 0.000454 0.003044 -0.002463 0.000000 0.035371 0.000000
# 6 0.000000 0.000000 0.000000 0.000960 0.000000 0.024069
#
#
# Mechanical properties :
#
#
# Convention : Reuss Voigt Hill
#
# Bulk Modulus (GPa) = 48.45795 52.53205 50.49500
# Shear Modulus (GPa) = 31.69511 34.21667 32.95589
#
# Velocity S-wave (km/s) = 3.59984 3.74030 3.67074
# Velocity P-wave (km/s) = 6.09024 6.33493 6.21379
#
# Compressibility (1/GPa) = 0.02063645
#
# Stress axis : x y z
#
# Youngs Moduli (GPa) = 92.46450 66.70113 88.01549
#
# Poissons Ratio (x) = -0.03981 0.26201
# Poissons Ratio (y) = -0.05519 0.51807
# Poissons Ratio (z) = 0.27526 0.39261
#
# Static dielectric constant tensor:
#      x y z
#    x 4.576220 0.000000 0.056600 
#    y 0.000000 4.151380 0.000000 
#    z 0.056600 0.000000 4.237480 
# 
# 
# High freq. dielectric constant tensor:
#      x y z
#    x 1.989700 0.000000 0.003060 
#    y 0.000000 1.973590 0.000000 
#    z 0.003060 0.000000 1.962760 
# 
# From -- ./inp_files/13257.got.cif
#   From: 2010.03.12/outbox.cif.g09.slc.cpg/sg4_7_cif.got.tgz:13257.got - 2010.03.31 09:31:35.
