data_PCOD8047970
_publ_section_title
;
Structure prediction by ZEFSAII (Michael W. Deem and Ramdas Pophale) SiO2 
 PCOD8047970
Probable space group: P 21
;
_chemical_formula_sum "Si O2"
_cell_formula_units_Z 12
_cell_length_a 11.188110
_cell_length_b 7.386379
_cell_length_c 5.965209
_cell_angle_alpha 90.000000
_cell_angle_beta 77.374816
_cell_angle_gamma 90.000000
_cell_volume 481.043160
_symmetry_space_group_name_H-M "P 21"
_symmetry_group_IT_number 4
_symmetry_cell_setting 'monoclinic'
loop_
_space_group_symop_operation_xyz
x,y,z
-x,1/2+y,-z
loop_
_atom_site_type_symbol
_atom_site_label
_atom_site_fract_x
_atom_site_fract_y
_atom_site_fract_z
Si Si1 0.709725 0.017600 0.714348
Si Si2 0.574402 0.778823 0.472307
Si Si3 0.847467 0.326501 0.440057
Si Si4 0.276075 0.016557 0.874282
Si Si5 0.886028 0.680568 0.703716
Si Si6 0.506752 0.506912 0.864860
O O1 0.775380 0.210607 0.657675
O O2 0.625111 0.975414 0.531386
O O3 0.809452 0.858380 0.677303
O O4 0.627870 0.012618 0.971838
O O5 0.679537 0.651438 0.337229
O O6 0.518807 0.693286 0.721780
O O7 0.481077 0.832195 0.308354
O O8 0.768436 0.337978 0.241829
O O9 0.869814 0.528128 0.521039
O O10 0.972476 0.226890 0.327687
O O11 0.158391 0.102179 0.041213
O O12 0.384876 0.978373 0.003698
#
# Coordination Sequence:
#
# PCOD8047970 Si02
#       6
#     2   2   2   2   2   2
#     4  12  27  51  84 122 162 215 271 339 410 488
#     4  12  26  46  78 115 168 212 263 332 407 490
#     4  12  29  51  90 116 166 220 276 341 404 483
#     4  12  27  51  80 120 163 213 271 338 407 488
#     4  12  26  54  82 118 163 216 284 331 404 492
#     4  12  27  49  80 119 166 214 273 331 420 491
#
# _framework density 24.945785999999998
#
# number of rings (size 3 to 8) (size 9 to 14) (size 15 to 20)
#    0.000    0.000    6.667    1.000    0.000   17.333 
#    0.000    0.000    0.000    0.000    0.000    0.000 
#    0.000    0.000    0.000    0.000    0.000    0.000 
#
# Total GULP energy -148825.057730 kJ/mol
# GULP energy per Si atom -12402.088144 kJ/mol
# Density = 2.488901 g / cm^3
# Si number density = 24.945786 Si / 1000 Ang^3
#
#
#
# Elastic Constant Matrix: (Units=GPa)
#
#
# Indices 1 2 3 4 5 6 
#
# 1 140.4633 74.9481 83.0184 0.0000 -9.1846 0.0000
# 2 74.9481 126.4066 57.8625 0.0000 7.3585 0.0000
# 3 83.0184 57.8625 131.6341 0.0000 -3.5258 0.0000
# 4 0.0000 0.0000 0.0000 51.8482 0.0000 2.7165
# 5 -9.1846 7.3585 -3.5258 0.0000 41.6282 0.0000
# 6 0.0000 0.0000 0.0000 2.7165 0.0000 43.9623
#
#
#
# Elastic Compliance Matrix: (Units=1/GPa)
#
#
# Indices 1 2 3 4 5 6 
#
# 1 0.014119 -0.005694 -0.006305 0.000000 0.003587 0.000000
# 2 -0.005694 0.012391 -0.001953 0.000000 -0.003612 0.000000
# 3 -0.006305 -0.001953 0.012432 0.000000 0.000007 0.000000
# 4 0.000000 0.000000 0.000000 0.019350 0.000000 -0.001196
# 5 0.003587 -0.003612 0.000007 0.000000 0.025453 0.000000
# 6 0.000000 0.000000 0.000000 -0.001196 0.000000 0.022821
#
#
# Mechanical properties :
#
#
# Convention : Reuss Voigt Hill
#
# Bulk Modulus (GPa) = 90.59459 92.24024 91.41741
# Shear Modulus (GPa) = 36.19333 39.66606 37.92969
#
# Velocity S-wave (km/s) = 3.81317 3.99192 3.90357
# Velocity P-wave (km/s) = 7.46877 7.63569 7.55269
#
# Compressibility (1/GPa) = 0.01103819
#
# Stress axis : x y z
#
# Youngs Moduli (GPa) = 70.82881 80.70478 80.43790
#
# Poissons Ratio (x) = 0.45950 0.50719
# Poissons Ratio (y) = 0.40327 0.15706
# Poissons Ratio (z) = 0.44660 0.15758
#
# Static dielectric constant tensor:
#      x y z
#    x 4.592470 0.000000 -0.063510 
#    y 0.000000 4.679530 0.000000 
#    z -0.063510 0.000000 4.682670 
# 
# 
# High freq. dielectric constant tensor:
#      x y z
#    x 1.994070 0.000000 -0.004640 
#    y 0.000000 2.008200 0.000000 
#    z -0.004640 0.000000 2.008310 
# 
# From -- ./inp_files/2408.got.cif
#   From: 2010.03.12/outbox.cif.g09.slc.cpg/sg4_2_cif.got.tgz:2408.got - 2010.03.31 09:31:35.
