data_PCOD8047003
_publ_section_title
;
Structure prediction by ZEFSAII (Michael W. Deem and Ramdas Pophale) SiO2 
 PCOD8047003
Probable space group: P 21
;
_chemical_formula_sum "Si O2"
_cell_formula_units_Z 16
_cell_length_a 16.130253
_cell_length_b 5.305282
_cell_length_c 8.794968
_cell_angle_alpha 90.000000
_cell_angle_beta 70.495419
_cell_angle_gamma 90.000000
_cell_volume 709.444082
_symmetry_space_group_name_H-M "P 21"
_symmetry_group_IT_number 4
_symmetry_cell_setting 'monoclinic'
loop_
_space_group_symop_operation_xyz
x,y,z
-x,1/2+y,-z
loop_
_atom_site_type_symbol
_atom_site_label
_atom_site_fract_x
_atom_site_fract_y
_atom_site_fract_z
Si Si1 0.710507 0.846870 0.792525
Si Si2 0.831389 0.233371 0.624127
Si Si3 0.708764 0.544250 0.512891
Si Si4 0.470657 0.816327 0.432450
Si Si5 0.845767 0.606680 0.204606
Si Si6 0.463825 0.285751 0.945949
Si Si7 0.126265 0.085139 0.159054
Si Si8 0.073495 0.601419 0.715321
O O1 0.667696 0.731976 0.663959
O O2 0.806525 0.744770 0.780413
O O3 0.735040 0.129956 0.732517
O O4 0.640618 0.830548 0.970500
O O5 0.800495 0.453917 0.531018
O O6 0.880651 0.315859 0.748856
O O7 0.894780 0.059988 0.480045
O O8 0.634947 0.339375 0.515350
O O9 0.748371 0.670311 0.334424
O O10 0.490726 0.575217 0.523484
O O11 0.515267 0.771128 0.243376
O O12 0.876981 0.329393 0.233759
O O13 0.911892 0.836912 0.204799
O O14 0.833725 0.578327 0.032310
O O15 0.513894 0.516852 0.993799
O O16 0.027708 0.189621 0.218214
#
# Coordination Sequence:
#
# PCOD8047003 Si02
#       8
#     2   2   2   2   2   2   2   2
#     4  11  24  44  70 101 136 180 234 281 345 400
#     4  10  24  42  71  97 134 188 229 285 334 411
#     4  10  23  47  67  97 141 182 227 276 356 409
#     4  12  28  45  73 107 140 182 229 292 350 419
#     4  11  25  45  70  98 138 191 220 285 346 413
#     4  12  26  48  76 100 141 186 232 286 346 420
#     4  11  27  40  68 106 138 175 238 290 328 410
#     4  11  25  45  69  96 144 184 229 273 357 402
#
# _framework density 22.552872000000001
#
# number of rings (size 3 to 8) (size 9 to 14) (size 15 to 20)
#    0.000    1.000    2.500    2.250   10.500    1.000 
#    0.000    0.000    0.000    0.000    0.000    0.000 
#    0.000    0.000    0.000    0.000    0.000    0.000 
#
# Total GULP energy -198248.294093 kJ/mol
# GULP energy per Si atom -12390.518381 kJ/mol
# Density = 2.250154 g / cm^3
# Si number density = 22.552872 Si / 1000 Ang^3
#
#
#
# Elastic Constant Matrix: (Units=GPa)
#
#
# Indices 1 2 3 4 5 6 
#
# 1 69.5336 -1.0356 39.3190 0.0000 -4.7773 0.0000
# 2 -1.0356 77.8497 14.0019 0.0000 15.1007 0.0000
# 3 39.3190 14.0019 145.8753 0.0000 1.7664 0.0000
# 4 0.0000 0.0000 0.0000 29.1782 0.0000 0.5596
# 5 -4.7773 15.1007 1.7664 0.0000 40.5279 0.0000
# 6 0.0000 0.0000 0.0000 0.5596 0.0000 33.9453
#
#
#
# Elastic Compliance Matrix: (Units=1/GPa)
#
#
# Indices 1 2 3 4 5 6 
#
# 1 0.017200 0.000696 -0.004727 0.000000 0.001974 0.000000
# 2 0.000696 0.014112 -0.001480 0.000000 -0.005112 0.000000
# 3 -0.004727 -0.001480 0.008276 0.000000 -0.000366 0.000000
# 4 0.000000 0.000000 0.000000 0.034283 0.000000 -0.000565
# 5 0.001974 -0.005112 -0.000366 0.000000 0.026828 0.000000
# 6 0.000000 0.000000 0.000000 -0.000565 0.000000 0.029468
#
#
# Mechanical properties :
#
#
# Convention : Reuss Voigt Hill
#
# Bulk Modulus (GPa) = 35.00642 44.20328 39.60485
# Shear Modulus (GPa) = 33.17585 36.79515 34.98550
#
# Velocity S-wave (km/s) = 3.83956 4.04357 3.94288
# Velocity P-wave (km/s) = 5.93396 6.43763 6.19092
#
# Compressibility (1/GPa) = 0.02856619
#
# Stress axis : x y z
#
# Youngs Moduli (GPa) = 58.13802 70.86028 120.83458
#
# Poissons Ratio (x) = -0.04932 0.57117
# Poissons Ratio (y) = -0.04047 0.17887
# Poissons Ratio (z) = 0.27481 0.10489
#
# Static dielectric constant tensor:
#      x y z
#    x 3.909920 0.000000 -0.047790 
#    y 0.000000 4.091860 0.000000 
#    z -0.047790 0.000000 4.483680 
# 
# 
# High freq. dielectric constant tensor:
#      x y z
#    x 1.880820 0.000000 -0.005930 
#    y 0.000000 1.885050 0.000000 
#    z -0.005930 0.000000 1.911630 
# 
# From -- ./inp_files/9018.got.cif
#   From: 2010.03.12/outbox.cif.g09.slc.cpg/sg4_5_cif.got.tgz:9018.got - 2010.03.31 09:31:35.
