data_PCOD8047065
_publ_section_title
;
Structure prediction by ZEFSAII (Michael W. Deem and Ramdas Pophale) SiO2 
 PCOD8047065
Probable space group: P 21
;
_chemical_formula_sum "Si O2"
_cell_formula_units_Z 14
_cell_length_a 5.174790
_cell_length_b 9.894341
_cell_length_c 11.332624
_cell_angle_alpha 90.000000
_cell_angle_beta 89.999984
_cell_angle_gamma 90.000000
_cell_volume 580.243232
_symmetry_space_group_name_H-M "P 21"
_symmetry_group_IT_number 4
_symmetry_cell_setting 'monoclinic'
loop_
_space_group_symop_operation_xyz
x,y,z
-x,1/2+y,-z
loop_
_atom_site_type_symbol
_atom_site_label
_atom_site_fract_x
_atom_site_fract_y
_atom_site_fract_z
Si Si1 0.459855 0.573720 0.395122
Si Si2 0.679609 0.533701 0.040116
Si Si3 0.459823 0.774125 0.604875
Si Si4 0.679600 0.814147 0.959886
Si Si5 0.027746 0.138359 0.747003
Si Si6 0.999991 0.923927 0.162194
Si Si7 0.027779 0.209493 0.252997
O O1 0.385352 0.673925 0.499994
O O2 0.499986 0.423921 0.447082
O O3 0.713486 0.628491 0.330068
O O4 0.214908 0.560858 0.307925
O O5 0.500010 0.423921 0.108302
O O6 0.920994 0.573348 0.123843
O O7 0.537908 0.673923 0.000001
O O8 0.758587 0.456593 0.921165
O O9 0.713404 0.719335 0.669961
O O10 0.214826 0.787007 0.692044
O O11 0.920992 0.774508 0.876159
O O12 0.758568 0.891259 0.078836
O O13 0.943065 0.295017 0.755702
O O14 0.943050 0.052840 0.244296
#
# Coordination Sequence:
#
# PCOD8047065 Si02
#       7
#     2   2   2   2   2   2   2
#     4  12  29  51  79 107 142 191 251 314 371 431
#     4  10  24  43  69 110 151 196 242 290 359 440
#     4  12  29  51  79 107 142 191 251 314 371 431
#     4  10  24  43  69 110 151 196 242 290 359 440
#     4  11  27  47  77 108 151 190 246 302 370 435
#     4  10  26  42  74 110 150 204 230 296 358 458
#     4  11  27  47  77 108 151 190 246 302 370 435
#
# _framework density 24.127814999999998
#
# number of rings (size 3 to 8) (size 9 to 14) (size 15 to 20)
#    0.000    1.143    0.000    2.571   20.000    1.143 
#    0.000    0.000    0.000    0.000    0.000    0.000 
#    0.000    0.000    0.000    0.000    0.000    0.000 
#
# Total GULP energy -173624.782304 kJ/mol
# GULP energy per Si atom -12401.770165 kJ/mol
# Density = 2.407290 g / cm^3
# Si number density = 24.127815 Si / 1000 Ang^3
#
#
#
# Elastic Constant Matrix: (Units=GPa)
#
#
# Indices 1 2 3 4 5 6 
#
# 1 122.6816 66.2581 26.1933 0.0000 0.0136 0.0000
# 2 66.2581 199.2778 59.4267 0.0000 -0.0128 0.0000
# 3 26.1933 59.4267 80.0965 0.0000 0.0053 0.0000
# 4 0.0000 0.0000 0.0000 39.2045 0.0000 0.0008
# 5 0.0136 -0.0128 0.0053 0.0000 31.7001 0.0000
# 6 0.0000 0.0000 0.0000 0.0008 0.0000 37.5210
#
#
#
# Elastic Compliance Matrix: (Units=1/GPa)
#
#
# Indices 1 2 3 4 5 6 
#
# 1 0.010001 -0.003018 -0.001032 0.000000 -0.000005 0.000000
# 2 -0.003018 0.007354 -0.004470 0.000000 0.000005 0.000000
# 3 -0.001032 -0.004470 0.016139 0.000000 -0.000004 0.000000
# 4 0.000000 0.000000 0.000000 0.025507 0.000000 -0.000001
# 5 -0.000005 0.000005 -0.000004 0.000000 0.031546 0.000000
# 6 0.000000 0.000000 0.000000 -0.000001 0.000000 0.026652
#
#
# Mechanical properties :
#
#
# Convention : Reuss Voigt Hill
#
# Bulk Modulus (GPa) = 60.76768 78.42357 69.59563
# Shear Modulus (GPa) = 35.78530 38.36364 37.07447
#
# Velocity S-wave (km/s) = 3.85535 3.99183 3.92418
# Velocity P-wave (km/s) = 6.71258 7.33623 7.03132
#
# Compressibility (1/GPa) = 0.01645612
#
# Stress axis : x y z
#
# Youngs Moduli (GPa) = 99.98756 135.97381 61.96347
#
# Poissons Ratio (x) = 0.41032 0.06393
# Poissons Ratio (y) = 0.30173 0.27695
# Poissons Ratio (z) = 0.10316 0.60775
#
# Static dielectric constant tensor:
#      x y z
#    x 4.128060 0.000000 0.000020 
#    y 0.000000 4.910070 0.000000 
#    z 0.000020 0.000000 4.223500 
# 
# 
# High freq. dielectric constant tensor:
#      x y z
#    x 1.950000 0.000000 0.000000 
#    y 0.000000 1.988040 0.000000 
#    z 0.000000 0.000000 1.942240 
# 
# From -- ./inp_files/10259.got.cif
#   From: 2010.03.12/outbox.cif.g09.slc.cpg/sg4_6_cif.got.tgz:10259.got - 2010.03.31 09:31:35.
