data_PCOD8047327
_publ_section_title
;
Structure prediction by ZEFSAII (Michael W. Deem and Ramdas Pophale) SiO2 
 PCOD8047327
Probable space group: P 21
;
_chemical_formula_sum "Si O2"
_cell_formula_units_Z 16
_cell_length_a 9.727991
_cell_length_b 5.142930
_cell_length_c 14.648797
_cell_angle_alpha 90.000000
_cell_angle_beta 107.203695
_cell_angle_gamma 90.000000
_cell_volume 700.095045
_symmetry_space_group_name_H-M "P 21"
_symmetry_group_IT_number 4
_symmetry_cell_setting 'monoclinic'
loop_
_space_group_symop_operation_xyz
x,y,z
-x,1/2+y,-z
loop_
_atom_site_type_symbol
_atom_site_label
_atom_site_fract_x
_atom_site_fract_y
_atom_site_fract_z
Si Si1 0.242656 0.093160 0.293651
Si Si2 0.349911 0.585117 0.216590
Si Si3 0.534124 0.541205 0.950363
Si Si4 0.407430 0.976041 0.498151
Si Si5 0.820605 0.322327 0.960916
Si Si6 0.666678 0.464477 0.310184
Si Si7 0.038776 0.532374 0.860183
Si Si8 0.722913 0.954015 0.225840
O O1 0.293716 0.381125 0.279392
O O2 0.072434 0.102519 0.241787
O O3 0.327031 0.877795 0.250619
O O4 0.273658 0.042948 0.406101
O O5 0.264286 0.576703 0.102603
O O6 0.513258 0.504680 0.230945
O O7 0.701621 0.551832 0.949799
O O8 0.439213 0.455011 0.844982
O O9 0.518172 0.320100 0.024879
O O10 0.488002 0.724057 0.474103
O O11 0.346264 0.908558 0.585262
O O12 0.956538 0.374715 0.922410
O O13 0.885159 0.273016 0.073764
O O14 0.753560 0.229690 0.280317
O O15 0.749218 0.733586 0.307419
O O16 0.168601 0.384622 0.835520
#
# Coordination Sequence:
#
# PCOD8047327 Si02
#       8
#     2   2   2   2   2   2   2   2
#     4  11  23  43  66 101 139 174 220 292 347 411
#     4  11  22  39  68 103 136 170 227 285 345 393
#     4  12  26  44  70  99 134 181 238 288 335 398
#     4  12  22  41  74 108 135 169 235 297 348 406
#     4  11  25  42  71 100 137 189 238 283 332 413
#     4  12  24  42  70 103 138 177 228 294 349 403
#     4  11  27  44  67 101 144 188 232 279 350 416
#     4  12  27  45  66  99 147 184 228 282 350 410
#
# _framework density 22.854039
#
# number of rings (size 3 to 8) (size 9 to 14) (size 15 to 20)
#    0.000    0.500    5.000    3.000    3.500    2.000 
#    0.000    1.250    0.000    0.000    0.000    0.000 
#    0.000    0.000    0.000    0.000    0.000    0.000 
#
# Total GULP energy -198336.828927 kJ/mol
# GULP energy per Si atom -12396.051808 kJ/mol
# Density = 2.280202 g / cm^3
# Si number density = 22.854039 Si / 1000 Ang^3
#
#
#
# Elastic Constant Matrix: (Units=GPa)
#
#
# Indices 1 2 3 4 5 6 
#
# 1 113.5504 15.3409 27.7915 0.0000 -5.7383 0.0000
# 2 15.3409 90.2785 13.4483 0.0000 -1.7368 0.0000
# 3 27.7915 13.4483 120.1445 0.0000 7.4853 0.0000
# 4 0.0000 0.0000 0.0000 34.7738 0.0000 -10.7110
# 5 -5.7383 -1.7368 7.4853 0.0000 32.8498 0.0000
# 6 0.0000 0.0000 0.0000 -10.7110 0.0000 25.9351
#
#
#
# Elastic Compliance Matrix: (Units=1/GPa)
#
#
# Indices 1 2 3 4 5 6 
#
# 1 0.009627 -0.001265 -0.002218 0.000000 0.002120 0.000000
# 2 -0.001265 0.011457 -0.001028 0.000000 0.000619 0.000000
# 3 -0.002218 -0.001028 0.009108 0.000000 -0.002517 0.000000
# 4 0.000000 0.000000 0.000000 0.032949 0.000000 0.013608
# 5 0.002120 0.000619 -0.002517 0.000000 0.031418 0.000000
# 6 0.000000 0.000000 0.000000 0.013608 0.000000 0.044178
#
#
# Mechanical properties :
#
#
# Convention : Reuss Voigt Hill
#
# Bulk Modulus (GPa) = 47.23451 48.57054 47.90253
# Shear Modulus (GPa) = 32.29649 36.53792 34.41721
#
# Velocity S-wave (km/s) = 3.76328 4.00278 3.88488
# Velocity P-wave (km/s) = 6.29252 6.53158 6.41317
#
# Compressibility (1/GPa) = 0.02117096
#
# Stress axis : x y z
#
# Youngs Moduli (GPa) = 103.86993 87.28383 109.79126
#
# Poissons Ratio (x) = 0.11040 0.24346
# Poissons Ratio (y) = 0.13138 0.11291
# Poissons Ratio (z) = 0.23033 0.08976
#
# Static dielectric constant tensor:
#      x y z
#    x 4.082630 0.000000 0.137140 
#    y 0.000000 4.155140 0.000000 
#    z 0.137140 0.000000 4.265970 
# 
# 
# High freq. dielectric constant tensor:
#      x y z
#    x 1.889800 0.000000 -0.005680 
#    y 0.000000 1.903920 0.000000 
#    z -0.005680 0.000000 1.902440 
# 
# From -- ./inp_files/9514.got.cif
#   From: 2010.03.12/outbox.cif.g09.slc.cpg/sg4_5_cif.got.tgz:9514.got - 2010.03.31 09:31:35.
