data_PCOD8047097
_publ_section_title
;
Structure prediction by ZEFSAII (Michael W. Deem and Ramdas Pophale) SiO2 
 PCOD8047097
Probable space group: P 21
;
_chemical_formula_sum "Si O2"
_cell_formula_units_Z 16
_cell_length_a 9.330152
_cell_length_b 11.316610
_cell_length_c 9.182493
_cell_angle_alpha 90.000000
_cell_angle_beta 54.459259
_cell_angle_gamma 90.000000
_cell_volume 788.916916
_symmetry_space_group_name_H-M "P 21"
_symmetry_group_IT_number 4
_symmetry_cell_setting 'monoclinic'
loop_
_space_group_symop_operation_xyz
x,y,z
-x,1/2+y,-z
loop_
_atom_site_type_symbol
_atom_site_label
_atom_site_fract_x
_atom_site_fract_y
_atom_site_fract_z
Si Si1 0.292423 0.493240 0.769875
Si Si2 0.841244 0.237470 0.235965
Si Si3 0.680798 0.428980 0.528230
Si Si4 0.019334 0.119906 0.655639
Si Si5 0.866747 0.698838 0.718359
Si Si6 0.716421 0.947237 0.888287
Si Si7 0.023099 0.841946 0.128614
Si Si8 0.677781 0.463772 0.860171
O O1 0.266813 0.634356 0.780304
O O2 0.487405 0.470572 0.592743
O O3 0.148749 0.424930 0.756967
O O4 0.274024 0.444798 0.943507
O O5 0.719366 0.308423 0.420412
O O6 0.997367 0.174906 0.232201
O O7 0.917992 0.329198 0.073320
O O8 0.685616 0.401761 0.697684
O O9 0.825570 0.527221 0.402446
O O10 0.024668 0.213224 0.782944
O O11 0.039429 0.188208 0.492497
O O12 0.830769 0.055417 0.759845
O O13 0.790338 0.828995 0.774107
O O14 0.713000 0.603005 0.822360
O O15 0.514976 0.956918 0.954404
O O16 0.182957 0.899535 0.121016
#
# Coordination Sequence:
#
# PCOD8047097 Si02
#       8
#     2   2   2   2   2   2   2   2
#     4  11  24  43  68  98 133 173 216 270 337 386
#     4  12  23  44  68  95 135 174 215 272 331 387
#     4  10  24  45  65  95 137 169 217 272 325 389
#     4  11  24  41  68  95 130 175 218 271 326 383
#     4  11  23  42  69  93 134 172 217 272 329 387
#     4  11  23  46  68  96 133 176 215 274 328 386
#     4  12  24  41  68  94 132 169 221 269 324 392
#     4  10  25  44  66 100 128 172 227 264 324 398
#
# _framework density 20.280968999999999
#
# number of rings (size 3 to 8) (size 9 to 14) (size 15 to 20)
#    0.000    1.000    5.000    0.750    5.250    1.000 
#    2.250    0.000    0.000    0.000    0.000    0.000 
#    0.000    0.000    0.000    0.000    0.000    0.000 
#
# Total GULP energy -198478.903511 kJ/mol
# GULP energy per Si atom -12404.931469 kJ/mol
# Density = 2.023481 g / cm^3
# Si number density = 20.280969 Si / 1000 Ang^3
#
#
#
# Elastic Constant Matrix: (Units=GPa)
#
#
# Indices 1 2 3 4 5 6 
#
# 1 124.5888 34.4653 49.5598 0.0000 -22.7163 0.0000
# 2 34.4653 98.1551 46.4830 0.0000 -4.6876 0.0000
# 3 49.5598 46.4830 105.9333 0.0000 -12.8287 0.0000
# 4 0.0000 0.0000 0.0000 35.5036 0.0000 7.9759
# 5 -22.7163 -4.6876 -12.8287 0.0000 36.3239 0.0000
# 6 0.0000 0.0000 0.0000 7.9759 0.0000 29.1565
#
#
#
# Elastic Compliance Matrix: (Units=1/GPa)
#
#
# Indices 1 2 3 4 5 6 
#
# 1 0.010973 -0.001859 -0.003673 0.000000 0.005325 0.000000
# 2 -0.001859 0.013180 -0.005065 0.000000 -0.001251 0.000000
# 3 -0.003673 -0.005065 0.013605 0.000000 0.001855 0.000000
# 4 0.000000 0.000000 0.000000 0.030010 0.000000 -0.008210
# 5 0.005325 -0.001251 0.001855 0.000000 0.031354 0.000000
# 6 0.000000 0.000000 0.000000 -0.008210 0.000000 0.036543
#
#
# Mechanical properties :
#
#
# Convention : Reuss Voigt Hill
#
# Bulk Modulus (GPa) = 60.37243 65.52149 62.94696
# Shear Modulus (GPa) = 30.79202 33.40807 32.10005
#
# Velocity S-wave (km/s) = 3.90073 4.06305 3.98272
# Velocity P-wave (km/s) = 7.07956 7.37484 7.22871
#
# Compressibility (1/GPa) = 0.01656385
#
# Stress axis : x y z
#
# Youngs Moduli (GPa) = 91.13603 75.87507 73.50170
#
# Poissons Ratio (x) = 0.14107 0.26995
# Poissons Ratio (y) = 0.16944 0.37227
# Poissons Ratio (z) = 0.33472 0.38429
#
# Static dielectric constant tensor:
#      x y z
#    x 3.763610 0.000000 -0.139350 
#    y 0.000000 3.624570 0.000000 
#    z -0.139350 0.000000 3.776370 
# 
# 
# High freq. dielectric constant tensor:
#      x y z
#    x 1.795720 0.000000 -0.006480 
#    y 0.000000 1.800160 0.000000 
#    z -0.006480 0.000000 1.796470 
# 
# From -- ./inp_files/6190.got.cif
#   From: 2010.03.12/outbox.cif.g09.slc.cpg/sg4_4_cif.got.tgz:6190.got - 2010.03.31 09:31:35.
