data_PCOD8047413
_publ_section_title
;
Structure prediction by ZEFSAII (Michael W. Deem and Ramdas Pophale) SiO2 
 PCOD8047413
Probable space group: P 21
;
_chemical_formula_sum "Si O2"
_cell_formula_units_Z 12
_cell_length_a 20.276648
_cell_length_b 5.055722
_cell_length_c 9.577606
_cell_angle_alpha 90.000000
_cell_angle_beta 150.686941
_cell_angle_gamma 90.000000
_cell_volume 480.685531
_symmetry_space_group_name_H-M "P 21"
_symmetry_group_IT_number 4
_symmetry_cell_setting 'monoclinic'
loop_
_space_group_symop_operation_xyz
x,y,z
-x,1/2+y,-z
loop_
_atom_site_type_symbol
_atom_site_label
_atom_site_fract_x
_atom_site_fract_y
_atom_site_fract_z
Si Si1 0.675049 0.533940 0.080149
Si Si2 0.682594 0.949104 0.443092
Si Si3 0.910516 0.541585 0.305829
Si Si4 0.139705 0.808117 0.075577
Si Si5 0.472515 0.550664 0.111191
Si Si6 0.880803 0.610299 0.683508
O O1 0.777168 0.615296 0.146706
O O2 0.757825 0.478595 0.373735
O O3 0.602035 0.255238 0.921093
O O4 0.558203 0.758816 0.885071
O O5 0.627860 0.660165 0.399263
O O6 0.822561 0.901446 0.618506
O O7 0.720147 0.148316 0.640094
O O8 0.573712 0.080753 0.137420
O O9 0.015824 0.781493 0.499221
O O10 0.851051 0.496268 0.040837
O O11 0.088165 0.956815 0.118185
O O12 0.008813 0.616438 0.814303
#
# Coordination Sequence:
#
# PCOD8047413 Si02
#       6
#     2   2   2   2   2   2
#     4  11  24  46  70 106 143 199 245 294 362 445
#     4  11  24  42  70 112 146 190 246 307 367 430
#     4  12  28  46  73 107 154 200 241 298 378 454
#     4  12  25  41  72 112 151 190 243 308 373 438
#     4  11  24  43  73 104 147 193 247 297 361 433
#     4  11  23  40  68 109 149 180 240 308 369 426
#
# _framework density 24.964344000000001
#
# number of rings (size 3 to 8) (size 9 to 14) (size 15 to 20)
#    0.000    0.667    5.000    3.000    9.333    0.000 
#    0.000    0.000    3.667    0.000    0.000    0.000 
#    0.000    0.000    0.000    0.000    0.000    0.000 
#
# Total GULP energy -148713.420126 kJ/mol
# GULP energy per Si atom -12392.785010 kJ/mol
# Density = 2.490752 g / cm^3
# Si number density = 24.964344 Si / 1000 Ang^3
#
#
#
# Elastic Constant Matrix: (Units=GPa)
#
#
# Indices 1 2 3 4 5 6 
#
# 1 114.7078 20.0874 25.0525 0.0000 6.2835 0.0000
# 2 20.0874 111.5773 24.3820 0.0000 -2.8810 0.0000
# 3 25.0525 24.3820 63.6821 0.0000 4.5448 0.0000
# 4 0.0000 0.0000 0.0000 27.0841 0.0000 3.9710
# 5 6.2835 -2.8810 4.5448 0.0000 30.4726 0.0000
# 6 0.0000 0.0000 0.0000 3.9710 0.0000 40.7530
#
#
#
# Elastic Compliance Matrix: (Units=1/GPa)
#
#
# Indices 1 2 3 4 5 6 
#
# 1 0.009713 -0.001070 -0.003297 0.000000 -0.001612 0.000000
# 2 -0.001070 0.009967 -0.003515 0.000000 0.001687 0.000000
# 3 -0.003297 -0.003515 0.018518 0.000000 -0.002414 0.000000
# 4 0.000000 0.000000 0.000000 0.037457 0.000000 -0.003650
# 5 -0.001612 0.001687 -0.002414 0.000000 0.033668 0.000000
# 6 0.000000 0.000000 0.000000 -0.003650 0.000000 0.024894
#
#
# Mechanical properties :
#
#
# Convention : Reuss Voigt Hill
#
# Bulk Modulus (GPa) = 44.57439 47.66790 46.12114
# Shear Modulus (GPa) = 31.75412 34.35830 33.05621
#
# Velocity S-wave (km/s) = 3.57035 3.71387 3.64282
# Velocity P-wave (km/s) = 5.90682 6.12587 6.01734
#
# Compressibility (1/GPa) = 0.02243441
#
# Stress axis : x y z
#
# Youngs Moduli (GPa) = 102.94974 100.33314 54.00115
#
# Poissons Ratio (x) = 0.10736 0.17802
# Poissons Ratio (y) = 0.11016 0.18984
# Poissons Ratio (z) = 0.33938 0.35272
#
# Static dielectric constant tensor:
#      x y z
#    x 4.284900 0.000000 0.263440 
#    y 0.000000 4.524480 0.000000 
#    z 0.263440 0.000000 4.637220 
# 
# 
# High freq. dielectric constant tensor:
#      x y z
#    x 1.978340 0.000000 0.031440 
#    y 0.000000 2.000150 0.000000 
#    z 0.031440 0.000000 1.990620 
# 
# From -- ./inp_files/8560.got.cif
#   From: 2010.03.12/outbox.cif.g09.slc.cpg/sg4_5_cif.got.tgz:8560.got - 2010.03.31 09:31:35.
