data_PCOD8047179
_publ_section_title
;
Structure prediction by ZEFSAII (Michael W. Deem and Ramdas Pophale) SiO2 
 PCOD8047179
Probable space group: P 21
;
_chemical_formula_sum "Si O2"
_cell_formula_units_Z 14
_cell_length_a 10.871707
_cell_length_b 5.044336
_cell_length_c 10.003018
_cell_angle_alpha 90.000000
_cell_angle_beta 80.670330
_cell_angle_gamma 90.000000
_cell_volume 541.314387
_symmetry_space_group_name_H-M "P 21"
_symmetry_group_IT_number 4
_symmetry_cell_setting 'monoclinic'
loop_
_space_group_symop_operation_xyz
x,y,z
-x,1/2+y,-z
loop_
_atom_site_type_symbol
_atom_site_label
_atom_site_fract_x
_atom_site_fract_y
_atom_site_fract_z
Si Si1 0.581939 0.885690 0.323417
Si Si2 0.999260 0.798857 0.410722
Si Si3 0.192194 0.663597 0.677363
Si Si4 0.320831 0.045430 0.470739
Si Si5 0.461292 0.743764 0.081834
Si Si6 0.986880 0.796906 0.912233
Si Si7 0.212453 0.007258 0.216672
O O1 0.679127 0.743025 0.405357
O O2 0.679463 0.116062 0.258587
O O3 0.466193 0.984594 0.428202
O O4 0.531805 0.711124 0.210288
O O5 0.971989 0.509147 0.474519
O O6 0.876837 0.892004 0.353647
O O7 0.112254 0.789356 0.284352
O O8 0.095188 0.837806 0.781935
O O9 0.235271 0.797263 0.529538
O O10 0.268410 0.158322 0.338463
O O11 0.321295 0.852074 0.120459
O O12 0.541172 0.951556 0.979989
O O13 0.854497 0.718600 0.868216
O O14 0.032361 0.571484 0.007492
#
# Coordination Sequence:
#
# PCOD8047179 Si02
#       7
#     2   2   2   2   2   2   2
#     4  11  25  42  74 105 147 184 235 299 359 432
#     4  11  23  42  68 102 140 177 225 287 359 422
#     4  11  25  41  74  99 142 186 229 297 357 424
#     4  11  22  46  69 113 142 181 235 298 376 424
#     4  11  29  48  74 104 143 197 242 287 349 429
#     4  11  29  50  73 103 142 196 247 294 346 422
#     4  10  25  47  74 106 146 185 239 306 352 429
#
# _framework density 25.862974000000001
#
# number of rings (size 3 to 8) (size 9 to 14) (size 15 to 20)
#    0.000    1.143    2.857    0.857    8.000    4.571 
#    2.571    0.000    0.000    0.000    0.000    0.000 
#    0.000    0.000    0.000    0.000    0.000    0.000 
#
# Total GULP energy -173547.900684 kJ/mol
# GULP energy per Si atom -12396.278620 kJ/mol
# Density = 2.580411 g / cm^3
# Si number density = 25.862974 Si / 1000 Ang^3
#
#
#
# Elastic Constant Matrix: (Units=GPa)
#
#
# Indices 1 2 3 4 5 6 
#
# 1 141.6693 4.8463 39.4109 0.0000 -20.1330 0.0000
# 2 4.8463 27.6339 -4.9323 0.0000 7.3505 0.0000
# 3 39.4109 -4.9323 82.4996 0.0000 1.7713 0.0000
# 4 0.0000 0.0000 0.0000 35.9583 0.0000 7.5914
# 5 -20.1330 7.3505 1.7713 0.0000 41.0492 0.0000
# 6 0.0000 0.0000 0.0000 7.5914 0.0000 24.2906
#
#
#
# Elastic Compliance Matrix: (Units=1/GPa)
#
#
# Indices 1 2 3 4 5 6 
#
# 1 0.009308 -0.003946 -0.004800 0.000000 0.005479 0.000000
# 2 -0.003946 0.040159 0.004486 0.000000 -0.009320 0.000000
# 3 -0.004800 0.004486 0.014764 0.000000 -0.003795 0.000000
# 4 0.000000 0.000000 0.000000 0.029774 0.000000 -0.009305
# 5 0.005479 -0.009320 -0.003795 0.000000 0.028881 0.000000
# 6 0.000000 0.000000 0.000000 -0.009305 0.000000 0.044076
#
#
# Mechanical properties :
#
#
# Convention : Reuss Voigt Hill
#
# Bulk Modulus (GPa) = 17.94978 36.71696 27.33337
# Shear Modulus (GPa) = 25.76619 34.42483 30.09551
#
# Velocity S-wave (km/s) = 3.15978 3.65231 3.41494
# Velocity P-wave (km/s) = 4.50196 5.65804 5.11278
#
# Compressibility (1/GPa) = 0.05571100
#
# Stress axis : x y z
#
# Youngs Moduli (GPa) = 107.43933 24.90075 67.73270
#
# Poissons Ratio (x) = 0.09827 0.32511
# Poissons Ratio (y) = 0.42400 -0.30387
# Poissons Ratio (z) = 0.51570 -0.11171
#
# Static dielectric constant tensor:
#      x y z
#    x 4.918780 0.000000 -0.010700 
#    y 0.000000 4.257800 0.000000 
#    z -0.010700 0.000000 4.858760 
# 
# 
# High freq. dielectric constant tensor:
#      x y z
#    x 2.074330 0.000000 -0.003470 
#    y 0.000000 2.003210 0.000000 
#    z -0.003470 0.000000 2.035080 
# 
# From -- ./inp_files/7349.got.cif
#   From: 2010.03.12/outbox.cif.g09.slc.cpg/sg4_4_cif.got.tgz:7349.got - 2010.03.31 09:31:35.
