data_PCOD8047058
_publ_section_title
;
Structure prediction by ZEFSAII (Michael W. Deem and Ramdas Pophale) SiO2 
 PCOD8047058
Probable space group: P 21
;
_chemical_formula_sum "Si O2"
_cell_formula_units_Z 16
_cell_length_a 7.630031
_cell_length_b 9.240423
_cell_length_c 15.041339
_cell_angle_alpha 90.000000
_cell_angle_beta 48.302080
_cell_angle_gamma 90.000000
_cell_volume 791.824429
_symmetry_space_group_name_H-M "P 21"
_symmetry_group_IT_number 4
_symmetry_cell_setting 'monoclinic'
loop_
_space_group_symop_operation_xyz
x,y,z
-x,1/2+y,-z
loop_
_atom_site_type_symbol
_atom_site_label
_atom_site_fract_x
_atom_site_fract_y
_atom_site_fract_z
Si Si1 0.292046 0.215780 0.896296
Si Si2 0.294763 0.809259 0.134859
Si Si3 0.101287 0.132117 0.652360
Si Si4 0.963321 0.045303 0.275121
Si Si5 0.182926 0.816720 0.591608
Si Si6 0.544659 0.146796 0.634195
Si Si7 0.932815 0.443973 0.943087
Si Si8 0.336464 0.378449 0.492873
O O1 0.436098 0.273465 0.933424
O O2 0.480148 0.195630 0.754388
O O3 0.100318 0.337066 0.940642
O O4 0.177253 0.059807 0.952498
O O5 0.267156 0.845086 0.038502
O O6 0.133999 0.671765 0.215162
O O7 0.194889 0.950046 0.222386
O O8 0.314388 0.143937 0.650079
O O9 0.155470 0.242892 0.551584
O O10 0.065948 0.973986 0.622510
O O11 0.001426 0.207876 0.298254
O O12 0.730170 0.978874 0.399356
O O13 0.924436 0.033445 0.181319
O O14 0.264930 0.761422 0.467096
O O15 0.402394 0.819067 0.584340
O O16 0.664319 0.985349 0.592833
#
# Coordination Sequence:
#
# PCOD8047058 Si02
#       8
#     2   2   2   2   2   2   2   2
#     4  12  23  42  66  87 119 163 201 267 309 356
#     4   9  21  42  58  84 122 157 198 252 308 359
#     4   9  15  32  58  88 123 156 196 245 296 364
#     4   8  17  38  53  83 120 156 199 244 294 360
#     4   9  15  27  59  91 116 164 197 234 304 360
#     4   9  17  32  54  86 123 155 200 243 296 366
#     4  10  24  43  61  88 116 160 210 253 305 369
#     4   8  14  26  55  83 119 157 189 236 296 354
#
# _framework density 20.206496999999999
#
# number of rings (size 3 to 8) (size 9 to 14) (size 15 to 20)
#    0.750    2.000    1.250    1.500    0.000    3.000 
#    2.250    3.750    0.000    0.000    0.000    0.000 
#    0.000    0.000    0.000    0.000    0.000    0.000 
#
# Total GULP energy -198210.253675 kJ/mol
# GULP energy per Si atom -12388.140855 kJ/mol
# Density = 2.016051 g / cm^3
# Si number density = 20.206497 Si / 1000 Ang^3
#
#
#
# Elastic Constant Matrix: (Units=GPa)
#
#
# Indices 1 2 3 4 5 6 
#
# 1 71.9481 33.5034 20.1459 0.0000 -3.6544 0.0000
# 2 33.5034 167.7306 47.0305 0.0000 0.2040 0.0000
# 3 20.1459 47.0305 56.1280 0.0000 9.2197 0.0000
# 4 0.0000 0.0000 0.0000 29.1312 0.0000 0.8796
# 5 -3.6544 0.2040 9.2197 0.0000 14.3025 0.0000
# 6 0.0000 0.0000 0.0000 0.8796 0.0000 11.9455
#
#
#
# Elastic Compliance Matrix: (Units=1/GPa)
#
#
# Indices 1 2 3 4 5 6 
#
# 1 0.016762 -0.001695 -0.005932 0.000000 0.008131 0.000000
# 2 -0.001695 0.008242 -0.006943 0.000000 0.003925 0.000000
# 3 -0.005932 -0.006943 0.029074 0.000000 -0.020158 0.000000
# 4 0.000000 0.000000 0.000000 0.034404 0.000000 -0.002533
# 5 0.008131 0.003925 -0.020158 0.000000 0.084934 0.000000
# 6 0.000000 0.000000 0.000000 -0.002533 0.000000 0.083900
#
#
# Mechanical properties :
#
#
# Convention : Reuss Voigt Hill
#
# Bulk Modulus (GPa) = 40.09656 55.24068 47.66862
# Shear Modulus (GPa) = 16.96245 24.08431 20.52338
#
# Velocity S-wave (km/s) = 2.90048 3.45615 3.19043
# Velocity P-wave (km/s) = 5.57705 6.58210 6.10031
#
# Compressibility (1/GPa) = 0.02493980
#
# Stress axis : x y z
#
# Youngs Moduli (GPa) = 59.65869 121.32356 34.39462
#
# Poissons Ratio (x) = 0.20562 0.20402
# Poissons Ratio (y) = 0.10111 0.23880
# Poissons Ratio (z) = 0.35389 0.84233
#
# Static dielectric constant tensor:
#      x y z
#    x 3.131860 0.000000 0.011690 
#    y 0.000000 3.970790 0.000000 
#    z 0.011690 0.000000 3.480620 
# 
# 
# High freq. dielectric constant tensor:
#      x y z
#    x 1.740450 0.000000 -0.003310 
#    y 0.000000 1.801510 0.000000 
#    z -0.003310 0.000000 1.771700 
# 
# From -- ./inp_files/14880.got.cif
#   From: 2010.03.12/outbox.cif.g09.slc.cpg/sg4_8_cif.got.tgz:14880.got - 2010.03.31 09:31:35.
