data_PCOD8047736
_publ_section_title
;
Structure prediction by ZEFSAII (Michael W. Deem and Ramdas Pophale) SiO2 
 PCOD8047736
Probable space group: P 21
;
_chemical_formula_sum "Si O2"
_cell_formula_units_Z 14
_cell_length_a 8.421231
_cell_length_b 8.205135
_cell_length_c 8.284511
_cell_angle_alpha 90.000000
_cell_angle_beta 110.766568
_cell_angle_gamma 90.000000
_cell_volume 535.247934
_symmetry_space_group_name_H-M "P 21"
_symmetry_group_IT_number 4
_symmetry_cell_setting 'monoclinic'
loop_
_space_group_symop_operation_xyz
x,y,z
-x,1/2+y,-z
loop_
_atom_site_type_symbol
_atom_site_label
_atom_site_fract_x
_atom_site_fract_y
_atom_site_fract_z
Si Si1 0.406679 0.792530 0.227169
Si Si2 0.717861 0.825129 0.100699
Si Si3 0.798364 0.834739 0.778857
Si Si4 0.818734 0.371470 0.417997
Si Si5 0.498227 0.991009 0.533849
Si Si6 0.145438 0.680045 0.879931
Si Si7 0.021086 0.610668 0.312346
O O1 0.546715 0.793120 0.137100
O O2 0.418595 0.970465 0.323175
O O3 0.425859 0.664565 0.384053
O O4 0.226923 0.751403 0.076459
O O5 0.844725 0.682689 0.191917
O O6 0.804007 0.999841 0.154709
O O7 0.685911 0.813405 0.898217
O O8 0.651694 0.853358 0.589587
O O9 0.937723 0.691485 0.808193
O O10 0.902733 0.007292 0.810842
O O11 0.648868 0.468833 0.390059
O O12 0.780062 0.287994 0.235038
O O13 0.981027 0.491079 0.450691
O O14 0.852291 0.248950 0.578381
#
# Coordination Sequence:
#
# PCOD8047736 Si02
#       7
#     2   2   2   2   2   2   2
#     4  12  29  51  76 115 152 207 257 323 391 458
#     4  12  25  47  77 107 158 198 257 316 384 464
#     4  11  26  49  76 113 154 200 260 314 389 459
#     4  11  25  48  79 111 159 199 260 316 390 457
#     4  12  27  51  73 113 156 199 259 315 390 462
#     4  11  27  48  78 114 150 203 256 322 387 459
#     4  11  25  46  79 117 151 202 257 320 389 459
#
# _framework density 26.156101
#
# number of rings (size 3 to 8) (size 9 to 14) (size 15 to 20)
#    0.000    0.571    2.857    3.429   10.000    1.143 
#    5.143    0.000    0.000    0.000    0.000    0.000 
#    0.000    0.000    0.000    0.000    0.000    0.000 
#
# Total GULP energy -173468.007376 kJ/mol
# GULP energy per Si atom -12390.571955 kJ/mol
# Density = 2.609657 g / cm^3
# Si number density = 26.156101 Si / 1000 Ang^3
#
#
#
# Elastic Constant Matrix: (Units=GPa)
#
#
# Indices 1 2 3 4 5 6 
#
# 1 100.8251 -4.8029 10.6493 0.0000 -3.9893 0.0000
# 2 -4.8029 45.4696 9.0628 0.0000 4.0161 0.0000
# 3 10.6493 9.0628 71.7143 0.0000 0.4376 0.0000
# 4 0.0000 0.0000 0.0000 35.0841 0.0000 -4.3203
# 5 -3.9893 4.0161 0.4376 0.0000 37.3357 0.0000
# 6 0.0000 0.0000 0.0000 -4.3203 0.0000 43.5071
#
#
#
# Elastic Compliance Matrix: (Units=1/GPa)
#
#
# Indices 1 2 3 4 5 6 
#
# 1 0.010198 0.001328 -0.001688 0.000000 0.000967 0.000000
# 2 0.001328 0.022950 -0.003084 0.000000 -0.002291 0.000000
# 3 -0.001688 -0.003084 0.014585 0.000000 -0.000020 0.000000
# 4 0.000000 0.000000 0.000000 0.028856 0.000000 0.002865
# 5 0.000967 -0.002291 -0.000020 0.000000 0.027134 0.000000
# 6 0.000000 0.000000 0.000000 0.002865 0.000000 0.023269
#
#
# Mechanical properties :
#
#
# Convention : Reuss Voigt Hill
#
# Bulk Modulus (GPa) = 24.48228 27.53638 26.00933
# Shear Modulus (GPa) = 33.89978 36.72537 35.31258
#
# Velocity S-wave (km/s) = 3.60398 3.75118 3.67832
# Velocity P-wave (km/s) = 5.16707 5.41409 5.29202
#
# Compressibility (1/GPa) = 0.04084587
#
# Stress axis : x y z
#
# Youngs Moduli (GPa) = 98.05861 43.57314 68.56503
#
# Poissons Ratio (x) = -0.05788 0.11575
# Poissons Ratio (y) = -0.13025 0.21142
# Poissons Ratio (z) = 0.16553 0.13436
#
# Static dielectric constant tensor:
#      x y z
#    x 4.773060 0.000000 -0.061410 
#    y 0.000000 5.020770 0.000000 
#    z -0.061410 0.000000 4.626470 
# 
# 
# High freq. dielectric constant tensor:
#      x y z
#    x 2.065850 0.000000 -0.004260 
#    y 0.000000 2.047470 0.000000 
#    z -0.004260 0.000000 2.041900 
# 
# From -- ./inp_files/5262.got.cif
#   From: 2010.03.12/outbox.cif.g09.slc.cpg/sg4_3_cif.got.tgz:5262.got - 2010.03.31 09:31:35.
