data_PCOD8047089
_publ_section_title
;
Structure prediction by ZEFSAII (Michael W. Deem and Ramdas Pophale) SiO2 
 PCOD8047089
Probable space group: P 21
;
_chemical_formula_sum "Si O2"
_cell_formula_units_Z 16
_cell_length_a 8.838703
_cell_length_b 11.244273
_cell_length_c 7.881371
_cell_angle_alpha 90.000000
_cell_angle_beta 64.810246
_cell_angle_gamma 90.000000
_cell_volume 708.800161
_symmetry_space_group_name_H-M "P 21"
_symmetry_group_IT_number 4
_symmetry_cell_setting 'monoclinic'
loop_
_space_group_symop_operation_xyz
x,y,z
-x,1/2+y,-z
loop_
_atom_site_type_symbol
_atom_site_label
_atom_site_fract_x
_atom_site_fract_y
_atom_site_fract_z
Si Si1 0.542852 0.906720 0.864374
Si Si2 0.526477 0.156173 0.738892
Si Si3 0.317144 0.016547 0.269610
Si Si4 0.135121 0.372916 0.706522
Si Si5 0.169542 0.785119 0.335642
Si Si6 0.441795 0.228437 0.414341
Si Si7 0.789142 0.779502 0.981361
Si Si8 0.990469 0.127666 0.307201
O O1 0.462913 0.804233 0.778419
O O2 0.574355 0.017740 0.723477
O O3 0.427724 0.950809 0.073811
O O4 0.716992 0.855540 0.857340
O O5 0.652984 0.227020 0.804731
O O6 0.546849 0.210076 0.537487
O O7 0.340874 0.177079 0.897477
O O8 0.211772 0.910474 0.410296
O O9 0.417557 0.092918 0.359593
O O10 0.186186 0.104042 0.246831
O O11 0.270138 0.302145 0.528695
O O12 0.184598 0.370534 0.878184
O O13 0.954577 0.311011 0.761469
O O14 0.123243 0.513703 0.675310
O O15 0.089995 0.690568 0.496637
O O16 0.974667 0.722330 0.860563
#
# Coordination Sequence:
#
# PCOD8047089 Si02
#       8
#     2   2   2   2   2   2   2   2
#     4  12  22  42  73  95 140 181 227 294 345 398
#     4  11  25  41  70 106 138 181 239 279 347 416
#     4  11  23  42  68  98 136 181 229 289 347 411
#     4  10  24  44  71  98 147 183 231 283 354 418
#     4  11  23  43  67  99 139 178 229 281 348 412
#     4  11  24  46  69 101 140 187 232 292 346 419
#     4  11  23  46  69 104 142 184 232 289 348 410
#     4  11  22  46  67 101 140 183 229 287 349 416
#
# _framework density 22.573359
#
# number of rings (size 3 to 8) (size 9 to 14) (size 15 to 20)
#    0.000    1.000    5.000    0.750    1.750    3.000 
#    9.000    0.000    0.000    0.000    0.000    0.000 
#    0.000    0.000    0.000    0.000    0.000    0.000 
#
# Total GULP energy -198220.872054 kJ/mol
# GULP energy per Si atom -12388.804503 kJ/mol
# Density = 2.252198 g / cm^3
# Si number density = 22.573359 Si / 1000 Ang^3
#
#
#
# Elastic Constant Matrix: (Units=GPa)
#
#
# Indices 1 2 3 4 5 6 
#
# 1 72.0869 47.5048 31.1969 0.0000 13.4747 0.0000
# 2 47.5048 140.4484 38.7304 0.0000 16.4275 0.0000
# 3 31.1969 38.7304 71.9236 0.0000 15.1108 0.0000
# 4 0.0000 0.0000 0.0000 45.3614 0.0000 -0.8100
# 5 13.4747 16.4275 15.1108 0.0000 30.3123 0.0000
# 6 0.0000 0.0000 0.0000 -0.8100 0.0000 32.9364
#
#
#
# Elastic Compliance Matrix: (Units=1/GPa)
#
#
# Indices 1 2 3 4 5 6 
#
# 1 0.020077 -0.004904 -0.005307 0.000000 -0.003622 0.000000
# 2 -0.004904 0.009740 -0.002756 0.000000 -0.001725 0.000000
# 3 -0.005307 -0.002756 0.018855 0.000000 -0.005547 0.000000
# 4 0.000000 0.000000 0.000000 0.022055 0.000000 0.000542
# 5 -0.003622 -0.001725 -0.005547 0.000000 0.038300 0.000000
# 6 0.000000 0.000000 0.000000 0.000542 0.000000 0.030375
#
#
# Mechanical properties :
#
#
# Convention : Reuss Voigt Hill
#
# Bulk Modulus (GPa) = 43.97600 57.70258 50.83929
# Shear Modulus (GPa) = 28.91592 32.85713 30.88653
#
# Velocity S-wave (km/s) = 3.58295 3.81933 3.70303
# Velocity P-wave (km/s) = 6.05313 6.71323 6.39171
#
# Compressibility (1/GPa) = 0.02273968
#
# Stress axis : x y z
#
# Youngs Moduli (GPa) = 49.80718 102.66528 53.03693
#
# Poissons Ratio (x) = 0.50345 0.28147
# Poissons Ratio (y) = 0.24425 0.14615
# Poissons Ratio (z) = 0.26433 0.28291
#
# Static dielectric constant tensor:
#      x y z
#    x 4.185390 0.000000 -0.135430 
#    y 0.000000 4.444320 0.000000 
#    z -0.135430 0.000000 3.988610 
# 
# 
# High freq. dielectric constant tensor:
#      x y z
#    x 1.874560 0.000000 -0.002320 
#    y 0.000000 1.914400 0.000000 
#    z -0.002320 0.000000 1.879770 
# 
# From -- ./inp_files/6234.got.cif
#   From: 2010.03.12/outbox.cif.g09.slc.cpg/sg4_4_cif.got.tgz:6234.got - 2010.03.31 09:31:35.
