data_PCOD8047861
_publ_section_title
;
Structure prediction by ZEFSAII (Michael W. Deem and Ramdas Pophale) SiO2 
 PCOD8047861
Probable space group: P 21
;
_chemical_formula_sum "Si O2"
_cell_formula_units_Z 16
_cell_length_a 7.085659
_cell_length_b 6.782307
_cell_length_c 16.150025
_cell_angle_alpha 90.000000
_cell_angle_beta 101.650370
_cell_angle_gamma 90.000000
_cell_volume 760.133981
_symmetry_space_group_name_H-M "P 21"
_symmetry_group_IT_number 4
_symmetry_cell_setting 'monoclinic'
loop_
_space_group_symop_operation_xyz
x,y,z
-x,1/2+y,-z
loop_
_atom_site_type_symbol
_atom_site_label
_atom_site_fract_x
_atom_site_fract_y
_atom_site_fract_z
Si Si1 0.247083 0.897020 0.705596
Si Si2 0.715740 0.999284 0.515339
Si Si3 0.938147 0.745307 0.404845
Si Si4 0.955566 0.884401 0.093904
Si Si5 0.433268 0.204682 0.371773
Si Si6 0.962188 0.559414 0.721826
Si Si7 0.280347 0.718214 0.011371
Si Si8 0.667935 0.552157 0.112131
O O1 0.411289 0.755887 0.684136
O O2 0.334335 0.012550 0.790713
O O3 0.063534 0.768363 0.715655
O O4 0.179897 0.051579 0.630668
O O5 0.833436 0.838436 0.473993
O O6 0.650563 0.903717 0.595794
O O7 0.526938 0.068104 0.450148
O O8 0.847548 0.188132 0.546911
O O9 0.945885 0.896284 0.329691
O O10 0.854811 0.678001 0.104640
O O11 0.151671 0.843862 0.062667
O O12 0.007070 0.000609 0.181117
O O13 0.819130 0.015376 0.023928
O O14 0.264801 0.079997 0.313838
O O15 0.477489 0.674567 0.075762
O O16 0.327120 0.845020 0.934497
#
# Coordination Sequence:
#
# PCOD8047861 Si02
#       8
#     2   2   2   2   2   2   2   2
#     4  12  26  47  71 103 144 186 230 288 354 415
#     4  12  24  44  72 104 140 182 238 292 346 414
#     4  12  24  46  73  99 142 192 228 287 363 406
#     4  12  26  45  74 105 144 183 229 289 347 414
#     4  12  26  44  71 107 138 180 240 287 343 420
#     4  12  26  47  71 103 144 186 230 288 354 415
#     4  12  26  44  76 106 138 186 232 280 350 414
#     4  12  26  45  74 105 144 183 229 289 347 414
#
# _framework density 21.048919999999999
#
# number of rings (size 3 to 8) (size 9 to 14) (size 15 to 20)
#    0.000    0.000    7.500    3.000    0.000    6.000 
#    0.000    0.000    0.000    0.000    0.000    0.000 
#    0.000    0.000    0.000    0.000    0.000    0.000 
#
# Total GULP energy -198567.296320 kJ/mol
# GULP energy per Si atom -12410.456020 kJ/mol
# Density = 2.100101 g / cm^3
# Si number density = 21.048920 Si / 1000 Ang^3
#
#
#
# Elastic Constant Matrix: (Units=GPa)
#
#
# Indices 1 2 3 4 5 6 
#
# 1 89.5649 10.7281 24.8256 0.0000 9.6715 0.0000
# 2 10.7281 71.7045 16.0886 0.0000 4.7844 0.0000
# 3 24.8256 16.0886 90.4731 0.0000 4.7900 0.0000
# 4 0.0000 0.0000 0.0000 44.0813 0.0000 5.5912
# 5 9.6715 4.7844 4.7900 0.0000 33.1975 0.0000
# 6 0.0000 0.0000 0.0000 5.5912 0.0000 47.2933
#
#
#
# Elastic Compliance Matrix: (Units=1/GPa)
#
#
# Indices 1 2 3 4 5 6 
#
# 1 0.012466 -0.000969 -0.003087 0.000000 -0.003047 0.000000
# 2 -0.000969 0.014701 -0.002268 0.000000 -0.001509 0.000000
# 3 -0.003087 -0.002268 0.012333 0.000000 -0.000553 0.000000
# 4 0.000000 0.000000 0.000000 0.023031 0.000000 -0.002723
# 5 -0.003047 -0.001509 -0.000553 0.000000 0.031308 0.000000
# 6 0.000000 0.000000 0.000000 -0.002723 0.000000 0.021467
#
#
# Mechanical properties :
#
#
# Convention : Reuss Voigt Hill
#
# Bulk Modulus (GPa) = 37.24349 39.44746 38.34548
# Shear Modulus (GPa) = 36.52216 38.25444 37.38830
#
# Velocity S-wave (km/s) = 4.16998 4.26773 4.21914
# Velocity P-wave (km/s) = 6.39665 6.56249 6.48010
#
# Compressibility (1/GPa) = 0.02685033
#
# Stress axis : x y z
#
# Youngs Moduli (GPa) = 80.21958 68.02362 81.08510
#
# Poissons Ratio (x) = 0.06593 0.25030
# Poissons Ratio (y) = 0.07775 0.18393
# Poissons Ratio (z) = 0.24763 0.15430
#
# Static dielectric constant tensor:
#      x y z
#    x 3.927430 0.000000 0.080200 
#    y 0.000000 3.845880 0.000000 
#    z 0.080200 0.000000 3.862030 
# 
# 
# High freq. dielectric constant tensor:
#      x y z
#    x 1.834940 0.000000 0.004240 
#    y 0.000000 1.836290 0.000000 
#    z 0.004240 0.000000 1.834930 
# 
# From -- ./inp_files/4004.got.cif
#   From: 2010.03.12/outbox.cif.g09.slc.cpg/sg4_3_cif.got.tgz:4004.got - 2010.03.31 09:31:35.
