data_PCOD8047748
_publ_section_title
;
Structure prediction by ZEFSAII (Michael W. Deem and Ramdas Pophale) SiO2 
 PCOD8047748
Probable space group: P 21
;
_chemical_formula_sum "Si O2"
_cell_formula_units_Z 14
_cell_length_a 9.742128
_cell_length_b 8.511662
_cell_length_c 14.643420
_cell_angle_alpha 90.000000
_cell_angle_beta 151.342910
_cell_angle_gamma 90.000000
_cell_volume 582.317058
_symmetry_space_group_name_H-M "P 21"
_symmetry_group_IT_number 4
_symmetry_cell_setting 'monoclinic'
loop_
_space_group_symop_operation_xyz
x,y,z
-x,1/2+y,-z
loop_
_atom_site_type_symbol
_atom_site_label
_atom_site_fract_x
_atom_site_fract_y
_atom_site_fract_z
Si Si1 0.694593 0.274900 0.661025
Si Si2 0.347798 0.914907 0.738916
Si Si3 0.425149 0.405054 0.845967
Si Si4 0.336107 0.115613 0.308508
Si Si5 0.276240 0.196060 0.916048
Si Si6 0.829377 0.112122 0.453408
Si Si7 0.271589 0.678739 0.114864
O O1 0.422848 0.240022 0.437211
O O2 0.757145 0.459478 0.692327
O O3 0.629651 0.223511 0.726236
O O4 0.968558 0.182552 0.783449
O O5 0.166961 0.798713 0.565925
O O6 0.588802 0.009507 0.823380
O O7 0.504904 0.805804 0.902316
O O8 0.137072 0.041860 0.664770
O O9 0.242056 0.277852 0.796899
O O10 0.223783 0.518553 0.670956
O O11 0.635208 0.311565 0.901602
O O12 0.604517 0.518269 0.019274
O O13 0.598638 0.074352 0.395718
O O14 0.073036 0.174345 0.093122
#
# Coordination Sequence:
#
# PCOD8047748 Si02
#       7
#     2   2   2   2   2   2   2
#     4  12  30  49  78 115 154 203 256 321 390 459
#     4  11  25  47  76 110 153 200 256 312 384 454
#     4  11  25  47  76 110 153 200 256 312 384 454
#     4  12  30  49  78 115 154 203 256 321 390 459
#     4  11  26  46  75 112 154 200 252 318 379 455
#     4  11  26  46  75 112 154 200 252 318 379 455
#     4  12  26  52  80 110 156 204 256 320 390 462
#
# _framework density 24.041886000000002
#
# number of rings (size 3 to 8) (size 9 to 14) (size 15 to 20)
#    0.000    0.571    2.857    3.429   10.000    0.000 
#    0.000    0.000    0.000    0.000    0.000    0.000 
#    0.000    0.000    0.000    0.000    0.000    0.000 
#
# Total GULP energy -173634.084721 kJ/mol
# GULP energy per Si atom -12402.434623 kJ/mol
# Density = 2.398717 g / cm^3
# Si number density = 24.041886 Si / 1000 Ang^3
#
#
#
# Elastic Constant Matrix: (Units=GPa)
#
#
# Indices 1 2 3 4 5 6 
#
# 1 111.6131 30.5939 19.7829 0.0000 -0.2921 0.0000
# 2 30.5939 124.3887 23.7178 0.0000 -4.2650 0.0000
# 3 19.7829 23.7178 90.5019 0.0000 -2.5769 0.0000
# 4 0.0000 0.0000 0.0000 46.9812 0.0000 -1.7349
# 5 -0.2921 -4.2650 -2.5769 0.0000 40.7384 0.0000
# 6 0.0000 0.0000 0.0000 -1.7349 0.0000 38.7109
#
#
#
# Elastic Compliance Matrix: (Units=1/GPa)
#
#
# Indices 1 2 3 4 5 6 
#
# 1 0.009823 -0.002120 -0.001599 0.000000 -0.000253 0.000000
# 2 -0.002120 0.008942 -0.001857 0.000000 0.000804 0.000000
# 3 -0.001599 -0.001857 0.011901 0.000000 0.000547 0.000000
# 4 0.000000 0.000000 0.000000 0.021320 0.000000 0.000956
# 5 -0.000253 0.000804 0.000547 0.000000 0.024664 0.000000
# 6 0.000000 0.000000 0.000000 0.000956 0.000000 0.025875
#
#
# Mechanical properties :
#
#
# Convention : Reuss Voigt Hill
#
# Bulk Modulus (GPa) = 51.24293 52.74366 51.99329
# Shear Modulus (GPa) = 41.60299 42.11337 41.85818
#
# Velocity S-wave (km/s) = 4.16437 4.18983 4.17712
# Velocity P-wave (km/s) = 6.66955 6.73737 6.70354
#
# Compressibility (1/GPa) = 0.01951489
#
# Stress axis : x y z
#
# Youngs Moduli (GPa) = 101.79841 111.82690 84.02441
#
# Poissons Ratio (x) = 0.23706 0.13435
# Poissons Ratio (y) = 0.21580 0.15606
# Poissons Ratio (z) = 0.16277 0.20769
#
# Static dielectric constant tensor:
#      x y z
#    x 4.233520 0.000000 -0.223930 
#    y 0.000000 4.671340 0.000000 
#    z -0.223930 0.000000 4.456530 
# 
# 
# High freq. dielectric constant tensor:
#      x y z
#    x 1.948430 0.000000 -0.012560 
#    y 0.000000 1.976750 0.000000 
#    z -0.012560 0.000000 1.965890 
# 
# From -- ./inp_files/5284.got.cif
#   From: 2010.03.12/outbox.cif.g09.slc.cpg/sg4_3_cif.got.tgz:5284.got - 2010.03.31 09:31:35.
