data_PCOD8047975
_publ_section_title
;
Structure prediction by ZEFSAII (Michael W. Deem and Ramdas Pophale) SiO2 
 PCOD8047975
Probable space group: P 21
;
_chemical_formula_sum "Si O2"
_cell_formula_units_Z 12
_cell_length_a 13.012826
_cell_length_b 8.010945
_cell_length_c 13.010768
_cell_angle_alpha 90.000000
_cell_angle_beta 21.061934
_cell_angle_gamma 90.000000
_cell_volume 487.425739
_symmetry_space_group_name_H-M "P 21"
_symmetry_group_IT_number 4
_symmetry_cell_setting 'monoclinic'
loop_
_space_group_symop_operation_xyz
x,y,z
-x,1/2+y,-z
loop_
_atom_site_type_symbol
_atom_site_label
_atom_site_fract_x
_atom_site_fract_y
_atom_site_fract_z
Si Si1 0.725564 0.212970 0.506643
Si Si2 0.966230 0.712353 0.146511
Si Si3 0.105701 0.082942 0.337067
Si Si4 0.158294 0.090316 0.952294
Si Si5 0.663882 0.212471 0.894638
Si Si6 0.520166 0.585381 0.712462
O O1 0.619783 0.396595 0.632436
O O2 0.905796 0.138095 0.431102
O O3 0.452989 0.095659 0.740425
O O4 0.925637 0.215569 0.219194
O O5 0.787822 0.649853 0.214462
O O6 0.776510 0.694318 0.425956
O O7 0.045957 0.903819 0.061655
O O8 0.247970 0.596932 0.891160
O O9 0.916509 0.091426 0.617850
O O10 0.216308 0.897677 0.217803
O O11 0.383072 0.203112 0.084116
O O12 0.570427 0.159699 0.094513
#
# Coordination Sequence:
#
# PCOD8047975 Si02
#       6
#     2   2   2   2   2   2
#     4  12  26  48  74 106 147 193 242 301 365 435
#     4  12  26  47  74 108 147 194 245 301 362 432
#     4  12  27  49  75 108 146 191 243 302 366 437
#     4  12  26  47  74 108 147 194 245 301 362 432
#     4  12  27  49  75 108 146 191 243 302 366 437
#     4  12  26  48  74 106 147 193 242 301 365 435
#
# _framework density 24.619133999999999
#
# number of rings (size 3 to 8) (size 9 to 14) (size 15 to 20)
#    0.000    0.000    0.000   10.000    0.000    5.333 
#    0.000    1.667    0.000    0.000    0.000    0.000 
#    0.000    0.000    0.000    0.000    0.000    0.000 
#
# Total GULP energy -148898.480579 kJ/mol
# GULP energy per Si atom -12408.206715 kJ/mol
# Density = 2.456310 g / cm^3
# Si number density = 24.619134 Si / 1000 Ang^3
#
#
#
# Elastic Constant Matrix: (Units=GPa)
#
#
# Indices 1 2 3 4 5 6 
#
# 1 112.5670 84.3731 39.5273 0.0000 -9.7269 0.0000
# 2 84.3731 139.5368 58.7663 0.0000 -0.6729 0.0000
# 3 39.5273 58.7663 144.5302 0.0000 -2.6736 0.0000
# 4 0.0000 0.0000 0.0000 47.6446 0.0000 -4.0700
# 5 -9.7269 -0.6729 -2.6736 0.0000 53.7461 0.0000
# 6 0.0000 0.0000 0.0000 -4.0700 0.0000 37.2733
#
#
#
# Elastic Compliance Matrix: (Units=1/GPa)
#
#
# Indices 1 2 3 4 5 6 
#
# 1 0.016715 -0.009883 -0.000500 0.000000 0.002876 0.000000
# 2 -0.009883 0.014491 -0.003222 0.000000 -0.001767 0.000000
# 3 -0.000500 -0.003222 0.008371 0.000000 0.000286 0.000000
# 4 0.000000 0.000000 0.000000 0.021186 0.000000 0.002313
# 5 0.002876 -0.001767 0.000286 0.000000 0.019119 0.000000
# 6 0.000000 0.000000 0.000000 0.002313 0.000000 0.027081
#
#
# Mechanical properties :
#
#
# Convention : Reuss Voigt Hill
#
# Bulk Modulus (GPa) = 80.85384 84.66305 82.75844
# Shear Modulus (GPa) = 36.15473 41.99728 39.07601
#
# Velocity S-wave (km/s) = 3.83634 4.13471 3.98832
# Velocity P-wave (km/s) = 7.24821 7.56692 7.40928
#
# Compressibility (1/GPa) = 0.01236800
#
# Stress axis : x y z
#
# Youngs Moduli (GPa) = 59.82626 69.01023 119.46058
#
# Poissons Ratio (x) = 0.68200 0.05971
# Poissons Ratio (y) = 0.59124 0.38488
# Poissons Ratio (z) = 0.02991 0.22234
#
# Static dielectric constant tensor:
#      x y z
#    x 4.692070 0.000000 -0.119660 
#    y 0.000000 4.598650 0.000000 
#    z -0.119660 0.000000 5.298710 
# 
# 
# High freq. dielectric constant tensor:
#      x y z
#    x 1.992000 0.000000 -0.003560 
#    y 0.000000 1.984230 0.000000 
#    z -0.003560 0.000000 2.007310 
# 
# From -- ./inp_files/12084.got.cif
#   From: 2010.03.12/outbox.cif.g09.slc.cpg/sg4_7_cif.got.tgz:12084.got - 2010.03.31 09:31:35.
