data_PCOD8047060
_publ_section_title
;
Structure prediction by ZEFSAII (Michael W. Deem and Ramdas Pophale) SiO2 
 PCOD8047060
Probable space group: P 21
;
_chemical_formula_sum "Si O2"
_cell_formula_units_Z 14
_cell_length_a 7.982742
_cell_length_b 11.432311
_cell_length_c 9.612221
_cell_angle_alpha 90.000000
_cell_angle_beta 47.114240
_cell_angle_gamma 90.000000
_cell_volume 642.751665
_symmetry_space_group_name_H-M "P 21"
_symmetry_group_IT_number 4
_symmetry_cell_setting 'monoclinic'
loop_
_space_group_symop_operation_xyz
x,y,z
-x,1/2+y,-z
loop_
_atom_site_type_symbol
_atom_site_label
_atom_site_fract_x
_atom_site_fract_y
_atom_site_fract_z
Si Si1 0.425649 0.170860 0.185702
Si Si2 0.407314 0.264403 0.905879
Si Si3 0.266846 0.369409 0.438265
Si Si4 0.950683 0.387390 0.236182
Si Si5 0.805333 0.431645 0.619899
Si Si6 0.408838 0.706806 0.622794
Si Si7 0.382862 0.055132 0.721847
O O1 0.249151 0.276603 0.320282
O O2 0.622705 0.172479 0.194696
O O3 0.299792 0.048502 0.260563
O O4 0.511510 0.197979 0.982054
O O5 0.618655 0.329709 0.714940
O O6 0.310930 0.166629 0.854542
O O7 0.213281 0.360960 0.049346
O O8 0.387561 0.305305 0.502372
O O9 0.429361 0.477929 0.301829
O O10 0.006790 0.405091 0.617782
O O11 0.924231 0.447471 0.402209
O O12 0.823702 0.261548 0.304235
O O13 0.841713 0.478018 0.186081
O O14 0.488544 0.593913 0.492720
#
# Coordination Sequence:
#
# PCOD8047060 Si02
#       7
#     2   2   2   2   2   2   2
#     4  10  24  43  65 103 134 178 226 278 343 402
#     4  12  28  43  69 112 133 180 235 287 343 413
#     4   9  23  43  70  96 133 180 230 268 342 415
#     4  11  22  47  68  98 145 176 232 281 344 411
#     4  12  24  44  75  96 139 191 222 283 350 415
#     4   9  20  43  68  95 132 181 221 276 337 404
#     4  11  23  45  73 100 138 178 232 287 341 408
#
# _framework density 21.781352999999999
#
# number of rings (size 3 to 8) (size 9 to 14) (size 15 to 20)
#    0.857    0.571    4.286    0.000    6.000    1.143 
#    7.714    0.000    0.000    0.000    0.000    0.000 
#    0.000    0.000    0.000    0.000    0.000    0.000 
#
# Total GULP energy -173500.569173 kJ/mol
# GULP energy per Si atom -12392.897798 kJ/mol
# Density = 2.173178 g / cm^3
# Si number density = 21.781353 Si / 1000 Ang^3
#
#
#
# Elastic Constant Matrix: (Units=GPa)
#
#
# Indices 1 2 3 4 5 6 
#
# 1 70.7798 16.5081 26.8559 0.0000 -1.4869 0.0000
# 2 16.5081 102.6722 26.4254 0.0000 0.1972 0.0000
# 3 26.8559 26.4254 68.3076 0.0000 1.1587 0.0000
# 4 0.0000 0.0000 0.0000 21.9934 0.0000 4.3100
# 5 -1.4869 0.1972 1.1587 0.0000 37.4357 0.0000
# 6 0.0000 0.0000 0.0000 4.3100 0.0000 22.6641
#
#
#
# Elastic Compliance Matrix: (Units=1/GPa)
#
#
# Indices 1 2 3 4 5 6 
#
# 1 0.016746 -0.001106 -0.006170 0.000000 0.000862 0.000000
# 2 -0.001106 0.010890 -0.003778 0.000000 0.000016 0.000000
# 3 -0.006170 -0.003778 0.018541 0.000000 -0.000799 0.000000
# 4 0.000000 0.000000 0.000000 0.047228 0.000000 -0.008981
# 5 0.000862 0.000016 -0.000799 0.000000 0.026771 0.000000
# 6 0.000000 0.000000 0.000000 -0.008981 0.000000 0.045831
#
#
# Mechanical properties :
#
#
# Convention : Reuss Voigt Hill
#
# Bulk Modulus (GPa) = 41.55078 42.37093 41.96086
# Shear Modulus (GPa) = 25.49218 27.88333 26.68775
#
# Velocity S-wave (km/s) = 3.42477 3.58180 3.50416
# Velocity P-wave (km/s) = 5.89546 6.04986 5.97316
#
# Compressibility (1/GPa) = 0.02406693
#
# Stress axis : x y z
#
# Youngs Moduli (GPa) = 59.71702 91.82748 53.93488
#
# Poissons Ratio (x) = 0.10156 0.33280
# Poissons Ratio (y) = 0.06604 0.20378
# Poissons Ratio (z) = 0.36848 0.34695
#
# Static dielectric constant tensor:
#      x y z
#    x 3.919370 0.000000 0.009050 
#    y 0.000000 3.946840 0.000000 
#    z 0.009050 0.000000 3.470390 
# 
# 
# High freq. dielectric constant tensor:
#      x y z
#    x 1.860540 0.000000 0.002100 
#    y 0.000000 1.867160 0.000000 
#    z 0.002100 0.000000 1.815620 
# 
# From -- ./inp_files/11324.got.cif
#   From: 2010.03.12/outbox.cif.g09.slc.cpg/sg4_6_cif.got.tgz:11324.got - 2010.03.31 09:31:35.
