data_PCOD8047462
_publ_section_title
;
Structure prediction by ZEFSAII (Michael W. Deem and Ramdas Pophale) SiO2 
 PCOD8047462
Probable space group: P 21
;
_chemical_formula_sum "Si O2"
_cell_formula_units_Z 14
_cell_length_a 11.009928
_cell_length_b 9.992940
_cell_length_c 9.031160
_cell_angle_alpha 90.000000
_cell_angle_beta 140.661997
_cell_angle_gamma 90.000000
_cell_volume 629.851168
_symmetry_space_group_name_H-M "P 21"
_symmetry_group_IT_number 4
_symmetry_cell_setting 'monoclinic'
loop_
_space_group_symop_operation_xyz
x,y,z
-x,1/2+y,-z
loop_
_atom_site_type_symbol
_atom_site_label
_atom_site_fract_x
_atom_site_fract_y
_atom_site_fract_z
Si Si1 0.454857 0.210280 0.137182
Si Si2 0.592566 0.509066 0.642542
Si Si3 0.107263 0.033229 0.323068
Si Si4 0.585534 0.297710 0.872738
Si Si5 0.795261 0.742640 0.356888
Si Si6 0.329277 0.496331 0.127835
Si Si7 0.806366 0.329368 0.360188
O O1 0.406311 0.368292 0.111091
O O2 0.677463 0.201573 0.291567
O O3 0.431863 0.127110 0.263165
O O4 0.315191 0.155426 0.874399
O O5 0.773682 0.550643 0.714696
O O6 0.627471 0.366183 0.754491
O O7 0.402572 0.494712 0.365575
O O8 0.229019 0.936543 0.544182
O O9 0.093829 0.167507 0.406564
O O10 0.898903 0.984760 0.080533
O O11 0.368394 0.334830 0.720784
O O12 0.604405 0.136674 0.883171
O O13 0.730467 0.366984 0.125366
O O14 0.964086 0.817895 0.429320
#
# Coordination Sequence:
#
# PCOD8047462 Si02
#       7
#     2   2   2   2   2   2   2
#     4  11  25  45  72 100 137 182 225 287 343 402
#     4  12  27  45  67 102 144 178 229 277 347 410
#     4  12  25  42  70 101 141 177 230 287 340 407
#     4  11  25  45  72 100 137 182 225 287 343 402
#     4  11  23  43  72  99 133 176 235 282 337 400
#     4  12  24  43  69  99 137 183 225 274 345 405
#     4  11  23  43  72  99 133 176 235 282 337 400
#
# _framework density 22.227474000000001
#
# number of rings (size 3 to 8) (size 9 to 14) (size 15 to 20)
#    0.000    0.571    5.714    1.714    0.000    8.000 
#    0.000    0.000    0.000    0.000    0.000    0.000 
#    0.000    0.000    0.000    0.000    0.000    0.000 
#
# Total GULP energy -173495.036635 kJ/mol
# GULP energy per Si atom -12392.502617 kJ/mol
# Density = 2.217688 g / cm^3
# Si number density = 22.227474 Si / 1000 Ang^3
#
#
#
# Elastic Constant Matrix: (Units=GPa)
#
#
# Indices 1 2 3 4 5 6 
#
# 1 115.7231 21.0085 47.7367 0.0000 -5.9337 0.0000
# 2 21.0085 75.1858 11.1042 0.0000 -8.1211 0.0000
# 3 47.7367 11.1042 127.3233 0.0000 -0.0711 0.0000
# 4 0.0000 0.0000 0.0000 29.0641 0.0000 -13.5139
# 5 -5.9337 -8.1211 -0.0711 0.0000 48.7163 0.0000
# 6 0.0000 0.0000 0.0000 -13.5139 0.0000 31.4215
#
#
#
# Elastic Compliance Matrix: (Units=1/GPa)
#
#
# Indices 1 2 3 4 5 6 
#
# 1 0.010677 -0.002324 -0.003800 0.000000 0.000908 0.000000
# 2 -0.002324 0.014230 -0.000368 0.000000 0.002089 0.000000
# 3 -0.003800 -0.000368 0.009311 0.000000 -0.000511 0.000000
# 4 0.000000 0.000000 0.000000 0.043007 0.000000 0.018497
# 5 0.000908 0.002089 -0.000511 0.000000 0.020985 0.000000
# 6 0.000000 0.000000 0.000000 0.018497 0.000000 0.039780
#
#
# Mechanical properties :
#
#
# Convention : Reuss Voigt Hill
#
# Bulk Modulus (GPa) = 47.09781 53.10345 50.10063
# Shear Modulus (GPa) = 31.63496 37.73258 34.68377
#
# Velocity S-wave (km/s) = 3.77667 4.12462 3.95448
# Velocity P-wave (km/s) = 6.34450 6.82833 6.59086
#
# Compressibility (1/GPa) = 0.02123241
#
# Stress axis : x y z
#
# Youngs Moduli (GPa) = 93.65652 70.27500 107.40469
#
# Poissons Ratio (x) = 0.16333 0.40814
# Poissons Ratio (y) = 0.21768 0.03957
# Poissons Ratio (z) = 0.35589 0.02589
#
# Static dielectric constant tensor:
#      x y z
#    x 3.993690 0.000000 -0.040750 
#    y 0.000000 3.713980 0.000000 
#    z -0.040750 0.000000 4.187130 
# 
# 
# High freq. dielectric constant tensor:
#      x y z
#    x 1.886800 0.000000 -0.001430 
#    y 0.000000 1.849290 0.000000 
#    z -0.001430 0.000000 1.897140 
# 
# From -- ./inp_files/7934.got.cif
#   From: 2010.03.12/outbox.cif.g09.slc.cpg/sg4_4_cif.got.tgz:7934.got - 2010.03.31 09:31:35.
