data_PCOD8047982
_publ_section_title
;
Structure prediction by ZEFSAII (Michael W. Deem and Ramdas Pophale) SiO2 
 PCOD8047982
Probable space group: P 21
;
_chemical_formula_sum "Si O2"
_cell_formula_units_Z 16
_cell_length_a 12.845159
_cell_length_b 8.124153
_cell_length_c 9.364048
_cell_angle_alpha 90.000000
_cell_angle_beta 41.538445
_cell_angle_gamma 90.000000
_cell_volume 647.999895
_symmetry_space_group_name_H-M "P 21"
_symmetry_group_IT_number 4
_symmetry_cell_setting 'monoclinic'
loop_
_space_group_symop_operation_xyz
x,y,z
-x,1/2+y,-z
loop_
_atom_site_type_symbol
_atom_site_label
_atom_site_fract_x
_atom_site_fract_y
_atom_site_fract_z
Si Si1 0.131052 0.269990 0.459665
Si Si2 0.306659 0.352323 0.829411
Si Si3 0.333346 0.808884 0.555843
Si Si4 0.653959 0.541030 0.945723
Si Si5 0.839772 0.056944 0.771753
Si Si6 0.178038 0.002661 0.969649
Si Si7 0.624406 0.262630 0.787119
Si Si8 0.182100 0.464778 0.679665
O O1 0.233843 0.129688 0.282261
O O2 0.081474 0.400427 0.388335
O O3 0.224730 0.359934 0.494177
O O4 0.974613 0.183420 0.685102
O O5 0.487867 0.360900 0.595538
O O6 0.261093 0.173946 0.933767
O O7 0.195804 0.350156 0.803065
O O8 0.261419 0.497280 0.987045
O O9 0.285885 0.848131 0.440121
O O10 0.300151 0.613237 0.600503
O O11 0.228260 0.914773 0.772527
O O12 0.556213 0.405568 0.956824
O O13 0.750110 0.420253 0.960331
O O14 0.523916 0.671314 0.135461
O O15 0.732854 0.137540 0.759988
O O16 0.993839 0.030472 0.160426
#
# Coordination Sequence:
#
# PCOD8047982 Si02
#       8
#     2   2   2   2   2   2   2   2
#     4  12  26  49  77 117 154 213 260 336 401 476
#     4  12  28  49  75 115 154 205 264 324 395 485
#     4  12  27  50  78 107 154 208 257 328 399 476
#     4  12  27  48  78 111 161 204 273 330 400 481
#     4  12  26  49  80 115 163 205 272 324 404 479
#     4  12  27  51  73 113 156 204 261 330 396 479
#     4  12  26  48  76 115 150 214 264 332 399 477
#     4  12  29  48  77 113 152 205 261 324 406 479
#
# _framework density 24.691362000000002
#
# number of rings (size 3 to 8) (size 9 to 14) (size 15 to 20)
#    0.000    0.000    3.750    5.250    7.000    2.000 
#    0.000    0.000    0.000    0.000    0.000    0.000 
#    0.000    0.000    0.000    0.000    0.000    0.000 
#
# Total GULP energy -198285.535835 kJ/mol
# GULP energy per Si atom -12392.845990 kJ/mol
# Density = 2.463516 g / cm^3
# Si number density = 24.691362 Si / 1000 Ang^3
#
#
#
# Elastic Constant Matrix: (Units=GPa)
#
#
# Indices 1 2 3 4 5 6 
#
# 1 146.9413 41.2422 49.0710 0.0000 18.9719 0.0000
# 2 41.2422 77.4566 36.3643 0.0000 2.4234 0.0000
# 3 49.0710 36.3643 121.0542 0.0000 13.3175 0.0000
# 4 0.0000 0.0000 0.0000 44.2355 0.0000 5.9619
# 5 18.9719 2.4234 13.3175 0.0000 41.7127 0.0000
# 6 0.0000 0.0000 0.0000 5.9619 0.0000 43.9124
#
#
#
# Elastic Compliance Matrix: (Units=1/GPa)
#
#
# Indices 1 2 3 4 5 6 
#
# 1 0.008970 -0.003648 -0.002192 0.000000 -0.003168 0.000000
# 2 -0.003648 0.016528 -0.003693 0.000000 0.001878 0.000000
# 3 -0.002192 -0.003693 0.010494 0.000000 -0.002139 0.000000
# 4 0.000000 0.000000 0.000000 0.023028 0.000000 -0.003126
# 5 -0.003168 0.001878 -0.002139 0.000000 0.025988 0.000000
# 6 0.000000 0.000000 0.000000 -0.003126 0.000000 0.023197
#
#
# Mechanical properties :
#
#
# Convention : Reuss Voigt Hill
#
# Bulk Modulus (GPa) = 59.07833 66.53412 62.80623
# Shear Modulus (GPa) = 37.61869 40.55710 39.08789
#
# Velocity S-wave (km/s) = 3.90751 4.05725 3.98308
# Velocity P-wave (km/s) = 6.65859 6.99666 6.82972
#
# Compressibility (1/GPa) = 0.01692668
#
# Stress axis : x y z
#
# Youngs Moduli (GPa) = 111.47775 60.50397 95.29413
#
# Poissons Ratio (x) = 0.22073 0.20887
# Poissons Ratio (y) = 0.40669 0.35189
# Poissons Ratio (z) = 0.24434 0.22342
#
# Static dielectric constant tensor:
#      x y z
#    x 4.522320 0.000000 0.166100 
#    y 0.000000 4.578560 0.000000 
#    z 0.166100 0.000000 4.371870 
# 
# 
# High freq. dielectric constant tensor:
#      x y z
#    x 2.001840 0.000000 0.011170 
#    y 0.000000 1.991090 0.000000 
#    z 0.011170 0.000000 1.981680 
# 
# From -- ./inp_files/7955.got.cif
#   From: 2010.03.12/outbox.cif.g09.slc.cpg/sg4_4_cif.got.tgz:7955.got - 2010.03.31 09:31:35.
