data_PCOD8047920
_publ_section_title
;
Structure prediction by ZEFSAII (Michael W. Deem and Ramdas Pophale) SiO2 
 PCOD8047920
Probable space group: P 21
;
_chemical_formula_sum "Si O2"
_cell_formula_units_Z 16
_cell_length_a 31.431504
_cell_length_b 4.956208
_cell_length_c 24.900759
_cell_angle_alpha 90.000000
_cell_angle_beta 169.429745
_cell_angle_gamma 90.000000
_cell_volume 711.580057
_symmetry_space_group_name_H-M "P 21"
_symmetry_group_IT_number 4
_symmetry_cell_setting 'monoclinic'
loop_
_space_group_symop_operation_xyz
x,y,z
-x,1/2+y,-z
loop_
_atom_site_type_symbol
_atom_site_label
_atom_site_fract_x
_atom_site_fract_y
_atom_site_fract_z
Si Si1 0.527613 0.043560 0.570419
Si Si2 0.520423 0.601510 0.990161
Si Si3 0.157261 0.892037 0.199942
Si Si4 0.604375 0.443236 0.394129
Si Si5 0.703330 0.443251 0.998525
Si Si6 0.987066 0.817320 0.518963
Si Si7 0.082250 0.506480 0.378295
Si Si8 0.019329 0.007271 0.229555
O O1 0.436625 0.311084 0.428808
O O2 0.337767 0.966010 0.378237
O O3 0.770278 0.104376 0.900068
O O4 0.334225 0.593276 0.711543
O O5 0.562981 0.304697 0.066890
O O6 0.760750 0.704201 0.265929
O O7 0.287380 0.830463 0.416811
O O8 0.028069 0.625553 0.020073
O O9 0.456638 0.709194 0.224669
O O10 0.801470 0.520718 0.596644
O O11 0.443974 0.209214 0.170798
O O12 0.807037 0.339858 0.182928
O O13 0.903390 0.518738 0.205168
O O14 0.071169 0.609407 0.577820
O O15 0.000576 0.706952 0.230002
O O16 0.100907 0.206558 0.377902
#
# Coordination Sequence:
#
# PCOD8047920 Si02
#       8
#     2   2   2   2   2   2   2   2
#     4  12  25  46  74 104 143 183 232 285 339 409
#     4  12  26  48  72 102 136 185 233 288 347 417
#     4  12  25  46  74 105 141 185 229 283 345 411
#     4  12  27  46  71 102 144 182 232 282 351 411
#     4  12  26  48  68 101 139 187 227 288 348 417
#     4  12  28  46  72 102 141 180 233 289 351 413
#     4  12  26  46  72  99 140 183 233 287 348 411
#     4  12  27  46  69 107 138 183 233 286 343 411
#
# _framework density 22.485174000000001
#
# number of rings (size 3 to 8) (size 9 to 14) (size 15 to 20)
#    0.000    0.000    1.250    9.000    7.000    0.000 
#    0.000    0.000    0.000    0.000    0.000    0.000 
#    0.000    0.000    0.000    0.000    0.000    0.000 
#
# Total GULP energy -198594.521152 kJ/mol
# GULP energy per Si atom -12412.157572 kJ/mol
# Density = 2.243400 g / cm^3
# Si number density = 22.485174 Si / 1000 Ang^3
#
#
#
# Elastic Constant Matrix: (Units=GPa)
#
#
# Indices 1 2 3 4 5 6 
#
# 1 131.3998 28.2273 61.1091 0.0000 10.3249 0.0000
# 2 28.2273 115.4902 45.4089 0.0000 7.6518 0.0000
# 3 61.1091 45.4089 129.9728 0.0000 16.4570 0.0000
# 4 0.0000 0.0000 0.0000 38.7835 0.0000 -10.1065
# 5 10.3249 7.6518 16.4570 0.0000 42.2243 0.0000
# 6 0.0000 0.0000 0.0000 -10.1065 0.0000 42.7176
#
#
#
# Elastic Compliance Matrix: (Units=1/GPa)
#
#
# Indices 1 2 3 4 5 6 
#
# 1 0.009800 -0.000665 -0.004299 0.000000 -0.000600 0.000000
# 2 -0.000665 0.010092 -0.003158 0.000000 -0.000435 0.000000
# 3 -0.004299 -0.003158 0.011164 0.000000 -0.002728 0.000000
# 4 0.000000 0.000000 0.000000 0.027478 0.000000 0.006501
# 5 -0.000600 -0.000435 -0.002728 0.000000 0.024972 0.000000
# 6 0.000000 0.000000 0.000000 0.006501 0.000000 0.024948
#
#
# Mechanical properties :
#
#
# Convention : Reuss Voigt Hill
#
# Bulk Modulus (GPa) = 67.51715 71.81703 69.66709
# Shear Modulus (GPa) = 38.56989 40.88623 39.72806
#
# Velocity S-wave (km/s) = 4.14617 4.26885 4.20796
# Velocity P-wave (km/s) = 7.28104 7.50377 7.39324
#
# Compressibility (1/GPa) = 0.01481105
#
# Stress axis : x y z
#
# Youngs Moduli (GPa) = 102.04301 99.09034 89.57401
#
# Poissons Ratio (x) = 0.06590 0.38510
# Poissons Ratio (y) = 0.06786 0.28287
# Poissons Ratio (z) = 0.43870 0.31293
#
# Static dielectric constant tensor:
#      x y z
#    x 4.044380 0.000000 -0.034810 
#    y 0.000000 4.380440 0.000000 
#    z -0.034810 0.000000 4.152360 
# 
# 
# High freq. dielectric constant tensor:
#      x y z
#    x 1.898940 0.000000 0.001150 
#    y 0.000000 1.903450 0.000000 
#    z 0.001150 0.000000 1.901650 
# 
# From -- ./inp_files/15971.got.cif
#   From: 2010.03.12/outbox.cif.g09.slc.cpg/sg4_8_cif.got.tgz:15971.got - 2010.03.31 09:31:35.
