data_PCOD8047360
_publ_section_title
;
Structure prediction by ZEFSAII (Michael W. Deem and Ramdas Pophale) SiO2 
 PCOD8047360
Probable space group: P 21
;
_chemical_formula_sum "Si O2"
_cell_formula_units_Z 14
_cell_length_a 15.944831
_cell_length_b 5.301243
_cell_length_c 9.176669
_cell_angle_alpha 90.000000
_cell_angle_beta 40.448942
_cell_angle_gamma 90.000000
_cell_volume 503.238168
_symmetry_space_group_name_H-M "P 21"
_symmetry_group_IT_number 4
_symmetry_cell_setting 'monoclinic'
loop_
_space_group_symop_operation_xyz
x,y,z
-x,1/2+y,-z
loop_
_atom_site_type_symbol
_atom_site_label
_atom_site_fract_x
_atom_site_fract_y
_atom_site_fract_z
Si Si1 0.224119 0.050200 0.219159
Si Si2 0.928458 0.820662 0.300194
Si Si3 0.130951 0.561136 0.193911
Si Si4 0.348445 0.402916 0.712202
Si Si5 0.167675 0.020860 0.837181
Si Si6 0.250183 0.759322 0.455562
Si Si7 0.498415 0.154268 0.742660
O O1 0.153001 0.300854 0.254514
O O2 0.153326 0.796833 0.267644
O O3 0.225213 0.022816 0.397698
O O4 0.372734 0.023169 0.975539
O O5 0.980582 0.589216 0.337857
O O6 0.882747 0.742123 0.201361
O O7 0.822877 0.011411 0.513000
O O8 0.061761 0.974866 0.100965
O O9 0.227550 0.578153 0.924557
O O10 0.292932 0.120080 0.759118
O O11 0.450660 0.394765 0.710784
O O12 0.420404 0.475119 0.470765
O O13 0.203794 0.786416 0.684971
O O14 0.405719 0.726163 0.251589
#
# Coordination Sequence:
#
# PCOD8047360 Si02
#       7
#     2   2   2   2   2   2   2
#     4  11  29  52  77 111 163 213 271 319 396 486
#     4  12  24  47  78 115 161 201 270 337 407 474
#     4  11  26  51  79 112 154 213 265 337 396 473
#     4  11  22  43  78 117 156 204 265 328 405 468
#     4  12  24  44  77 115 156 205 261 334 406 475
#     4  12  28  47  77 118 157 214 265 327 409 484
#     4  11  23  44  74 118 157 208 261 334 391 482
#
# _framework density 27.819828000000001
#
# number of rings (size 3 to 8) (size 9 to 14) (size 15 to 20)
#    0.000    0.571    2.857    5.143    4.000    4.571 
#    2.571    0.000    0.000    0.000    0.000    0.000 
#    0.000    0.000    0.000    0.000    0.000    0.000 
#
# Total GULP energy -173550.317830 kJ/mol
# GULP energy per Si atom -12396.451274 kJ/mol
# Density = 2.775651 g / cm^3
# Si number density = 27.819828 Si / 1000 Ang^3
#
#
#
# Elastic Constant Matrix: (Units=GPa)
#
#
# Indices 1 2 3 4 5 6 
#
# 1 160.4669 68.0475 66.0466 0.0000 -29.4592 0.0000
# 2 68.0475 129.0015 15.6225 0.0000 -7.4285 0.0000
# 3 66.0466 15.6225 73.8493 0.0000 0.2687 0.0000
# 4 0.0000 0.0000 0.0000 45.9451 0.0000 4.5598
# 5 -29.4592 -7.4285 0.2687 0.0000 54.6592 0.0000
# 6 0.0000 0.0000 0.0000 4.5598 0.0000 49.0724
#
#
#
# Elastic Compliance Matrix: (Units=1/GPa)
#
#
# Indices 1 2 3 4 5 6 
#
# 1 0.015337 -0.006152 -0.012442 0.000000 0.007491 0.000000
# 2 -0.006152 0.010489 0.003290 0.000000 -0.001906 0.000000
# 3 -0.012442 0.003290 0.023996 0.000000 -0.006377 0.000000
# 4 0.000000 0.000000 0.000000 0.021968 0.000000 -0.002041
# 5 0.007491 -0.001906 -0.006377 0.000000 0.022105 0.000000
# 6 0.000000 0.000000 0.000000 -0.002041 0.000000 0.020568
#
#
# Mechanical properties :
#
#
# Convention : Reuss Voigt Hill
#
# Bulk Modulus (GPa) = 52.04744 73.63898 62.84321
# Shear Modulus (GPa) = 33.00864 44.17540 38.59202
#
# Velocity S-wave (km/s) = 3.44832 3.98918 3.72857
# Velocity P-wave (km/s) = 5.88251 6.90981 6.41675
#
# Compressibility (1/GPa) = 0.01921324
#
# Stress axis : x y z
#
# Youngs Moduli (GPa) = 65.20140 95.33999 41.67341
#
# Poissons Ratio (x) = 0.58653 0.51852
# Poissons Ratio (y) = 0.40112 -0.13711
# Poissons Ratio (z) = 0.81127 -0.31368
#
# Static dielectric constant tensor:
#      x y z
#    x 5.538520 0.000000 -0.069400 
#    y 0.000000 4.846260 0.000000 
#    z -0.069400 0.000000 5.327700 
# 
# 
# High freq. dielectric constant tensor:
#      x y z
#    x 2.146000 0.000000 -0.008750 
#    y 0.000000 2.115110 0.000000 
#    z -0.008750 0.000000 2.138700 
# 
# From -- ./inp_files/8994.got.cif
#   From: 2010.03.12/outbox.cif.g09.slc.cpg/sg4_5_cif.got.tgz:8994.got - 2010.03.31 09:31:35.
