data_PCOD8047398
_publ_section_title
;
Structure prediction by ZEFSAII (Michael W. Deem and Ramdas Pophale) SiO2 
 PCOD8047398
Probable space group: P 21
;
_chemical_formula_sum "Si O2"
_cell_formula_units_Z 16
_cell_length_a 11.312558
_cell_length_b 7.653563
_cell_length_c 11.588202
_cell_angle_alpha 90.000000
_cell_angle_beta 38.719835
_cell_angle_gamma 90.000000
_cell_volume 627.591039
_symmetry_space_group_name_H-M "P 21"
_symmetry_group_IT_number 4
_symmetry_cell_setting 'monoclinic'
loop_
_space_group_symop_operation_xyz
x,y,z
-x,1/2+y,-z
loop_
_atom_site_type_symbol
_atom_site_label
_atom_site_fract_x
_atom_site_fract_y
_atom_site_fract_z
Si Si1 0.427705 0.955080 0.632810
Si Si2 0.402461 0.100605 0.417766
Si Si3 0.397779 0.731627 0.054401
Si Si4 0.371160 0.391003 0.939606
Si Si5 0.061850 0.998753 0.323355
Si Si6 0.236868 0.281293 0.346637
Si Si7 0.858335 0.718457 0.064147
Si Si8 0.159424 0.510714 0.738016
O O1 0.453677 0.753381 0.648255
O O2 0.634435 0.050016 0.470313
O O3 0.333322 0.982109 0.577737
O O4 0.289258 0.055714 0.825941
O O5 0.509241 0.967195 0.255326
O O6 0.226323 0.181251 0.479631
O O7 0.213945 0.845984 0.212496
O O8 0.513385 0.732659 0.087511
O O9 0.334766 0.535141 0.068173
O O10 0.539223 0.810396 0.847480
O O11 0.179172 0.326320 0.025544
O O12 0.884894 0.955899 0.543095
O O13 0.996865 0.015766 0.242306
O O14 0.153620 0.175757 0.301258
O O15 0.828859 0.824737 0.205149
O O16 0.077070 0.653475 0.892036
#
# Coordination Sequence:
#
# PCOD8047398 Si02
#       8
#     2   2   2   2   2   2   2   2
#     4  12  24  49  77 104 151 192 242 307 364 436
#     4  11  22  48  73 107 144 191 247 295 366 437
#     4  11  25  46  73 100 146 188 247 293 367 436
#     4  11  25  47  74 108 140 199 243 297 373 427
#     4  12  26  47  71 105 146 186 244 301 359 428
#     4  11  26  46  69 107 140 191 241 298 363 428
#     4  12  29  46  76 110 148 192 249 299 369 437
#     4  12  29  47  71 115 143 193 247 300 369 433
#
# _framework density 25.494309000000001
#
# number of rings (size 3 to 8) (size 9 to 14) (size 15 to 20)
#    0.000    0.500    6.250    0.750    8.750    1.000 
#    2.250    0.000    0.000    0.000    0.000    0.000 
#    0.000    0.000    0.000    0.000    0.000    0.000 
#
# Total GULP energy -198326.942014 kJ/mol
# GULP energy per Si atom -12395.433876 kJ/mol
# Density = 2.543628 g / cm^3
# Si number density = 25.494309 Si / 1000 Ang^3
#
#
#
# Elastic Constant Matrix: (Units=GPa)
#
#
# Indices 1 2 3 4 5 6 
#
# 1 108.1439 1.3179 0.5143 0.0000 25.0780 0.0000
# 2 1.3179 67.4904 5.7039 0.0000 15.5497 0.0000
# 3 0.5143 5.7039 77.0535 0.0000 -5.3626 0.0000
# 4 0.0000 0.0000 0.0000 30.9717 0.0000 9.8703
# 5 25.0780 15.5497 -5.3626 0.0000 40.4079 0.0000
# 6 0.0000 0.0000 0.0000 9.8703 0.0000 51.1549
#
#
#
# Elastic Compliance Matrix: (Units=1/GPa)
#
#
# Indices 1 2 3 4 5 6 
#
# 1 0.010973 0.001577 -0.000713 0.000000 -0.007511 0.000000
# 2 0.001577 0.016697 -0.001778 0.000000 -0.007640 0.000000
# 3 -0.000713 -0.001778 0.013316 0.000000 0.002894 0.000000
# 4 0.000000 0.000000 0.000000 0.034403 0.000000 -0.006638
# 5 -0.007511 -0.007640 0.002894 0.000000 0.032733 0.000000
# 6 0.000000 0.000000 0.000000 -0.006638 0.000000 0.020829
#
#
# Mechanical properties :
#
#
# Convention : Reuss Voigt Hill
#
# Bulk Modulus (GPa) = 25.53843 29.75110 27.64477
# Shear Modulus (GPa) = 34.76289 40.85035 37.80662
#
# Velocity S-wave (km/s) = 3.69664 4.00726 3.85508
# Velocity P-wave (km/s) = 5.31594 5.75377 5.53918
#
# Compressibility (1/GPa) = 0.03915668
#
# Stress axis : x y z
#
# Youngs Moduli (GPa) = 91.13327 59.89252 75.09889
#
# Poissons Ratio (x) = -0.09442 0.05352
# Poissons Ratio (y) = -0.14368 0.13354
# Poissons Ratio (z) = 0.06495 0.10650
#
# Static dielectric constant tensor:
#      x y z
#    x 5.027930 0.000000 0.171230 
#    y 0.000000 4.671960 0.000000 
#    z 0.171230 0.000000 4.569490 
# 
# 
# High freq. dielectric constant tensor:
#      x y z
#    x 2.028120 0.000000 0.013170 
#    y 0.000000 2.008540 0.000000 
#    z 0.013170 0.000000 2.018380 
# 
# From -- ./inp_files/11988.got.cif
#   From: 2010.03.12/outbox.cif.g09.slc.cpg/sg4_6_cif.got.tgz:11988.got - 2010.03.31 09:31:35.
