data_PCOD8047752
_publ_section_title
;
Structure prediction by ZEFSAII (Michael W. Deem and Ramdas Pophale) SiO2 
 PCOD8047752
Probable space group: P 21
;
_chemical_formula_sum "Si O2"
_cell_formula_units_Z 8
_cell_length_a 7.816332
_cell_length_b 7.022628
_cell_length_c 6.938538
_cell_angle_alpha 90.000000
_cell_angle_beta 57.933738
_cell_angle_gamma 90.000000
_cell_volume 322.757890
_symmetry_space_group_name_H-M "P 21"
_symmetry_group_IT_number 4
_symmetry_cell_setting 'monoclinic'
loop_
_space_group_symop_operation_xyz
x,y,z
-x,1/2+y,-z
loop_
_atom_site_type_symbol
_atom_site_label
_atom_site_fract_x
_atom_site_fract_y
_atom_site_fract_z
Si Si1 0.133133 0.512530 0.506356
Si Si2 0.787198 0.584067 0.978326
Si Si3 0.576702 0.330351 0.807392
Si Si4 0.795847 0.587283 0.420631
O O1 0.323416 0.636839 0.331659
O O2 0.211698 0.310494 0.533361
O O3 0.007971 0.614003 0.754260
O O4 0.983007 0.483981 0.415087
O O5 0.681857 0.400199 0.941299
O O6 0.656752 0.776238 0.016004
O O7 0.809898 0.540887 0.188681
O O8 0.592907 0.494087 0.633730
#
# Coordination Sequence:
#
# PCOD8047752 Si02
#       4
#     2   2   2   2
#     4  11  25  50  72 109 150 189 254 300 357 454
#     4  11  28  47  77 105 149 198 240 302 379 420
#     4  11  28  47  71 111 151 189 251 304 355 457
#     4  11  25  48  74 109 148 194 243 306 367 437
#
# _framework density 24.786384000000002
#
# number of rings (size 3 to 8) (size 9 to 14) (size 15 to 20)
#    0.000    1.000    5.000    0.000   14.000    0.000 
#    0.000    0.000    0.000    0.000    0.000    0.000 
#    0.000    0.000    0.000    0.000    0.000    0.000 
#
# Total GULP energy -99211.426840 kJ/mol
# GULP energy per Si atom -12401.428355 kJ/mol
# Density = 2.472997 g / cm^3
# Si number density = 24.786384 Si / 1000 Ang^3
#
#
#
# Elastic Constant Matrix: (Units=GPa)
#
#
# Indices 1 2 3 4 5 6 
#
# 1 40.8683 29.1397 49.6731 0.0000 14.2624 0.0000
# 2 29.1397 126.2985 65.0968 0.0000 -3.5649 0.0000
# 3 49.6731 65.0968 147.3558 0.0000 45.5284 0.0000
# 4 0.0000 0.0000 0.0000 45.1347 0.0000 -5.1540
# 5 14.2624 -3.5649 45.5284 0.0000 57.5377 0.0000
# 6 0.0000 0.0000 0.0000 -5.1540 0.0000 39.8289
#
#
#
# Elastic Compliance Matrix: (Units=1/GPa)
#
#
# Indices 1 2 3 4 5 6 
#
# 1 0.042407 -0.003309 -0.012603 0.000000 -0.000744 0.000000
# 2 -0.003309 0.012072 -0.006224 0.000000 0.006493 0.000000
# 3 -0.012603 -0.006224 0.017125 0.000000 -0.010812 0.000000
# 4 0.000000 0.000000 0.000000 0.022488 0.000000 0.002910
# 5 -0.000744 0.006493 -0.010812 0.000000 0.026522 0.000000
# 6 0.000000 0.000000 0.000000 0.002910 0.000000 0.025484
#
#
# Mechanical properties :
#
#
# Convention : Reuss Voigt Hill
#
# Bulk Modulus (GPa) = 36.58810 66.92687 51.75748
# Shear Modulus (GPa) = 25.06500 39.87446 32.46973
#
# Velocity S-wave (km/s) = 3.18345 4.01524 3.62329
# Velocity P-wave (km/s) = 5.32033 6.96824 6.19928
#
# Compressibility (1/GPa) = 0.02733129
#
# Stress axis : x y z
#
# Youngs Moduli (GPa) = 23.58123 82.83364 58.39414
#
# Poissons Ratio (x) = 0.27410 0.73597
# Poissons Ratio (y) = 0.07803 0.36344
# Poissons Ratio (z) = 0.29721 0.51555
#
# Static dielectric constant tensor:
#      x y z
#    x 4.263200 0.000000 -0.098130 
#    y 0.000000 4.479840 0.000000 
#    z -0.098130 0.000000 4.818350 
# 
# 
# High freq. dielectric constant tensor:
#      x y z
#    x 1.961420 0.000000 -0.003490 
#    y 0.000000 1.994570 0.000000 
#    z -0.003490 0.000000 2.005680 
# 
# From -- ./inp_files/893.got.cif
#   From: 2010.03.12/outbox.cif.g09.slc.cpg/sg4_1_cif.got.tgz:893.got - 2010.03.31 09:31:35.
