data_PCOD8047542
_publ_section_title
;
Structure prediction by ZEFSAII (Michael W. Deem and Ramdas Pophale) SiO2 
 PCOD8047542
Probable space group: P 21
;
_chemical_formula_sum "Si O2"
_cell_formula_units_Z 14
_cell_length_a 9.593336
_cell_length_b 10.924621
_cell_length_c 8.945973
_cell_angle_alpha 90.000000
_cell_angle_beta 39.135777
_cell_angle_gamma 90.000000
_cell_volume 591.756818
_symmetry_space_group_name_H-M "P 21"
_symmetry_group_IT_number 4
_symmetry_cell_setting 'monoclinic'
loop_
_space_group_symop_operation_xyz
x,y,z
-x,1/2+y,-z
loop_
_atom_site_type_symbol
_atom_site_label
_atom_site_fract_x
_atom_site_fract_y
_atom_site_fract_z
Si Si1 0.197264 0.925070 0.118435
Si Si2 0.908128 0.255684 0.040826
Si Si3 0.337303 0.842475 0.484557
Si Si4 0.949906 0.926504 0.601179
Si Si5 0.357271 0.550760 0.897909
Si Si6 0.676422 0.669704 0.116724
Si Si7 0.597412 0.755135 0.858026
O O1 0.069906 0.994684 0.360986
O O2 0.040615 0.838011 0.147503
O O3 0.379687 0.838114 0.041416
O O4 0.310116 0.024967 0.917564
O O5 0.752959 0.343859 0.271454
O O6 0.785932 0.129881 0.097758
O O7 0.130503 0.219928 0.938739
O O8 0.441083 0.706066 0.383927
O O9 0.131977 0.857050 0.546185
O O10 0.530442 0.941848 0.290242
O O11 0.804066 0.831233 0.623383
O O12 0.797494 0.011039 0.833482
O O13 0.558473 0.630294 0.799686
O O14 0.681303 0.738635 0.956166
#
# Coordination Sequence:
#
# PCOD8047542 Si02
#       7
#     2   2   2   2   2   2   2
#     4  11  28  47  73 114 147 196 257 309 376 453
#     4  11  29  47  74 109 152 197 247 313 387 440
#     4  12  25  48  74 106 147 200 243 311 375 452
#     4  12  23  50  79 104 150 195 254 307 376 444
#     4  11  27  48  76 110 148 197 258 310 374 451
#     4  12  25  46  72 109 149 192 250 307 378 449
#     4  11  23  48  72 114 143 189 255 311 368 453
#
# _framework density 23.658366000000001
#
# number of rings (size 3 to 8) (size 9 to 14) (size 15 to 20)
#    0.000    0.571    4.286    1.714    6.000    9.143 
#    2.571    0.000    0.000    0.000    0.000    0.000 
#    0.000    0.000    0.000    0.000    0.000    0.000 
#
# Total GULP energy -173495.057873 kJ/mol
# GULP energy per Si atom -12392.504134 kJ/mol
# Density = 2.360452 g / cm^3
# Si number density = 23.658366 Si / 1000 Ang^3
#
#
#
# Elastic Constant Matrix: (Units=GPa)
#
#
# Indices 1 2 3 4 5 6 
#
# 1 147.6883 47.4270 23.3069 0.0000 -8.5372 0.0000
# 2 47.4270 103.6521 32.8822 0.0000 -0.8967 0.0000
# 3 23.3069 32.8822 86.3078 0.0000 14.0254 0.0000
# 4 0.0000 0.0000 0.0000 28.7682 0.0000 3.3113
# 5 -8.5372 -0.8967 14.0254 0.0000 30.0945 0.0000
# 6 0.0000 0.0000 0.0000 3.3113 0.0000 38.1273
#
#
#
# Elastic Compliance Matrix: (Units=1/GPa)
#
#
# Indices 1 2 3 4 5 6 
#
# 1 0.008219 -0.003278 -0.001443 0.000000 0.002907 0.000000
# 2 -0.003278 0.012452 -0.004077 0.000000 0.001341 0.000000
# 3 -0.001443 -0.004077 0.014731 0.000000 -0.007396 0.000000
# 4 0.000000 0.000000 0.000000 0.035112 0.000000 -0.003049
# 5 0.002907 0.001341 -0.007396 0.000000 0.037540 0.000000
# 6 0.000000 0.000000 0.000000 -0.003049 0.000000 0.026493
#
#
# Mechanical properties :
#
#
# Convention : Reuss Voigt Hill
#
# Bulk Modulus (GPa) = 56.15700 60.54227 58.34964
# Shear Modulus (GPa) = 31.62964 35.00014 33.31489
#
# Velocity S-wave (km/s) = 3.66038 3.85047 3.75662
# Velocity P-wave (km/s) = 6.45388 6.73898 6.59797
#
# Compressibility (1/GPa) = 0.01780722
#
# Stress axis : x y z
#
# Youngs Moduli (GPa) = 121.66333 80.30527 67.88232
#
# Poissons Ratio (x) = 0.26323 0.09796
# Poissons Ratio (y) = 0.39880 0.27676
# Poissons Ratio (z) = 0.17557 0.32741
#
# Static dielectric constant tensor:
#      x y z
#    x 4.384490 0.000000 -0.003120 
#    y 0.000000 4.328560 0.000000 
#    z -0.003120 0.000000 4.360160 
# 
# 
# High freq. dielectric constant tensor:
#      x y z
#    x 1.955100 0.000000 -0.002030 
#    y 0.000000 1.936390 0.000000 
#    z -0.002030 0.000000 1.933160 
# 
# From -- ./inp_files/1286.got.cif
#   From: 2010.03.12/outbox.cif.g09.slc.cpg/sg4_1_cif.got.tgz:1286.got - 2010.03.31 09:31:35.
