data_PCOD8047253
_publ_section_title
;
Structure prediction by ZEFSAII (Michael W. Deem and Ramdas Pophale) SiO2 
 PCOD8047253
Probable space group: P 21
;
_chemical_formula_sum "Si O2"
_cell_formula_units_Z 16
_cell_length_a 11.066502
_cell_length_b 9.449929
_cell_length_c 11.015323
_cell_angle_alpha 90.000000
_cell_angle_beta 141.437163
_cell_angle_gamma 90.000000
_cell_volume 718.098185
_symmetry_space_group_name_H-M "P 21"
_symmetry_group_IT_number 4
_symmetry_cell_setting 'monoclinic'
loop_
_space_group_symop_operation_xyz
x,y,z
-x,1/2+y,-z
loop_
_atom_site_type_symbol
_atom_site_label
_atom_site_fract_x
_atom_site_fract_y
_atom_site_fract_z
Si Si1 0.001891 0.179240 0.256131
Si Si2 0.216258 0.286313 0.201131
Si Si3 0.626484 0.547681 0.817538
Si Si4 0.865681 0.469822 0.228547
Si Si5 0.213743 0.679649 0.454782
Si Si6 0.382585 0.783279 0.347592
Si Si7 0.313046 0.534983 0.121385
Si Si8 0.262789 0.970341 0.605173
O O1 0.039957 0.246210 0.151538
O O2 0.943298 0.308902 0.296733
O O3 0.181253 0.092800 0.452616
O O4 0.823402 0.069611 0.100968
O O5 0.233588 0.179296 0.101942
O O6 0.406234 0.280417 0.431062
O O7 0.192897 0.442013 0.125165
O O8 0.402581 0.593895 0.647575
O O9 0.661932 0.440235 0.734004
O O10 0.687763 0.481685 0.994394
O O11 0.787439 0.514790 0.298002
O O12 0.036102 0.573592 0.322837
O O13 0.228476 0.736580 0.328301
O O14 0.174122 0.816455 0.507180
O O15 0.380266 0.681229 0.231647
O O16 0.505711 0.453750 0.229205
#
# Coordination Sequence:
#
# PCOD8047253 Si02
#       8
#     2   2   2   2   2   2   2   2
#     4  12  27  45  73 106 140 181 239 292 353 420
#     4  11  23  43  70 106 140 170 230 286 362 417
#     4  11  24  44  69 106 136 180 227 291 358 418
#     4  12  28  46  69 101 140 192 243 287 338 418
#     4  11  26  46  73 101 142 183 234 295 353 416
#     4  11  20  44  72  99 141 172 223 293 358 410
#     4  12  25  45  70 106 140 186 223 293 355 421
#     4  12  27  49  68  99 143 192 241 283 347 416
#
# _framework density 22.281075000000001
#
# number of rings (size 3 to 8) (size 9 to 14) (size 15 to 20)
#    0.000    0.500    5.000    4.500    5.250    2.000 
#    0.000    0.000    0.000    0.000    0.000    0.000 
#    0.000    0.000    0.000    0.000    0.000    0.000 
#
# Total GULP energy -198480.601090 kJ/mol
# GULP energy per Si atom -12405.037568 kJ/mol
# Density = 2.223036 g / cm^3
# Si number density = 22.281075 Si / 1000 Ang^3
#
#
#
# Elastic Constant Matrix: (Units=GPa)
#
#
# Indices 1 2 3 4 5 6 
#
# 1 82.7423 23.8527 42.4550 0.0000 -7.8113 0.0000
# 2 23.8527 112.3085 42.1607 0.0000 0.4114 0.0000
# 3 42.4550 42.1607 80.6591 0.0000 -1.4538 0.0000
# 4 0.0000 0.0000 0.0000 30.7902 0.0000 1.2792
# 5 -7.8113 0.4114 -1.4538 0.0000 25.4439 0.0000
# 6 0.0000 0.0000 0.0000 1.2792 0.0000 33.0924
#
#
#
# Elastic Compliance Matrix: (Units=1/GPa)
#
#
# Indices 1 2 3 4 5 6 
#
# 1 0.017124 -0.000377 -0.008730 0.000000 0.004764 0.000000
# 2 -0.000377 0.011093 -0.005611 0.000000 -0.000616 0.000000
# 3 -0.008730 -0.005611 0.019900 0.000000 -0.001452 0.000000
# 4 0.000000 0.000000 0.000000 0.032530 0.000000 -0.001257
# 5 0.004764 -0.000616 -0.001452 0.000000 0.040692 0.000000
# 6 0.000000 0.000000 0.000000 -0.001257 0.000000 0.030267
#
#
# Mechanical properties :
#
#
# Convention : Reuss Voigt Hill
#
# Bulk Modulus (GPa) = 53.53318 54.73851 54.13584
# Shear Modulus (GPa) = 26.69984 29.01476 27.85730
#
# Velocity S-wave (km/s) = 3.46543 3.61254 3.53975
# Velocity P-wave (km/s) = 6.33172 6.48237 6.40749
#
# Compressibility (1/GPa) = 0.01868001
#
# Stress axis : x y z
#
# Youngs Moduli (GPa) = 58.39908 90.14952 50.25229
#
# Poissons Ratio (x) = 0.03398 0.43871
# Poissons Ratio (y) = 0.02201 0.28196
# Poissons Ratio (z) = 0.50983 0.50582
#
# Static dielectric constant tensor:
#      x y z
#    x 3.894190 0.000000 -0.005150 
#    y 0.000000 4.160440 0.000000 
#    z -0.005150 0.000000 3.995090 
# 
# 
# High freq. dielectric constant tensor:
#      x y z
#    x 1.858400 0.000000 0.004310 
#    y 0.000000 1.894540 0.000000 
#    z 0.004310 0.000000 1.881790 
# 
# From -- ./inp_files/12140.got.cif
#   From: 2010.03.12/outbox.cif.g09.slc.cpg/sg4_7_cif.got.tgz:12140.got - 2010.03.31 09:31:35.
