data_PCOD8047254
_publ_section_title
;
Structure prediction by ZEFSAII (Michael W. Deem and Ramdas Pophale) SiO2 
 PCOD8047254
Probable space group: P 21
;
_chemical_formula_sum "Si O2"
_cell_formula_units_Z 16
_cell_length_a 11.326954
_cell_length_b 11.468145
_cell_length_c 8.461217
_cell_angle_alpha 90.000000
_cell_angle_beta 41.212015
_cell_angle_gamma 90.000000
_cell_volume 724.142219
_symmetry_space_group_name_H-M "P 21"
_symmetry_group_IT_number 4
_symmetry_cell_setting 'monoclinic'
loop_
_space_group_symop_operation_xyz
x,y,z
-x,1/2+y,-z
loop_
_atom_site_type_symbol
_atom_site_label
_atom_site_fract_x
_atom_site_fract_y
_atom_site_fract_z
Si Si1 0.417522 0.630530 0.299958
Si Si2 0.146498 0.233946 0.818852
Si Si3 0.875179 0.150445 0.664707
Si Si4 0.666509 0.365683 0.435887
Si Si5 0.841799 0.354222 0.947126
Si Si6 0.664203 0.954117 0.346051
Si Si7 0.829788 0.617962 0.872209
Si Si8 0.987821 0.514404 0.199653
O O1 0.296108 0.619577 0.267661
O O2 0.378751 0.745629 0.436561
O O3 0.378949 0.521266 0.450345
O O4 0.622165 0.630229 0.035953
O O5 0.323255 0.314101 0.629476
O O6 0.142658 0.123315 0.708458
O O7 0.993530 0.323299 0.920903
O O8 0.118948 0.188989 0.023684
O O9 0.825520 0.261634 0.822577
O O10 0.050302 0.177639 0.383703
O O11 0.923527 0.035871 0.719159
O O12 0.500977 0.459222 0.615056
O O13 0.850103 0.407142 0.335959
O O14 0.673284 0.353756 0.236223
O O15 0.880279 0.481862 0.838461
O O16 0.847548 0.003924 0.087785
#
# Coordination Sequence:
#
# PCOD8047254 Si02
#       8
#     2   2   2   2   2   2   2   2
#     4  12  26  47  71 109 146 186 233 298 357 423
#     4  11  20  44  74 105 130 182 240 289 345 410
#     4  11  28  45  69 101 148 190 228 283 369 433
#     4  12  24  45  77 102 141 180 245 302 342 411
#     4  11  23  46  72 100 143 187 231 297 350 413
#     4  12  24  42  78 106 132 186 242 298 349 409
#     4  12  24  47  70 105 148 186 237 292 356 421
#     4  11  25  46  69 104 138 181 238 293 348 422
#
# _framework density 22.095108
#
# number of rings (size 3 to 8) (size 9 to 14) (size 15 to 20)
#    0.000    0.500    5.000    3.750    1.750    1.000 
#    4.500    0.000    0.000    0.000    0.000    0.000 
#    0.000    0.000    0.000    0.000    0.000    0.000 
#
# Total GULP energy -198291.191141 kJ/mol
# GULP energy per Si atom -12393.199446 kJ/mol
# Density = 2.204482 g / cm^3
# Si number density = 22.095108 Si / 1000 Ang^3
#
#
#
# Elastic Constant Matrix: (Units=GPa)
#
#
# Indices 1 2 3 4 5 6 
#
# 1 157.0788 55.5143 57.2211 0.0000 0.7972 0.0000
# 2 55.5143 111.6093 41.4689 0.0000 4.4840 0.0000
# 3 57.2211 41.4689 78.1995 0.0000 -12.0143 0.0000
# 4 0.0000 0.0000 0.0000 24.7759 0.0000 -0.8881
# 5 0.7972 4.4840 -12.0143 0.0000 35.1251 0.0000
# 6 0.0000 0.0000 0.0000 -0.8881 0.0000 42.5911
#
#
#
# Elastic Compliance Matrix: (Units=1/GPa)
#
#
# Indices 1 2 3 4 5 6 
#
# 1 0.009363 -0.002398 -0.005874 0.000000 -0.001916 0.000000
# 2 -0.002398 0.012231 -0.005239 0.000000 -0.003299 0.000000
# 3 -0.005874 -0.005239 0.021096 0.000000 0.008018 0.000000
# 4 0.000000 0.000000 0.000000 0.040392 0.000000 0.000842
# 5 -0.001916 -0.003299 0.008018 0.000000 0.031677 0.000000
# 6 0.000000 0.000000 0.000000 0.000842 0.000000 0.023497
#
#
# Mechanical properties :
#
#
# Convention : Reuss Voigt Hill
#
# Bulk Modulus (GPa) = 63.81787 72.81071 68.31429
# Shear Modulus (GPa) = 29.32549 33.34397 31.33473
#
# Velocity S-wave (km/s) = 3.64708 3.88894 3.76995
# Velocity P-wave (km/s) = 6.83234 7.29315 7.06650
#
# Compressibility (1/GPa) = 0.01566959
#
# Stress axis : x y z
#
# Youngs Moduli (GPa) = 106.80101 81.75671 47.40235
#
# Poissons Ratio (x) = 0.19603 0.27845
# Poissons Ratio (y) = 0.25608 0.24832
# Poissons Ratio (z) = 0.62737 0.42829
#
# Static dielectric constant tensor:
#      x y z
#    x 4.495280 0.000000 -0.487020 
#    y 0.000000 4.210400 0.000000 
#    z -0.487020 0.000000 4.284770 
# 
# 
# High freq. dielectric constant tensor:
#      x y z
#    x 1.879700 0.000000 -0.016810 
#    y 0.000000 1.878430 0.000000 
#    z -0.016810 0.000000 1.863040 
# 
# From -- ./inp_files/8147.got.cif
#   From: 2010.03.12/outbox.cif.g09.slc.cpg/sg4_5_cif.got.tgz:8147.got - 2010.03.31 09:31:35.
