data_PCOD8047568
_publ_section_title
;
Structure prediction by ZEFSAII (Michael W. Deem and Ramdas Pophale) SiO2 
 PCOD8047568
Probable space group: P 21
;
_chemical_formula_sum "Si O2"
_cell_formula_units_Z 12
_cell_length_a 6.138498
_cell_length_b 17.238490
_cell_length_c 7.410116
_cell_angle_alpha 90.000000
_cell_angle_beta 41.796472
_cell_angle_gamma 90.000000
_cell_volume 522.610037
_symmetry_space_group_name_H-M "P 21"
_symmetry_group_IT_number 4
_symmetry_cell_setting 'monoclinic'
loop_
_space_group_symop_operation_xyz
x,y,z
-x,1/2+y,-z
loop_
_atom_site_type_symbol
_atom_site_label
_atom_site_fract_x
_atom_site_fract_y
_atom_site_fract_z
Si Si1 0.692088 0.862810 0.683821
Si Si2 0.617823 0.293435 0.797066
Si Si3 0.958429 0.109814 0.121707
Si Si4 0.942622 0.144983 0.740727
Si Si5 0.561905 0.247479 0.433472
Si Si6 0.340956 0.541389 0.358538
O O1 0.436901 0.815016 0.716564
O O2 0.059236 0.846597 0.395806
O O3 0.828160 0.104048 0.997019
O O4 0.604568 0.952138 0.717075
O O5 0.346699 0.337832 0.083258
O O6 0.683974 0.210700 0.846438
O O7 0.487826 0.284226 0.673963
O O8 0.906986 0.199971 0.221026
O O9 0.748308 0.051428 0.375889
O O10 0.337715 0.088909 0.895884
O O11 0.950377 0.078642 0.581688
O O12 0.298714 0.181636 0.545797
#
# Coordination Sequence:
#
# PCOD8047568 Si02
#       6
#     2   2   2   2   2   2
#     4  11  27  46  67 104 142 180 227 286 351 405
#     4  11  24  43  71  96 136 181 235 281 337 410
#     4  12  24  43  70 102 133 183 232 285 332 416
#     4  11  24  42  72 102 133 183 232 283 342 404
#     4  11  25  44  76 100 134 185 241 280 334 414
#     4  12  28  44  70 104 146 176 227 291 350 403
#
# _framework density 22.961670999999999
#
# number of rings (size 3 to 8) (size 9 to 14) (size 15 to 20)
#    0.000    0.667    5.000    1.000    7.000    2.667 
#    0.000    0.000    0.000    0.000    0.000    0.000 
#    0.000    0.000    0.000    0.000    0.000    0.000 
#
# Total GULP energy -148842.274082 kJ/mol
# GULP energy per Si atom -12403.522840 kJ/mol
# Density = 2.290941 g / cm^3
# Si number density = 22.961671 Si / 1000 Ang^3
#
#
#
# Elastic Constant Matrix: (Units=GPa)
#
#
# Indices 1 2 3 4 5 6 
#
# 1 100.6857 68.1955 34.9164 0.0000 24.6896 0.0000
# 2 68.1955 137.8419 47.3741 0.0000 12.9326 0.0000
# 3 34.9164 47.3741 108.6803 0.0000 21.6991 0.0000
# 4 0.0000 0.0000 0.0000 33.9391 0.0000 7.9994
# 5 24.6896 12.9326 21.6991 0.0000 36.8119 0.0000
# 6 0.0000 0.0000 0.0000 7.9994 0.0000 29.5806
#
#
#
# Elastic Compliance Matrix: (Units=1/GPa)
#
#
# Indices 1 2 3 4 5 6 
#
# 1 0.017401 -0.007609 -0.000541 0.000000 -0.008679 0.000000
# 2 -0.007609 0.011887 -0.003312 0.000000 0.002879 0.000000
# 3 -0.000541 -0.003312 0.011917 0.000000 -0.005498 0.000000
# 4 0.000000 0.000000 0.000000 0.031470 0.000000 -0.008510
# 5 -0.008679 0.002879 -0.005498 0.000000 0.035215 0.000000
# 6 0.000000 0.000000 0.000000 -0.008510 0.000000 0.036107
#
#
# Mechanical properties :
#
#
# Convention : Reuss Voigt Hill
#
# Bulk Modulus (GPa) = 54.70105 72.02000 63.36053
# Shear Modulus (GPa) = 28.89912 33.18112 31.04012
#
# Velocity S-wave (km/s) = 3.55150 3.80553 3.68070
# Velocity P-wave (km/s) = 6.37903 7.12340 6.76146
#
# Compressibility (1/GPa) = 0.01828119
#
# Stress axis : x y z
#
# Youngs Moduli (GPa) = 57.46708 84.12414 83.91682
#
# Poissons Ratio (x) = 0.64009 0.04541
# Poissons Ratio (y) = 0.43726 0.27793
# Poissons Ratio (z) = 0.03109 0.27862
#
# Static dielectric constant tensor:
#      x y z
#    x 4.238320 0.000000 0.225180 
#    y 0.000000 4.024470 0.000000 
#    z 0.225180 0.000000 4.178620 
# 
# 
# High freq. dielectric constant tensor:
#      x y z
#    x 1.908300 0.000000 0.014360 
#    y 0.000000 1.891490 0.000000 
#    z 0.014360 0.000000 1.916290 
# 
# From -- ./inp_files/4653.got.cif
#   From: 2010.03.12/outbox.cif.g09.slc.cpg/sg4_3_cif.got.tgz:4653.got - 2010.03.31 09:31:35.
