data_PCOD8047227
_publ_section_title
;
Structure prediction by ZEFSAII (Michael W. Deem and Ramdas Pophale) SiO2 
 PCOD8047227
Probable space group: P 21
;
_chemical_formula_sum "Si O2"
_cell_formula_units_Z 16
_cell_length_a 11.527910
_cell_length_b 5.371300
_cell_length_c 13.769022
_cell_angle_alpha 90.000000
_cell_angle_beta 50.030307
_cell_angle_gamma 90.000000
_cell_volume 653.400864
_symmetry_space_group_name_H-M "P 21"
_symmetry_group_IT_number 4
_symmetry_cell_setting 'monoclinic'
loop_
_space_group_symop_operation_xyz
x,y,z
-x,1/2+y,-z
loop_
_atom_site_type_symbol
_atom_site_label
_atom_site_fract_x
_atom_site_fract_y
_atom_site_fract_z
Si Si1 0.711958 0.594880 0.034907
Si Si2 0.259543 0.566512 0.740760
Si Si3 0.778027 0.709045 0.612917
Si Si4 0.172658 0.592265 0.088583
Si Si5 0.724930 0.105785 0.480757
Si Si6 0.006730 0.428926 0.358714
Si Si7 0.483177 0.881309 0.273768
Si Si8 0.105339 0.071475 0.877494
O O1 0.553361 0.643229 0.177797
O O2 0.855064 0.574547 0.030473
O O3 0.715437 0.333853 0.973056
O O4 0.731502 0.836026 0.954538
O O5 0.333500 0.534068 0.594376
O O6 0.379905 0.559821 0.764802
O O7 0.176803 0.831749 0.786898
O O8 0.153345 0.327402 0.801859
O O9 0.835104 0.838807 0.680068
O O10 0.641089 0.529615 0.722971
O O11 0.922638 0.572742 0.489671
O O12 0.712030 0.885432 0.565125
O O13 0.054734 0.605310 0.242350
O O14 0.076920 0.570449 0.038752
O O15 0.605207 0.308462 0.581284
O O16 0.897922 0.206735 0.380989
#
# Coordination Sequence:
#
# PCOD8047227 Si02
#       8
#     2   2   2   2   2   2   2   2
#     4  11  25  43  68 100 145 194 236 286 352 438
#     4  11  24  40  69 106 145 180 229 292 361 442
#     4  11  24  45  74 102 146 181 240 310 370 444
#     4  12  24  42  73 103 143 182 245 301 345 423
#     4  11  24  42  71 102 146 182 237 305 366 445
#     4  11  24  44  73 112 132 187 245 309 379 412
#     4  10  27  42  68 104 145 199 234 287 370 448
#     4  11  22  42  66 103 144 185 230 292 361 420
#
# _framework density 24.487264
#
# number of rings (size 3 to 8) (size 9 to 14) (size 15 to 20)
#    0.000    1.000    2.500    3.750   10.500    0.000 
#    0.000    0.000    2.750    0.000    0.000    0.000 
#    0.000    0.000    0.000    0.000    0.000    0.000 
#
# Total GULP energy -198333.725816 kJ/mol
# GULP energy per Si atom -12395.857864 kJ/mol
# Density = 2.443153 g / cm^3
# Si number density = 24.487264 Si / 1000 Ang^3
#
#
#
# Elastic Constant Matrix: (Units=GPa)
#
#
# Indices 1 2 3 4 5 6 
#
# 1 54.7211 29.1299 25.9545 0.0000 -8.9748 0.0000
# 2 29.1299 157.7364 53.5498 0.0000 -7.9110 0.0000
# 3 25.9545 53.5498 96.1836 0.0000 -13.8658 0.0000
# 4 0.0000 0.0000 0.0000 44.1745 0.0000 -8.8257
# 5 -8.9748 -7.9110 -13.8658 0.0000 24.2507 0.0000
# 6 0.0000 0.0000 0.0000 -8.8257 0.0000 25.3612
#
#
#
# Elastic Compliance Matrix: (Units=1/GPa)
#
#
# Indices 1 2 3 4 5 6 
#
# 1 0.022315 -0.002553 -0.003847 0.000000 0.005226 0.000000
# 2 -0.002553 0.008109 -0.003902 0.000000 -0.000531 0.000000
# 3 -0.003847 -0.003902 0.014406 0.000000 0.005540 0.000000
# 4 0.000000 0.000000 0.000000 0.024329 0.000000 0.008467
# 5 0.005226 -0.000531 0.005540 0.000000 0.046165 0.000000
# 6 0.000000 0.000000 0.000000 0.008467 0.000000 0.042377
#
#
# Mechanical properties :
#
#
# Convention : Reuss Voigt Hill
#
# Bulk Modulus (GPa) = 41.27759 58.43442 49.85600
# Shear Modulus (GPa) = 26.82672 32.09107 29.45890
#
# Velocity S-wave (km/s) = 3.31348 3.62404 3.47223
# Velocity P-wave (km/s) = 5.61536 6.43634 6.03982
#
# Compressibility (1/GPa) = 0.02422622
#
# Stress axis : x y z
#
# Youngs Moduli (GPa) = 44.81235 123.31376 69.41454
#
# Poissons Ratio (x) = 0.31482 0.26703
# Poissons Ratio (y) = 0.11441 0.27089
# Poissons Ratio (z) = 0.17239 0.48123
#
# Static dielectric constant tensor:
#      x y z
#    x 4.099390 0.000000 -0.043220 
#    y 0.000000 4.661400 0.000000 
#    z -0.043220 0.000000 4.435380 
# 
# 
# High freq. dielectric constant tensor:
#      x y z
#    x 1.944190 0.000000 -0.002400 
#    y 0.000000 1.984800 0.000000 
#    z -0.002400 0.000000 1.973120 
# 
# From -- ./inp_files/13834.got.cif
#   From: 2010.03.12/outbox.cif.g09.slc.cpg/sg4_7_cif.got.tgz:13834.got - 2010.03.31 09:31:35.
