data_PCOD8047755
_publ_section_title
;
Structure prediction by ZEFSAII (Michael W. Deem and Ramdas Pophale) SiO2 
 PCOD8047755
Probable space group: P 21
;
_chemical_formula_sum "Si O2"
_cell_formula_units_Z 16
_cell_length_a 9.328389
_cell_length_b 7.564672
_cell_length_c 11.735229
_cell_angle_alpha 90.000000
_cell_angle_beta 50.300890
_cell_angle_gamma 90.000000
_cell_volume 637.156107
_symmetry_space_group_name_H-M "P 21"
_symmetry_group_IT_number 4
_symmetry_cell_setting 'monoclinic'
loop_
_space_group_symop_operation_xyz
x,y,z
-x,1/2+y,-z
loop_
_atom_site_type_symbol
_atom_site_label
_atom_site_fract_x
_atom_site_fract_y
_atom_site_fract_z
Si Si1 0.196255 0.312220 0.661005
Si Si2 0.940080 0.226756 0.597561
Si Si3 0.435681 0.876243 0.291864
Si Si4 0.190954 0.348599 0.283934
Si Si5 0.808985 0.801167 0.976052
Si Si6 0.063185 0.680186 0.021418
Si Si7 0.441812 0.960378 0.528956
Si Si8 0.545691 0.281926 0.235730
O O1 0.327805 0.139851 0.574497
O O2 0.331772 0.483777 0.599630
O O3 0.064199 0.341806 0.620425
O O4 0.081168 0.298136 0.834358
O O5 0.743046 0.324219 0.690084
O O6 0.057220 0.213357 0.420542
O O7 0.917427 0.034139 0.664116
O O8 0.398469 0.825185 0.443636
O O9 0.465206 0.085465 0.281223
O O10 0.615151 0.781797 0.143908
O O11 0.224855 0.268829 0.140893
O O12 0.390217 0.389260 0.243431
O O13 0.962965 0.664014 0.947916
O O14 0.906327 0.990842 0.939527
O O15 0.257198 0.785631 0.927747
O O16 0.408575 0.865741 0.665704
#
# Coordination Sequence:
#
# PCOD8047755 Si02
#       8
#     2   2   2   2   2   2   2   2
#     4  12  25  47  73 111 143 199 247 310 373 438
#     4  12  27  48  74 108 154 195 253 308 367 452
#     4  11  26  45  73 109 148 199 251 306 372 445
#     4  12  26  48  72 110 149 201 246 311 375 442
#     4  11  26  48  73 107 151 193 253 308 376 444
#     4  11  25  49  72 108 147 193 247 312 367 451
#     4  12  23  47  76 105 150 190 254 313 364 436
#     4  11  26  46  71 108 152 196 249 308 376 444
#
# _framework density 25.111585000000002
#
# number of rings (size 3 to 8) (size 9 to 14) (size 15 to 20)
#    0.000    0.500    5.000    2.250    5.250    1.000 
#    6.750    0.000    0.000    0.000    0.000    0.000 
#    0.000    0.000    0.000    0.000    0.000    0.000 
#
# Total GULP energy -198331.669465 kJ/mol
# GULP energy per Si atom -12395.729342 kJ/mol
# Density = 2.505443 g / cm^3
# Si number density = 25.111585 Si / 1000 Ang^3
#
#
#
# Elastic Constant Matrix: (Units=GPa)
#
#
# Indices 1 2 3 4 5 6 
#
# 1 169.5280 21.1902 56.1363 0.0000 -8.2027 0.0000
# 2 21.1902 13.4362 13.8188 0.0000 -9.5433 0.0000
# 3 56.1363 13.8188 129.6718 0.0000 -1.5100 0.0000
# 4 0.0000 0.0000 0.0000 30.5962 0.0000 -8.5626
# 5 -8.2027 -9.5433 -1.5100 0.0000 52.5538 0.0000
# 6 0.0000 0.0000 0.0000 -8.5626 0.0000 39.8535
#
#
#
# Elastic Compliance Matrix: (Units=1/GPa)
#
#
# Indices 1 2 3 4 5 6 
#
# 1 0.007970 -0.010737 -0.002315 0.000000 -0.000772 0.000000
# 2 -0.010737 0.111666 -0.007037 0.000000 0.018399 0.000000
# 3 -0.002315 -0.007037 0.009448 0.000000 -0.001368 0.000000
# 4 0.000000 0.000000 0.000000 0.034775 0.000000 0.007471
# 5 -0.000772 0.018399 -0.001368 0.000000 0.022209 0.000000
# 6 0.000000 0.000000 0.000000 0.007471 0.000000 0.026697
#
#
# Mechanical properties :
#
#
# Convention : Reuss Voigt Hill
#
# Bulk Modulus (GPa) = 11.24804 54.99185 33.11994
# Shear Modulus (GPa) = 17.69416 39.36674 28.53045
#
# Velocity S-wave (km/s) = 2.65735 3.96368 3.37433
# Velocity P-wave (km/s) = 3.72885 6.54937 5.32909
#
# Compressibility (1/GPa) = 0.08890441
#
# Stress axis : x y z
#
# Youngs Moduli (GPa) = 125.46976 8.95531 105.84206
#
# Poissons Ratio (x) = 0.09615 0.24503
# Poissons Ratio (y) = 1.34718 0.74486
# Poissons Ratio (z) = 0.29047 0.06302
#
# Static dielectric constant tensor:
#      x y z
#    x 4.896850 0.000000 -0.074910 
#    y 0.000000 4.235550 0.000000 
#    z -0.074910 0.000000 4.803560 
# 
# 
# High freq. dielectric constant tensor:
#      x y z
#    x 2.021790 0.000000 -0.007530 
#    y 0.000000 1.977620 0.000000 
#    z -0.007530 0.000000 2.013130 
# 
# From -- ./inp_files/11027.got.cif
#   From: 2010.03.12/outbox.cif.g09.slc.cpg/sg4_6_cif.got.tgz:11027.got - 2010.03.31 09:31:35.
