data_PCOD8047522
_publ_section_title
;
Structure prediction by ZEFSAII (Michael W. Deem and Ramdas Pophale) SiO2 
 PCOD8047522
Probable space group: P 21
;
_chemical_formula_sum "Si O2"
_cell_formula_units_Z 16
_cell_length_a 9.442134
_cell_length_b 11.100845
_cell_length_c 9.232683
_cell_angle_alpha 90.000000
_cell_angle_beta 134.873456
_cell_angle_gamma 90.000000
_cell_volume 685.797972
_symmetry_space_group_name_H-M "P 21"
_symmetry_group_IT_number 4
_symmetry_cell_setting 'monoclinic'
loop_
_space_group_symop_operation_xyz
x,y,z
-x,1/2+y,-z
loop_
_atom_site_type_symbol
_atom_site_label
_atom_site_fract_x
_atom_site_fract_y
_atom_site_fract_z
Si Si1 0.934876 0.449160 0.423017
Si Si2 0.269667 0.430170 0.050735
Si Si3 0.267566 0.590218 0.779419
Si Si4 0.307492 0.157897 0.006211
Si Si5 0.304796 0.829268 0.980326
Si Si6 0.339769 0.028026 0.539912
Si Si7 0.260671 0.250340 0.667742
Si Si8 0.152756 0.973892 0.111352
O O1 0.774750 0.443426 0.174386
O O2 0.807144 0.438190 0.478311
O O3 0.077865 0.568746 0.534568
O O4 0.070794 0.331862 0.501246
O O5 0.318016 0.289723 0.083907
O O6 0.431910 0.501485 0.260163
O O7 0.269289 0.473234 0.884160
O O8 0.063899 0.459587 0.979882
O O9 0.468235 0.602567 0.830095
O O10 0.230081 0.705265 0.855376
O O11 0.158794 0.080601 0.997796
O O12 0.227127 0.162616 0.782310
O O13 0.544631 0.832943 0.161897
O O14 0.216317 0.848738 0.077801
O O15 0.293460 0.165883 0.551600
O O16 0.310846 0.007492 0.349513
#
# Coordination Sequence:
#
# PCOD8047522 Si02
#       8
#     2   2   2   2   2   2   2   2
#     4  12  24  42  76 111 141 196 262 311 372 458
#     4  12  26  48  70 106 155 194 248 321 377 445
#     4  11  23  48  78 108 146 198 261 310 373 453
#     4  11  24  45  78 103 148 195 253 317 371 447
#     4  11  26  46  77 104 154 198 252 320 377 448
#     4  12  25  44  71 104 150 202 247 313 379 458
#     4  11  23  46  77 104 145 200 255 315 381 447
#     4  12  29  45  69 112 153 195 254 307 392 450
#
# _framework density 23.330486000000001
#
# number of rings (size 3 to 8) (size 9 to 14) (size 15 to 20)
#    0.000    0.500    5.000    3.750    3.500    3.000 
#    0.000    1.250    0.000    0.000    0.000    0.000 
#    0.000    0.000    0.000    0.000    0.000    0.000 
#
# Total GULP energy -198432.387578 kJ/mol
# GULP energy per Si atom -12402.024224 kJ/mol
# Density = 2.327738 g / cm^3
# Si number density = 23.330486 Si / 1000 Ang^3
#
#
#
# Elastic Constant Matrix: (Units=GPa)
#
#
# Indices 1 2 3 4 5 6 
#
# 1 138.6255 50.9163 50.4543 0.0000 6.2780 0.0000
# 2 50.9163 92.3154 17.7134 0.0000 -3.4747 0.0000
# 3 50.4543 17.7134 111.7927 0.0000 6.6935 0.0000
# 4 0.0000 0.0000 0.0000 24.1978 0.0000 1.2440
# 5 6.2780 -3.4747 6.6935 0.0000 40.0628 0.0000
# 6 0.0000 0.0000 0.0000 1.2440 0.0000 45.9001
#
#
#
# Elastic Compliance Matrix: (Units=1/GPa)
#
#
# Indices 1 2 3 4 5 6 
#
# 1 0.010579 -0.005147 -0.003872 0.000000 -0.001457 0.000000
# 2 -0.005147 0.013741 0.000026 0.000000 0.001994 0.000000
# 3 -0.003872 0.000026 0.010760 0.000000 -0.001189 0.000000
# 4 0.000000 0.000000 0.000000 0.041384 0.000000 -0.001122
# 5 -0.001457 0.001994 -0.001189 0.000000 0.025561 0.000000
# 6 0.000000 0.000000 0.000000 -0.001122 0.000000 0.021817
#
#
# Mechanical properties :
#
#
# Convention : Reuss Voigt Hill
#
# Bulk Modulus (GPa) = 58.49655 64.54461 61.52058
# Shear Modulus (GPa) = 33.89259 36.94211 35.41735
#
# Velocity S-wave (km/s) = 3.81559 3.98355 3.90047
# Velocity P-wave (km/s) = 6.67376 6.99168 6.83457
#
# Compressibility (1/GPa) = 0.01709502
#
# Stress axis : x y z
#
# Youngs Moduli (GPa) = 94.52406 72.77381 92.94026
#
# Poissons Ratio (x) = 0.37456 0.35985
# Poissons Ratio (y) = 0.48651 -0.00244
# Poissons Ratio (z) = 0.36599 -0.00191
#
# Static dielectric constant tensor:
#      x y z
#    x 4.141870 0.000000 0.074160 
#    y 0.000000 4.384410 0.000000 
#    z 0.074160 0.000000 4.392300 
# 
# 
# High freq. dielectric constant tensor:
#      x y z
#    x 1.915810 0.000000 0.016550 
#    y 0.000000 1.941240 0.000000 
#    z 0.016550 0.000000 1.929340 
# 
# From -- ./inp_files/6479.got.cif
#   From: 2010.03.12/outbox.cif.g09.slc.cpg/sg4_4_cif.got.tgz:6479.got - 2010.03.31 09:31:35.
