data_PCOD8047904
_publ_section_title
;
Structure prediction by ZEFSAII (Michael W. Deem and Ramdas Pophale) SiO2 
 PCOD8047904
Probable space group: P 21
;
_chemical_formula_sum "Si O2"
_cell_formula_units_Z 14
_cell_length_a 12.396194
_cell_length_b 9.709776
_cell_length_c 8.894217
_cell_angle_alpha 90.000000
_cell_angle_beta 146.058002
_cell_angle_gamma 90.000000
_cell_volume 597.742907
_symmetry_space_group_name_H-M "P 21"
_symmetry_group_IT_number 4
_symmetry_cell_setting 'monoclinic'
loop_
_space_group_symop_operation_xyz
x,y,z
-x,1/2+y,-z
loop_
_atom_site_type_symbol
_atom_site_label
_atom_site_fract_x
_atom_site_fract_y
_atom_site_fract_z
Si Si1 0.497060 0.837320 0.516613
Si Si2 0.288903 0.508286 0.002923
Si Si3 0.885343 0.384906 0.479073
Si Si4 0.168585 0.802777 0.927357
Si Si5 0.247339 0.355243 0.450798
Si Si6 0.354591 0.667933 0.611189
Si Si7 0.402253 0.127657 0.841413
O O1 0.691494 0.807572 0.646440
O O2 0.410359 0.706625 0.505018
O O3 0.544174 0.950991 0.695444
O O4 0.339778 0.887142 0.209695
O O5 0.203789 0.641157 0.985225
O O6 0.116166 0.401035 0.767774
O O7 0.402176 0.548366 0.982085
O O8 0.843293 0.341938 0.260330
O O9 0.806049 0.270625 0.502911
O O10 0.786056 0.532783 0.390922
O O11 0.977662 0.830955 0.798921
O O12 0.274925 0.515093 0.515508
O O13 0.372416 0.265965 0.712039
O O14 0.553644 0.675799 0.937610
#
# Coordination Sequence:
#
# PCOD8047904 Si02
#       7
#     2   2   2   2   2   2   2
#     4  12  28  50  74 109 160 203 254 315 396 459
#     4  12  26  49  78 113 154 206 259 320 385 460
#     4  12  27  48  82 115 152 206 264 320 378 467
#     4  12  27  51  76 116 157 206 261 319 390 462
#     4  12  28  49  76 110 160 201 253 325 384 466
#     4  12  26  48  79 116 147 205 263 314 392 459
#     4  12  24  51  79 111 158 201 260 323 385 455
#
# _framework density 23.42144
#
# number of rings (size 3 to 8) (size 9 to 14) (size 15 to 20)
#    0.000    0.000    5.714    3.429    4.000    0.000 
#    7.714    0.000    0.000    0.000    0.000    0.000 
#    0.000    0.000    0.000    0.000    0.000    0.000 
#
# Total GULP energy -173642.076574 kJ/mol
# GULP energy per Si atom -12403.005470 kJ/mol
# Density = 2.336813 g / cm^3
# Si number density = 23.421440 Si / 1000 Ang^3
#
#
#
# Elastic Constant Matrix: (Units=GPa)
#
#
# Indices 1 2 3 4 5 6 
#
# 1 139.1122 28.9803 39.2882 0.0000 0.6435 0.0000
# 2 28.9803 99.9348 46.1485 0.0000 0.2023 0.0000
# 3 39.2882 46.1485 118.0513 0.0000 -8.1260 0.0000
# 4 0.0000 0.0000 0.0000 40.3089 0.0000 0.7444
# 5 0.6435 0.2023 -8.1260 0.0000 40.8624 0.0000
# 6 0.0000 0.0000 0.0000 0.7444 0.0000 18.8306
#
#
#
# Elastic Compliance Matrix: (Units=1/GPa)
#
#
# Indices 1 2 3 4 5 6 
#
# 1 0.008092 -0.001323 -0.002215 0.000000 -0.000561 0.000000
# 2 -0.001323 0.012469 -0.004499 0.000000 -0.000936 0.000000
# 3 -0.002215 -0.004499 0.011123 0.000000 0.002269 0.000000
# 4 0.000000 0.000000 0.000000 0.024827 0.000000 -0.000981
# 5 -0.000561 -0.000936 0.002269 0.000000 0.024937 0.000000
# 6 0.000000 0.000000 0.000000 -0.000981 0.000000 0.053144
#
#
# Mechanical properties :
#
#
# Convention : Reuss Voigt Hill
#
# Bulk Modulus (GPa) = 64.05330 65.10362 64.57846
# Shear Modulus (GPa) = 32.07842 36.17913 34.12877
#
# Velocity S-wave (km/s) = 3.70485 3.93453 3.82142
# Velocity P-wave (km/s) = 6.76082 6.96403 6.86318
#
# Compressibility (1/GPa) = 0.01561200
#
# Stress axis : x y z
#
# Youngs Moduli (GPa) = 123.57790 80.19587 89.90586
#
# Poissons Ratio (x) = 0.10609 0.19911
# Poissons Ratio (y) = 0.16347 0.40446
# Poissons Ratio (z) = 0.27368 0.36078
#
# Static dielectric constant tensor:
#      x y z
#    x 4.463840 0.000000 -0.008440 
#    y 0.000000 4.306290 0.000000 
#    z -0.008440 0.000000 4.336170 
# 
# 
# High freq. dielectric constant tensor:
#      x y z
#    x 1.942270 0.000000 -0.001860 
#    y 0.000000 1.929160 0.000000 
#    z -0.001860 0.000000 1.930160 
# 
# From -- ./inp_files/7480.got.cif
#   From: 2010.03.12/outbox.cif.g09.slc.cpg/sg4_4_cif.got.tgz:7480.got - 2010.03.31 09:31:35.
