data_PCOD8047810
_publ_section_title
;
Structure prediction by ZEFSAII (Michael W. Deem and Ramdas Pophale) SiO2 
 PCOD8047810
Probable space group: P 21
;
_chemical_formula_sum "Si O2"
_cell_formula_units_Z 16
_cell_length_a 10.446864
_cell_length_b 5.550590
_cell_length_c 26.661314
_cell_angle_alpha 90.000000
_cell_angle_beta 26.174623
_cell_angle_gamma 90.000000
_cell_volume 681.949116
_symmetry_space_group_name_H-M "P 21"
_symmetry_group_IT_number 4
_symmetry_cell_setting 'monoclinic'
loop_
_space_group_symop_operation_xyz
x,y,z
-x,1/2+y,-z
loop_
_atom_site_type_symbol
_atom_site_label
_atom_site_fract_x
_atom_site_fract_y
_atom_site_fract_z
Si Si1 0.141992 0.289310 0.509973
Si Si2 0.409172 0.488469 0.322064
Si Si3 0.203139 0.478322 0.227071
Si Si4 0.317205 0.298252 0.904365
Si Si5 0.345391 0.159793 0.541443
Si Si6 0.486618 0.858262 0.974593
Si Si7 0.774604 0.638635 0.695685
Si Si8 0.991375 0.161968 0.924020
O O1 0.383026 0.334617 0.382472
O O2 0.278283 0.121669 0.505583
O O3 0.049064 0.540733 0.568231
O O4 0.856990 0.175319 0.584669
O O5 0.404262 0.326082 0.274571
O O6 0.722150 0.614621 0.209854
O O7 0.524450 0.557649 0.132176
O O8 0.229888 0.391166 0.160405
O O9 0.099321 0.257374 0.298269
O O10 0.956269 0.682377 0.320757
O O11 0.558001 0.429356 0.786589
O O12 0.053355 0.259816 0.958417
O O13 0.205869 0.427217 0.994428
O O14 0.496271 0.417584 0.495957
O O15 0.532748 0.601773 0.985863
O O16 0.194677 0.845893 0.043883
#
# Coordination Sequence:
#
# PCOD8047810 Si02
#       8
#     2   2   2   2   2   2   2   2
#     4  12  25  45  73 108 155 196 246 308 400 438
#     4  12  25  44  72 112 151 190 239 327 392 446
#     4  12  25  50  78 104 150 196 253 319 380 447
#     4  12  23  43  77 115 140 185 249 334 381 434
#     4  12  28  48  78 112 147 205 269 305 350 450
#     4  12  30  52  74 108 156 209 247 299 385 459
#     4  12  20  43  76 109 142 195 243 302 397 452
#     4  12  24  45  74 114 145 188 260 312 373 454
#
# _framework density 23.462160000000001
#
# number of rings (size 3 to 8) (size 9 to 14) (size 15 to 20)
#    0.000    0.000    7.500    3.000    0.000    2.000 
#    0.000    5.000    0.000    0.000    0.000    0.000 
#    0.000    0.000    0.000    0.000    0.000    0.000 
#
# Total GULP energy -198367.064291 kJ/mol
# GULP energy per Si atom -12397.941518 kJ/mol
# Density = 2.340876 g / cm^3
# Si number density = 23.462160 Si / 1000 Ang^3
#
#
#
# Elastic Constant Matrix: (Units=GPa)
#
#
# Indices 1 2 3 4 5 6 
#
# 1 104.6598 44.9922 55.6463 0.0000 13.1655 0.0000
# 2 44.9922 104.1552 27.2005 0.0000 6.0627 0.0000
# 3 55.6463 27.2005 118.1554 -0.0002 20.9002 0.0002
# 4 0.0000 0.0000 -0.0002 42.3451 0.0000 9.5381
# 5 13.1655 6.0627 20.9002 0.0000 47.0935 0.0000
# 6 0.0000 0.0000 0.0002 9.5381 0.0000 40.2981
#
#
#
# Elastic Compliance Matrix: (Units=1/GPa)
#
#
# Indices 1 2 3 4 5 6 
#
# 1 0.014776 -0.004845 -0.005668 0.000000 -0.000992 0.000000
# 2 -0.004845 0.011808 -0.000442 0.000000 0.000030 0.000000
# 3 -0.005668 -0.000442 0.011877 0.000000 -0.003629 0.000000
# 4 0.000000 0.000000 0.000000 0.024945 0.000000 -0.005904
# 5 -0.000992 0.000030 -0.003629 0.000000 0.023118 0.000000
# 6 0.000000 0.000000 0.000000 -0.005904 0.000000 0.026213
#
#
# Mechanical properties :
#
#
# Convention : Reuss Voigt Hill
#
# Bulk Modulus (GPa) = 60.42162 64.73872 62.58017
# Shear Modulus (GPa) = 35.67280 39.22277 37.44779
#
# Velocity S-wave (km/s) = 3.90351 4.09313 3.99945
# Velocity P-wave (km/s) = 6.79156 7.07044 6.93240
#
# Compressibility (1/GPa) = 0.01655037
#
# Stress axis : x y z
#
# Youngs Moduli (GPa) = 67.67773 84.69180 84.19913
#
# Poissons Ratio (x) = 0.41032 0.47725
# Poissons Ratio (y) = 0.32789 0.03721
# Poissons Ratio (z) = 0.38361 0.03742
#
# Static dielectric constant tensor:
#      x y z
#    x 4.407680 0.000000 -0.024460 
#    y 0.000000 4.267800 0.000000 
#    z -0.024460 0.000000 4.403860 
# 
# 
# High freq. dielectric constant tensor:
#      x y z
#    x 1.922500 0.000000 0.008690 
#    y 0.000000 1.932160 0.000000 
#    z 0.008690 0.000000 1.935030 
# 
# From -- ./inp_files/16045.got.cif
#   From: 2010.03.12/outbox.cif.g09.slc.cpg/sg4_9_cif.got.tgz:16045.got - 2010.03.31 09:31:35.
