data_PCOD8047993
_publ_section_title
;
Structure prediction by ZEFSAII (Michael W. Deem and Ramdas Pophale) SiO2 
 PCOD8047993
Probable space group: P 21
;
_chemical_formula_sum "Si O2"
_cell_formula_units_Z 16
_cell_length_a 12.411684
_cell_length_b 5.267866
_cell_length_c 12.457758
_cell_angle_alpha 90.000000
_cell_angle_beta 129.255225
_cell_angle_gamma 90.000000
_cell_volume 630.716477
_symmetry_space_group_name_H-M "P 21"
_symmetry_group_IT_number 4
_symmetry_cell_setting 'monoclinic'
loop_
_space_group_symop_operation_xyz
x,y,z
-x,1/2+y,-z
loop_
_atom_site_type_symbol
_atom_site_label
_atom_site_fract_x
_atom_site_fract_y
_atom_site_fract_z
Si Si1 0.962914 0.789790 0.534688
Si Si2 0.923198 0.554028 0.918385
Si Si3 0.236261 0.637817 0.505869
Si Si4 0.339145 0.824360 0.154315
Si Si5 0.993973 0.948548 0.261753
Si Si6 0.439648 0.657348 0.807340
Si Si7 0.581720 0.127460 0.576329
Si Si8 0.692934 0.981162 0.056738
O O1 0.034392 0.714588 0.693912
O O2 0.954950 0.535586 0.457715
O O3 0.803067 0.875381 0.457311
O O4 0.768036 0.538819 0.869938
O O5 0.918482 0.492634 0.790038
O O6 0.978740 0.838987 0.967154
O O7 0.090678 0.784531 0.401311
O O8 0.341078 0.785933 0.653942
O O9 0.293355 0.566153 0.425447
O O10 0.364775 0.623883 0.267219
O O11 0.488825 0.929092 0.213205
O O12 0.270831 0.701676 0.005690
O O13 0.838993 0.823321 0.151159
O O14 0.346728 0.573649 0.849623
O O15 0.562442 0.833496 0.926708
O O16 0.530880 0.408150 0.511177
#
# Coordination Sequence:
#
# PCOD8047993 Si02
#       8
#     2   2   2   2   2   2   2   2
#     4  12  28  53  80 125 166 212 270 352 424 498
#     4  12  28  49  80 121 168 217 278 349 417 504
#     4  12  28  51  85 125 166 219 283 352 427 497
#     4  12  26  49  80 115 160 224 276 336 420 502
#     4  12  28  51  85 125 166 219 283 352 427 497
#     4  12  27  53  80 117 163 221 279 344 418 513
#     4  12  28  49  80 121 168 217 278 349 417 504
#     4  12  27  53  80 117 163 221 279 344 418 513
#
# _framework density 25.367974
#
# number of rings (size 3 to 8) (size 9 to 14) (size 15 to 20)
#    0.000    0.000    6.250    2.250    3.500    2.000 
#    4.500    0.000    0.000    0.000    0.000    0.000 
#    0.000    0.000    0.000    0.000    0.000    0.000 
#
# Total GULP energy -198277.836231 kJ/mol
# GULP energy per Si atom -12392.364764 kJ/mol
# Density = 2.531024 g / cm^3
# Si number density = 25.367974 Si / 1000 Ang^3
#
#
#
# Elastic Constant Matrix: (Units=GPa)
#
#
# Indices 1 2 3 4 5 6 
#
# 1 182.3238 24.4450 58.8104 0.0000 -20.9980 0.0000
# 2 24.4450 71.9611 22.6599 0.0000 -4.4569 0.0000
# 3 58.8104 22.6599 142.4998 0.0000 -3.3558 0.0000
# 4 0.0000 0.0000 0.0000 30.8887 0.0000 20.4950
# 5 -20.9980 -4.4569 -3.3558 0.0000 57.8226 0.0000
# 6 0.0000 0.0000 0.0000 20.4950 0.0000 -4.8494
#
#
#
# Elastic Compliance Matrix: (Units=1/GPa)
#
#
# Indices 1 2 3 4 5 6 
#
# 1 0.006729 -0.001360 -0.002509 0.000000 0.002193 0.000000
# 2 -0.001360 0.014961 -0.001805 0.000000 0.000555 0.000000
# 3 -0.002509 -0.001805 0.008327 0.000000 -0.000567 0.000000
# 4 0.000000 0.000000 0.000000 0.008510 0.000000 0.035966
# 5 0.002193 0.000555 -0.000567 0.000000 0.018101 0.000000
# 6 0.000000 0.000000 0.000000 0.035966 0.000000 -0.054206
#
#
# Mechanical properties :
#
#
# Convention : Reuss Voigt Hill
#
# Bulk Modulus (GPa) = 53.56453 67.62393 60.59423
# Shear Modulus (GPa) = 250.09814 36.16366 143.13090
#
# Velocity S-wave (km/s) = 9.93993 3.77976 7.51960
# Velocity P-wave (km/s) = 12.36516 6.76490 9.96647
#
# Compressibility (1/GPa) = 0.01866907
#
# Stress axis : x y z
#
# Youngs Moduli (GPa) = 148.60989 66.84046 120.09487
#
# Poissons Ratio (x) = 0.09089 0.30134
# Poissons Ratio (y) = 0.20209 0.21674
# Poissons Ratio (z) = 0.37289 0.12063
#
# Static dielectric constant tensor:
#      x y z
#    x 5.092640 0.000000 -0.138310 
#    y 0.000000 4.538710 0.000000 
#    z -0.138310 0.000000 5.005500 
# 
# 
# High freq. dielectric constant tensor:
#      x y z
#    x 2.048030 0.000000 -0.015460 
#    y 0.000000 1.986550 0.000000 
#    z -0.015460 0.000000 2.023160 
# 
# From -- ./inp_files/11660.got.cif
#   From: 2010.03.12/outbox.cif.g09.slc.cpg/sg4_6_cif.got.tgz:11660.got - 2010.03.31 09:31:35.
