data_PCOD8047456
_publ_section_title
;
Structure prediction by ZEFSAII (Michael W. Deem and Ramdas Pophale) SiO2 
 PCOD8047456
Probable space group: P 21
;
_chemical_formula_sum "Si O2"
_cell_formula_units_Z 16
_cell_length_a 7.506116
_cell_length_b 8.254663
_cell_length_c 18.379711
_cell_angle_alpha 90.000000
_cell_angle_beta 39.046419
_cell_angle_gamma 90.000000
_cell_volume 717.396478
_symmetry_space_group_name_H-M "P 21"
_symmetry_group_IT_number 4
_symmetry_cell_setting 'monoclinic'
loop_
_space_group_symop_operation_xyz
x,y,z
-x,1/2+y,-z
loop_
_atom_site_type_symbol
_atom_site_label
_atom_site_fract_x
_atom_site_fract_y
_atom_site_fract_z
Si Si1 0.164001 0.575280 0.504460
Si Si2 0.765221 0.528405 0.271390
Si Si3 0.245371 0.048365 0.989660
Si Si4 0.910847 0.922128 0.965683
Si Si5 0.182360 0.668515 0.235382
Si Si6 0.186031 0.194783 0.513029
Si Si7 0.811952 0.212897 0.347535
Si Si8 0.306863 0.997775 0.132854
O O1 0.453042 0.604343 0.368097
O O2 0.148130 0.387875 0.531464
O O3 0.156387 0.694400 0.576002
O O4 0.902744 0.626866 0.537102
O O5 0.797549 0.397075 0.326129
O O6 0.833912 0.463902 0.169786
O O7 0.985202 0.664223 0.226143
O O8 0.555336 0.044466 0.854239
O O9 0.160768 0.235516 0.025570
O O10 0.255634 0.957744 0.064065
O O11 0.020745 0.950801 0.012469
O O12 0.641301 0.040498 0.035583
O O13 0.013848 0.620881 0.361469
O O14 0.276510 0.854748 0.201615
O O15 0.509370 0.134011 0.420960
O O16 0.088156 0.137894 0.222294
#
# Coordination Sequence:
#
# PCOD8047456 Si02
#       8
#     2   2   2   2   2   2   2   2
#     4  11  25  43  67  97 132 172 215 268 326 386
#     4  11  23  43  70  94 129 172 218 269 321 385
#     4  11  25  43  67  97 132 172 215 268 326 386
#     4  11  25  43  66  99 131 170 219 266 325 385
#     4  11  23  43  70  94 129 172 218 269 321 385
#     4  11  25  43  66  99 131 170 219 266 325 385
#     4  11  24  45  66  94 132 173 215 266 325 382
#     4  11  24  45  66  94 132 173 215 266 325 382
#
# _framework density 22.302869999999999
#
# number of rings (size 3 to 8) (size 9 to 14) (size 15 to 20)
#    0.000    1.000    5.000    0.750    3.500    3.000 
#    0.000    0.000    0.000    0.000    0.000    0.000 
#    0.000    0.000    0.000    0.000    0.000    0.000 
#
# Total GULP energy -198362.348112 kJ/mol
# GULP energy per Si atom -12397.646757 kJ/mol
# Density = 2.225211 g / cm^3
# Si number density = 22.302870 Si / 1000 Ang^3
#
#
#
# Elastic Constant Matrix: (Units=GPa)
#
#
# Indices 1 2 3 4 5 6 
#
# 1 147.9779 1.1611 41.9342 0.0000 2.9116 0.0000
# 2 1.1611 24.8761 6.5420 0.0000 -1.8600 0.0000
# 3 41.9342 6.5420 121.0784 0.0000 -1.4909 0.0000
# 4 0.0000 0.0000 0.0000 20.5442 0.0000 1.6084
# 5 2.9116 -1.8600 -1.4909 0.0000 32.4893 0.0000
# 6 0.0000 0.0000 0.0000 1.6084 0.0000 34.6782
#
#
#
# Elastic Compliance Matrix: (Units=1/GPa)
#
#
# Indices 1 2 3 4 5 6 
#
# 1 0.007516 0.000282 -0.002628 0.000000 -0.000778 0.000000
# 2 0.000282 0.040952 -0.002283 0.000000 0.002214 0.000000
# 3 -0.002628 -0.002283 0.009299 0.000000 0.000532 0.000000
# 4 0.000000 0.000000 0.000000 0.048853 0.000000 -0.002266
# 5 -0.000778 0.002214 0.000532 0.000000 0.031000 0.000000
# 6 0.000000 0.000000 0.000000 -0.002266 0.000000 0.028942
#
#
# Mechanical properties :
#
#
# Convention : Reuss Voigt Hill
#
# Bulk Modulus (GPa) = 20.61465 43.68967 32.15216
# Shear Modulus (GPa) = 26.04318 33.82868 29.93593
#
# Velocity S-wave (km/s) = 3.42088 3.89882 3.66764
# Velocity P-wave (km/s) = 4.98661 6.31661 5.69060
#
# Compressibility (1/GPa) = 0.04850920
#
# Stress axis : x y z
#
# Youngs Moduli (GPa) = 133.05819 24.41876 107.53727
#
# Poissons Ratio (x) = -0.00689 0.28258
# Poissons Ratio (y) = -0.03753 0.24552
# Poissons Ratio (z) = 0.34964 0.05575
#
# Static dielectric constant tensor:
#      x y z
#    x 4.035250 0.000000 -0.272980 
#    y 0.000000 3.683840 0.000000 
#    z -0.272980 0.000000 4.256240 
# 
# 
# High freq. dielectric constant tensor:
#      x y z
#    x 1.884010 0.000000 -0.006660 
#    y 0.000000 1.856470 0.000000 
#    z -0.006660 0.000000 1.895000 
# 
# From -- ./inp_files/2577.got.cif
#   From: 2010.03.12/outbox.cif.g09.slc.cpg/sg4_2_cif.got.tgz:2577.got - 2010.03.31 09:31:35.
