data_PCOD8047668
_publ_section_title
;
Structure prediction by ZEFSAII (Michael W. Deem and Ramdas Pophale) SiO2 
 PCOD8047668
Probable space group: P 21
;
_chemical_formula_sum "Si O2"
_cell_formula_units_Z 14
_cell_length_a 13.826663
_cell_length_b 9.119408
_cell_length_c 9.034997
_cell_angle_alpha 90.000000
_cell_angle_beta 30.366207
_cell_angle_gamma 90.000000
_cell_volume 575.910035
_symmetry_space_group_name_H-M "P 21"
_symmetry_group_IT_number 4
_symmetry_cell_setting 'monoclinic'
loop_
_space_group_symop_operation_xyz
x,y,z
-x,1/2+y,-z
loop_
_atom_site_type_symbol
_atom_site_label
_atom_site_fract_x
_atom_site_fract_y
_atom_site_fract_z
Si Si1 0.613419 0.051010 0.389937
Si Si2 0.413195 0.051431 0.921586
Si Si3 0.551661 0.008610 0.042815
Si Si4 0.839671 0.781527 0.602843
Si Si5 0.122863 0.314707 0.792483
Si Si6 0.267515 0.753442 0.021663
Si Si7 0.746585 0.492221 0.334878
O O1 0.529932 0.143441 0.642337
O O2 0.440298 0.984096 0.522349
O O3 0.747026 0.920703 0.277728
O O4 0.735683 0.165186 0.129629
O O5 0.556124 0.000319 0.860176
O O6 0.241373 0.126590 0.235327
O O7 0.350816 0.915742 0.899041
O O8 0.342737 0.964731 0.383155
O O9 0.601329 0.171159 0.032211
O O10 0.725505 0.899262 0.854939
O O11 0.814350 0.811223 0.461940
O O12 0.057512 0.774863 0.364028
O O13 0.147049 0.149715 0.822899
O O14 0.901105 0.366250 0.094135
#
# Coordination Sequence:
#
# PCOD8047668 Si02
#       7
#     2   2   2   2   2   2   2
#     4  11  25  46  78 108 156 205 258 321 391 473
#     4  12  24  48  75 108 153 202 256 321 393 459
#     4  11  24  48  75 113 155 204 252 321 408 458
#     4  12  25  45  75 108 152 200 257 325 384 464
#     4  12  25  50  76 115 157 205 268 321 392 472
#     4  11  26  48  75 114 152 200 263 318 391 479
#     4  11  27  49  78 114 155 212 262 329 395 473
#
# _framework density 24.309355
#
# number of rings (size 3 to 8) (size 9 to 14) (size 15 to 20)
#    0.000    0.571    2.857    5.143    0.000    8.000 
#    5.143    0.000    0.000    0.000    0.000    0.000 
#    0.000    0.000    0.000    0.000    0.000    0.000 
#
# Total GULP energy -173488.150119 kJ/mol
# GULP energy per Si atom -12392.010723 kJ/mol
# Density = 2.425403 g / cm^3
# Si number density = 24.309355 Si / 1000 Ang^3
#
#
#
# Elastic Constant Matrix: (Units=GPa)
#
#
# Indices 1 2 3 4 5 6 
#
# 1 50.0284 15.3693 36.2945 0.0000 -0.3764 0.0000
# 2 15.3693 97.5411 51.8243 0.0000 1.3416 0.0000
# 3 36.2945 51.8243 155.9871 0.0000 -3.5467 0.0000
# 4 0.0000 0.0000 0.0000 48.2591 0.0000 -0.9875
# 5 -0.3764 1.3416 -3.5467 0.0000 45.8889 0.0000
# 6 0.0000 0.0000 0.0000 -0.9875 0.0000 33.7171
#
#
#
# Elastic Compliance Matrix: (Units=1/GPa)
#
#
# Indices 1 2 3 4 5 6 
#
# 1 0.024129 -0.000989 -0.005290 0.000000 -0.000182 0.000000
# 2 -0.000989 0.012512 -0.003942 0.000000 -0.000679 0.000000
# 3 -0.005290 -0.003942 0.008969 0.000000 0.000765 0.000000
# 4 0.000000 0.000000 0.000000 0.020734 0.000000 0.000607
# 5 -0.000182 -0.000679 0.000765 0.000000 0.021869 0.000000
# 6 0.000000 0.000000 0.000000 0.000607 0.000000 0.029676
#
#
# Mechanical properties :
#
#
# Convention : Reuss Voigt Hill
#
# Bulk Modulus (GPa) = 39.73380 56.72584 48.22982
# Shear Modulus (GPa) = 34.07864 38.91092 36.49478
#
# Velocity S-wave (km/s) = 3.74822 4.00516 3.87882
# Velocity P-wave (km/s) = 5.92560 6.69134 6.32008
#
# Compressibility (1/GPa) = 0.02516749
#
# Stress axis : x y z
#
# Youngs Moduli (GPa) = 41.44443 79.92496 111.49875
#
# Poissons Ratio (x) = 0.07904 0.58980
# Poissons Ratio (y) = 0.04098 0.43955
# Poissons Ratio (z) = 0.21923 0.31508
#
# Static dielectric constant tensor:
#      x y z
#    x 4.402640 0.000000 -0.007150 
#    y 0.000000 4.373180 0.000000 
#    z -0.007150 0.000000 4.669520 
# 
# 
# High freq. dielectric constant tensor:
#      x y z
#    x 1.966120 0.000000 0.001570 
#    y 0.000000 1.962900 0.000000 
#    z 0.001570 0.000000 1.985630 
# 
# From -- ./inp_files/9108.got.cif
#   From: 2010.03.12/outbox.cif.g09.slc.cpg/sg4_5_cif.got.tgz:9108.got - 2010.03.31 09:31:35.
