data_PCOD8047256
_publ_section_title
;
Structure prediction by ZEFSAII (Michael W. Deem and Ramdas Pophale) SiO2 
 PCOD8047256
Probable space group: P 21
;
_chemical_formula_sum "Si O2"
_cell_formula_units_Z 16
_cell_length_a 9.760257
_cell_length_b 16.446727
_cell_length_c 9.759828
_cell_angle_alpha 90.000000
_cell_angle_beta 150.525630
_cell_angle_gamma 90.000000
_cell_volume 770.864722
_symmetry_space_group_name_H-M "P 21"
_symmetry_group_IT_number 4
_symmetry_cell_setting 'monoclinic'
loop_
_space_group_symop_operation_xyz
x,y,z
-x,1/2+y,-z
loop_
_atom_site_type_symbol
_atom_site_label
_atom_site_fract_x
_atom_site_fract_y
_atom_site_fract_z
Si Si1 0.167262 0.801820 0.538516
Si Si2 0.066881 0.337772 0.148277
Si Si3 0.985567 0.666020 0.982187
Si Si4 0.351766 0.887794 0.433112
Si Si5 0.517637 0.559550 0.514257
Si Si6 0.521263 0.027072 0.200390
Si Si7 0.038482 0.923759 0.667194
Si Si8 0.299586 0.198508 0.978710
O O1 0.175720 0.851998 0.404839
O O2 0.067987 0.862801 0.567950
O O3 0.953641 0.725743 0.340447
O O4 0.471620 0.768509 0.836281
O O5 0.380816 0.331401 0.363221
O O6 0.095178 0.373556 0.324361
O O7 0.932696 0.247232 0.029704
O O8 0.863194 0.394172 0.880847
O O9 0.249230 0.612755 0.250468
O O10 0.819808 0.692523 0.972934
O O11 0.787262 0.612807 0.712426
O O12 0.470342 0.978329 0.567342
O O13 0.526980 0.533064 0.680109
O O14 0.840390 0.999834 0.453557
O O15 0.441163 0.112789 0.058776
O O16 0.336214 0.957069 0.971581
#
# Coordination Sequence:
#
# PCOD8047256 Si02
#       8
#     2   2   2   2   2   2   2   2
#     4  12  24  42  64  97 130 169 211 262 320 382
#     4  12  22  40  63  93 127 163 213 262 318 370
#     4  11  21  36  62  92 124 159 211 263 311 364
#     4  12  22  40  63  93 127 163 213 262 318 370
#     4  11  21  36  62  92 124 159 211 263 311 364
#     4  11  22  40  66  94 123 167 218 263 309 383
#     4  12  24  42  64  97 130 169 211 262 320 382
#     4  11  22  40  66  94 123 167 218 263 309 383
#
# _framework density 20.755911999999999
#
# number of rings (size 3 to 8) (size 9 to 14) (size 15 to 20)
#    0.000    0.500    5.000    6.000    0.000    0.000 
#    0.000    3.750    0.000    0.000    0.000    0.000 
#    0.000    0.000    0.000    0.000    0.000    0.000 
#
# Total GULP energy -198422.158444 kJ/mol
# GULP energy per Si atom -12401.384903 kJ/mol
# Density = 2.070867 g / cm^3
# Si number density = 20.755912 Si / 1000 Ang^3
#
#
#
# Elastic Constant Matrix: (Units=GPa)
#
#
# Indices 1 2 3 4 5 6 
#
# 1 48.2041 41.1630 57.6620 0.0000 -40.2325 0.0000
# 2 41.1630 124.6597 32.7566 0.0000 -1.9516 0.0000
# 3 57.6620 32.7566 88.5513 0.0000 52.4275 0.0000
# 4 0.0000 0.0000 0.0000 55.3752 0.0000 4.0149
# 5 -40.2325 -1.9516 52.4275 0.0000 -48.0044 0.0000
# 6 0.0000 0.0000 0.0000 4.0149 0.0000 41.3154
#
#
#
# Elastic Compliance Matrix: (Units=1/GPa)
#
#
# Indices 1 2 3 4 5 6 
#
# 1 0.014889 -0.005024 -0.000346 0.000000 -0.012652 0.000000
# 2 -0.005024 0.010148 -0.001659 0.000000 0.001986 0.000000
# 3 -0.000346 -0.001659 0.007239 0.000000 0.008264 0.000000
# 4 0.000000 0.000000 0.000000 0.018187 0.000000 -0.001767
# 5 -0.012652 0.001986 0.008264 0.000000 -0.001283 0.000000
# 6 0.000000 0.000000 0.000000 -0.001767 0.000000 0.024376
#
#
# Mechanical properties :
#
#
# Convention : Reuss Voigt Hill
#
# Bulk Modulus (GPa) = 54.88682 58.28646 56.58664
# Shear Modulus (GPa) = 53.37056 18.39280 35.88168
#
# Velocity S-wave (km/s) = 5.07634 2.98005 4.16233
# Velocity P-wave (km/s) = 7.80130 6.32327 7.10085
#
# Compressibility (1/GPa) = 0.01821931
#
# Stress axis : x y z
#
# Youngs Moduli (GPa) = 67.16378 98.54610 138.13695
#
# Poissons Ratio (x) = 0.49505 0.04781
# Poissons Ratio (y) = 0.33740 0.22911
# Poissons Ratio (z) = 0.02325 0.16345
#
# Static dielectric constant tensor:
#      x y z
#    x 3.350390 0.000000 0.131330 
#    y 0.000000 4.189270 0.000000 
#    z 0.131330 0.000000 3.804140 
# 
# 
# High freq. dielectric constant tensor:
#      x y z
#    x 1.764920 0.000000 0.018860 
#    y 0.000000 1.831600 0.000000 
#    z 0.018860 0.000000 1.830190 
# 
# From -- ./inp_files/6897.got.cif
#   From: 2010.03.12/outbox.cif.g09.slc.cpg/sg4_4_cif.got.tgz:6897.got - 2010.03.31 09:31:35.
