data_PCOD8047624
_publ_section_title
;
Structure prediction by ZEFSAII (Michael W. Deem and Ramdas Pophale) SiO2 
 PCOD8047624
Probable space group: P 21
;
_chemical_formula_sum "Si O2"
_cell_formula_units_Z 16
_cell_length_a 11.559434
_cell_length_b 12.727026
_cell_length_c 6.641838
_cell_angle_alpha 90.000000
_cell_angle_beta 54.923985
_cell_angle_gamma 90.000000
_cell_volume 799.672720
_symmetry_space_group_name_H-M "P 21"
_symmetry_group_IT_number 4
_symmetry_cell_setting 'monoclinic'
loop_
_space_group_symop_operation_xyz
x,y,z
-x,1/2+y,-z
loop_
_atom_site_type_symbol
_atom_site_label
_atom_site_fract_x
_atom_site_fract_y
_atom_site_fract_z
Si Si1 0.895479 0.454760 0.846814
Si Si2 0.341987 0.626010 0.632580
Si Si3 0.104782 0.714323 0.137476
Si Si4 0.170769 0.567275 0.413830
Si Si5 0.170401 0.102018 0.745336
Si Si6 0.658493 0.543237 0.815818
Si Si7 0.378679 0.455381 0.925571
Si Si8 0.621673 0.713803 0.182577
O O1 0.943066 0.334516 0.807074
O O2 0.761981 0.466330 0.833399
O O3 0.022385 0.524408 0.637262
O O4 0.855412 0.492976 0.110763
O O5 0.274261 0.589381 0.493067
O O6 0.380971 0.522269 0.718708
O O7 0.482741 0.692059 0.452393
O O8 0.238791 0.702900 0.857420
O O9 0.144162 0.676160 0.322223
O O10 0.978380 0.644495 0.180187
O O11 0.240501 0.483095 0.193807
O O12 0.273743 0.080419 0.458833
O O13 0.239898 0.186310 0.826153
O O14 0.517942 0.477032 0.916482
O O15 0.619119 0.646707 0.980838
O O16 0.370050 0.334567 0.880200
#
# Coordination Sequence:
#
# PCOD8047624 Si02
#       8
#     2   2   2   2   2   2   2   2
#     4  11  26  42  70  96 131 177 212 269 329 381
#     4  11  24  46  63  98 136 165 223 268 315 395
#     4  11  26  42  70  96 131 177 212 269 329 381
#     4  11  24  46  63  98 136 165 223 268 315 395
#     4  11  24  46  63  98 136 165 223 268 315 395
#     4  11  24  46  63  98 136 165 223 268 315 395
#     4  11  26  42  70  96 131 177 212 269 329 381
#     4  11  26  42  70  96 131 177 212 269 329 381
#
# _framework density 20.008184
#
# number of rings (size 3 to 8) (size 9 to 14) (size 15 to 20)
#    0.000    1.000    5.000    0.000    7.000    0.000 
#    0.000    0.000    0.000    0.000    0.000    0.000 
#    0.000    0.000    0.000    0.000    0.000    0.000 
#
# Total GULP energy -198514.931295 kJ/mol
# GULP energy per Si atom -12407.183206 kJ/mol
# Density = 1.996264 g / cm^3
# Si number density = 20.008184 Si / 1000 Ang^3
#
#
#
# Elastic Constant Matrix: (Units=GPa)
#
#
# Indices 1 2 3 4 5 6 
#
# 1 83.8908 -5.7426 6.9510 0.0000 6.0446 0.0000
# 2 -5.7426 74.3293 4.2567 0.0000 8.1248 0.0000
# 3 6.9510 4.2567 90.7748 0.0000 0.5918 0.0000
# 4 0.0000 0.0000 0.0000 14.3214 0.0000 -0.8528
# 5 6.0446 8.1248 0.5918 0.0000 37.3062 0.0000
# 6 0.0000 0.0000 0.0000 -0.8528 0.0000 15.6861
#
#
#
# Elastic Compliance Matrix: (Units=1/GPa)
#
#
# Indices 1 2 3 4 5 6 
#
# 1 0.012248 0.001247 -0.000982 0.000000 -0.002241 0.000000
# 2 0.001247 0.013945 -0.000728 0.000000 -0.003227 0.000000
# 3 -0.000982 -0.000728 0.011125 0.000000 0.000141 0.000000
# 4 0.000000 0.000000 0.000000 0.070053 0.000000 0.003809
# 5 -0.002241 -0.003227 0.000141 0.000000 0.027869 0.000000
# 6 0.000000 0.000000 0.000000 0.003809 0.000000 0.063958
#
#
# Mechanical properties :
#
#
# Convention : Reuss Voigt Hill
#
# Bulk Modulus (GPa) = 27.47844 28.88058 28.17951
# Shear Modulus (GPa) = 23.55678 29.69805 26.62742
#
# Velocity S-wave (km/s) = 3.43499 3.85683 3.65201
# Velocity P-wave (km/s) = 5.43098 5.85656 5.64778
#
# Compressibility (1/GPa) = 0.03639217
#
# Stress axis : x y z
#
# Youngs Moduli (GPa) = 81.64297 71.71273 89.89015
#
# Poissons Ratio (x) = -0.08946 0.08825
# Poissons Ratio (y) = -0.10185 0.06547
# Poissons Ratio (z) = 0.08016 0.05223
#
# Static dielectric constant tensor:
#      x y z
#    x 3.887450 0.000000 0.019030 
#    y 0.000000 3.427310 0.000000 
#    z 0.019030 0.000000 3.908200 
# 
# 
# High freq. dielectric constant tensor:
#      x y z
#    x 1.801320 0.000000 -0.001080 
#    y 0.000000 1.770500 0.000000 
#    z -0.001080 0.000000 1.800030 
# 
# From -- ./inp_files/1339.got.cif
#   From: 2010.03.12/outbox.cif.g09.slc.cpg/sg4_1_cif.got.tgz:1339.got - 2010.03.31 09:31:35.
