data_PCOD8047145
_publ_section_title
;
Structure prediction by ZEFSAII (Michael W. Deem and Ramdas Pophale) SiO2 
 PCOD8047145
Probable space group: P 21
;
_chemical_formula_sum "Si O2"
_cell_formula_units_Z 16
_cell_length_a 7.427758
_cell_length_b 9.540983
_cell_length_c 8.978460
_cell_angle_alpha 90.000000
_cell_angle_beta 67.555931
_cell_angle_gamma 90.000000
_cell_volume 588.089505
_symmetry_space_group_name_H-M "P 21"
_symmetry_group_IT_number 4
_symmetry_cell_setting 'monoclinic'
loop_
_space_group_symop_operation_xyz
x,y,z
-x,1/2+y,-z
loop_
_atom_site_type_symbol
_atom_site_label
_atom_site_fract_x
_atom_site_fract_y
_atom_site_fract_z
Si Si1 0.340528 0.539680 0.659861
Si Si2 0.522388 0.077371 0.712061
Si Si3 0.319153 0.346328 0.157515
Si Si4 0.803645 0.307429 0.140867
Si Si5 0.741619 0.550097 0.668517
Si Si6 0.784565 0.279078 0.823749
Si Si7 0.221663 0.296144 0.875321
Si Si8 0.056650 0.039475 0.706361
O O1 0.378757 0.535277 0.473606
O O2 0.272381 0.694992 0.718331
O O3 0.532151 0.494548 0.687707
O O4 0.188969 0.423068 0.767820
O O5 0.664147 0.186174 0.748581
O O6 0.313939 0.159735 0.761131
O O7 0.506068 0.930818 0.809947
O O8 0.276965 0.194727 0.238368
O O9 0.130238 0.441054 0.246272
O O10 0.372605 0.336989 0.964315
O O11 0.788387 0.457792 0.232605
O O12 0.685563 0.295784 0.019218
O O13 0.027151 0.272197 0.032896
O O14 0.837272 0.431720 0.742882
O O15 0.868637 0.569614 0.481686
O O16 0.990644 0.193451 0.791197
#
# Coordination Sequence:
#
# PCOD8047145 Si02
#       8
#     2   2   2   2   2   2   2   2
#     4  12  28  48  75 118 158 206 267 330 403 476
#     4  11  26  51  79 109 164 206 270 330 395 480
#     4  10  26  46  77 114 153 208 272 321 397 477
#     4  11  26  48  80 114 164 202 269 330 401 483
#     4  12  26  45  75 116 159 204 267 332 395 467
#     4  11  25  49  79 110 156 213 265 323 392 478
#     4  11  27  52  76 115 157 213 264 329 407 473
#     4  10  24  49  75 114 159 210 258 325 404 468
#
# _framework density 27.206742999999999
#
# number of rings (size 3 to 8) (size 9 to 14) (size 15 to 20)
#    0.000    1.000    1.250    3.750    7.000    9.000 
#    2.250    0.000    0.000    0.000    0.000    0.000 
#    0.000    0.000    0.000    0.000    0.000    0.000 
#
# Total GULP energy -198455.719039 kJ/mol
# GULP energy per Si atom -12403.482440 kJ/mol
# Density = 2.714482 g / cm^3
# Si number density = 27.206743 Si / 1000 Ang^3
#
#
#
# Elastic Constant Matrix: (Units=GPa)
#
#
# Indices 1 2 3 4 5 6 
#
# 1 66.8858 42.7010 15.2901 0.0000 14.5276 0.0000
# 2 42.7010 226.4093 86.1945 0.0000 22.4958 0.0000
# 3 15.2901 86.1945 203.0571 0.0000 15.9918 0.0000
# 4 0.0000 0.0000 0.0000 58.2655 0.0000 1.4991
# 5 14.5276 22.4958 15.9918 0.0000 32.4976 0.0000
# 6 0.0000 0.0000 0.0000 1.4991 0.0000 46.3749
#
#
#
# Elastic Compliance Matrix: (Units=1/GPa)
#
#
# Indices 1 2 3 4 5 6 
#
# 1 0.018095 -0.002935 0.000375 0.000000 -0.006242 0.000000
# 2 -0.002935 0.005973 -0.002176 0.000000 -0.001751 0.000000
# 3 0.000375 -0.002176 0.005945 0.000000 -0.001587 0.000000
# 4 0.000000 0.000000 0.000000 0.017177 0.000000 -0.000555
# 5 -0.006242 -0.001751 -0.001587 0.000000 0.035555 0.000000
# 6 0.000000 0.000000 0.000000 -0.000555 0.000000 0.021581
#
#
# Mechanical properties :
#
#
# Convention : Reuss Voigt Hill
#
# Bulk Modulus (GPa) = 48.68650 87.19150 67.93900
# Shear Modulus (GPa) = 41.44339 50.90537 46.17438
#
# Velocity S-wave (km/s) = 3.90715 4.33026 4.12414
# Velocity P-wave (km/s) = 6.18775 7.55771 6.90678
#
# Compressibility (1/GPa) = 0.02053958
#
# Stress axis : x y z
#
# Youngs Moduli (GPa) = 55.26460 167.42030 168.19951
#
# Poissons Ratio (x) = 0.49143 -0.06308
# Poissons Ratio (y) = 0.16222 0.36608
# Poissons Ratio (z) = -0.02073 0.36439
#
# Static dielectric constant tensor:
#      x y z
#    x 6.112990 0.000000 0.213960 
#    y 0.000000 5.237980 0.000000 
#    z 0.213960 0.000000 4.905590 
# 
# 
# High freq. dielectric constant tensor:
#      x y z
#    x 2.147480 0.000000 0.001370 
#    y 0.000000 2.122830 0.000000 
#    z 0.001370 0.000000 2.103200 
# 
# From -- ./inp_files/5787.got.cif
#   From: 2010.03.12/outbox.cif.g09.slc.cpg/sg4_3_cif.got.tgz:5787.got - 2010.03.31 09:31:35.
