data_PCOD8047857
_publ_section_title
;
Structure prediction by ZEFSAII (Michael W. Deem and Ramdas Pophale) SiO2 
 PCOD8047857
Probable space group: P 21
;
_chemical_formula_sum "Si O2"
_cell_formula_units_Z 16
_cell_length_a 16.253724
_cell_length_b 6.925299
_cell_length_c 6.826875
_cell_angle_alpha 90.000000
_cell_angle_beta 103.077739
_cell_angle_gamma 90.000000
_cell_volume 748.515560
_symmetry_space_group_name_H-M "P 21"
_symmetry_group_IT_number 4
_symmetry_cell_setting 'monoclinic'
loop_
_space_group_symop_operation_xyz
x,y,z
-x,1/2+y,-z
loop_
_atom_site_type_symbol
_atom_site_label
_atom_site_fract_x
_atom_site_fract_y
_atom_site_fract_z
Si Si1 0.882945 0.854770 0.854703
Si Si2 0.008741 0.702459 0.239453
Si Si3 0.706593 0.834281 0.940484
Si Si4 0.392813 0.701189 0.980762
Si Si5 0.100827 0.054713 0.468324
Si Si6 0.723920 0.509310 0.261681
Si Si7 0.383445 0.157504 0.461992
Si Si8 0.517120 0.968105 0.292249
O O1 0.795305 0.913504 0.908840
O O2 0.866592 0.727799 0.651868
O O3 0.936628 0.736635 0.041332
O O4 0.927365 0.050163 0.816509
O O5 0.970440 0.628026 0.421911
O O6 0.061117 0.895086 0.306517
O O7 0.667830 0.688020 0.763634
O O8 0.717988 0.712803 0.145152
O O9 0.642681 0.010814 0.934143
O O10 0.311862 0.829198 0.878862
O O11 0.451986 0.639502 0.831784
O O12 0.452517 0.822091 0.154371
O O13 0.178744 0.967292 0.633323
O O14 0.669950 0.515949 0.430690
O O15 0.400499 0.355552 0.587802
O O16 0.472616 0.060056 0.457635
#
# Coordination Sequence:
#
# PCOD8047857 Si02
#       8
#     2   2   2   2   2   2   2   2
#     4  12  26  45  74 106 146 186 237 292 351 422
#     4  12  26  44  76 106 142 192 236 286 354 422
#     4  12  26  47  71 104 146 185 233 295 353 420
#     4  12  26  46  73 105 144 186 234 297 363 410
#     4  12  26  45  74 106 146 186 237 292 351 422
#     4  12  26  47  71 104 146 185 233 295 353 420
#     4  12  24  44  71 101 136 186 234 279 353 422
#     4  12  24  44  72 104 140 182 238 292 348 424
#
# _framework density 21.375641999999999
#
# number of rings (size 3 to 8) (size 9 to 14) (size 15 to 20)
#    0.000    0.000    7.500    3.000    0.000    6.000 
#    0.000    0.000    0.000    0.000    0.000    0.000 
#    0.000    0.000    0.000    0.000    0.000    0.000 
#
# Total GULP energy -198522.167391 kJ/mol
# GULP energy per Si atom -12407.635462 kJ/mol
# Density = 2.132699 g / cm^3
# Si number density = 21.375642 Si / 1000 Ang^3
#
#
#
# Elastic Constant Matrix: (Units=GPa)
#
#
# Indices 1 2 3 4 5 6 
#
# 1 96.6509 16.5461 16.3604 0.0000 -9.6841 0.0000
# 2 16.5461 65.9632 11.9327 0.0000 -9.4985 0.0000
# 3 16.3604 11.9327 72.0829 0.0000 0.9030 0.0000
# 4 0.0000 0.0000 0.0000 36.7797 0.0000 3.9973
# 5 -9.6841 -9.4985 0.9030 0.0000 45.3852 0.0000
# 6 0.0000 0.0000 0.0000 3.9973 0.0000 34.6305
#
#
#
# Elastic Compliance Matrix: (Units=1/GPa)
#
#
# Indices 1 2 3 4 5 6 
#
# 1 0.011292 -0.002139 -0.002234 0.000000 0.002006 0.000000
# 2 -0.002139 0.016551 -0.002293 0.000000 0.003053 0.000000
# 3 -0.002234 -0.002293 0.014775 0.000000 -0.001250 0.000000
# 4 0.000000 0.000000 0.000000 0.027534 0.000000 -0.003178
# 5 0.002006 0.003053 -0.001250 0.000000 0.023125 0.000000
# 6 0.000000 0.000000 0.000000 -0.003178 0.000000 0.029243
#
#
# Mechanical properties :
#
#
# Convention : Reuss Voigt Hill
#
# Bulk Modulus (GPa) = 34.14564 36.04170 35.09367
# Shear Modulus (GPa) = 34.33720 36.01628 35.17674
#
# Velocity S-wave (km/s) = 4.01230 4.10923 4.06106
# Velocity P-wave (km/s) = 6.12156 6.27791 6.20023
#
# Compressibility (1/GPa) = 0.02928631
#
# Stress axis : x y z
#
# Youngs Moduli (GPa) = 88.55890 60.41938 67.68142
#
# Poissons Ratio (x) = 0.12927 0.15119
# Poissons Ratio (y) = 0.18947 0.15516
# Poissons Ratio (z) = 0.19783 0.13851
#
# Static dielectric constant tensor:
#      x y z
#    x 3.953980 0.000000 -0.069540 
#    y 0.000000 3.807670 0.000000 
#    z -0.069540 0.000000 3.972450 
# 
# 
# High freq. dielectric constant tensor:
#      x y z
#    x 1.849770 0.000000 -0.003990 
#    y 0.000000 1.838640 0.000000 
#    z -0.003990 0.000000 1.853910 
# 
# From -- ./inp_files/4003.got.cif
#   From: 2010.03.12/outbox.cif.g09.slc.cpg/sg4_3_cif.got.tgz:4003.got - 2010.03.31 09:31:35.
