data_PCOD8047572
_publ_section_title
;
Structure prediction by ZEFSAII (Michael W. Deem and Ramdas Pophale) SiO2 
 PCOD8047572
Probable space group: P 21
;
_chemical_formula_sum "Si O2"
_cell_formula_units_Z 16
_cell_length_a 6.279404
_cell_length_b 8.176996
_cell_length_c 12.664769
_cell_angle_alpha 90.000000
_cell_angle_beta 90.545287
_cell_angle_gamma 90.000000
_cell_volume 650.264156
_symmetry_space_group_name_H-M "P 21"
_symmetry_group_IT_number 4
_symmetry_cell_setting 'monoclinic'
loop_
_space_group_symop_operation_xyz
x,y,z
-x,1/2+y,-z
loop_
_atom_site_type_symbol
_atom_site_label
_atom_site_fract_x
_atom_site_fract_y
_atom_site_fract_z
Si Si1 0.181371 0.915340 0.808589
Si Si2 0.817068 0.605949 0.987117
Si Si3 0.523753 0.111317 0.179170
Si Si4 0.531083 0.578065 0.347989
Si Si5 0.115885 0.082239 0.492320
Si Si6 0.867494 0.271027 0.649496
Si Si7 0.214843 0.292341 0.311054
Si Si8 0.105535 0.391881 0.855511
O O1 0.315271 0.754084 0.791660
O O2 0.937171 0.884499 0.773134
O O3 0.290340 0.065490 0.743689
O O4 0.187428 0.958060 0.930858
O O5 0.581163 0.627562 0.937281
O O6 0.985192 0.556385 0.895585
O O7 0.884404 0.772195 0.044436
O O8 0.329234 0.128393 0.262268
O O9 0.658983 0.942828 0.185523
O O10 0.643866 0.591849 0.462145
O O11 0.382759 0.738491 0.329941
O O12 0.395756 0.414163 0.348978
O O13 0.077675 0.229308 0.409091
O O14 0.954620 0.105882 0.590630
O O15 0.077123 0.913535 0.432083
O O16 0.978384 0.301798 0.761934
#
# Coordination Sequence:
#
# PCOD8047572 Si02
#       8
#     2   2   2   2   2   2   2   2
#     4  11  24  45  70  99 138 181 230 292 356 425
#     4  12  25  43  68  99 139 183 234 291 357 425
#     4  11  24  43  69 100 135 182 235 290 357 425
#     4  11  24  43  69 100 135 182 235 290 357 425
#     4  12  25  43  68  99 139 183 234 291 357 425
#     4  12  27  45  70 104 143 188 240 299 358 426
#     4  11  24  45  70  99 138 181 230 292 356 425
#     4  12  27  45  70 104 143 188 240 299 358 426
#
# _framework density 24.605387
#
# number of rings (size 3 to 8) (size 9 to 14) (size 15 to 20)
#    0.000    0.500    0.000    9.000    0.000   12.000 
#    0.000    0.000    0.000    0.000    0.000    0.000 
#    0.000    0.000    0.000    0.000    0.000    0.000 
#
# Total GULP energy -198409.554314 kJ/mol
# GULP energy per Si atom -12400.597145 kJ/mol
# Density = 2.454938 g / cm^3
# Si number density = 24.605387 Si / 1000 Ang^3
#
#
#
# Elastic Constant Matrix: (Units=GPa)
#
#
# Indices 1 2 3 4 5 6 
#
# 1 105.7057 24.2838 29.9022 0.0000 2.9328 0.0000
# 2 24.2838 52.4596 18.5459 0.0000 -1.5985 0.0000
# 3 29.9022 18.5459 101.3282 0.0000 9.8233 0.0000
# 4 0.0000 0.0000 0.0000 52.9327 0.0000 -2.0668
# 5 2.9328 -1.5985 9.8233 0.0000 52.5765 0.0000
# 6 0.0000 0.0000 0.0000 -2.0668 0.0000 52.7302
#
#
#
# Elastic Compliance Matrix: (Units=1/GPa)
#
#
# Indices 1 2 3 4 5 6 
#
# 1 0.011156 -0.004297 -0.002478 0.000000 -0.000290 0.000000
# 2 -0.004297 0.022130 -0.002924 0.000000 0.001459 0.000000
# 3 -0.002478 -0.002924 0.011336 0.000000 -0.002069 0.000000
# 4 0.000000 0.000000 0.000000 0.018921 0.000000 0.000742
# 5 -0.000290 0.001459 -0.002069 0.000000 0.019467 0.000000
# 6 0.000000 0.000000 0.000000 0.000742 0.000000 0.018994
#
#
# Mechanical properties :
#
#
# Convention : Reuss Voigt Hill
#
# Bulk Modulus (GPa) = 39.64382 44.99525 42.31953
# Shear Modulus (GPa) = 38.51838 44.09865 41.30851
#
# Velocity S-wave (km/s) = 3.96086 4.23807 4.10181
# Velocity P-wave (km/s) = 6.08808 6.50191 6.29839
#
# Compressibility (1/GPa) = 0.02522461
#
# Stress axis : x y z
#
# Youngs Moduli (GPa) = 89.63496 45.18849 88.21668
#
# Poissons Ratio (x) = 0.19419 0.21857
# Poissons Ratio (y) = 0.38518 0.25791
# Poissons Ratio (z) = 0.22208 0.13211
#
# Static dielectric constant tensor:
#      x y z
#    x 4.571430 0.000000 -0.086870 
#    y 0.000000 4.335630 0.000000 
#    z -0.086870 0.000000 4.494370 
# 
# 
# High freq. dielectric constant tensor:
#      x y z
#    x 1.982780 0.000000 0.004460 
#    y 0.000000 1.985740 0.000000 
#    z 0.004460 0.000000 1.987310 
# 
# From -- ./inp_files/10351.got.cif
#   From: 2010.03.12/outbox.cif.g09.slc.cpg/sg4_6_cif.got.tgz:10351.got - 2010.03.31 09:31:35.
