data_PCOD8047658
_publ_section_title
;
Structure prediction by ZEFSAII (Michael W. Deem and Ramdas Pophale) SiO2 
 PCOD8047658
Probable space group: P 21
;
_chemical_formula_sum "Si O2"
_cell_formula_units_Z 14
_cell_length_a 11.066599
_cell_length_b 8.976548
_cell_length_c 5.952706
_cell_angle_alpha 90.000000
_cell_angle_beta 104.470272
_cell_angle_gamma 90.000000
_cell_volume 572.582103
_symmetry_space_group_name_H-M "P 21"
_symmetry_group_IT_number 4
_symmetry_cell_setting 'monoclinic'
loop_
_space_group_symop_operation_xyz
x,y,z
-x,1/2+y,-z
loop_
_atom_site_type_symbol
_atom_site_label
_atom_site_fract_x
_atom_site_fract_y
_atom_site_fract_z
Si Si1 0.051437 0.207170 0.250942
Si Si2 0.496534 0.824292 0.319081
Si Si3 0.719763 0.884644 0.742540
Si Si4 0.082502 0.961842 0.600565
Si Si5 0.576351 0.057115 0.029465
Si Si6 0.902879 0.148650 0.775815
Si Si7 0.291105 0.791543 0.600383
O O1 0.177189 0.256473 0.177154
O O2 0.016591 0.324016 0.430896
O O3 0.066803 0.041137 0.351197
O O4 0.929478 0.213938 0.033410
O O5 0.631073 0.833801 0.497081
O O6 0.395359 0.837166 0.470607
O O7 0.478661 0.967107 0.143685
O O8 0.487594 0.666897 0.182063
O O9 0.784763 0.039048 0.712917
O O10 0.644324 0.918608 0.936760
O O11 0.232331 0.927610 0.720760
O O12 0.034976 0.078531 0.765841
O O13 0.668710 0.154192 0.226347
O O14 0.845148 0.271677 0.585267
#
# Coordination Sequence:
#
# PCOD8047658 Si02
#       7
#     2   2   2   2   2   2   2
#     4  11  27  45  77 113 151 200 255 321 385 465
#     4  12  27  49  75 117 149 213 255 323 387 464
#     4  11  26  48  75 110 154 197 263 315 382 465
#     4  11  26  44  75 110 148 199 254 313 392 451
#     4  12  26  48  80 104 159 210 252 317 396 443
#     4  11  24  47  75 107 151 198 249 318 378 457
#     4  12  26  47  77 111 152 201 262 313 380 471
#
# _framework density 24.450641999999998
#
# number of rings (size 3 to 8) (size 9 to 14) (size 15 to 20)
#    0.000    0.571    4.286    1.714    4.000    5.714 
#    0.000    1.429    0.000    0.000    0.000    0.000 
#    0.000    0.000    0.000    0.000    0.000    0.000 
#
# Total GULP energy -173458.724510 kJ/mol
# GULP energy per Si atom -12389.908894 kJ/mol
# Density = 2.439499 g / cm^3
# Si number density = 24.450642 Si / 1000 Ang^3
#
#
#
# Elastic Constant Matrix: (Units=GPa)
#
#
# Indices 1 2 3 4 5 6 
#
# 1 126.9403 57.5616 52.8652 0.0000 -3.2654 0.0000
# 2 57.5616 107.9196 52.7744 0.0000 4.8961 0.0000
# 3 52.8652 52.7744 114.5079 0.0000 8.9373 0.0000
# 4 0.0000 0.0000 0.0000 46.4396 0.0000 -3.5144
# 5 -3.2654 4.8961 8.9373 0.0000 32.9307 0.0000
# 6 0.0000 0.0000 0.0000 -3.5144 0.0000 53.0085
#
#
#
# Elastic Compliance Matrix: (Units=1/GPa)
#
#
# Indices 1 2 3 4 5 6 
#
# 1 0.011427 -0.004563 -0.003386 0.000000 0.002730 0.000000
# 2 -0.004563 0.013787 -0.004140 0.000000 -0.001379 0.000000
# 3 -0.003386 -0.004140 0.012446 0.000000 -0.003098 0.000000
# 4 0.000000 0.000000 0.000000 0.021642 0.000000 0.001435
# 5 0.002730 -0.001379 -0.003098 0.000000 0.031683 0.000000
# 6 0.000000 0.000000 0.000000 0.001435 0.000000 0.018960
#
#
# Mechanical properties :
#
#
# Convention : Reuss Voigt Hill
#
# Bulk Modulus (GPa) = 74.16922 75.08557 74.62739
# Shear Modulus (GPa) = 36.07066 38.88688 37.47877
#
# Velocity S-wave (km/s) = 3.84506 3.99234 3.91939
# Velocity P-wave (km/s) = 7.07904 7.21300 7.14633
#
# Compressibility (1/GPa) = 0.01348268
#
# Stress axis : x y z
#
# Youngs Moduli (GPa) = 87.51124 72.53176 80.34813
#
# Poissons Ratio (x) = 0.33098 0.27203
# Poissons Ratio (y) = 0.39933 0.33263
# Poissons Ratio (z) = 0.29628 0.30027
#
# Static dielectric constant tensor:
#      x y z
#    x 4.548810 0.000000 -0.204530 
#    y 0.000000 4.498360 0.000000 
#    z -0.204530 0.000000 4.372440 
# 
# 
# High freq. dielectric constant tensor:
#      x y z
#    x 1.982170 0.000000 -0.016490 
#    y 0.000000 1.978990 0.000000 
#    z -0.016490 0.000000 1.965390 
# 
# From -- ./inp_files/2531.got.cif
#   From: 2010.03.12/outbox.cif.g09.slc.cpg/sg4_2_cif.got.tgz:2531.got - 2010.03.31 09:31:35.
