data_PCOD8047192
_publ_section_title
;
Structure prediction by ZEFSAII (Michael W. Deem and Ramdas Pophale) SiO2 
 PCOD8047192
Probable space group: P 21
;
_chemical_formula_sum "Si O2"
_cell_formula_units_Z 14
_cell_length_a 7.871737
_cell_length_b 8.999723
_cell_length_c 8.979194
_cell_angle_alpha 90.000000
_cell_angle_beta 65.903281
_cell_angle_gamma 90.000000
_cell_volume 580.684306
_symmetry_space_group_name_H-M "P 21"
_symmetry_group_IT_number 4
_symmetry_cell_setting 'monoclinic'
loop_
_space_group_symop_operation_xyz
x,y,z
-x,1/2+y,-z
loop_
_atom_site_type_symbol
_atom_site_label
_atom_site_fract_x
_atom_site_fract_y
_atom_site_fract_z
Si Si1 0.671423 0.612940 0.891892
Si Si2 0.101824 0.680278 0.793059
Si Si3 0.587125 0.932079 0.837563
Si Si4 0.125391 0.639990 0.133524
Si Si5 0.717314 0.351779 0.685008
Si Si6 0.602367 0.077132 0.540106
Si Si7 0.197561 0.981817 0.628304
O O1 0.553165 0.761849 0.898571
O O2 0.609851 0.497078 0.784252
O O3 0.890397 0.647790 0.818124
O O4 0.595293 0.537516 0.071528
O O5 0.236767 0.578475 0.642640
O O6 0.167810 0.850119 0.757200
O O7 0.122884 0.650957 0.958679
O O8 0.756740 0.992769 0.875189
O O9 0.641795 0.944037 0.643852
O O10 0.195765 0.784774 0.195638
O O11 0.920892 0.620915 0.275543
O O12 0.593120 0.232064 0.638356
O O13 0.866000 0.415865 0.510679
O O14 0.407216 0.040762 0.533392
#
# Coordination Sequence:
#
# PCOD8047192 Si02
#       7
#     2   2   2   2   2   2   2
#     4  12  26  47  77 108 151 195 263 308 393 442
#     4  11  27  48  73 113 151 201 251 319 380 452
#     4  11  25  45  77 108 147 200 248 319 373 467
#     4  11  25  48  75 111 151 198 258 309 383 450
#     4  10  27  46  76 112 145 202 252 314 375 456
#     4  10  25  49  74 110 152 193 257 307 391 446
#     4  11  25  49  76 108 153 197 253 318 383 453
#
# _framework density 24.109486
#
# number of rings (size 3 to 8) (size 9 to 14) (size 15 to 20)
#    0.000    1.143    1.429    2.571   14.000    1.143 
#    5.143    0.000    0.000    0.000    0.000    0.000 
#    0.000    0.000    0.000    0.000    0.000    0.000 
#
# Total GULP energy -173497.389330 kJ/mol
# GULP energy per Si atom -12392.670666 kJ/mol
# Density = 2.405461 g / cm^3
# Si number density = 24.109486 Si / 1000 Ang^3
#
#
#
# Elastic Constant Matrix: (Units=GPa)
#
#
# Indices 1 2 3 4 5 6 
#
# 1 90.9302 37.8021 51.6132 0.0000 -20.6939 0.0000
# 2 37.8021 137.2478 66.6265 0.0000 0.4305 0.0000
# 3 51.6132 66.6265 165.3355 0.0000 0.7172 0.0000
# 4 0.0000 0.0000 0.0000 43.5374 0.0000 -3.9101
# 5 -20.6939 0.4305 0.7172 0.0000 47.7776 0.0000
# 6 0.0000 0.0000 0.0000 -3.9101 0.0000 22.3418
#
#
#
# Elastic Compliance Matrix: (Units=1/GPa)
#
#
# Indices 1 2 3 4 5 6 
#
# 1 0.015868 -0.002453 -0.003995 0.000000 0.006955 0.000000
# 2 -0.002453 0.009437 -0.003033 0.000000 -0.001102 0.000000
# 3 -0.003995 -0.003033 0.008525 0.000000 -0.001831 0.000000
# 4 0.000000 0.000000 0.000000 0.023336 0.000000 0.004084
# 5 0.006955 -0.001102 -0.001831 0.000000 0.023980 0.000000
# 6 0.000000 0.000000 0.000000 0.004084 0.000000 0.045474
#
#
# Mechanical properties :
#
#
# Convention : Reuss Voigt Hill
#
# Bulk Modulus (GPa) = 67.25239 78.39968 72.82604
# Shear Modulus (GPa) = 33.21434 38.56281 35.88857
#
# Velocity S-wave (km/s) = 3.71569 4.00370 3.86238
# Velocity P-wave (km/s) = 6.80908 7.34585 7.08256
#
# Compressibility (1/GPa) = 0.01486936
#
# Stress axis : x y z
#
# Youngs Moduli (GPa) = 63.02133 105.96315 117.29540
#
# Poissons Ratio (x) = 0.25990 0.46862
# Poissons Ratio (y) = 0.15458 0.35570
# Poissons Ratio (z) = 0.25178 0.32134
#
# Static dielectric constant tensor:
#      x y z
#    x 4.077290 0.000000 -0.075890 
#    y 0.000000 4.482330 0.000000 
#    z -0.075890 0.000000 4.705200 
# 
# 
# High freq. dielectric constant tensor:
#      x y z
#    x 1.931870 0.000000 -0.000050 
#    y 0.000000 1.962410 0.000000 
#    z -0.000050 0.000000 1.983310 
# 
# From -- ./inp_files/5258.got.cif
#   From: 2010.03.12/outbox.cif.g09.slc.cpg/sg4_3_cif.got.tgz:5258.got - 2010.03.31 09:31:35.
