data_PCOD8047161
_publ_section_title
;
Structure prediction by ZEFSAII (Michael W. Deem and Ramdas Pophale) SiO2 
 PCOD8047161
Probable space group: P 21
;
_chemical_formula_sum "Si O2"
_cell_formula_units_Z 12
_cell_length_a 7.558169
_cell_length_b 8.639925
_cell_length_c 8.145069
_cell_angle_alpha 90.000000
_cell_angle_beta 84.031899
_cell_angle_gamma 90.000000
_cell_volume 529.006530
_symmetry_space_group_name_H-M "P 21"
_symmetry_group_IT_number 4
_symmetry_cell_setting 'monoclinic'
loop_
_space_group_symop_operation_xyz
x,y,z
-x,1/2+y,-z
loop_
_atom_site_type_symbol
_atom_site_label
_atom_site_fract_x
_atom_site_fract_y
_atom_site_fract_z
Si Si1 0.985928 0.703290 0.231252
Si Si2 0.674642 0.663125 0.819196
Si Si3 0.334106 0.635426 0.367722
Si Si4 0.481362 0.462231 0.054072
Si Si5 0.656930 0.806250 0.472709
Si Si6 0.126518 0.953526 0.985268
O O1 0.138130 0.708021 0.356765
O O2 0.799536 0.757265 0.323984
O O3 0.976539 0.528223 0.160102
O O4 0.022626 0.810218 0.070236
O O5 0.649690 0.816922 0.933741
O O6 0.693342 0.700581 0.628078
O O7 0.507466 0.544445 0.872704
O O8 0.853064 0.582232 0.870337
O O9 0.410890 0.593349 0.183224
O O10 0.457035 0.769967 0.431811
O O11 0.326822 0.487210 0.487961
O O12 0.676607 0.404780 0.097905
#
# Coordination Sequence:
#
# PCOD8047161 Si02
#       6
#     2   2   2   2   2   2
#     4  12  27  48  70 107 143 185 239 290 351 420
#     4   9  21  40  71 100 134 185 229 290 346 411
#     4  11  26  46  73 103 142 190 229 292 355 416
#     4   9  19  43  67 101 133 180 242 278 338 421
#     4  11  26  47  69 106 146 181 238 288 355 421
#     4  10  25  44  72  99 140 185 241 286 347 413
#
# _framework density 22.684028999999999
#
# number of rings (size 3 to 8) (size 9 to 14) (size 15 to 20)
#    1.000    0.667    1.667    1.000    9.333    1.333 
#    6.000    0.000    0.000    0.000    0.000    0.000 
#    0.000    0.000    0.000    0.000    0.000    0.000 
#
# Total GULP energy -148715.940514 kJ/mol
# GULP energy per Si atom -12392.995043 kJ/mol
# Density = 2.263240 g / cm^3
# Si number density = 22.684029 Si / 1000 Ang^3
#
#
#
# Elastic Constant Matrix: (Units=GPa)
#
#
# Indices 1 2 3 4 5 6 
#
# 1 96.6418 22.0239 19.3126 0.0000 13.7817 0.0000
# 2 22.0239 73.0789 13.5414 0.0000 -3.0957 0.0000
# 3 19.3126 13.5414 35.4662 0.0000 -9.7822 0.0000
# 4 0.0000 0.0000 0.0000 47.9706 0.0000 8.5643
# 5 13.7817 -3.0957 -9.7822 0.0000 32.5496 0.0000
# 6 0.0000 0.0000 0.0000 8.5643 0.0000 30.2323
#
#
#
# Elastic Compliance Matrix: (Units=1/GPa)
#
#
# Indices 1 2 3 4 5 6 
#
# 1 0.014103 -0.002958 -0.009023 0.000000 -0.008964 0.000000
# 2 -0.002958 0.015349 -0.003818 0.000000 0.001565 0.000000
# 3 -0.009023 -0.003818 0.038731 0.000000 0.015097 0.000000
# 4 0.000000 0.000000 0.000000 0.021957 0.000000 -0.006220
# 5 -0.008964 0.001565 0.015097 0.000000 0.039204 0.000000
# 6 0.000000 0.000000 0.000000 -0.006220 0.000000 0.034839
#
#
# Mechanical properties :
#
#
# Convention : Reuss Voigt Hill
#
# Bulk Modulus (GPa) = 27.33340 34.99364 31.16352
# Shear Modulus (GPa) = 24.04132 32.17111 28.10621
#
# Velocity S-wave (km/s) = 3.25904 3.77002 3.52381
# Velocity P-wave (km/s) = 5.12226 5.86607 5.50674
#
# Compressibility (1/GPa) = 0.03658527
#
# Stress axis : x y z
#
# Youngs Moduli (GPa) = 70.90673 65.15035 25.81923
#
# Poissons Ratio (x) = 0.19272 0.23296
# Poissons Ratio (y) = 0.20975 0.09858
# Poissons Ratio (z) = 0.63977 0.24875
#
# Static dielectric constant tensor:
#      x y z
#    x 3.944330 0.000000 -0.027830 
#    y 0.000000 4.008280 0.000000 
#    z -0.027830 0.000000 3.869010 
# 
# 
# High freq. dielectric constant tensor:
#      x y z
#    x 1.886260 0.000000 -0.005460 
#    y 0.000000 1.897200 0.000000 
#    z -0.005460 0.000000 1.880640 
# 
# From -- ./inp_files/5532.got.cif
#   From: 2010.03.12/outbox.cif.g09.slc.cpg/sg4_3_cif.got.tgz:5532.got - 2010.03.31 09:31:35.
