data_PCOD8047416
_publ_section_title
;
Structure prediction by ZEFSAII (Michael W. Deem and Ramdas Pophale) SiO2 
 PCOD8047416
Probable space group: P 21
;
_chemical_formula_sum "Si O2"
_cell_formula_units_Z 14
_cell_length_a 17.220789
_cell_length_b 7.509461
_cell_length_c 11.974388
_cell_angle_alpha 90.000000
_cell_angle_beta 158.611903
_cell_angle_gamma 90.000000
_cell_volume 564.717280
_symmetry_space_group_name_H-M "P 21"
_symmetry_group_IT_number 4
_symmetry_cell_setting 'monoclinic'
loop_
_space_group_symop_operation_xyz
x,y,z
-x,1/2+y,-z
loop_
_atom_site_type_symbol
_atom_site_label
_atom_site_fract_x
_atom_site_fract_y
_atom_site_fract_z
Si Si1 0.064144 0.492690 0.685582
Si Si2 0.778252 0.606064 0.860387
Si Si3 0.473532 0.346856 0.336978
Si Si4 0.239874 0.622098 0.417658
Si Si5 0.334244 0.910985 0.715512
Si Si6 0.853714 0.379801 0.186172
Si Si7 0.561803 0.795807 0.230337
O O1 0.035482 0.692996 0.694915
O O2 0.896837 0.384801 0.536738
O O3 0.999799 0.491844 0.468250
O O4 0.301274 0.409331 0.013082
O O5 0.628526 0.508300 0.571853
O O6 0.660211 0.789240 0.733345
O O7 0.822861 0.494852 0.033550
O O8 0.989277 0.662807 0.075019
O O9 0.622975 0.175588 0.507659
O O10 0.252524 0.412971 0.464336
O O11 0.358467 0.746412 0.665814
O O12 0.365050 0.092640 0.686574
O O13 0.518011 0.889912 0.053063
O O14 0.637398 0.316223 0.954757
#
# Coordination Sequence:
#
# PCOD8047416 Si02
#       7
#     2   2   2   2   2   2   2
#     4  11  24  43  73 108 146 191 239 295 360 429
#     4  12  27  50  75 103 143 192 241 298 366 431
#     4  12  27  50  75 103 143 192 241 298 366 431
#     4  12  26  48  74 106 146 192 246 296 360 438
#     4  11  23  40  71 112 153 190 237 300 363 427
#     4  11  24  43  73 108 146 191 239 295 360 429
#     4  11  23  40  71 112 153 190 237 300 363 427
#
# _framework density 24.791167000000002
#
# number of rings (size 3 to 8) (size 9 to 14) (size 15 to 20)
#    0.000    0.571    4.286    3.429    4.000    3.429 
#    7.714    0.000    0.000    0.000    0.000    0.000 
#    0.000    0.000    0.000    0.000    0.000    0.000 
#
# Total GULP energy -173600.387974 kJ/mol
# GULP energy per Si atom -12400.027712 kJ/mol
# Density = 2.473474 g / cm^3
# Si number density = 24.791167 Si / 1000 Ang^3
#
#
#
# Elastic Constant Matrix: (Units=GPa)
#
#
# Indices 1 2 3 4 5 6 
#
# 1 43.9179 -11.5112 31.6256 0.0000 9.9538 0.0000
# 2 -11.5112 63.1879 -2.5547 0.0000 0.8464 0.0000
# 3 31.6256 -2.5547 114.8899 0.0000 13.6678 0.0000
# 4 0.0000 0.0000 0.0000 39.2181 0.0000 3.8457
# 5 9.9538 0.8464 13.6678 0.0000 32.0210 0.0000
# 6 0.0000 0.0000 0.0000 3.8457 0.0000 41.1183
#
#
#
# Elastic Compliance Matrix: (Units=1/GPa)
#
#
# Indices 1 2 3 4 5 6 
#
# 1 0.031232 0.005467 -0.007694 0.000000 -0.006569 0.000000
# 2 0.005467 0.016808 -0.000923 0.000000 -0.001750 0.000000
# 3 -0.007694 -0.000923 0.011076 0.000000 -0.002312 0.000000
# 4 0.000000 0.000000 0.000000 0.025734 0.000000 -0.002407
# 5 -0.006569 -0.001750 -0.002312 0.000000 0.034305 0.000000
# 6 0.000000 0.000000 0.000000 -0.002407 0.000000 0.024545
#
#
# Mechanical properties :
#
#
# Convention : Reuss Voigt Hill
#
# Bulk Modulus (GPa) = 18.93388 28.56832 23.75110
# Shear Modulus (GPa) = 29.83178 36.10053 32.96616
#
# Velocity S-wave (km/s) = 3.47266 3.82014 3.65054
# Velocity P-wave (km/s) = 4.87166 5.56835 5.23162
#
# Compressibility (1/GPa) = 0.05281537
#
# Stress axis : x y z
#
# Youngs Moduli (GPa) = 32.01841 59.49610 90.28169
#
# Poissons Ratio (x) = -0.32524 0.69464
# Poissons Ratio (y) = -0.17503 0.08332
# Poissons Ratio (z) = 0.24636 0.05491
#
# Static dielectric constant tensor:
#      x y z
#    x 4.478150 0.000000 0.181620 
#    y 0.000000 4.551480 0.000000 
#    z 0.181620 0.000000 4.406680 
# 
# 
# High freq. dielectric constant tensor:
#      x y z
#    x 1.986980 0.000000 0.016320 
#    y 0.000000 1.992160 0.000000 
#    z 0.016320 0.000000 1.983990 
# 
# From -- ./inp_files/12865.got.cif
#   From: 2010.03.12/outbox.cif.g09.slc.cpg/sg4_7_cif.got.tgz:12865.got - 2010.03.31 09:31:35.
