data_PCOD8047553
_publ_section_title
;
Structure prediction by ZEFSAII (Michael W. Deem and Ramdas Pophale) SiO2 
 PCOD8047553
Probable space group: P 21
;
_chemical_formula_sum "Si O2"
_cell_formula_units_Z 14
_cell_length_a 5.284197
_cell_length_b 7.305074
_cell_length_c 20.336154
_cell_angle_alpha 90.000000
_cell_angle_beta 128.254377
_cell_angle_gamma 90.000000
_cell_volume 616.440616
_symmetry_space_group_name_H-M "P 21"
_symmetry_group_IT_number 4
_symmetry_cell_setting 'monoclinic'
loop_
_space_group_symop_operation_xyz
x,y,z
-x,1/2+y,-z
loop_
_atom_site_type_symbol
_atom_site_label
_atom_site_fract_x
_atom_site_fract_y
_atom_site_fract_z
Si Si1 0.768510 0.052770 0.033545
Si Si2 0.813851 0.899111 0.903963
Si Si3 0.585895 0.838778 0.438521
Si Si4 0.975509 0.567714 0.586258
Si Si5 0.110254 0.200797 0.878735
Si Si6 0.300484 0.835570 0.725958
Si Si7 0.227735 0.554648 0.293828
O O1 0.931535 0.244746 0.076969
O O2 0.838379 0.918406 0.106174
O O3 0.400196 0.087660 0.957940
O O4 0.891947 0.929389 0.992747
O O5 0.466896 0.816695 0.825380
O O6 0.820456 0.101056 0.871258
O O7 0.796626 0.744336 0.528569
O O8 0.808462 0.984159 0.436991
O O9 0.279019 0.926223 0.425116
O O10 0.528691 0.193139 0.633317
O O11 0.208103 0.636342 0.682632
O O12 0.045618 0.164045 0.791718
O O13 0.556852 0.922702 0.716696
O O14 0.966808 0.946547 0.681038
#
# Coordination Sequence:
#
# PCOD8047553 Si02
#       7
#     2   2   2   2   2   2   2
#     4  12  22  42  62  94 126 182 228 286 334 410
#     4  11  24  40  65  93 133 175 231 283 342 396
#     4  12  25  45  72 104 136 176 221 270 335 405
#     4  12  25  45  72 104 136 176 221 270 335 405
#     4  11  24  40  65  93 133 175 231 283 342 396
#     4  11  24  45  68  97 137 176 221 280 338 396
#     4  11  24  45  68  97 137 176 221 280 338 396
#
# _framework density 22.711029
#
# number of rings (size 3 to 8) (size 9 to 14) (size 15 to 20)
#    0.000    0.571    4.286    4.286    2.000    0.000 
#    5.143    0.000    0.000    0.000    0.000    0.000 
#    0.000    0.000    0.000    0.000    0.000    0.000 
#
# Total GULP energy -173532.073951 kJ/mol
# GULP energy per Si atom -12395.148139 kJ/mol
# Density = 2.265934 g / cm^3
# Si number density = 22.711029 Si / 1000 Ang^3
#
#
#
# Elastic Constant Matrix: (Units=GPa)
#
#
# Indices 1 2 3 4 5 6 
#
# 1 85.4845 10.4154 -0.5314 0.0000 6.6637 0.0000
# 2 10.4154 73.8119 11.8649 0.0000 2.3294 0.0000
# 3 -0.5314 11.8649 79.2336 0.0000 7.5558 0.0000
# 4 0.0000 0.0000 0.0000 41.6842 0.0000 6.6637
# 5 6.6637 2.3294 7.5558 0.0000 28.0640 0.0000
# 6 0.0000 0.0000 0.0000 6.6637 0.0000 44.5518
#
#
#
# Elastic Compliance Matrix: (Units=1/GPa)
#
#
# Indices 1 2 3 4 5 6 
#
# 1 0.012138 -0.001720 0.000616 0.000000 -0.002905 0.000000
# 2 -0.001720 0.014136 -0.002110 0.000000 -0.000197 0.000000
# 3 0.000616 -0.002110 0.013279 0.000000 -0.003546 0.000000
# 4 0.000000 0.000000 0.000000 0.024578 0.000000 -0.003676
# 5 -0.002905 -0.000197 -0.003546 0.000000 0.037294 0.000000
# 6 0.000000 0.000000 0.000000 -0.003676 0.000000 0.022996
#
#
# Mechanical properties :
#
#
# Convention : Reuss Voigt Hill
#
# Bulk Modulus (GPa) = 30.18798 31.33642 30.76220
# Shear Modulus (GPa) = 35.23877 37.31208 36.27542
#
# Velocity S-wave (km/s) = 3.94333 4.05767 4.00091
# Velocity P-wave (km/s) = 5.83560 5.98171 5.90910
#
# Compressibility (1/GPa) = 0.03312577
#
# Stress axis : x y z
#
# Youngs Moduli (GPa) = 82.38663 70.74147 75.30620
#
# Poissons Ratio (x) = 0.12168 -0.04639
# Poissons Ratio (y) = 0.14171 0.15886
# Poissons Ratio (z) = -0.05075 0.14923
#
# Static dielectric constant tensor:
#      x y z
#    x 4.023840 0.000000 -0.031940 
#    y 0.000000 4.035430 0.000000 
#    z -0.031940 0.000000 4.534610 
# 
# 
# High freq. dielectric constant tensor:
#      x y z
#    x 1.891260 0.000000 0.006600 
#    y 0.000000 1.896510 0.000000 
#    z 0.006600 0.000000 1.910040 
# 
# From -- ./inp_files/15999.got.cif
#   From: 2010.03.12/outbox.cif.g09.slc.cpg/sg4_8_cif.got.tgz:15999.got - 2010.03.31 09:31:35.
