data_PCOD8047153
_publ_section_title
;
Structure prediction by ZEFSAII (Michael W. Deem and Ramdas Pophale) SiO2 
 PCOD8047153
Probable space group: P 21
;
_chemical_formula_sum "Si O2"
_cell_formula_units_Z 16
_cell_length_a 11.218050
_cell_length_b 14.137605
_cell_length_c 6.539312
_cell_angle_alpha 90.000000
_cell_angle_beta 45.937889
_cell_angle_gamma 90.000000
_cell_volume 745.253853
_symmetry_space_group_name_H-M "P 21"
_symmetry_group_IT_number 4
_symmetry_cell_setting 'monoclinic'
loop_
_space_group_symop_operation_xyz
x,y,z
-x,1/2+y,-z
loop_
_atom_site_type_symbol
_atom_site_label
_atom_site_fract_x
_atom_site_fract_y
_atom_site_fract_z
Si Si1 0.420907 0.918390 0.558905
Si Si2 0.197400 0.085120 0.958188
Si Si3 0.078929 0.640113 0.446139
Si Si4 0.547497 0.668960 0.064452
Si Si5 0.764377 0.252141 0.407766
Si Si6 0.385832 0.513223 0.022525
Si Si7 0.071369 0.211805 0.769908
Si Si8 0.634504 0.837782 0.665342
O O1 0.312771 0.856232 0.528958
O O2 0.512102 0.854480 0.619439
O O3 0.297033 0.987997 0.825057
O O4 0.557778 0.974442 0.264685
O O5 0.295427 0.162859 0.975408
O O6 0.168261 0.128639 0.770370
O O7 0.019139 0.071068 0.279815
O O8 0.139201 0.735837 0.492507
O O9 0.228881 0.581139 0.169445
O O10 0.949168 0.674214 0.433248
O O11 0.386797 0.676833 0.405500
O O12 0.534385 0.574213 0.944168
O O13 0.554240 0.758902 0.907278
O O14 0.889539 0.233958 0.072911
O O15 0.336202 0.431596 0.239122
O O16 0.186424 0.305036 0.633087
#
# Coordination Sequence:
#
# PCOD8047153 Si02
#       8
#     2   2   2   2   2   2   2   2
#     4  12  26  43  71 108 133 177 243 290 337 417
#     4  11  24  45  69 104 137 181 234 284 347 414
#     4  10  25  48  67  97 143 186 225 281 357 413
#     4  11  22  49  71  95 144 180 229 287 347 407
#     4  10  25  42  69  99 134 179 227 281 340 412
#     4  11  26  44  69 103 137 183 229 290 342 415
#     4  11  25  44  70  97 138 190 223 285 352 413
#     4  12  25  45  70 101 136 186 230 288 348 409
#
# _framework density 21.469193000000001
#
# number of rings (size 3 to 8) (size 9 to 14) (size 15 to 20)
#    0.000    1.000    3.750    1.500    7.000    1.000 
#    2.250    0.000    0.000    0.000    0.000    0.000 
#    0.000    0.000    0.000    0.000    0.000    0.000 
#
# Total GULP energy -198417.904128 kJ/mol
# GULP energy per Si atom -12401.119008 kJ/mol
# Density = 2.142033 g / cm^3
# Si number density = 21.469193 Si / 1000 Ang^3
#
#
#
# Elastic Constant Matrix: (Units=GPa)
#
#
# Indices 1 2 3 4 5 6 
#
# 1 129.7999 53.0877 47.0599 0.0000 13.1687 0.0000
# 2 53.0877 110.2931 44.8577 0.0000 10.1583 0.0000
# 3 47.0599 44.8577 116.9650 0.0000 -6.5435 0.0000
# 4 0.0000 0.0000 0.0000 40.8538 0.0000 2.2904
# 5 13.1687 10.1583 -6.5435 0.0000 33.1682 0.0000
# 6 0.0000 0.0000 0.0000 2.2904 0.0000 36.8780
#
#
#
# Elastic Compliance Matrix: (Units=1/GPa)
#
#
# Indices 1 2 3 4 5 6 
#
# 1 0.010666 -0.003499 -0.003161 0.000000 -0.003786 0.000000
# 2 -0.003499 0.012486 -0.003556 0.000000 -0.003136 0.000000
# 3 -0.003161 -0.003556 0.011443 0.000000 0.004602 0.000000
# 4 0.000000 0.000000 0.000000 0.024563 0.000000 -0.001526
# 5 -0.003786 -0.003136 0.004602 0.000000 0.033521 0.000000
# 6 0.000000 0.000000 0.000000 -0.001526 0.000000 0.027211
#
#
# Mechanical properties :
#
#
# Convention : Reuss Voigt Hill
#
# Bulk Modulus (GPa) = 70.61408 71.89649 71.25528
# Shear Modulus (GPa) = 34.47245 36.31685 35.39465
#
# Velocity S-wave (km/s) = 4.01143 4.11734 4.06473
# Velocity P-wave (km/s) = 7.37684 7.49428 7.43579
#
# Compressibility (1/GPa) = 0.01416148
#
# Stress axis : x y z
#
# Youngs Moduli (GPa) = 93.75965 80.08764 87.39239
#
# Poissons Ratio (x) = 0.28025 0.27625
# Poissons Ratio (y) = 0.32810 0.31079
# Poissons Ratio (z) = 0.29637 0.28481
#
# Static dielectric constant tensor:
#      x y z
#    x 3.923120 0.000000 -0.068280 
#    y 0.000000 3.758890 0.000000 
#    z -0.068280 0.000000 3.984560 
# 
# 
# High freq. dielectric constant tensor:
#      x y z
#    x 1.849140 0.000000 -0.004930 
#    y 0.000000 1.829770 0.000000 
#    z -0.004930 0.000000 1.860120 
# 
# From -- ./inp_files/1454.got.cif
#   From: 2010.03.12/outbox.cif.g09.slc.cpg/sg4_1_cif.got.tgz:1454.got - 2010.03.31 09:31:35.
