data_PCOD8047969
_publ_section_title
;
Structure prediction by ZEFSAII (Michael W. Deem and Ramdas Pophale) SiO2 
 PCOD8047969
Probable space group: P 21
;
_chemical_formula_sum "Si O2"
_cell_formula_units_Z 16
_cell_length_a 29.776548
_cell_length_b 5.273696
_cell_length_c 20.920661
_cell_angle_alpha 90.000000
_cell_angle_beta 169.070050
_cell_angle_gamma 90.000000
_cell_volume 622.906886
_symmetry_space_group_name_H-M "P 21"
_symmetry_group_IT_number 4
_symmetry_cell_setting 'monoclinic'
loop_
_space_group_symop_operation_xyz
x,y,z
-x,1/2+y,-z
loop_
_atom_site_type_symbol
_atom_site_label
_atom_site_fract_x
_atom_site_fract_y
_atom_site_fract_z
Si Si1 0.887347 0.985150 0.169580
Si Si2 0.642981 0.178074 0.712740
Si Si3 0.989311 0.455085 0.444377
Si Si4 0.855692 0.096108 0.704515
Si Si5 0.120028 0.598358 0.081017
Si Si6 0.703393 0.828853 0.230475
Si Si7 0.557034 0.625558 0.780621
Si Si8 0.191211 0.648034 0.507149
O O1 0.967766 0.777644 0.229158
O O2 0.711441 0.873967 0.977713
O O3 0.125666 0.082241 0.538398
O O4 0.745774 0.194418 0.928834
O O5 0.551662 0.455205 0.564321
O O6 0.854636 0.109803 0.959937
O O7 0.051954 0.203628 0.570925
O O8 0.201219 0.521731 0.690660
O O9 0.752104 0.406391 0.069094
O O10 0.589829 0.143747 0.358282
O O11 0.875773 0.058793 0.656941
O O12 0.990764 0.341225 0.919111
O O13 0.973451 0.844531 0.900877
O O14 0.380669 0.573400 0.475874
O O15 0.735664 0.906210 0.348975
O O16 0.425956 0.817100 0.829684
#
# Coordination Sequence:
#
# PCOD8047969 Si02
#       8
#     2   2   2   2   2   2   2   2
#     4  12  26  47  76 113 152 200 257 321 380 454
#     4  12  26  46  77 116 158 197 257 323 384 450
#     4  12  29  52  78 113 157 199 257 321 386 458
#     4  12  29  50  76 111 158 203 257 314 387 457
#     4  12  27  50  76 111 155 206 254 315 382 463
#     4  12  27  47  80 110 154 201 263 312 392 459
#     4  12  28  50  80 111 152 205 258 315 385 456
#     4  12  26  48  75 111 150 205 249 323 382 459
#
# _framework density 25.686022999999999
#
# number of rings (size 3 to 8) (size 9 to 14) (size 15 to 20)
#    0.000    0.000    5.000    3.750    3.500    5.000 
#    0.000    0.000    0.000    0.000    0.000    0.000 
#    0.000    0.000    0.000    0.000    0.000    0.000 
#
# Total GULP energy -198333.168880 kJ/mol
# GULP energy per Si atom -12395.823055 kJ/mol
# Density = 2.562756 g / cm^3
# Si number density = 25.686023 Si / 1000 Ang^3
#
#
#
# Elastic Constant Matrix: (Units=GPa)
#
#
# Indices 1 2 3 4 5 6 
#
# 1 120.8457 9.0017 17.7466 0.0000 5.4191 0.0000
# 2 9.0017 103.6226 37.6533 0.0000 -3.6127 0.0000
# 3 17.7466 37.6533 120.2919 0.0000 5.2746 0.0000
# 4 0.0000 0.0000 0.0000 49.2301 0.0000 1.8813
# 5 5.4191 -3.6127 5.2746 0.0000 51.6066 0.0000
# 6 0.0000 0.0000 0.0000 1.8813 0.0000 -2.5065
#
#
#
# Elastic Compliance Matrix: (Units=1/GPa)
#
#
# Indices 1 2 3 4 5 6 
#
# 1 0.008501 -0.000365 -0.001104 0.000000 -0.000805 0.000000
# 2 -0.000365 0.010969 -0.003430 0.000000 0.001157 0.000000
# 3 -0.001104 -0.003430 0.009598 0.000000 -0.001105 0.000000
# 4 0.000000 0.000000 0.000000 0.019746 0.000000 0.014821
# 5 -0.000805 0.001157 -0.001105 0.000000 0.019656 0.000000
# 6 0.000000 0.000000 0.000000 0.014821 0.000000 -0.387834
#
#
# Mechanical properties :
#
#
# Convention : Reuss Voigt Hill
#
# Bulk Modulus (GPa) = 51.90004 52.61816 52.25910
# Shear Modulus (GPa) = -16.49395 38.35662 10.93133
#
# Velocity S-wave (km/s) = -2.53679 3.86850 2.06519
# Velocity P-wave (km/s) = 3.41599 6.36265 5.10648
#
# Compressibility (1/GPa) = 0.01926781
#
# Stress axis : x y z
#
# Youngs Moduli (GPa) = 117.63983 91.16657 104.18561
#
# Poissons Ratio (x) = 0.03329 0.11507
# Poissons Ratio (y) = 0.04296 0.35739
# Poissons Ratio (z) = 0.12993 0.31273
#
# Static dielectric constant tensor:
#      x y z
#    x 5.023440 0.000000 0.095790 
#    y 0.000000 4.450500 0.000000 
#    z 0.095790 0.000000 4.851760 
# 
# 
# High freq. dielectric constant tensor:
#      x y z
#    x 2.049780 0.000000 0.003930 
#    y 0.000000 2.013470 0.000000 
#    z 0.003930 0.000000 2.035220 
# 
# From -- ./inp_files/15977.got.cif
#   From: 2010.03.12/outbox.cif.g09.slc.cpg/sg4_8_cif.got.tgz:15977.got - 2010.03.31 09:31:35.
