data_PCOD8047928
_publ_section_title
;
Structure prediction by ZEFSAII (Michael W. Deem and Ramdas Pophale) SiO2 
 PCOD8047928
Probable space group: P 21
;
_chemical_formula_sum "Si O2"
_cell_formula_units_Z 12
_cell_length_a 13.130810
_cell_length_b 7.967321
_cell_length_c 13.130757
_cell_angle_alpha 90.000000
_cell_angle_beta 159.040929
_cell_angle_gamma 90.000000
_cell_volume 491.375729
_symmetry_space_group_name_H-M "P 21"
_symmetry_group_IT_number 4
_symmetry_cell_setting 'monoclinic'
loop_
_space_group_symop_operation_xyz
x,y,z
-x,1/2+y,-z
loop_
_atom_site_type_symbol
_atom_site_label
_atom_site_fract_x
_atom_site_fract_y
_atom_site_fract_z
Si Si1 0.395259 0.678280 0.337459
Si Si2 0.334068 0.804360 0.944667
Si Si3 0.229082 0.177878 0.500621
Si Si4 0.162540 0.305176 0.104736
Si Si5 0.444800 0.679041 0.834176
Si Si6 0.000491 0.305571 0.728962
O O1 0.588264 0.743875 0.424557
O O2 0.285149 0.491726 0.214867
O O3 0.590349 0.684288 0.620923
O O4 0.120918 0.799166 0.090347
O O5 0.274726 0.741716 0.774702
O O6 0.040665 0.798517 0.733849
O O7 0.568494 0.679936 0.211775
O O8 0.447382 0.991676 0.052744
O O9 0.121028 0.991749 0.378883
O O10 0.075427 0.239587 0.911716
O O11 0.234169 0.684994 0.540898
O O12 0.712033 0.803383 0.068794
#
# Coordination Sequence:
#
# PCOD8047928 Si02
#       6
#     2   2   2   2   2   2
#     4  12  26  47  74 105 143 186 236 292 353 418
#     4  12  26  46  73 106 142 186 236 291 350 418
#     4  12  25  47  72 101 143 188 235 291 352 416
#     4  12  26  47  74 105 143 186 236 292 353 418
#     4  12  26  46  73 106 142 186 236 291 350 418
#     4  12  25  47  72 101 143 188 235 291 352 416
#
# _framework density 24.421232
#
# number of rings (size 3 to 8) (size 9 to 14) (size 15 to 20)
#    0.000    0.000    0.000   12.000    0.000    5.333 
#    0.000    5.000    0.000    0.000    0.000    0.000 
#    0.000    0.000    0.000    0.000    0.000    0.000 
#
# Total GULP energy -148880.904752 kJ/mol
# GULP energy per Si atom -12406.742063 kJ/mol
# Density = 2.436565 g / cm^3
# Si number density = 24.421232 Si / 1000 Ang^3
#
#
#
# Elastic Constant Matrix: (Units=GPa)
#
#
# Indices 1 2 3 4 5 6 
#
# 1 127.6087 60.6308 70.0953 0.0000 9.3183 0.0000
# 2 60.6308 76.5440 45.2431 0.0000 -2.7590 0.0000
# 3 70.0953 45.2431 182.0720 0.0000 0.7688 0.0000
# 4 0.0000 0.0000 0.0000 40.8768 0.0000 1.8205
# 5 9.3183 -2.7590 0.7688 0.0000 52.5190 0.0000
# 6 0.0000 0.0000 0.0000 1.8205 0.0000 30.8633
#
#
#
# Elastic Compliance Matrix: (Units=1/GPa)
#
#
# Indices 1 2 3 4 5 6 
#
# 1 0.014341 -0.009626 -0.003117 0.000000 -0.003005 0.000000
# 2 -0.009626 0.021814 -0.001727 0.000000 0.002879 0.000000
# 3 -0.003117 -0.001727 0.007120 0.000000 0.000358 0.000000
# 4 0.000000 0.000000 0.000000 0.024528 0.000000 -0.001447
# 5 -0.003005 0.002879 0.000358 0.000000 0.019720 0.000000
# 6 0.000000 0.000000 0.000000 -0.001447 0.000000 0.032486
#
#
# Mechanical properties :
#
#
# Convention : Reuss Voigt Hill
#
# Bulk Modulus (GPa) = 69.75426 82.01809 75.88618
# Shear Modulus (GPa) = 32.52528 38.86887 35.69708
#
# Velocity S-wave (km/s) = 3.65340 3.99382 3.82740
# Velocity P-wave (km/s) = 6.81333 7.41115 7.11852
#
# Compressibility (1/GPa) = 0.01433604
#
# Stress axis : x y z
#
# Youngs Moduli (GPa) = 69.72796 45.84287 140.45460
#
# Poissons Ratio (x) = 0.44129 0.43774
# Poissons Ratio (y) = 0.67121 0.24252
# Poissons Ratio (z) = 0.21731 0.07916
#
# Static dielectric constant tensor:
#      x y z
#    x 4.594790 0.000000 0.093420 
#    y 0.000000 4.071460 0.000000 
#    z 0.093420 0.000000 5.107960 
# 
# 
# High freq. dielectric constant tensor:
#      x y z
#    x 1.978320 0.000000 0.003920 
#    y 0.000000 1.957350 0.000000 
#    z 0.003920 0.000000 1.999830 
# 
# From -- ./inp_files/12082.got.cif
#   From: 2010.03.12/outbox.cif.g09.slc.cpg/sg4_7_cif.got.tgz:12082.got - 2010.03.31 09:31:35.
