data_PCOD8047232
_publ_section_title
;
Structure prediction by ZEFSAII (Michael W. Deem and Ramdas Pophale) SiO2 
 PCOD8047232
Probable space group: P 21
;
_chemical_formula_sum "Si O2"
_cell_formula_units_Z 16
_cell_length_a 26.148318
_cell_length_b 4.907137
_cell_length_c 9.848377
_cell_angle_alpha 90.000000
_cell_angle_beta 39.638911
_cell_angle_gamma 90.000000
_cell_volume 806.160074
_symmetry_space_group_name_H-M "P 21"
_symmetry_group_IT_number 4
_symmetry_cell_setting 'monoclinic'
loop_
_space_group_symop_operation_xyz
x,y,z
-x,1/2+y,-z
loop_
_atom_site_type_symbol
_atom_site_label
_atom_site_fract_x
_atom_site_fract_y
_atom_site_fract_z
Si Si1 0.084032 0.972980 0.429220
Si Si2 0.089375 0.482429 0.231836
Si Si3 0.449529 0.258935 0.589390
Si Si4 0.340123 0.224803 0.572857
Si Si5 0.249140 0.737091 0.851042
Si Si6 0.754208 0.332667 0.821144
Si Si7 0.340468 0.340602 0.054858
Si Si8 0.444513 0.296689 0.102224
O O1 0.080153 0.666170 0.383116
O O2 0.156685 0.959077 0.389970
O O3 0.995535 0.018173 0.676381
O O4 0.104734 0.179358 0.261485
O O5 0.163131 0.596323 0.991066
O O6 0.509039 0.500862 0.422343
O O7 0.407578 0.132388 0.542194
O O8 0.388288 0.400032 0.818950
O O9 0.316298 0.528922 0.663491
O O10 0.376668 0.214123 0.348672
O O11 0.264439 0.016691 0.736616
O O12 0.256050 0.804650 0.995861
O O13 0.690200 0.532695 0.884607
O O14 0.736533 0.043592 0.785707
O O15 0.398893 0.392439 0.060855
O O16 0.498297 0.542889 0.048392
#
# Coordination Sequence:
#
# PCOD8047232 Si02
#       8
#     2   2   2   2   2   2   2   2
#     4   9  17  29  49  81 122 158 182 218 281 341
#     4   9  17  29  49  81 122 158 182 218 281 341
#     4  12  22  36  54  80 104 136 184 232 290 342
#     4  12  23  38  59  83 110 151 188 238 291 333
#     4  11  19  35  56  87 118 146 185 237 282 336
#     4  11  19  35  56  87 118 146 185 237 282 336
#     4  12  23  38  59  83 110 151 188 238 291 333
#     4  12  26  46  60  78 112 152 198 244 286 348
#
# _framework density 19.847173000000002
#
# number of rings (size 3 to 8) (size 9 to 14) (size 15 to 20)
#    0.000    1.000    2.500    7.500    0.000    0.000 
#    0.000    0.000    0.000    0.000    0.000    3.500 
#    0.000    2.000    0.000    0.000    0.000    0.000 
#
# Total GULP energy -198323.126618 kJ/mol
# GULP energy per Si atom -12395.195414 kJ/mol
# Density = 1.980200 g / cm^3
# Si number density = 19.847173 Si / 1000 Ang^3
#
#
#
# Elastic Constant Matrix: (Units=GPa)
#
#
# Indices 1 2 3 4 5 6 
#
# 1 73.1889 23.4900 33.4165 0.0000 -16.0081 0.0000
# 2 23.4900 97.5722 20.0710 0.0000 -8.9565 0.0000
# 3 33.4165 20.0710 56.1692 0.0000 -16.4430 0.0000
# 4 0.0000 0.0000 0.0000 30.7790 0.0000 -10.2760
# 5 -16.0081 -8.9565 -16.4430 0.0000 28.6648 0.0000
# 6 0.0000 0.0000 0.0000 -10.2760 0.0000 31.1490
#
#
#
# Elastic Compliance Matrix: (Units=1/GPa)
#
#
# Indices 1 2 3 4 5 6 
#
# 1 0.019841 -0.002369 -0.009531 0.000000 0.004873 0.000000
# 2 -0.002369 0.011394 -0.002412 0.000000 0.000853 0.000000
# 3 -0.009531 -0.002412 0.027109 0.000000 0.009474 0.000000
# 4 0.000000 0.000000 0.000000 0.036511 0.000000 0.012045
# 5 0.004873 0.000853 0.009474 0.000000 0.043309 0.000000
# 6 0.000000 0.000000 0.000000 0.012045 0.000000 0.036077
#
#
# Mechanical properties :
#
#
# Convention : Reuss Voigt Hill
#
# Bulk Modulus (GPa) = 33.64769 42.32058 37.98414
# Shear Modulus (GPa) = 23.49940 28.11540 25.80740
#
# Velocity S-wave (km/s) = 3.44469 3.76785 3.60989
# Velocity P-wave (km/s) = 5.72812 6.34811 6.04607
#
# Compressibility (1/GPa) = 0.02971972
#
# Stress axis : x y z
#
# Youngs Moduli (GPa) = 50.40069 87.76833 36.88811
#
# Poissons Ratio (x) = 0.20790 0.35158
# Poissons Ratio (y) = 0.11939 0.08898
# Poissons Ratio (z) = 0.48037 0.21172
#
# Static dielectric constant tensor:
#      x y z
#    x 3.602800 0.000000 -0.640220 
#    y 0.000000 3.766910 0.000000 
#    z -0.640220 0.000000 3.696100 
# 
# 
# High freq. dielectric constant tensor:
#      x y z
#    x 1.742120 0.000000 -0.045600 
#    y 0.000000 1.800000 0.000000 
#    z -0.045600 0.000000 1.747060 
# 
# From -- ./inp_files/10006.got.cif
#   From: 2010.03.12/outbox.cif.g09.slc.cpg/sg4_6_cif.got.tgz:10006.got - 2010.03.31 09:31:35.
