data_PCOD8047374
_publ_section_title
;
Structure prediction by ZEFSAII (Michael W. Deem and Ramdas Pophale) SiO2 
 PCOD8047374
Probable space group: P 21
;
_chemical_formula_sum "Si O2"
_cell_formula_units_Z 16
_cell_length_a 24.941276
_cell_length_b 5.100968
_cell_length_c 30.737843
_cell_angle_alpha 90.000000
_cell_angle_beta 10.048208
_cell_angle_gamma 90.000000
_cell_volume 682.310647
_symmetry_space_group_name_H-M "P 21"
_symmetry_group_IT_number 4
_symmetry_cell_setting 'monoclinic'
loop_
_space_group_symop_operation_xyz
x,y,z
-x,1/2+y,-z
loop_
_atom_site_type_symbol
_atom_site_label
_atom_site_fract_x
_atom_site_fract_y
_atom_site_fract_z
Si Si1 0.114828 0.372360 0.107424
Si Si2 0.182460 0.888329 0.838592
Si Si3 0.389588 0.666766 0.063850
Si Si4 0.298899 0.171699 0.365059
Si Si5 0.463746 0.893714 0.741273
Si Si6 0.825834 0.867927 0.371871
Si Si7 0.067019 0.399807 0.051308
Si Si8 0.200342 0.213398 0.346235
O O1 0.979573 0.581974 0.249366
O O2 0.481205 0.415722 0.808817
O O3 0.935059 0.433961 0.205549
O O4 0.068853 0.077169 0.159720
O O5 0.524534 0.874776 0.582891
O O6 0.993167 0.628218 0.999493
O O7 0.196506 0.920940 0.774755
O O8 0.033350 0.583344 0.351301
O O9 0.585756 0.445531 0.931686
O O10 0.509728 0.688886 0.918106
O O11 0.436665 0.389903 0.287826
O O12 0.303244 0.290271 0.312804
O O13 0.758735 0.943864 0.475252
O O14 0.323337 0.619128 0.836843
O O15 0.215804 0.114299 0.931111
O O16 0.973289 0.436688 0.510204
#
# Coordination Sequence:
#
# PCOD8047374 Si02
#       8
#     2   2   2   2   2   2   2   2
#     4  11  27  43  66  99 148 181 237 304 358 428
#     4  12  22  40  72  99 135 187 245 303 372 418
#     4  12  25  48  75 109 141 188 237 290 362 433
#     4  11  27  49  73 105 151 193 240 292 376 423
#     4  11  24  43  71  97 142 184 238 288 356 440
#     4  12  24  44  67 106 135 188 249 296 353 440
#     4  11  22  45  65  98 135 187 229 300 365 424
#     4  12  25  48  75 107 147 180 235 299 350 428
#
# _framework density 23.449728
#
# number of rings (size 3 to 8) (size 9 to 14) (size 15 to 20)
#    0.000    0.500    5.000    3.000    1.750    7.000 
#    2.250    0.000    0.000    0.000    0.000    0.000 
#    0.000    0.000    0.000    0.000    0.000    0.000 
#
# Total GULP energy -198426.527738 kJ/mol
# GULP energy per Si atom -12401.657984 kJ/mol
# Density = 2.339636 g / cm^3
# Si number density = 23.449728 Si / 1000 Ang^3
#
#
#
# Elastic Constant Matrix: (Units=GPa)
#
#
# Indices 1 2 3 4 5 6 
#
# 1 151.8927 18.4166 43.8072 -0.0203 7.4284 0.0124
# 2 18.4166 93.8081 30.3853 -0.0057 -2.0497 -0.0015
# 3 43.8072 30.3853 108.6803 -0.0197 17.6510 0.0008
# 4 -0.0203 -0.0057 -0.0197 30.9968 0.0162 5.8788
# 5 7.4284 -2.0497 17.6510 0.0162 35.0400 -0.0037
# 6 0.0124 -0.0015 0.0008 5.8788 -0.0037 24.5362
#
#
#
# Elastic Compliance Matrix: (Units=1/GPa)
#
#
# Indices 1 2 3 4 5 6 
#
# 1 0.007476 -0.000556 -0.002826 0.000004 -0.000194 -0.000005
# 2 -0.000556 0.011975 -0.003547 -0.000002 0.002605 0.000002
# 3 -0.002826 -0.003547 0.012273 0.000009 -0.005791 -0.000002
# 4 0.000004 -0.000002 0.000009 0.033797 -0.000022 -0.008098
# 5 -0.000194 0.002605 -0.005791 -0.000022 0.031649 0.000010
# 6 -0.000005 0.000002 -0.000002 -0.008098 0.000010 0.042696
#
#
# Mechanical properties :
#
#
# Convention : Reuss Voigt Hill
#
# Bulk Modulus (GPa) = 55.97779 59.95546 57.96663
# Shear Modulus (GPa) = 31.31264 35.56607 33.43936
#
# Velocity S-wave (km/s) = 3.65815 3.89870 3.78034
# Velocity P-wave (km/s) = 6.46266 6.77419 6.62026
#
# Compressibility (1/GPa) = 0.01786423
#
# Stress axis : x y z
#
# Youngs Moduli (GPa) = 133.76751 83.50673 81.48215
#
# Poissons Ratio (x) = 0.04646 0.23029
# Poissons Ratio (y) = 0.07443 0.28901
# Poissons Ratio (z) = 0.37807 0.29619
#
# Static dielectric constant tensor:
#      x y z
#    x 4.683260 -0.000020 0.055300 
#    y -0.000020 4.166110 0.000010 
#    z 0.055300 0.000010 4.116940 
# 
# 
# High freq. dielectric constant tensor:
#      x y z
#    x 1.944410 0.000000 0.009780 
#    y 0.000000 1.935030 0.000000 
#    z 0.009780 0.000000 1.915850 
# 
# From -- ./inp_files/15888.got.cif
#   From: 2010.03.12/outbox.cif.g09.slc.cpg/sg4_8_cif.got.tgz:15888.got - 2010.03.31 09:31:35.
