data_PCOD8047116
_publ_section_title
;
Structure prediction by ZEFSAII (Michael W. Deem and Ramdas Pophale) SiO2 
 PCOD8047116
Probable space group: P 21
;
_chemical_formula_sum "Si O2"
_cell_formula_units_Z 14
_cell_length_a 14.800316
_cell_length_b 7.831530
_cell_length_c 11.713663
_cell_angle_alpha 90.000000
_cell_angle_beta 150.223169
_cell_angle_gamma 90.000000
_cell_volume 674.275180
_symmetry_space_group_name_H-M "P 21"
_symmetry_group_IT_number 4
_symmetry_cell_setting 'monoclinic'
loop_
_space_group_symop_operation_xyz
x,y,z
-x,1/2+y,-z
loop_
_atom_site_type_symbol
_atom_site_label
_atom_site_fract_x
_atom_site_fract_y
_atom_site_fract_z
Si Si1 0.178734 0.879740 0.409419
Si Si2 0.987057 0.069041 0.668753
Si Si3 0.657592 0.223758 0.204835
Si Si4 0.426781 0.414166 0.550449
Si Si5 0.722640 0.250118 0.716232
Si Si6 0.625991 0.503775 0.995701
Si Si7 0.076251 0.245160 0.247288
O O1 0.321143 0.865188 0.670637
O O2 0.285323 0.864512 0.406556
O O3 0.034748 0.721066 0.261190
O O4 0.074596 0.059504 0.304594
O O5 0.829579 0.092524 0.399683
O O6 0.182092 0.087656 0.824330
O O7 0.967653 0.885522 0.705610
O O8 0.655036 0.314787 0.079274
O O9 0.469519 0.122668 0.014674
O O10 0.595912 0.328960 0.673964
O O11 0.340326 0.558670 0.376732
O O12 0.273051 0.274162 0.406643
O O13 0.494049 0.496838 0.742220
O O14 0.928341 0.249906 0.985607
#
# Coordination Sequence:
#
# PCOD8047116 Si02
#       7
#     2   2   2   2   2   2   2
#     4  10  24  46  67 103 140 186 236 286 359 424
#     4  10  24  49  68 100 147 180 242 296 351 429
#     4  10  26  46  71 102 145 185 239 297 356 421
#     4  12  25  44  72 107 145 185 246 288 354 433
#     4  12  24  45  70 105 145 193 229 301 355 422
#     4  12  24  48  75 101 145 189 233 308 352 419
#     4  12  23  44  73 100 145 186 235 292 363 418
#
# _framework density 20.763037000000001
#
# number of rings (size 3 to 8) (size 9 to 14) (size 15 to 20)
#    0.857    0.000    5.714    1.714    2.000    4.571 
#    5.143    0.000    0.000    0.000    0.000    0.000 
#    0.000    0.000    0.000    0.000    0.000    0.000 
#
# Total GULP energy -173623.528761 kJ/mol
# GULP energy per Si atom -12401.680626 kJ/mol
# Density = 2.071578 g / cm^3
# Si number density = 20.763037 Si / 1000 Ang^3
#
#
#
# Elastic Constant Matrix: (Units=GPa)
#
#
# Indices 1 2 3 4 5 6 
#
# 1 74.1152 23.1852 36.5457 0.0000 18.6103 0.0000
# 2 23.1852 115.5835 25.0432 0.0000 6.8259 0.0000
# 3 36.5457 25.0432 85.4412 0.0000 16.3359 0.0000
# 4 0.0000 0.0000 0.0000 32.2431 0.0000 -5.2884
# 5 18.6103 6.8259 16.3359 0.0000 34.7040 0.0000
# 6 0.0000 0.0000 0.0000 -5.2884 0.0000 33.8072
#
#
#
# Elastic Compliance Matrix: (Units=1/GPa)
#
#
# Indices 1 2 3 4 5 6 
#
# 1 0.018891 -0.002049 -0.006176 0.000000 -0.006821 0.000000
# 2 -0.002049 0.009472 -0.001927 0.000000 0.000143 0.000000
# 3 -0.006176 -0.001927 0.015610 0.000000 -0.003657 0.000000
# 4 0.000000 0.000000 0.000000 0.031831 0.000000 0.004979
# 5 -0.006821 0.000143 -0.003657 0.000000 0.034166 0.000000
# 6 0.000000 0.000000 0.000000 0.004979 0.000000 0.030358
#
#
# Mechanical properties :
#
#
# Convention : Reuss Voigt Hill
#
# Bulk Modulus (GPa) = 42.24886 49.40981 45.82934
# Shear Modulus (GPa) = 29.66985 32.84193 31.25589
#
# Velocity S-wave (km/s) = 3.78428 3.98144 3.88411
# Velocity P-wave (km/s) = 6.28384 6.70704 6.49889
#
# Compressibility (1/GPa) = 0.02366928
#
# Stress axis : x y z
#
# Youngs Moduli (GPa) = 52.93452 105.57621 64.06307
#
# Poissons Ratio (x) = 0.21628 0.39564
# Poissons Ratio (y) = 0.10844 0.12347
# Poissons Ratio (z) = 0.32692 0.20348
#
# Static dielectric constant tensor:
#      x y z
#    x 3.621280 0.000000 0.071640 
#    y 0.000000 3.686500 0.000000 
#    z 0.071640 0.000000 3.717280 
# 
# 
# High freq. dielectric constant tensor:
#      x y z
#    x 1.808850 0.000000 0.003960 
#    y 0.000000 1.813890 0.000000 
#    z 0.003960 0.000000 1.813890 
# 
# From -- ./inp_files/12573.got.cif
#   From: 2010.03.12/outbox.cif.g09.slc.cpg/sg4_7_cif.got.tgz:12573.got - 2010.03.31 09:31:35.
