data_PCOD8047860
_publ_section_title
;
Structure prediction by ZEFSAII (Michael W. Deem and Ramdas Pophale) SiO2 
 PCOD8047860
Probable space group: P 21
;
_chemical_formula_sum "Si O2"
_cell_formula_units_Z 14
_cell_length_a 13.879424
_cell_length_b 5.579188
_cell_length_c 7.389751
_cell_angle_alpha 90.000000
_cell_angle_beta 104.019670
_cell_angle_gamma 90.000000
_cell_volume 555.186838
_symmetry_space_group_name_H-M "P 21"
_symmetry_group_IT_number 4
_symmetry_cell_setting 'monoclinic'
loop_
_space_group_symop_operation_xyz
x,y,z
-x,1/2+y,-z
loop_
_atom_site_type_symbol
_atom_site_label
_atom_site_fract_x
_atom_site_fract_y
_atom_site_fract_z
Si Si1 0.016945 0.135460 0.814172
Si Si2 0.744609 0.729918 0.533026
Si Si3 0.097708 0.887656 0.532196
Si Si4 0.449769 0.055967 0.421717
Si Si5 0.731309 0.093008 0.239056
Si Si6 0.479245 0.723672 0.907158
Si Si7 0.166480 0.439172 0.074867
O O1 0.986372 0.336429 0.653877
O O2 0.044554 0.906991 0.703840
O O3 0.116739 0.199949 0.969205
O O4 0.926808 0.106525 0.913309
O O5 0.848516 0.625447 0.512896
O O6 0.662780 0.534664 0.556462
O O7 0.696989 0.859074 0.335150
O O8 0.766245 0.894528 0.718682
O O9 0.180404 0.684888 0.592138
O O10 0.498564 0.794941 0.470371
O O11 0.448947 0.108894 0.209721
O O12 0.636187 0.268619 0.196820
O O13 0.765243 0.056971 0.047762
O O14 0.521323 0.993696 0.955906
#
# Coordination Sequence:
#
# PCOD8047860 Si02
#       7
#     2   2   2   2   2   2   2
#     4  12  24  44  71 108 145 192 253 303 378 443
#     4  12  26  48  74 109 147 195 252 308 381 452
#     4  12  25  46  77 102 153 199 244 315 377 448
#     4  12  26  48  79 110 151 201 252 313 383 462
#     4  12  26  50  74 107 152 192 250 313 379 453
#     4  12  28  49  78 115 153 197 255 320 387 459
#     4  12  25  45  71 107 143 190 250 306 367 455
#
# _framework density 25.216737999999999
#
# number of rings (size 3 to 8) (size 9 to 14) (size 15 to 20)
#    0.000    0.000    4.286    6.000    2.000    2.286 
#    0.000    0.000    0.000    0.000    0.000    0.000 
#    0.000    0.000    0.000    0.000    0.000    0.000 
#
# Total GULP energy -173463.927703 kJ/mol
# GULP energy per Si atom -12390.280550 kJ/mol
# Density = 2.515934 g / cm^3
# Si number density = 25.216738 Si / 1000 Ang^3
#
#
#
# Elastic Constant Matrix: (Units=GPa)
#
#
# Indices 1 2 3 4 5 6 
#
# 1 107.4978 3.6394 22.9602 0.0000 -11.3636 0.0000
# 2 3.6394 74.9954 11.4833 0.0000 8.9790 0.0000
# 3 22.9602 11.4833 108.5793 0.0000 -23.8813 0.0000
# 4 0.0000 0.0000 0.0000 48.6178 0.0000 1.2825
# 5 -11.3636 8.9790 -23.8813 0.0000 37.4588 0.0000
# 6 0.0000 0.0000 0.0000 1.2825 0.0000 28.6245
#
#
#
# Elastic Compliance Matrix: (Units=1/GPa)
#
#
# Indices 1 2 3 4 5 6 
#
# 1 0.009878 -0.000491 -0.001572 0.000000 0.002112 0.000000
# 2 -0.000491 0.014378 -0.002567 0.000000 -0.005232 0.000000
# 3 -0.001572 -0.002567 0.011450 0.000000 0.007438 0.000000
# 4 0.000000 0.000000 0.000000 0.020593 0.000000 -0.000923
# 5 0.002112 -0.005232 0.007438 0.000000 0.033333 0.000000
# 6 0.000000 0.000000 0.000000 -0.000923 0.000000 0.034976
#
#
# Mechanical properties :
#
#
# Convention : Reuss Voigt Hill
#
# Bulk Modulus (GPa) = 37.81700 40.80426 39.31063
# Shear Modulus (GPa) = 35.04226 39.80621 37.42424
#
# Velocity S-wave (km/s) = 3.73184 3.97742 3.85659
# Velocity P-wave (km/s) = 5.79639 6.10817 5.95432
#
# Compressibility (1/GPa) = 0.02644313
#
# Stress axis : x y z
#
# Youngs Moduli (GPa) = 101.23245 69.55282 87.33748
#
# Poissons Ratio (x) = 0.03418 0.13732
# Poissons Ratio (y) = 0.04975 0.22423
# Poissons Ratio (z) = 0.15917 0.17857
#
# Static dielectric constant tensor:
#      x y z
#    x 4.788500 0.000000 -0.179610 
#    y 0.000000 4.385010 0.000000 
#    z -0.179610 0.000000 4.769610 
# 
# 
# High freq. dielectric constant tensor:
#      x y z
#    x 2.021240 0.000000 -0.015100 
#    y 0.000000 1.991820 0.000000 
#    z -0.015100 0.000000 2.018870 
# 
# From -- ./inp_files/3342.got.cif
#   From: 2010.03.12/outbox.cif.g09.slc.cpg/sg4_2_cif.got.tgz:3342.got - 2010.03.31 09:31:35.
