data_PCOD8047395
_publ_section_title
;
Structure prediction by ZEFSAII (Michael W. Deem and Ramdas Pophale) SiO2 
 PCOD8047395
Probable space group: P 21
;
_chemical_formula_sum "Si O2"
_cell_formula_units_Z 14
_cell_length_a 11.394815
_cell_length_b 8.380591
_cell_length_c 5.816114
_cell_angle_alpha 90.000000
_cell_angle_beta 89.358294
_cell_angle_gamma 90.000000
_cell_volume 555.376624
_symmetry_space_group_name_H-M "P 21"
_symmetry_group_IT_number 4
_symmetry_cell_setting 'monoclinic'
loop_
_space_group_symop_operation_xyz
x,y,z
-x,1/2+y,-z
loop_
_atom_site_type_symbol
_atom_site_label
_atom_site_fract_x
_atom_site_fract_y
_atom_site_fract_z
Si Si1 0.712187 0.491240 0.853550
Si Si2 0.415073 0.784151 0.492796
Si Si3 0.292646 0.535321 0.813411
Si Si4 0.096247 0.474596 0.519344
Si Si5 0.073658 0.178997 0.208239
Si Si6 0.118279 0.706401 0.127466
Si Si7 0.487804 0.503788 0.163166
O O1 0.653062 0.434004 0.616921
O O2 0.785717 0.654808 0.818475
O O3 0.811786 0.367217 0.923333
O O4 0.618332 0.515241 0.058119
O O5 0.337672 0.690427 0.677481
O O6 0.457445 0.673674 0.280365
O O7 0.520185 0.865649 0.640247
O O8 0.221859 0.424119 0.633337
O O9 0.189746 0.572442 0.990932
O O10 0.400228 0.458271 0.954727
O O11 0.050203 0.330555 0.369076
O O12 0.117546 0.642823 0.386770
O O13 0.988909 0.517778 0.693186
O O14 0.014873 0.220570 0.963687
#
# Coordination Sequence:
#
# PCOD8047395 Si02
#       7
#     2   2   2   2   2   2   2
#     4  12  25  49  78 112 153 203 252 320 382 457
#     4  12  25  50  77 109 153 201 253 318 387 451
#     4  11  23  49  76 108 151 198 250 311 383 451
#     4  11  24  48  77 112 155 202 249 317 383 453
#     4  11  27  45  79 114 149 201 257 310 384 456
#     4  11  22  47  80 103 157 195 254 313 380 442
#     4  12  26  50  79 110 150 206 255 321 385 462
#
# _framework density 25.208117999999999
#
# number of rings (size 3 to 8) (size 9 to 14) (size 15 to 20)
#    0.000    0.571    4.286    2.571    2.000    2.286 
#   25.714    0.000    0.000    0.000    0.000    0.000 
#    0.000    0.000    0.000    0.000    0.000    0.000 
#
# Total GULP energy -173526.257664 kJ/mol
# GULP energy per Si atom -12394.732690 kJ/mol
# Density = 2.515074 g / cm^3
# Si number density = 25.208118 Si / 1000 Ang^3
#
#
#
# Elastic Constant Matrix: (Units=GPa)
#
#
# Indices 1 2 3 4 5 6 
#
# 1 141.1993 29.8389 61.9158 0.0000 15.8014 0.0000
# 2 29.8389 41.0412 19.2440 0.0000 15.0053 0.0000
# 3 61.9158 19.2440 126.2421 0.0000 32.1773 0.0000
# 4 0.0000 0.0000 0.0000 40.5427 0.0000 3.8771
# 5 15.8014 15.0053 32.1773 0.0000 42.4844 0.0000
# 6 0.0000 0.0000 0.0000 3.8771 0.0000 44.2150
#
#
#
# Elastic Compliance Matrix: (Units=1/GPa)
#
#
# Indices 1 2 3 4 5 6 
#
# 1 0.010102 -0.005864 -0.004499 0.000000 0.001722 0.000000
# 2 -0.005864 0.031868 0.000410 0.000000 -0.009385 0.000000
# 3 -0.004499 0.000410 0.011991 0.000000 -0.007553 0.000000
# 4 0.000000 0.000000 0.000000 0.024874 0.000000 -0.002181
# 5 0.001722 -0.009385 -0.007553 0.000000 0.031933 0.000000
# 6 0.000000 0.000000 0.000000 -0.002181 0.000000 0.022808
#
#
# Mechanical properties :
#
#
# Convention : Reuss Voigt Hill
#
# Bulk Modulus (GPa) = 29.36479 58.94221 44.15350
# Shear Modulus (GPa) = 30.33361 38.61401 34.47381
#
# Velocity S-wave (km/s) = 3.47266 3.91808 3.70208
# Velocity P-wave (km/s) = 5.26815 6.62582 5.98560
#
# Compressibility (1/GPa) = 0.03405439
#
# Stress axis : x y z
#
# Youngs Moduli (GPa) = 98.99292 31.37908 83.39848
#
# Poissons Ratio (x) = 0.18401 0.37524
# Poissons Ratio (y) = 0.58052 -0.03423
# Poissons Ratio (z) = 0.44541 -0.01288
#
# Static dielectric constant tensor:
#      x y z
#    x 4.683320 0.000000 0.118750 
#    y 0.000000 4.305020 0.000000 
#    z 0.118750 0.000000 4.876770 
# 
# 
# High freq. dielectric constant tensor:
#      x y z
#    x 2.013300 0.000000 0.003490 
#    y 0.000000 1.988810 0.000000 
#    z 0.003490 0.000000 2.018380 
# 
# From -- ./inp_files/2515.got.cif
#   From: 2010.03.12/outbox.cif.g09.slc.cpg/sg4_2_cif.got.tgz:2515.got - 2010.03.31 09:31:35.
