data_PCOD8047203
_publ_section_title
;
Structure prediction by ZEFSAII (Michael W. Deem and Ramdas Pophale) SiO2 
 PCOD8047203
Probable space group: P 21
;
_chemical_formula_sum "Si O2"
_cell_formula_units_Z 16
_cell_length_a 8.215863
_cell_length_b 12.877677
_cell_length_c 12.035254
_cell_angle_alpha 90.000000
_cell_angle_beta 147.076693
_cell_angle_gamma 90.000000
_cell_volume 692.083140
_symmetry_space_group_name_H-M "P 21"
_symmetry_group_IT_number 4
_symmetry_cell_setting 'monoclinic'
loop_
_space_group_symop_operation_xyz
x,y,z
-x,1/2+y,-z
loop_
_atom_site_type_symbol
_atom_site_label
_atom_site_fract_x
_atom_site_fract_y
_atom_site_fract_z
Si Si1 0.578750 0.119860 0.139598
Si Si2 0.450247 0.358653 0.470694
Si Si3 0.444754 0.678655 0.628157
Si Si4 0.204310 0.237456 0.757866
Si Si5 0.875921 0.442777 0.075321
Si Si6 0.978232 0.061115 0.046997
Si Si7 0.029554 0.463785 0.736356
Si Si8 0.584938 0.258956 0.784527
O O1 0.569977 0.187568 0.246438
O O2 0.899087 0.059942 0.307136
O O3 0.493531 0.196095 0.990337
O O4 0.329954 0.030353 0.991081
O O5 0.406679 0.278734 0.343713
O O6 0.127094 0.409573 0.309602
O O7 0.555748 0.300245 0.642653
O O8 0.679160 0.447440 0.560515
O O9 0.661891 0.581360 0.724020
O O10 0.099492 0.672444 0.387302
O O11 0.168502 0.357125 0.773255
O O12 0.270965 0.224578 0.663144
O O13 0.061824 0.481851 0.075742
O O14 0.678887 0.346554 0.925172
O O15 0.825193 0.005239 0.064615
O O16 0.825309 0.167591 0.921806
#
# Coordination Sequence:
#
# PCOD8047203 Si02
#       8
#     2   2   2   2   2   2   2   2
#     4  11  25  47  72  97 142 185 233 282 360 417
#     4  11  26  44  73 102 142 181 235 292 344 416
#     4  10  26  43  67 100 136 181 226 285 348 407
#     4  11  26  45  69 102 144 185 227 298 351 408
#     4  11  25  44  69 101 137 184 228 292 348 414
#     4  11  24  43  73  97 139 184 232 284 349 418
#     4  11  24  45  68 105 139 181 237 287 342 422
#     4  12  24  47  67 104 141 183 236 286 350 416
#
# _framework density 23.118607000000001
#
# number of rings (size 3 to 8) (size 9 to 14) (size 15 to 20)
#    0.000    1.000    5.000    0.000   10.500    3.000 
#    0.000    0.000    0.000    0.000    0.000    0.000 
#    0.000    0.000    0.000    0.000    0.000    0.000 
#
# Total GULP energy -198275.357871 kJ/mol
# GULP energy per Si atom -12392.209867 kJ/mol
# Density = 2.306599 g / cm^3
# Si number density = 23.118607 Si / 1000 Ang^3
#
#
#
# Elastic Constant Matrix: (Units=GPa)
#
#
# Indices 1 2 3 4 5 6 
#
# 1 101.3265 4.9826 22.2564 0.0000 -0.0952 0.0000
# 2 4.9826 42.1279 27.0701 0.0000 3.2011 0.0000
# 3 22.2564 27.0701 84.1308 0.0000 -0.0672 0.0000
# 4 0.0000 0.0000 0.0000 37.0771 0.0000 -3.2112
# 5 -0.0952 3.2011 -0.0672 0.0000 24.3704 0.0000
# 6 0.0000 0.0000 0.0000 -3.2112 0.0000 35.7660
#
#
#
# Elastic Compliance Matrix: (Units=1/GPa)
#
#
# Indices 1 2 3 4 5 6 
#
# 1 0.010494 0.000690 -0.002998 0.000000 -0.000058 0.000000
# 2 0.000690 0.030356 -0.009953 0.000000 -0.004012 0.000000
# 3 -0.002998 -0.009953 0.015883 0.000000 0.001339 0.000000
# 4 0.000000 0.000000 0.000000 0.027182 0.000000 0.002441
# 5 -0.000058 -0.004012 0.001339 0.000000 0.041564 0.000000
# 6 0.000000 0.000000 0.000000 0.002441 0.000000 0.028179
#
#
# Mechanical properties :
#
#
# Convention : Reuss Voigt Hill
#
# Bulk Modulus (GPa) = 31.04637 37.35594 34.20115
# Shear Modulus (GPa) = 26.46667 30.99443 28.73055
#
# Velocity S-wave (km/s) = 3.38719 3.66549 3.52908
# Velocity P-wave (km/s) = 5.36244 5.84019 5.60641
#
# Compressibility (1/GPa) = 0.03220989
#
# Stress axis : x y z
#
# Youngs Moduli (GPa) = 95.29592 32.94228 62.96048
#
# Poissons Ratio (x) = -0.02272 0.18876
# Poissons Ratio (y) = -0.06573 0.62665
# Poissons Ratio (z) = 0.28570 0.32788
#
# Static dielectric constant tensor:
#      x y z
#    x 4.324370 0.000000 0.102090 
#    y 0.000000 4.312570 0.000000 
#    z 0.102090 0.000000 3.911550 
# 
# 
# High freq. dielectric constant tensor:
#      x y z
#    x 1.929810 0.000000 0.006900 
#    y 0.000000 1.917590 0.000000 
#    z 0.006900 0.000000 1.892910 
# 
# From -- ./inp_files/6692.got.cif
#   From: 2010.03.12/outbox.cif.g09.slc.cpg/sg4_4_cif.got.tgz:6692.got - 2010.03.31 09:31:35.
