data_PCOD8047645
_publ_section_title
;
Structure prediction by ZEFSAII (Michael W. Deem and Ramdas Pophale) SiO2 
 PCOD8047645
Probable space group: P 21
;
_chemical_formula_sum "Si O2"
_cell_formula_units_Z 16
_cell_length_a 9.910949
_cell_length_b 9.691163
_cell_length_c 9.406982
_cell_angle_alpha 90.000000
_cell_angle_beta 54.264737
_cell_angle_gamma 90.000000
_cell_volume 733.415294
_symmetry_space_group_name_H-M "P 21"
_symmetry_group_IT_number 4
_symmetry_cell_setting 'monoclinic'
loop_
_space_group_symop_operation_xyz
x,y,z
-x,1/2+y,-z
loop_
_atom_site_type_symbol
_atom_site_label
_atom_site_fract_x
_atom_site_fract_y
_atom_site_fract_z
Si Si1 0.656656 0.128160 0.342782
Si Si2 0.109599 0.380009 0.805490
Si Si3 0.624745 0.664960 0.258446
Si Si4 0.898946 0.496298 0.465709
Si Si5 0.519306 0.293225 0.930736
Si Si6 0.172369 0.910785 0.807247
Si Si7 0.555360 0.580154 0.799446
Si Si8 0.093099 0.768457 0.328836
O O1 0.543130 0.169407 0.545867
O O2 0.758505 0.257347 0.222116
O O3 0.546005 0.068419 0.283841
O O4 0.787008 0.011966 0.311559
O O5 0.234074 0.253480 0.750280
O O6 0.974135 0.337853 0.772772
O O7 0.009734 0.418182 0.010156
O O8 0.589302 0.723683 0.125529
O O9 0.695678 0.510681 0.196026
O O10 0.839653 0.455944 0.347110
O O11 0.747467 0.558518 0.648407
O O12 0.970187 0.359961 0.499165
O O13 0.039670 0.611038 0.376238
O O14 0.489286 0.458443 0.944948
O O15 0.710371 0.260560 0.790561
O O16 0.462929 0.229367 0.115773
#
# Coordination Sequence:
#
# PCOD8047645 Si02
#       8
#     2   2   2   2   2   2   2   2
#     4  12  24  45  75  99 142 186 238 288 347 416
#     4  12  26  46  73 102 143 185 233 295 350 412
#     4  12  25  48  72 104 138 189 235 291 350 416
#     4  11  26  47  68 102 143 181 231 286 349 423
#     4  11  27  44  71 101 144 177 239 286 346 419
#     4  12  26  44  72 105 140 183 238 292 347 415
#     4  11  24  47  67 103 140 184 231 288 344 416
#     4  11  26  47  68 104 140 185 229 288 353 415
#
# _framework density 21.815743999999999
#
# number of rings (size 3 to 8) (size 9 to 14) (size 15 to 20)
#    0.000    0.500    3.750    3.750   10.500    2.000 
#    0.000    0.000    0.000    0.000    0.000    0.000 
#    0.000    0.000    0.000    0.000    0.000    0.000 
#
# Total GULP energy -198513.338363 kJ/mol
# GULP energy per Si atom -12407.083648 kJ/mol
# Density = 2.176609 g / cm^3
# Si number density = 21.815744 Si / 1000 Ang^3
#
#
#
# Elastic Constant Matrix: (Units=GPa)
#
#
# Indices 1 2 3 4 5 6 
#
# 1 62.7772 20.8940 -8.5690 0.0000 -1.0725 0.0000
# 2 20.8940 76.4988 0.5712 0.0000 -6.3034 0.0000
# 3 -8.5690 0.5712 73.9281 0.0000 -5.3400 0.0000
# 4 0.0000 0.0000 0.0000 36.8141 0.0000 3.2475
# 5 -1.0725 -6.3034 -5.3400 0.0000 27.1558 0.0000
# 6 0.0000 0.0000 0.0000 3.2475 0.0000 39.1708
#
#
#
# Elastic Compliance Matrix: (Units=1/GPa)
#
#
# Indices 1 2 3 4 5 6 
#
# 1 0.017844 -0.004891 0.002105 0.000000 -0.000017 0.000000
# 2 -0.004891 0.014669 -0.000455 0.000000 0.003122 0.000000
# 3 0.002105 -0.000455 0.013971 0.000000 0.002725 0.000000
# 4 0.000000 0.000000 0.000000 0.027364 0.000000 -0.002269
# 5 -0.000017 0.003122 0.002725 0.000000 0.038084 0.000000
# 6 0.000000 0.000000 0.000000 -0.002269 0.000000 0.025717
#
#
# Mechanical properties :
#
#
# Convention : Reuss Voigt Hill
#
# Bulk Modulus (GPa) = 24.99843 26.55517 25.77680
# Shear Modulus (GPa) = 31.75317 33.98201 32.86759
#
# Velocity S-wave (km/s) = 3.81926 3.95103 3.88570
# Velocity P-wave (km/s) = 5.56173 5.74570 5.65446
#
# Compressibility (1/GPa) = 0.04000251
#
# Stress axis : x y z
#
# Youngs Moduli (GPa) = 56.04064 68.17286 71.57699
#
# Poissons Ratio (x) = 0.33342 -0.15066
# Poissons Ratio (y) = 0.27409 0.03255
# Poissons Ratio (z) = -0.11796 0.03100
#
# Static dielectric constant tensor:
#      x y z
#    x 3.964180 0.000000 0.022490 
#    y 0.000000 4.274750 0.000000 
#    z 0.022490 0.000000 3.859900 
# 
# 
# High freq. dielectric constant tensor:
#      x y z
#    x 1.867930 0.000000 -0.000410 
#    y 0.000000 1.874460 0.000000 
#    z -0.000410 0.000000 1.853930 
# 
# From -- ./inp_files/5435.got.cif
#   From: 2010.03.12/outbox.cif.g09.slc.cpg/sg4_3_cif.got.tgz:5435.got - 2010.03.31 09:31:35.
