data_PCOD8047115
_publ_section_title
;
Structure prediction by ZEFSAII (Michael W. Deem and Ramdas Pophale) SiO2 
 PCOD8047115
Probable space group: P 21
;
_chemical_formula_sum "Si O2"
_cell_formula_units_Z 16
_cell_length_a 8.334790
_cell_length_b 9.304697
_cell_length_c 16.306950
_cell_angle_alpha 90.000000
_cell_angle_beta 33.405026
_cell_angle_gamma 90.000000
_cell_volume 696.256939
_symmetry_space_group_name_H-M "P 21"
_symmetry_group_IT_number 4
_symmetry_cell_setting 'monoclinic'
loop_
_space_group_symop_operation_xyz
x,y,z
-x,1/2+y,-z
loop_
_atom_site_type_symbol
_atom_site_label
_atom_site_fract_x
_atom_site_fract_y
_atom_site_fract_z
Si Si1 0.704962 0.989290 0.553033
Si Si2 0.547102 0.727645 0.073640
Si Si3 0.804384 0.876040 0.173981
Si Si4 0.763581 0.278150 0.216083
Si Si5 0.778514 0.272345 0.624083
Si Si6 0.565710 0.520072 0.931832
Si Si7 0.148891 0.614527 0.967988
Si Si8 0.811192 0.055599 0.327771
O O1 0.380102 0.936741 0.719753
O O2 0.925105 0.857860 0.480767
O O3 0.819598 0.135565 0.546026
O O4 0.643901 0.012945 0.481754
O O5 0.366886 0.710432 0.232564
O O6 0.406177 0.848326 0.074887
O O7 0.488488 0.576084 0.054940
O O8 0.885068 0.771283 0.943998
O O9 0.452575 0.885032 0.315245
O O10 0.970675 0.980928 0.037241
O O11 0.865443 0.923280 0.241261
O O12 0.897712 0.712004 0.116331
O O13 0.646290 0.203724 0.182787
O O14 0.668023 0.188850 0.338932
O O15 0.333422 0.552401 0.962170
O O16 0.866666 0.596805 0.776920
#
# Coordination Sequence:
#
# PCOD8047115 Si02
#       8
#     2   2   2   2   2   2   2   2
#     4  12  29  48  71 105 145 196 241 291 368 432
#     4  11  23  47  69 106 136 180 243 292 354 412
#     4  11  24  43  75 103 141 184 234 299 352 427
#     4  10  25  44  72 104 142 186 238 294 353 427
#     4  12  28  49  72 101 145 190 243 296 358 431
#     4  11  22  41  70 101 142 178 225 299 345 418
#     4  11  21  40  74 102 143 176 235 289 359 407
#     4  10  24  46  67 100 150 186 233 288 359 426
#
# _framework density 22.980022999999999
#
# number of rings (size 3 to 8) (size 9 to 14) (size 15 to 20)
#    0.000    1.000    3.750    0.750   10.500    1.000 
#    4.500    0.000    0.000    0.000    0.000    0.000 
#    0.000    0.000    0.000    0.000    0.000    0.000 
#
# Total GULP energy -198217.489700 kJ/mol
# GULP energy per Si atom -12388.593106 kJ/mol
# Density = 2.292772 g / cm^3
# Si number density = 22.980023 Si / 1000 Ang^3
#
#
#
# Elastic Constant Matrix: (Units=GPa)
#
#
# Indices 1 2 3 4 5 6 
#
# 1 85.5334 24.5324 21.5905 0.0000 18.4391 0.0000
# 2 24.5324 96.8173 14.4718 0.0000 12.9093 0.0000
# 3 21.5905 14.4718 56.8711 0.0000 14.7634 0.0000
# 4 0.0000 0.0000 0.0000 37.1980 0.0000 4.1107
# 5 18.4391 12.9093 14.7634 0.0000 29.7788 0.0000
# 6 0.0000 0.0000 0.0000 4.1107 0.0000 39.4079
#
#
#
# Elastic Compliance Matrix: (Units=1/GPa)
#
#
# Indices 1 2 3 4 5 6 
#
# 1 0.014567 -0.002351 -0.003277 0.000000 -0.006376 0.000000
# 2 -0.002351 0.011502 -0.001283 0.000000 -0.002894 0.000000
# 3 -0.003277 -0.001283 0.021213 0.000000 -0.007932 0.000000
# 4 0.000000 0.000000 0.000000 0.027197 0.000000 -0.002837
# 5 -0.006376 -0.002894 -0.007932 0.000000 0.042716 0.000000
# 6 0.000000 0.000000 0.000000 -0.002837 0.000000 0.025672
#
#
# Mechanical properties :
#
#
# Convention : Reuss Voigt Hill
#
# Bulk Modulus (GPa) = 29.88574 40.04571 34.96573
# Shear Modulus (GPa) = 29.78978 33.18540 31.48759
#
# Velocity S-wave (km/s) = 3.60437 3.80425 3.70566
# Velocity P-wave (km/s) = 5.50956 6.06305 5.79292
#
# Compressibility (1/GPa) = 0.03346077
#
# Stress axis : x y z
#
# Youngs Moduli (GPa) = 68.64619 86.93990 47.14067
#
# Poissons Ratio (x) = 0.20441 0.15447
# Poissons Ratio (y) = 0.16140 0.06048
# Poissons Ratio (z) = 0.22494 0.11154
#
# Static dielectric constant tensor:
#      x y z
#    x 4.368600 0.000000 0.103660 
#    y 0.000000 4.401870 0.000000 
#    z 0.103660 0.000000 3.958820 
# 
# 
# High freq. dielectric constant tensor:
#      x y z
#    x 1.921180 0.000000 0.008630 
#    y 0.000000 1.911690 0.000000 
#    z 0.008630 0.000000 1.887020 
# 
# From -- ./inp_files/14959.got.cif
#   From: 2010.03.12/outbox.cif.g09.slc.cpg/sg4_8_cif.got.tgz:14959.got - 2010.03.31 09:31:35.
