data_PCOD8047239
_publ_section_title
;
Structure prediction by ZEFSAII (Michael W. Deem and Ramdas Pophale) SiO2 
 PCOD8047239
Probable space group: P 21
;
_chemical_formula_sum "Si O2"
_cell_formula_units_Z 16
_cell_length_a 11.893604
_cell_length_b 6.625622
_cell_length_c 12.741770
_cell_angle_alpha 90.000000
_cell_angle_beta 125.280476
_cell_angle_gamma 90.000000
_cell_volume 819.668069
_symmetry_space_group_name_H-M "P 21"
_symmetry_group_IT_number 4
_symmetry_cell_setting 'monoclinic'
loop_
_space_group_symop_operation_xyz
x,y,z
-x,1/2+y,-z
loop_
_atom_site_type_symbol
_atom_site_label
_atom_site_fract_x
_atom_site_fract_y
_atom_site_fract_z
Si Si1 0.067178 0.658860 0.403068
Si Si2 0.749201 0.226464 0.009254
Si Si3 0.184603 0.002415 0.600375
Si Si4 0.574901 0.558653 0.804756
Si Si5 0.702122 0.906136 0.390490
Si Si6 0.014456 0.037656 0.863084
Si Si7 0.816073 0.842621 0.908517
Si Si8 0.657922 0.180228 0.188592
O O1 0.183866 0.486123 0.467479
O O2 0.944670 0.610168 0.416524
O O3 0.016629 0.671478 0.256196
O O4 0.134490 0.868555 0.475458
O O5 0.882431 0.357383 0.111936
O O6 0.668515 0.161644 0.070223
O O7 0.652348 0.357442 0.882297
O O8 0.788861 0.020288 0.975116
O O9 0.289098 0.165538 0.607658
O O10 0.270938 0.885210 0.734369
O O11 0.451802 0.484968 0.659837
O O12 0.677125 0.718543 0.805148
O O13 0.504494 0.671506 0.867339
O O14 0.734820 0.994996 0.290512
O O15 0.075051 0.187203 0.983007
O O16 0.876164 0.935736 0.834091
#
# Coordination Sequence:
#
# PCOD8047239 Si02
#       8
#     2   2   2   2   2   2   2   2
#     4  11  22  36  65  93 125 166 205 254 313 374
#     4  11  22  37  64  88 128 164 200 267 303 375
#     4  11  20  36  57  93 133 158 194 262 308 372
#     4   9  24  37  60  90 125 163 209 249 316 375
#     4   9  22  38  57  90 129 160 199 249 316 380
#     4  11  24  42  64  94 119 167 219 249 316 365
#     4  11  24  43  62  87 126 165 211 263 300 365
#     4   9  22  35  57  93 125 161 201 241 322 372
#
# _framework density 19.520097
#
# number of rings (size 3 to 8) (size 9 to 14) (size 15 to 20)
#    0.750    1.000    3.750    0.000    5.250    1.000 
#    0.000    0.000    2.750    0.000    0.000    0.000 
#    0.000    0.000    0.000    0.000    0.000    0.000 
#
# Total GULP energy -198337.479244 kJ/mol
# GULP energy per Si atom -12396.092453 kJ/mol
# Density = 1.947567 g / cm^3
# Si number density = 19.520097 Si / 1000 Ang^3
#
#
#
# Elastic Constant Matrix: (Units=GPa)
#
#
# Indices 1 2 3 4 5 6 
#
# 1 99.7261 32.2332 20.2789 0.0000 12.8750 0.0000
# 2 32.2332 106.8997 16.2034 0.0000 8.9960 0.0000
# 3 20.2789 16.2034 45.9354 0.0000 6.0474 0.0000
# 4 0.0000 0.0000 0.0000 20.6413 0.0000 5.4553
# 5 12.8750 8.9960 6.0474 0.0000 24.4178 0.0000
# 6 0.0000 0.0000 0.0000 5.4553 0.0000 33.0229
#
#
#
# Elastic Compliance Matrix: (Units=1/GPa)
#
#
# Indices 1 2 3 4 5 6 
#
# 1 0.012280 -0.002738 -0.003862 0.000000 -0.004510 0.000000
# 2 -0.002738 0.010692 -0.002310 0.000000 -0.001924 0.000000
# 3 -0.003862 -0.002310 0.024715 0.000000 -0.003234 0.000000
# 4 0.000000 0.000000 0.000000 0.050658 0.000000 -0.008369
# 5 -0.004510 -0.001924 -0.003234 0.000000 0.044841 0.000000
# 6 0.000000 0.000000 0.000000 -0.008369 0.000000 0.031664
#
#
# Mechanical properties :
#
#
# Convention : Reuss Voigt Hill
#
# Bulk Modulus (GPa) = 33.48005 43.33248 38.40627
# Shear Modulus (GPa) = 24.67608 27.87280 26.27444
#
# Velocity S-wave (km/s) = 3.55933 3.78286 3.67279
# Velocity P-wave (km/s) = 5.83786 6.42862 6.14035
#
# Compressibility (1/GPa) = 0.02986853
#
# Stress axis : x y z
#
# Youngs Moduli (GPa) = 81.43395 93.52734 40.46137
#
# Poissons Ratio (x) = 0.25607 0.15625
# Poissons Ratio (y) = 0.22296 0.09345
# Poissons Ratio (z) = 0.31447 0.21602
#
# Static dielectric constant tensor:
#      x y z
#    x 3.542270 0.000000 0.243690 
#    y 0.000000 3.599860 0.000000 
#    z 0.243690 0.000000 3.270400 
# 
# 
# High freq. dielectric constant tensor:
#      x y z
#    x 1.751290 0.000000 0.023040 
#    y 0.000000 1.771500 0.000000 
#    z 0.023040 0.000000 1.735900 
# 
# From -- ./inp_files/11789.got.cif
#   From: 2010.03.12/outbox.cif.g09.slc.cpg/sg4_6_cif.got.tgz:11789.got - 2010.03.31 09:31:35.
