data_PCOD8047368
_publ_section_title
;
Structure prediction by ZEFSAII (Michael W. Deem and Ramdas Pophale) SiO2 
 PCOD8047368
Probable space group: P 21
;
_chemical_formula_sum "Si O2"
_cell_formula_units_Z 14
_cell_length_a 18.750920
_cell_length_b 5.617085
_cell_length_c 24.968167
_cell_angle_alpha 90.000000
_cell_angle_beta 12.407959
_cell_angle_gamma 90.000000
_cell_volume 565.064512
_symmetry_space_group_name_H-M "P 21"
_symmetry_group_IT_number 4
_symmetry_cell_setting 'monoclinic'
loop_
_space_group_symop_operation_xyz
x,y,z
-x,1/2+y,-z
loop_
_atom_site_type_symbol
_atom_site_label
_atom_site_fract_x
_atom_site_fract_y
_atom_site_fract_z
Si Si1 0.078844 0.259750 0.304822
Si Si2 0.204536 0.982525 0.066519
Si Si3 0.307297 0.357523 0.377851
Si Si4 0.869701 0.082060 0.118505
Si Si5 0.678860 0.134796 0.803192
Si Si6 0.700566 0.138720 0.355636
Si Si7 0.180121 0.118629 0.578680
O O1 0.102916 0.401333 0.343175
O O2 0.051176 0.397271 0.267207
O O3 0.420502 0.119560 0.042850
O O4 0.736336 0.112742 0.561558
O O5 0.919577 0.148288 0.249308
O O6 0.047955 0.820797 0.227813
O O7 0.374463 0.829425 0.894066
O O8 0.501134 0.134638 0.875706
O O9 0.341974 0.175913 0.401639
O O10 0.953694 0.343226 0.604565
O O11 0.473604 0.051329 0.403758
O O12 0.948990 0.114379 0.123006
O O13 0.969556 0.330873 0.016815
O O14 0.487354 0.891574 0.512591
#
# Coordination Sequence:
#
# PCOD8047368 Si02
#       7
#     2   2   2   2   2   2   2
#     4  11  22  44  72 101 150 194 247 307 375 471
#     4  12  27  47  75 110 150 203 253 323 392 465
#     4  11  26  46  71 112 147 193 262 308 383 478
#     4  12  28  50  83 112 154 204 264 329 401 470
#     4  11  23  42  71 103 148 194 244 306 385 455
#     4  12  28  53  78 116 158 204 268 331 394 476
#     4  11  26  48  74 104 147 202 248 318 396 455
#
# _framework density 24.775931
#
# number of rings (size 3 to 8) (size 9 to 14) (size 15 to 20)
#    0.000    0.571    4.286    2.571    8.000    0.000 
#    5.143    0.000    0.000    0.000    0.000    0.000 
#    0.000    0.000    0.000    0.000    0.000    0.000 
#
# Total GULP energy -173446.808286 kJ/mol
# GULP energy per Si atom -12389.057735 kJ/mol
# Density = 2.471954 g / cm^3
# Si number density = 24.775931 Si / 1000 Ang^3
#
#
#
# Elastic Constant Matrix: (Units=GPa)
#
#
# Indices 1 2 3 4 5 6 
#
# 1 111.6511 0.3976 8.5795 0.0000 -13.3072 0.0000
# 2 0.3976 86.5033 1.3548 0.0000 -4.5642 0.0000
# 3 8.5795 1.3548 73.8794 0.0000 6.0118 0.0000
# 4 0.0000 0.0000 0.0000 30.1927 0.0000 -3.5391
# 5 -13.3072 -4.5642 6.0118 0.0000 49.1789 0.0000
# 6 0.0000 0.0000 0.0000 -3.5391 0.0000 28.2582
#
#
#
# Elastic Compliance Matrix: (Units=1/GPa)
#
#
# Indices 1 2 3 4 5 6 
#
# 1 0.009380 0.000120 -0.001312 0.000000 0.002710 0.000000
# 2 0.000120 0.011625 -0.000321 0.000000 0.001151 0.000000
# 3 -0.001312 -0.000321 0.013863 0.000000 -0.002079 0.000000
# 4 0.000000 0.000000 0.000000 0.033614 0.000000 0.004210
# 5 0.002710 0.001151 -0.002079 0.000000 0.021428 0.000000
# 6 0.000000 0.000000 0.000000 0.004210 0.000000 0.035915
#
#
# Mechanical properties :
#
#
# Convention : Reuss Voigt Hill
#
# Bulk Modulus (GPa) = 31.40355 32.52196 31.96276
# Shear Modulus (GPa) = 35.85132 38.97275 37.41204
#
# Velocity S-wave (km/s) = 3.80810 3.97042 3.89011
# Velocity P-wave (km/s) = 5.66022 5.84585 5.75378
#
# Compressibility (1/GPa) = 0.03184353
#
# Stress axis : x y z
#
# Youngs Moduli (GPa) = 106.61208 86.01826 72.13437
#
# Poissons Ratio (x) = -0.01036 0.09464
# Poissons Ratio (y) = -0.01284 0.02314
# Poissons Ratio (z) = 0.13987 0.02760
#
# Static dielectric constant tensor:
#      x y z
#    x 4.556390 0.000000 -0.158370 
#    y 0.000000 4.492010 0.000000 
#    z -0.158370 0.000000 4.289890 
# 
# 
# High freq. dielectric constant tensor:
#      x y z
#    x 1.998150 0.000000 -0.007320 
#    y 0.000000 1.982090 0.000000 
#    z -0.007320 0.000000 1.978240 
# 
# From -- ./inp_files/16444.got.cif
#   From: 2010.03.12/outbox.cif.g09.slc.cpg/sg4_9_cif.got.tgz:16444.got - 2010.03.31 09:31:35.
