data_PCOD8047925
_publ_section_title
;
Structure prediction by ZEFSAII (Michael W. Deem and Ramdas Pophale) SiO2 
 PCOD8047925
Probable space group: P 21
;
_chemical_formula_sum "Si O2"
_cell_formula_units_Z 16
_cell_length_a 9.626885
_cell_length_b 9.259642
_cell_length_c 11.623167
_cell_angle_alpha 90.000000
_cell_angle_beta 141.057169
_cell_angle_gamma 90.000000
_cell_volume 651.239288
_symmetry_space_group_name_H-M "P 21"
_symmetry_group_IT_number 4
_symmetry_cell_setting 'monoclinic'
loop_
_space_group_symop_operation_xyz
x,y,z
-x,1/2+y,-z
loop_
_atom_site_type_symbol
_atom_site_label
_atom_site_fract_x
_atom_site_fract_y
_atom_site_fract_z
Si Si1 0.071007 0.873700 0.846350
Si Si2 0.404492 0.066387 0.339351
Si Si3 0.083223 0.205566 0.797078
Si Si4 0.025237 0.418316 0.964858
Si Si5 0.288768 0.736408 0.625563
Si Si6 0.508805 0.031119 0.789389
Si Si7 0.573476 0.199389 0.043671
Si Si8 0.368730 0.258476 0.528174
O O1 0.311561 0.820279 0.962354
O O2 0.889745 0.793758 0.650923
O O3 0.063488 0.045009 0.831742
O O4 0.026219 0.832304 0.950453
O O5 0.500342 0.160661 0.297348
O O6 0.462433 0.146197 0.494715
O O7 0.499232 0.905861 0.399351
O O8 0.141164 0.053483 0.155833
O O9 0.990508 0.312242 0.834391
O O10 0.937757 0.211354 0.587584
O O11 0.332400 0.253397 0.928657
O O12 0.268672 0.484089 0.131110
O O13 0.276392 0.670202 0.746418
O O14 0.325699 0.907874 0.657482
O O15 0.411118 0.181293 0.677212
O O16 0.552618 0.054190 0.954009
#
# Coordination Sequence:
#
# PCOD8047925 Si02
#       8
#     2   2   2   2   2   2   2   2
#     4  12  28  52  80 121 159 214 278 342 411 489
#     4  12  25  46  80 119 162 216 268 347 402 491
#     4  12  28  55  84 117 168 222 267 346 413 486
#     4  12  27  50  82 118 166 209 279 341 412 479
#     4  12  27  55  80 117 167 218 279 330 420 499
#     4  12  28  51  79 121 162 217 277 341 413 489
#     4  12  29  53  80 118 163 214 272 338 408 501
#     4  12  26  46  79 119 163 210 280 333 417 484
#
# _framework density 24.568542999999998
#
# number of rings (size 3 to 8) (size 9 to 14) (size 15 to 20)
#    0.000    0.000    2.500    6.750    7.000    1.000 
#    2.250    0.000    0.000    0.000    0.000    0.000 
#    0.000    0.000    0.000    0.000    0.000    0.000 
#
# Total GULP energy -198506.230839 kJ/mol
# GULP energy per Si atom -12406.639427 kJ/mol
# Density = 2.451262 g / cm^3
# Si number density = 24.568543 Si / 1000 Ang^3
#
#
#
# Elastic Constant Matrix: (Units=GPa)
#
#
# Indices 1 2 3 4 5 6 
#
# 1 134.9303 28.6657 57.3251 0.0000 -12.3941 0.0000
# 2 28.6657 125.9256 35.8607 0.0000 -6.6661 0.0000
# 3 57.3251 35.8607 115.7878 0.0000 -17.1041 0.0000
# 4 0.0000 0.0000 0.0000 45.7454 0.0000 -1.1350
# 5 -12.3941 -6.6661 -17.1041 0.0000 34.7838 0.0000
# 6 0.0000 0.0000 0.0000 -1.1350 0.0000 46.9690
#
#
#
# Elastic Compliance Matrix: (Units=1/GPa)
#
#
# Indices 1 2 3 4 5 6 
#
# 1 0.009518 -0.000891 -0.004271 0.000000 0.001121 0.000000
# 2 -0.000891 0.008797 -0.002244 0.000000 0.000265 0.000000
# 3 -0.004271 -0.002244 0.012032 0.000000 0.003964 0.000000
# 4 0.000000 0.000000 0.000000 0.021873 0.000000 0.000529
# 5 0.001121 0.000265 0.003964 0.000000 0.031148 0.000000
# 6 0.000000 0.000000 0.000000 0.000529 0.000000 0.021303
#
#
# Mechanical properties :
#
#
# Convention : Reuss Voigt Hill
#
# Bulk Modulus (GPa) = 64.37295 68.92740 66.65017
# Shear Modulus (GPa) = 40.10845 42.48578 41.29712
#
# Velocity S-wave (km/s) = 4.04482 4.16297 4.10432
# Velocity P-wave (km/s) = 6.93342 7.15703 7.04611
#
# Compressibility (1/GPa) = 0.01553448
#
# Stress axis : x y z
#
# Youngs Moduli (GPa) = 105.06552 113.67264 83.11495
#
# Poissons Ratio (x) = 0.10130 0.35495
# Poissons Ratio (y) = 0.09363 0.18653
# Poissons Ratio (z) = 0.44870 0.25511
#
# Static dielectric constant tensor:
#      x y z
#    x 4.530100 0.000000 -0.066300 
#    y 0.000000 4.389600 0.000000 
#    z -0.066300 0.000000 4.603620 
# 
# 
# High freq. dielectric constant tensor:
#      x y z
#    x 1.981970 0.000000 -0.005110 
#    y 0.000000 1.985490 0.000000 
#    z -0.005110 0.000000 1.987420 
# 
# From -- ./inp_files/11110.got.cif
#   From: 2010.03.12/outbox.cif.g09.slc.cpg/sg4_6_cif.got.tgz:11110.got - 2010.03.31 09:31:35.
