data_PCOD8047310
_publ_section_title
;
Structure prediction by ZEFSAII (Michael W. Deem and Ramdas Pophale) SiO2 
 PCOD8047310
Probable space group: P 21
;
_chemical_formula_sum "Si O2"
_cell_formula_units_Z 16
_cell_length_a 8.973513
_cell_length_b 12.903338
_cell_length_c 7.900188
_cell_angle_alpha 90.000000
_cell_angle_beta 48.565787
_cell_angle_gamma 90.000000
_cell_volume 685.802088
_symmetry_space_group_name_H-M "P 21"
_symmetry_group_IT_number 4
_symmetry_cell_setting 'monoclinic'
loop_
_space_group_symop_operation_xyz
x,y,z
-x,1/2+y,-z
loop_
_atom_site_type_symbol
_atom_site_label
_atom_site_fract_x
_atom_site_fract_y
_atom_site_fract_z
Si Si1 0.035706 0.085150 0.905460
Si Si2 0.609334 0.817047 0.641028
Si Si3 0.406274 0.596474 0.790115
Si Si4 0.332302 0.799140 0.295136
Si Si5 0.659046 0.433564 0.406562
Si Si6 0.281493 0.161839 0.014778
Si Si7 0.047599 0.190603 0.544690
Si Si8 0.484362 0.974083 0.983052
O O1 0.038753 0.106436 0.700392
O O2 0.144740 0.972683 0.842228
O O3 0.138968 0.168400 0.956583
O O4 0.807424 0.083801 0.139251
O O5 0.465981 0.716591 0.769719
O O6 0.524271 0.891150 0.562730
O O7 0.837910 0.784204 0.444506
O O8 0.624137 0.887483 0.796460
O O9 0.576323 0.537743 0.558098
O O10 0.385958 0.544068 0.988752
O O11 0.278608 0.835620 0.524805
O O12 0.174707 0.717364 0.343675
O O13 0.555035 0.752119 0.121760
O O14 0.315769 0.906346 0.204084
O O15 0.173483 0.160685 0.281094
O O16 0.384590 0.049251 0.919904
#
# Coordination Sequence:
#
# PCOD8047310 Si02
#       8
#     2   2   2   2   2   2   2   2
#     4  12  26  46  74 103 144 190 237 297 360 427
#     4  12  23  45  72 103 147 186 236 304 359 424
#     4  11  26  49  69 104 148 187 240 305 358 432
#     4  11  26  45  73 104 142 189 239 298 358 433
#     4  11  26  46  70 106 148 185 244 300 357 434
#     4  12  25  47  71 106 144 187 240 298 354 429
#     4  12  25  46  73 103 141 194 235 294 368 423
#     4  11  21  46  70  97 146 182 233 300 356 414
#
# _framework density 23.330344
#
# number of rings (size 3 to 8) (size 9 to 14) (size 15 to 20)
#    0.000    0.500    5.000    3.000    3.500    1.000 
#    6.750    0.000    0.000    0.000    0.000    0.000 
#    0.000    0.000    0.000    0.000    0.000    0.000 
#
# Total GULP energy -198223.318550 kJ/mol
# GULP energy per Si atom -12388.957409 kJ/mol
# Density = 2.327724 g / cm^3
# Si number density = 23.330344 Si / 1000 Ang^3
#
#
#
# Elastic Constant Matrix: (Units=GPa)
#
#
# Indices 1 2 3 4 5 6 
#
# 1 130.3961 23.7653 19.4503 0.0000 -8.0335 0.0000
# 2 23.7653 93.6282 9.9992 0.0000 1.5388 0.0000
# 3 19.4503 9.9992 40.2022 0.0000 -5.5917 0.0000
# 4 0.0000 0.0000 0.0000 26.5848 0.0000 5.3162
# 5 -8.0335 1.5388 -5.5917 0.0000 38.6661 0.0000
# 6 0.0000 0.0000 0.0000 5.3162 0.0000 34.7289
#
#
#
# Elastic Compliance Matrix: (Units=1/GPa)
#
#
# Indices 1 2 3 4 5 6 
#
# 1 0.008612 -0.001832 -0.003523 0.000000 0.001353 0.000000
# 2 -0.001832 0.011389 -0.002105 0.000000 -0.001138 0.000000
# 3 -0.003523 -0.002105 0.027566 0.000000 0.003338 0.000000
# 4 0.000000 0.000000 0.000000 0.038803 0.000000 -0.005940
# 5 0.001353 -0.001138 0.003338 0.000000 0.026672 0.000000
# 6 0.000000 0.000000 0.000000 -0.005940 0.000000 0.029704
#
#
# Mechanical properties :
#
#
# Convention : Reuss Voigt Hill
#
# Bulk Modulus (GPa) = 30.62927 41.18401 35.90664
# Shear Modulus (GPa) = 29.66535 34.06342 31.86438
#
# Velocity S-wave (km/s) = 3.56973 3.82520 3.69967
# Velocity P-wave (km/s) = 5.49068 6.09922 5.80293
#
# Compressibility (1/GPa) = 0.03264851
#
# Stress axis : x y z
#
# Youngs Moduli (GPa) = 116.12256 87.80392 36.27607
#
# Poissons Ratio (x) = 0.16085 0.12779
# Poissons Ratio (y) = 0.21272 0.07635
# Poissons Ratio (z) = 0.40906 0.18481
#
# Static dielectric constant tensor:
#      x y z
#    x 4.408470 0.000000 0.190600 
#    y 0.000000 4.166350 0.000000 
#    z 0.190600 0.000000 4.128820 
# 
# 
# High freq. dielectric constant tensor:
#      x y z
#    x 1.935780 0.000000 0.009630 
#    y 0.000000 1.923880 0.000000 
#    z 0.009630 0.000000 1.906580 
# 
# From -- ./inp_files/6396.got.cif
#   From: 2010.03.12/outbox.cif.g09.slc.cpg/sg4_4_cif.got.tgz:6396.got - 2010.03.31 09:31:35.
