data_PCOD8047633
_publ_section_title
;
Structure prediction by ZEFSAII (Michael W. Deem and Ramdas Pophale) SiO2 
 PCOD8047633
Probable space group: P 21
;
_chemical_formula_sum "Si O2"
_cell_formula_units_Z 16
_cell_length_a 8.870293
_cell_length_b 8.700235
_cell_length_c 10.880379
_cell_angle_alpha 90.000000
_cell_angle_beta 126.654608
_cell_angle_gamma 90.000000
_cell_volume 673.631021
_symmetry_space_group_name_H-M "P 21"
_symmetry_group_IT_number 4
_symmetry_cell_setting 'monoclinic'
loop_
_space_group_symop_operation_xyz
x,y,z
-x,1/2+y,-z
loop_
_atom_site_type_symbol
_atom_site_label
_atom_site_fract_x
_atom_site_fract_y
_atom_site_fract_z
Si Si1 0.628933 0.793510 0.609285
Si Si2 0.898175 0.101838 0.469674
Si Si3 0.456134 0.073469 0.881289
Si Si4 0.791278 0.276957 0.643156
Si Si5 0.723365 0.250639 0.172852
Si Si6 0.949551 0.579882 0.810883
Si Si7 0.225147 0.553214 0.155881
Si Si8 0.245598 0.269541 0.597070
O O1 0.406268 0.804285 0.526096
O O2 0.735638 0.644883 0.717087
O O3 0.629552 0.791353 0.461879
O O4 0.748950 0.934101 0.720522
O O5 0.902145 0.151162 0.614770
O O6 0.745206 0.206820 0.325653
O O7 0.098021 0.132545 0.501905
O O8 0.866729 0.924085 0.430660
O O9 0.611985 0.013983 0.861905
O O10 0.360137 0.221243 0.772595
O O11 0.318116 0.934030 0.854479
O O12 0.548833 0.146511 0.046428
O O13 0.925678 0.425522 0.718842
O O14 0.761464 0.216970 0.768632
O O15 0.909728 0.204106 0.184744
O O16 0.027584 0.541833 0.985982
#
# Coordination Sequence:
#
# PCOD8047633 Si02
#       8
#     2   2   2   2   2   2   2   2
#     4  12  24  45  71 108 142 195 248 304 381 451
#     4  12  25  43  69 105 141 191 246 309 371 448
#     4  11  25  46  74 107 155 195 249 312 374 460
#     4  12  25  45  75 107 145 194 253 311 379 451
#     4  11  24  46  71 106 151 201 246 309 383 448
#     4  11  26  45  73 104 151 196 253 315 382 457
#     4  11  24  47  70 109 147 194 251 311 381 451
#     4  12  25  43  71 104 146 190 250 305 375 446
#
# _framework density 23.751874999999998
#
# number of rings (size 3 to 8) (size 9 to 14) (size 15 to 20)
#    0.000    0.500    3.750    4.500    1.750    1.000 
#    0.000    3.750    0.000    0.000    0.000    0.000 
#    0.000    0.000    0.000    0.000    0.000    0.000 
#
# Total GULP energy -198320.065340 kJ/mol
# GULP energy per Si atom -12395.004084 kJ/mol
# Density = 2.369781 g / cm^3
# Si number density = 23.751875 Si / 1000 Ang^3
#
#
#
# Elastic Constant Matrix: (Units=GPa)
#
#
# Indices 1 2 3 4 5 6 
#
# 1 63.1179 24.8099 23.1470 0.0000 -2.8998 0.0000
# 2 24.8099 91.1832 25.7064 0.0000 6.9623 0.0000
# 3 23.1470 25.7064 132.5546 0.0000 6.1638 0.0000
# 4 0.0000 0.0000 0.0000 51.8446 0.0000 4.0407
# 5 -2.8998 6.9623 6.1638 0.0000 28.2413 0.0000
# 6 0.0000 0.0000 0.0000 4.0407 0.0000 35.7906
#
#
#
# Elastic Compliance Matrix: (Units=1/GPa)
#
#
# Indices 1 2 3 4 5 6 
#
# 1 0.018778 -0.004670 -0.002542 0.000000 0.003634 0.000000
# 2 -0.004670 0.012925 -0.001536 0.000000 -0.003331 0.000000
# 3 -0.002542 -0.001536 0.008365 0.000000 -0.001708 0.000000
# 4 0.000000 0.000000 0.000000 0.019460 0.000000 -0.002197
# 5 0.003634 -0.003331 -0.001708 0.000000 0.036976 0.000000
# 6 0.000000 0.000000 0.000000 -0.002197 0.000000 0.028188
#
#
# Mechanical properties :
#
#
# Convention : Reuss Voigt Hill
#
# Bulk Modulus (GPa) = 44.30405 48.24248 46.27327
# Shear Modulus (GPa) = 33.39695 37.38813 35.39254
#
# Velocity S-wave (km/s) = 3.75384 3.97181 3.86436
# Velocity P-wave (km/s) = 6.12223 6.43342 6.27975
#
# Compressibility (1/GPa) = 0.02257130
#
# Stress axis : x y z
#
# Youngs Moduli (GPa) = 53.25261 77.36939 119.54049
#
# Poissons Ratio (x) = 0.36133 0.30393
# Poissons Ratio (y) = 0.24870 0.18363
# Poissons Ratio (z) = 0.13539 0.11885
#
# Static dielectric constant tensor:
#      x y z
#    x 3.939480 0.000000 0.057450 
#    y 0.000000 4.210820 0.000000 
#    z 0.057450 0.000000 4.669050 
# 
# 
# High freq. dielectric constant tensor:
#      x y z
#    x 1.924150 0.000000 -0.000040 
#    y 0.000000 1.940320 0.000000 
#    z -0.000040 0.000000 1.962090 
# 
# From -- ./inp_files/5750.got.cif
#   From: 2010.03.12/outbox.cif.g09.slc.cpg/sg4_3_cif.got.tgz:5750.got - 2010.03.31 09:31:35.
