data_PCOD8047839
_publ_section_title
;
Structure prediction by ZEFSAII (Michael W. Deem and Ramdas Pophale) SiO2 
 PCOD8047839
Probable space group: P 21
;
_chemical_formula_sum "Si O2"
_cell_formula_units_Z 10
_cell_length_a 17.464423
_cell_length_b 5.005105
_cell_length_c 12.009305
_cell_angle_alpha 90.000000
_cell_angle_beta 153.848863
_cell_angle_gamma 90.000000
_cell_volume 462.666720
_symmetry_space_group_name_H-M "P 21"
_symmetry_group_IT_number 4
_symmetry_cell_setting 'monoclinic'
loop_
_space_group_symop_operation_xyz
x,y,z
-x,1/2+y,-z
loop_
_atom_site_type_symbol
_atom_site_label
_atom_site_fract_x
_atom_site_fract_y
_atom_site_fract_z
Si Si1 0.362199 0.827170 0.529563
Si Si2 0.193410 0.822243 0.075148
Si Si3 0.097131 0.862896 0.583941
Si Si4 0.413673 0.834144 0.147380
Si Si5 0.965863 0.313698 0.752530
O O1 0.323243 0.827153 0.348066
O O2 0.425922 0.537106 0.652408
O O3 0.191580 0.905856 0.375314
O O4 0.515493 0.034981 0.753186
O O5 0.299789 0.911699 0.105819
O O6 0.119836 0.526369 0.963572
O O7 0.036609 0.030162 0.888392
O O8 0.099395 0.782984 0.458350
O O9 0.983497 0.656484 0.507580
O O10 0.295524 0.860129 0.883655
#
# Coordination Sequence:
#
# PCOD8047839 Si02
#       5
#     2   2   2   2   2
#     4  12  26  41  64 103 134 161 211 271 326 368
#     4  12  23  44  68  94 131 176 213 252 316 398
#     4  12  23  44  68  92 124 169 224 259 309 390
#     4  12  24  42  67  94 133 170 211 266 319 372
#     4  12  24  43  69  95 128 174 213 264 316 378
#
# _framework density 21.613831000000001
#
# number of rings (size 3 to 8) (size 9 to 14) (size 15 to 20)
#    0.000    0.000    4.000    7.200    0.000    1.600 
#    0.000    0.000    0.000    0.000    0.000    0.000 
#    0.000    0.000    0.000    0.000    0.000    0.000 
#
# Total GULP energy -124124.954910 kJ/mol
# GULP energy per Si atom -12412.495491 kJ/mol
# Density = 2.156464 g / cm^3
# Si number density = 21.613831 Si / 1000 Ang^3
#
#
#
# Elastic Constant Matrix: (Units=GPa)
#
#
# Indices 1 2 3 4 5 6 
#
# 1 40.6867 12.6991 13.9062 0.0000 4.4615 0.0000
# 2 12.6991 93.7244 27.6244 0.0000 -7.0026 0.0000
# 3 13.9062 27.6244 105.1498 0.0000 -14.6056 0.0000
# 4 0.0000 0.0000 0.0000 46.3848 0.0000 6.5502
# 5 4.4615 -7.0026 -14.6056 0.0000 37.0010 0.0000
# 6 0.0000 0.0000 0.0000 6.5502 0.0000 27.7575
#
#
#
# Elastic Compliance Matrix: (Units=1/GPa)
#
#
# Indices 1 2 3 4 5 6 
#
# 1 0.027319 -0.003051 -0.003544 0.000000 -0.005270 0.000000
# 2 -0.003051 0.011944 -0.002507 0.000000 0.001639 0.000000
# 3 -0.003544 -0.002507 0.011248 0.000000 0.004393 0.000000
# 4 0.000000 0.000000 0.000000 0.022302 0.000000 -0.005263
# 5 -0.005270 0.001639 0.004393 0.000000 0.029706 0.000000
# 6 0.000000 0.000000 0.000000 -0.005263 0.000000 0.037268
#
#
# Mechanical properties :
#
#
# Convention : Reuss Voigt Hill
#
# Bulk Modulus (GPa) = 30.95146 38.66892 34.81019
# Shear Modulus (GPa) = 29.62797 34.58407 32.10602
#
# Velocity S-wave (km/s) = 3.70643 4.00445 3.85832
# Velocity P-wave (km/s) = 5.71561 6.26981 5.99911
#
# Compressibility (1/GPa) = 0.03230865
#
# Stress axis : x y z
#
# Youngs Moduli (GPa) = 36.60406 83.72222 88.90775
#
# Poissons Ratio (x) = 0.25543 0.31505
# Poissons Ratio (y) = 0.11168 0.22287
# Poissons Ratio (z) = 0.12971 0.20988
#
# Static dielectric constant tensor:
#      x y z
#    x 3.776330 0.000000 -0.156470 
#    y 0.000000 3.894590 0.000000 
#    z -0.156470 0.000000 3.980490 
# 
# 
# High freq. dielectric constant tensor:
#      x y z
#    x 1.843000 0.000000 -0.008310 
#    y 0.000000 1.863400 0.000000 
#    z -0.008310 0.000000 1.865300 
# 
# From -- ./inp_files/7007.got.cif
#   From: 2010.03.12/outbox.cif.g09.slc.cpg/sg4_4_cif.got.tgz:7007.got - 2010.03.31 09:31:35.
