data_PCOD8047378
_publ_section_title
;
Structure prediction by ZEFSAII (Michael W. Deem and Ramdas Pophale) SiO2 
 PCOD8047378
Probable space group: P 21
;
_chemical_formula_sum "Si O2"
_cell_formula_units_Z 14
_cell_length_a 9.002098
_cell_length_b 9.615528
_cell_length_c 12.454131
_cell_angle_alpha 90.000000
_cell_angle_beta 145.368042
_cell_angle_gamma 90.000000
_cell_volume 612.646678
_symmetry_space_group_name_H-M "P 21"
_symmetry_group_IT_number 4
_symmetry_cell_setting 'monoclinic'
loop_
_space_group_symop_operation_xyz
x,y,z
-x,1/2+y,-z
loop_
_atom_site_type_symbol
_atom_site_label
_atom_site_fract_x
_atom_site_fract_y
_atom_site_fract_z
Si Si1 0.809799 0.831320 0.509622
Si Si2 0.830187 0.571457 0.754843
Si Si3 0.530734 0.564553 0.368786
Si Si4 0.085891 0.398566 0.204711
Si Si5 0.563635 0.506271 0.814684
Si Si6 0.378704 0.728401 0.860581
Si Si7 0.594540 0.012617 0.934979
O O1 0.560399 0.731422 0.387630
O O2 0.862804 0.935019 0.640522
O O3 0.715515 0.924066 0.352257
O O4 0.071945 0.740628 0.646567
O O5 0.726844 0.510921 0.578643
O O6 0.837797 0.738443 0.767623
O O7 0.641786 0.523532 0.737245
O O8 0.112755 0.502106 0.936815
O O9 0.240756 0.509714 0.224161
O O10 0.594756 0.519449 0.283143
O O11 0.778525 0.414601 0.002807
O O12 0.525029 0.652959 0.849789
O O13 0.511926 0.878588 0.954597
O O14 0.421519 0.646578 0.997264
#
# Coordination Sequence:
#
# PCOD8047378 Si02
#       7
#     2   2   2   2   2   2   2
#     4  11  26  45  69 108 152 195 247 312 368 458
#     4  11  24  46  72 109 142 191 257 309 368 442
#     4  11  23  44  76 102 146 194 244 318 364 432
#     4  11  22  45  70 110 142 186 253 306 375 427
#     4  12  26  46  75 104 151 198 246 311 376 440
#     4  12  29  49  75 113 152 205 245 303 391 456
#     4  12  26  51  73 108 155 193 252 311 370 453
#
# _framework density 22.851669000000001
#
# number of rings (size 3 to 8) (size 9 to 14) (size 15 to 20)
#    0.000    0.571    5.714    2.571    4.000    0.000 
#    0.000    0.000    0.000    0.000    0.000    0.000 
#    0.000    0.000    0.000    0.000    0.000    0.000 
#
# Total GULP energy -173514.795247 kJ/mol
# GULP energy per Si atom -12393.913946 kJ/mol
# Density = 2.279966 g / cm^3
# Si number density = 22.851669 Si / 1000 Ang^3
#
#
#
# Elastic Constant Matrix: (Units=GPa)
#
#
# Indices 1 2 3 4 5 6 
#
# 1 103.2092 38.3985 50.7132 0.0000 -10.0451 0.0000
# 2 38.3985 85.7341 60.5250 0.0000 0.6609 0.0000
# 3 50.7132 60.5250 141.4530 0.0000 -11.2020 0.0000
# 4 0.0000 0.0000 0.0000 38.0483 0.0000 1.0402
# 5 -10.0451 0.6609 -11.2020 0.0000 34.0131 0.0000
# 6 0.0000 0.0000 0.0000 1.0402 0.0000 30.9932
#
#
#
# Elastic Compliance Matrix: (Units=1/GPa)
#
#
# Indices 1 2 3 4 5 6 
#
# 1 0.012719 -0.003818 -0.002693 0.000000 0.002944 0.000000
# 2 -0.003818 0.018113 -0.006673 0.000000 -0.003677 0.000000
# 3 -0.002693 -0.006673 0.011128 0.000000 0.002999 0.000000
# 4 0.000000 0.000000 0.000000 0.026307 0.000000 -0.000883
# 5 0.002944 -0.003677 0.002999 0.000000 0.031329 0.000000
# 6 0.000000 0.000000 0.000000 -0.000883 0.000000 0.032295
#
#
# Mechanical properties :
#
#
# Convention : Reuss Voigt Hill
#
# Bulk Modulus (GPa) = 64.13496 69.96330 67.04913
# Shear Modulus (GPa) = 30.58938 32.66155 31.62546
#
# Velocity S-wave (km/s) = 3.66267 3.78469 3.72418
# Velocity P-wave (km/s) = 6.78333 7.05558 6.92079
#
# Compressibility (1/GPa) = 0.01559212
#
# Stress axis : x y z
#
# Youngs Moduli (GPa) = 78.61969 55.20930 89.86638
#
# Poissons Ratio (x) = 0.21079 0.24204
# Poissons Ratio (y) = 0.30018 0.59963
# Poissons Ratio (z) = 0.21175 0.36838
#
# Static dielectric constant tensor:
#      x y z
#    x 4.071470 0.000000 -0.126150 
#    y 0.000000 3.903060 0.000000 
#    z -0.126150 0.000000 4.336410 
# 
# 
# High freq. dielectric constant tensor:
#      x y z
#    x 1.895430 0.000000 -0.012830 
#    y 0.000000 1.890320 0.000000 
#    z -0.012830 0.000000 1.920590 
# 
# From -- ./inp_files/11102.got.cif
#   From: 2010.03.12/outbox.cif.g09.slc.cpg/sg4_6_cif.got.tgz:11102.got - 2010.03.31 09:31:35.
