data_PCOD8047002
_publ_section_title
;
Structure prediction by ZEFSAII (Michael W. Deem and Ramdas Pophale) SiO2 
 PCOD8047002
Probable space group: P 21
;
_chemical_formula_sum "Si O2"
_cell_formula_units_Z 16
_cell_length_a 9.067583
_cell_length_b 5.070432
_cell_length_c 26.957371
_cell_angle_alpha 90.000000
_cell_angle_beta 148.601721
_cell_angle_gamma 90.000000
_cell_volume 645.711347
_symmetry_space_group_name_H-M "P 21"
_symmetry_group_IT_number 4
_symmetry_cell_setting 'monoclinic'
loop_
_space_group_symop_operation_xyz
x,y,z
-x,1/2+y,-z
loop_
_atom_site_type_symbol
_atom_site_label
_atom_site_fract_x
_atom_site_fract_y
_atom_site_fract_z
Si Si1 0.301152 0.065710 0.157861
Si Si2 0.836337 0.624643 0.449515
Si Si3 0.694368 0.132526 0.182565
Si Si4 0.156921 0.287368 0.856436
Si Si5 0.525446 0.904345 0.446334
Si Si6 0.192971 0.408061 0.372903
Si Si7 0.352818 0.571089 0.238589
Si Si8 0.307617 0.466278 0.007510
O O1 0.525809 0.995356 0.179322
O O2 0.321642 0.359939 0.186027
O O3 0.360525 0.863383 0.218921
O O4 0.978685 0.039232 0.044806
O O5 0.658030 0.815493 0.433370
O O6 0.648010 0.520492 0.350192
O O7 0.938783 0.349443 0.504670
O O8 0.446923 0.214281 0.073311
O O9 0.876204 0.364174 0.261192
O O10 0.922191 0.968899 0.214114
O O11 0.912159 0.068765 0.797606
O O12 0.453482 0.183965 0.920833
O O13 0.219079 0.439815 0.924886
O O14 0.263034 0.711540 0.382362
O O15 0.776186 0.866948 0.559032
O O16 0.413059 0.203549 0.410571
#
# Coordination Sequence:
#
# PCOD8047002 Si02
#       8
#     2   2   2   2   2   2   2   2
#     4  11  29  48  72 107 152 193 240 308 375 444
#     4  12  26  43  74 106 144 190 237 295 360 431
#     4  12  28  42  76 108 145 190 250 300 373 442
#     4  11  24  46  73 102 140 191 246 300 354 448
#     4  10  23  47  67 102 140 181 234 287 352 420
#     4  10  24  43  72 100 140 182 228 295 349 425
#     4  11  27  49  74 104 151 195 250 297 368 443
#     4  11  25  44  72 101 144 186 237 302 367 425
#
# _framework density 24.778874999999999
#
# number of rings (size 3 to 8) (size 9 to 14) (size 15 to 20)
#    0.000    1.000    1.250    3.000   14.000    0.000 
#    0.000    0.000    0.000    0.000    0.000    0.000 
#    0.000    0.000    0.000    0.000    0.000    0.000 
#
# Total GULP energy -198255.703321 kJ/mol
# GULP energy per Si atom -12390.981458 kJ/mol
# Density = 2.472248 g / cm^3
# Si number density = 24.778875 Si / 1000 Ang^3
#
#
#
# Elastic Constant Matrix: (Units=GPa)
#
#
# Indices 1 2 3 4 5 6 
#
# 1 105.7674 -2.1381 23.5819 0.0000 2.6013 0.0000
# 2 -2.1381 65.1959 17.0480 0.0000 -5.1126 0.0000
# 3 23.5819 17.0480 111.3309 -0.0002 1.0226 -0.0001
# 4 0.0000 0.0000 -0.0002 23.5857 0.0000 -0.0801
# 5 2.6013 -5.1126 1.0226 0.0000 24.6496 0.0000
# 6 0.0000 0.0000 -0.0001 -0.0801 0.0000 25.6937
#
#
#
# Elastic Compliance Matrix: (Units=1/GPa)
#
#
# Indices 1 2 3 4 5 6 
#
# 1 0.009991 0.000852 -0.002239 0.000000 -0.000785 0.000000
# 2 0.000852 0.016344 -0.002714 0.000000 0.003413 0.000000
# 3 -0.002239 -0.002714 0.009879 0.000000 -0.000737 0.000000
# 4 0.000000 0.000000 0.000000 0.042399 0.000000 0.000132
# 5 -0.000785 0.003413 -0.000737 0.000000 0.041390 0.000000
# 6 0.000000 0.000000 0.000000 0.000132 0.000000 0.038920
#
#
# Mechanical properties :
#
#
# Convention : Reuss Voigt Hill
#
# Bulk Modulus (GPa) = 35.70290 39.91977 37.81134
# Shear Modulus (GPa) = 28.33451 31.03928 29.68690
#
# Velocity S-wave (km/s) = 3.38523 3.54312 3.46507
# Velocity P-wave (km/s) = 5.45157 5.73443 5.59478
#
# Compressibility (1/GPa) = 0.02800893
#
# Stress axis : x y z
#
# Youngs Moduli (GPa) = 100.09494 61.18553 101.22485
#
# Poissons Ratio (x) = -0.05211 0.22668
# Poissons Ratio (y) = -0.08525 0.27477
# Poissons Ratio (z) = 0.22415 0.16608
#
# Static dielectric constant tensor:
#      x y z
#    x 5.145460 0.000000 -0.060730 
#    y 0.000000 4.470110 0.000000 
#    z -0.060730 0.000000 4.798620 
# 
# 
# High freq. dielectric constant tensor:
#      x y z
#    x 1.983020 0.000000 0.000960 
#    y 0.000000 1.981720 0.000000 
#    z 0.000960 0.000000 1.997100 
# 
# From -- ./inp_files/10134.got.cif
#   From: 2010.03.12/outbox.cif.g09.slc.cpg/sg4_6_cif.got.tgz:10134.got - 2010.03.31 09:31:35.
