data_PCOD8047868
_publ_section_title
;
Structure prediction by ZEFSAII (Michael W. Deem and Ramdas Pophale) SiO2 
 PCOD8047868
Probable space group: P 21
;
_chemical_formula_sum "Si O2"
_cell_formula_units_Z 16
_cell_length_a 18.110127
_cell_length_b 6.541961
_cell_length_c 13.853885
_cell_angle_alpha 90.000000
_cell_angle_beta 24.495401
_cell_angle_gamma 90.000000
_cell_volume 680.536593
_symmetry_space_group_name_H-M "P 21"
_symmetry_group_IT_number 4
_symmetry_cell_setting 'monoclinic'
loop_
_space_group_symop_operation_xyz
x,y,z
-x,1/2+y,-z
loop_
_atom_site_type_symbol
_atom_site_label
_atom_site_fract_x
_atom_site_fract_y
_atom_site_fract_z
Si Si1 0.313055 0.104080 0.797239
Si Si2 0.106560 0.716809 0.049209
Si Si3 0.120195 0.559272 0.241419
Si Si4 0.296608 0.244716 0.490804
Si Si5 0.318645 0.455448 0.658913
Si Si6 0.224342 0.833294 0.284324
Si Si7 0.582136 0.045859 0.806204
Si Si8 0.457568 0.357319 0.805714
O O1 0.235793 0.258108 0.810030
O O2 0.397881 0.225265 0.785500
O O3 0.473381 0.971938 0.560370
O O4 0.147950 0.956485 0.019483
O O5 0.167750 0.602476 0.073027
O O6 0.902270 0.662420 0.275875
O O7 0.210830 0.649231 0.828287
O O8 0.137112 0.763757 0.286280
O O9 0.928638 0.453690 0.476368
O O10 0.282022 0.410053 0.077824
O O11 0.304188 0.425451 0.561264
O O12 0.341014 0.339960 0.333314
O O13 0.432636 0.061537 0.354674
O O14 0.287751 0.628265 0.264700
O O15 0.386844 0.991238 0.079055
O O16 0.579510 0.224411 0.730545
#
# Coordination Sequence:
#
# PCOD8047868 Si02
#       8
#     2   2   2   2   2   2   2   2
#     4  12  24  44  76 105 144 197 249 299 362 440
#     4  12  29  45  74 111 151 192 249 307 372 446
#     4  12  26  49  73 112 143 193 252 310 368 449
#     4  12  29  46  75 109 155 198 242 307 379 451
#     4  12  25  47  72 108 145 195 246 299 371 445
#     4  12  28  46  80 109 151 195 253 310 380 446
#     4  12  27  50  75 109 149 198 243 314 379 449
#     4  12  24  49  75 105 150 196 248 306 379 436
#
# _framework density 23.510859
#
# number of rings (size 3 to 8) (size 9 to 14) (size 15 to 20)
#    0.000    0.000    5.000    4.500    7.000    1.000 
#    0.000    0.000    0.000    0.000    0.000    0.000 
#    0.000    0.000    0.000    0.000    0.000    0.000 
#
# Total GULP energy -198428.198943 kJ/mol
# GULP energy per Si atom -12401.762434 kJ/mol
# Density = 2.345735 g / cm^3
# Si number density = 23.510859 Si / 1000 Ang^3
#
#
#
# Elastic Constant Matrix: (Units=GPa)
#
#
# Indices 1 2 3 4 5 6 
#
# 1 85.2210 34.0581 31.2134 0.0000 1.1060 0.0000
# 2 34.0581 101.6050 43.2049 0.0000 -1.1002 0.0000
# 3 31.2134 43.2049 129.7476 0.0000 -11.7302 0.0000
# 4 0.0000 0.0000 0.0000 43.7829 0.0000 -0.1278
# 5 1.1060 -1.1002 -11.7302 0.0000 38.0142 0.0000
# 6 0.0000 0.0000 0.0000 -0.1278 0.0000 47.9111
#
#
#
# Elastic Compliance Matrix: (Units=1/GPa)
#
#
# Indices 1 2 3 4 5 6 
#
# 1 0.014081 -0.003781 -0.002238 0.000000 -0.001210 0.000000
# 2 -0.003781 0.012509 -0.003305 0.000000 -0.000548 0.000000
# 3 -0.002238 -0.003305 0.009612 0.000000 0.002935 0.000000
# 4 0.000000 0.000000 0.000000 0.022840 0.000000 0.000061
# 5 -0.001210 -0.000548 0.002935 0.000000 0.027231 0.000000
# 6 0.000000 0.000000 0.000000 0.000061 0.000000 0.020872
#
#
# Mechanical properties :
#
#
# Convention : Reuss Voigt Hill
#
# Bulk Modulus (GPa) = 56.97100 59.28071 58.12586
# Shear Modulus (GPa) = 37.98115 39.81479 38.89797
#
# Velocity S-wave (km/s) = 4.02365 4.11964 4.07193
# Velocity P-wave (km/s) = 6.77280 6.92080 6.84720
#
# Compressibility (1/GPa) = 0.01755279
#
# Stress axis : x y z
#
# Youngs Moduli (GPa) = 71.01938 79.94157 104.04145
#
# Poissons Ratio (x) = 0.30230 0.23280
# Poissons Ratio (y) = 0.26856 0.34388
# Poissons Ratio (z) = 0.15891 0.26423
#
# Static dielectric constant tensor:
#      x y z
#    x 4.225900 0.000000 0.151070 
#    y 0.000000 4.269980 0.000000 
#    z 0.151070 0.000000 4.265240 
# 
# 
# High freq. dielectric constant tensor:
#      x y z
#    x 1.930440 0.000000 0.004940 
#    y 0.000000 1.935220 0.000000 
#    z 0.004940 0.000000 1.937390 
# 
# From -- ./inp_files/10751.got.cif
#   From: 2010.03.12/outbox.cif.g09.slc.cpg/sg4_6_cif.got.tgz:10751.got - 2010.03.31 09:31:35.
