data_PCOD8047825
_publ_section_title
;
Structure prediction by ZEFSAII (Michael W. Deem and Ramdas Pophale) SiO2 
 PCOD8047825
Probable space group: P 21
;
_chemical_formula_sum "Si O2"
_cell_formula_units_Z 16
_cell_length_a 10.231278
_cell_length_b 6.733667
_cell_length_c 23.024488
_cell_angle_alpha 90.000000
_cell_angle_beta 26.855610
_cell_angle_gamma 90.000000
_cell_volume 716.578149
_symmetry_space_group_name_H-M "P 21"
_symmetry_group_IT_number 4
_symmetry_cell_setting 'monoclinic'
loop_
_space_group_symop_operation_xyz
x,y,z
-x,1/2+y,-z
loop_
_atom_site_type_symbol
_atom_site_label
_atom_site_fract_x
_atom_site_fract_y
_atom_site_fract_z
Si Si1 0.928400 0.533960 0.212124
Si Si2 0.861252 0.797121 0.978340
Si Si3 0.618858 0.037686 0.182392
Si Si4 0.085798 0.291571 0.352358
Si Si5 0.279012 0.626375 0.184095
Si Si6 0.397184 0.669266 0.617482
Si Si7 0.455109 0.854173 0.359522
Si Si8 0.859174 0.931676 0.379076
O O1 0.827492 0.345953 0.289477
O O2 0.656720 0.677220 0.305125
O O3 0.077196 0.466410 0.093750
O O4 0.167758 0.619425 0.161435
O O5 0.138977 0.666845 0.881929
O O6 0.626135 0.636894 0.047978
O O7 0.754886 0.914859 0.076431
O O8 0.380506 0.195928 0.257230
O O9 0.479670 0.868609 0.279916
O O10 0.157986 0.458516 0.275824
O O11 0.884047 0.353964 0.486856
O O12 0.870054 0.134334 0.409292
O O13 0.180807 0.845280 0.244155
O O14 0.432523 0.571490 0.666241
O O15 0.696746 0.752377 0.474904
O O16 0.296893 0.481510 0.619153
#
# Coordination Sequence:
#
# PCOD8047825 Si02
#       8
#     2   2   2   2   2   2   2   2
#     4  12  26  45  76 110 143 186 238 303 367 430
#     4  12  28  50  72 100 144 202 250 292 342 424
#     4  12  28  50  72 100 144 202 250 292 342 424
#     4  12  26  45  76 110 143 186 238 303 367 430
#     4  12  26  45  76 110 143 186 238 303 367 430
#     4  12  22  42  72 112 148 184 230 296 384 434
#     4  12  26  45  76 110 143 186 238 303 367 430
#     4  12  22  42  72 112 148 184 230 296 384 434
#
# _framework density 22.328341000000002
#
# number of rings (size 3 to 8) (size 9 to 14) (size 15 to 20)
#    0.000    0.000    7.500    3.000    0.000    6.000 
#    0.000    0.000    0.000    0.000    0.000    0.000 
#    0.000    0.000    0.000    0.000    0.000    0.000 
#
# Total GULP energy -198317.890305 kJ/mol
# GULP energy per Si atom -12394.868144 kJ/mol
# Density = 2.227752 g / cm^3
# Si number density = 22.328341 Si / 1000 Ang^3
#
#
#
# Elastic Constant Matrix: (Units=GPa)
#
#
# Indices 1 2 3 4 5 6 
#
# 1 44.9997 14.2353 33.3901 0.0000 17.0470 0.0000
# 2 14.2353 83.3788 18.1499 0.0000 2.6162 0.0000
# 3 33.3901 18.1499 76.0765 0.0000 5.4611 0.0000
# 4 0.0000 0.0000 0.0000 41.3265 0.0000 -1.2037
# 5 17.0470 2.6162 5.4611 0.0000 35.8391 0.0000
# 6 0.0000 0.0000 0.0000 -1.2037 0.0000 32.9607
#
#
#
# Elastic Compliance Matrix: (Units=1/GPa)
#
#
# Indices 1 2 3 4 5 6 
#
# 1 0.041885 -0.003036 -0.016425 0.000000 -0.017199 0.000000
# 2 -0.003036 0.012878 -0.001796 0.000000 0.000778 0.000000
# 3 -0.016425 -0.001796 0.020435 0.000000 0.004830 0.000000
# 4 0.000000 0.000000 0.000000 0.024223 0.000000 0.000885
# 5 -0.017199 0.000778 0.004830 0.000000 0.035290 0.000000
# 6 0.000000 0.000000 0.000000 0.000885 0.000000 0.030371
#
#
# Mechanical properties :
#
#
# Convention : Reuss Voigt Hill
#
# Bulk Modulus (GPa) = 30.59425 37.33395 33.96410
# Shear Modulus (GPa) = 22.88415 31.27058 27.07736
#
# Velocity S-wave (km/s) = 3.20487 3.74637 3.48615
# Velocity P-wave (km/s) = 5.23704 5.95571 5.60790
#
# Compressibility (1/GPa) = 0.03268588
#
# Stress axis : x y z
#
# Youngs Moduli (GPa) = 23.87479 77.65005 48.93524
#
# Poissons Ratio (x) = 0.23575 0.80374
# Poissons Ratio (y) = 0.07249 0.08787
# Poissons Ratio (z) = 0.39213 0.13944
#
# Static dielectric constant tensor:
#      x y z
#    x 4.047920 0.000000 0.074920 
#    y 0.000000 4.269530 0.000000 
#    z 0.074920 0.000000 4.109190 
# 
# 
# High freq. dielectric constant tensor:
#      x y z
#    x 1.885740 0.000000 0.003310 
#    y 0.000000 1.889950 0.000000 
#    z 0.003310 0.000000 1.888990 
# 
# From -- ./inp_files/15540.got.cif
#   From: 2010.03.12/outbox.cif.g09.slc.cpg/sg4_8_cif.got.tgz:15540.got - 2010.03.31 09:31:35.
