data_PCOD8047476
_publ_section_title
;
Structure prediction by ZEFSAII (Michael W. Deem and Ramdas Pophale) SiO2 
 PCOD8047476
Probable space group: P 21
;
_chemical_formula_sum "Si O2"
_cell_formula_units_Z 16
_cell_length_a 15.501579
_cell_length_b 6.487700
_cell_length_c 24.513681
_cell_angle_alpha 90.000000
_cell_angle_beta 18.468519
_cell_angle_gamma 90.000000
_cell_volume 780.976301
_symmetry_space_group_name_H-M "P 21"
_symmetry_group_IT_number 4
_symmetry_cell_setting 'monoclinic'
loop_
_space_group_symop_operation_xyz
x,y,z
-x,1/2+y,-z
loop_
_atom_site_type_symbol
_atom_site_label
_atom_site_fract_x
_atom_site_fract_y
_atom_site_fract_z
Si Si1 0.686376 0.133680 0.017385
Si Si2 0.125491 0.824035 0.718519
Si Si3 0.690124 0.099421 0.141438
Si Si4 0.282169 0.870511 0.190817
Si Si5 0.706962 0.750282 0.209339
Si Si6 0.680773 0.523465 0.952014
Si Si7 0.551425 0.059613 0.391315
Si Si8 0.655194 0.863223 0.570834
O O1 0.613831 0.118609 0.124227
O O2 0.438547 0.042619 0.131417
O O3 0.730110 0.368778 0.972641
O O4 0.968918 0.015623 0.838769
O O5 0.234093 0.682408 0.701573
O O6 0.924947 0.688876 0.801428
O O7 0.369453 0.908155 0.536159
O O8 0.500272 0.264005 0.285227
O O9 0.633518 0.866680 0.196644
O O10 0.004391 0.139455 0.967063
O O11 0.971087 0.884181 0.395812
O O12 0.328615 0.902729 0.098821
O O13 0.398723 0.642837 0.133336
O O14 0.470279 0.587898 0.365069
O O15 0.724768 0.921672 0.245864
O O16 0.364393 0.223557 0.471598
#
# Coordination Sequence:
#
# PCOD8047476 Si02
#       8
#     2   2   2   2   2   2   2   2
#     4  11  25  44  68  99 136 178 233 276 339 401
#     4  11  26  39  66 105 138 175 220 278 340 413
#     4  11  24  43  70  97 132 186 222 281 336 410
#     4  11  24  43  70  97 132 186 222 281 336 410
#     4  11  23  44  70  95 138 179 223 275 347 404
#     4  11  23  44  70  95 138 179 223 275 347 404
#     4  11  26  39  66 105 138 175 220 278 340 413
#     4  11  25  44  68  99 136 178 233 276 339 401
#
# _framework density 20.487176000000002
#
# number of rings (size 3 to 8) (size 9 to 14) (size 15 to 20)
#    0.000    1.000    2.500    3.000   10.500    4.000 
#    4.500    0.000    0.000    0.000    0.000    0.000 
#    0.000    0.000    0.000    0.000    0.000    0.000 
#
# Total GULP energy -198513.228612 kJ/mol
# GULP energy per Si atom -12407.076788 kJ/mol
# Density = 2.044055 g / cm^3
# Si number density = 20.487176 Si / 1000 Ang^3
#
#
#
# Elastic Constant Matrix: (Units=GPa)
#
#
# Indices 1 2 3 4 5 6 
#
# 1 91.9729 22.2629 15.1468 0.0000 13.0266 0.0000
# 2 22.2629 111.2491 31.4183 0.0000 2.3079 0.0000
# 3 15.1468 31.4183 112.2367 0.0000 -11.9013 0.0000
# 4 0.0000 0.0000 0.0000 28.0290 0.0000 -4.8681
# 5 13.0266 2.3079 -11.9013 0.0000 27.0384 0.0000
# 6 0.0000 0.0000 0.0000 -4.8681 0.0000 29.3261
#
#
#
# Elastic Compliance Matrix: (Units=1/GPa)
#
#
# Indices 1 2 3 4 5 6 
#
# 1 0.012586 -0.001843 -0.001898 0.000000 -0.006742 0.000000
# 2 -0.001843 0.010149 -0.002717 0.000000 -0.001174 0.000000
# 3 -0.001898 -0.002717 0.010540 0.000000 0.005785 0.000000
# 4 0.000000 0.000000 0.000000 0.036736 0.000000 0.006098
# 5 -0.006742 -0.001174 0.005785 0.000000 0.042879 0.000000
# 6 0.000000 0.000000 0.000000 0.006098 0.000000 0.035112
#
#
# Mechanical properties :
#
#
# Convention : Reuss Voigt Hill
#
# Bulk Modulus (GPa) = 49.11453 50.34607 49.73030
# Shear Modulus (GPa) = 29.81440 33.32077 31.56759
#
# Velocity S-wave (km/s) = 3.81894 4.03727 3.92962
# Velocity P-wave (km/s) = 6.59326 6.80885 6.70192
#
# Compressibility (1/GPa) = 0.02036057
#
# Stress axis : x y z
#
# Youngs Moduli (GPa) = 79.45175 98.52896 94.87830
#
# Poissons Ratio (x) = 0.18159 0.18004
# Poissons Ratio (y) = 0.14643 0.25777
# Poissons Ratio (z) = 0.15076 0.26769
#
# Static dielectric constant tensor:
#      x y z
#    x 3.728660 0.000000 -0.011320 
#    y 0.000000 3.962210 0.000000 
#    z -0.011320 0.000000 3.618970 
# 
# 
# High freq. dielectric constant tensor:
#      x y z
#    x 1.801610 0.000000 -0.000020 
#    y 0.000000 1.819500 0.000000 
#    z -0.000020 0.000000 1.800520 
# 
# From -- ./inp_files/10711.got.cif
#   From: 2010.03.12/outbox.cif.g09.slc.cpg/sg4_6_cif.got.tgz:10711.got - 2010.03.31 09:31:35.
