data_PCOD8047934
_publ_section_title
;
Structure prediction by ZEFSAII (Michael W. Deem and Ramdas Pophale) SiO2 
 PCOD8047934
Probable space group: P 21
;
_chemical_formula_sum "Si O2"
_cell_formula_units_Z 14
_cell_length_a 21.027907
_cell_length_b 7.037677
_cell_length_c 5.253760
_cell_angle_alpha 90.000000
_cell_angle_beta 129.771557
_cell_angle_gamma 90.000000
_cell_volume 597.580838
_symmetry_space_group_name_H-M "P 21"
_symmetry_group_IT_number 4
_symmetry_cell_setting 'monoclinic'
loop_
_space_group_symop_operation_xyz
x,y,z
-x,1/2+y,-z
loop_
_atom_site_type_symbol
_atom_site_label
_atom_site_fract_x
_atom_site_fract_y
_atom_site_fract_z
Si Si1 0.373362 0.864700 0.221449
Si Si2 0.932437 0.350579 0.574323
Si Si3 0.400278 0.545199 0.650173
Si Si4 0.912645 0.105498 0.023460
Si Si5 0.757751 0.853283 0.613311
Si Si6 0.483781 0.193060 0.687046
Si Si7 0.779145 0.611769 0.171731
O O1 0.358063 0.733697 0.428331
O O2 0.419904 0.725280 0.146780
O O3 0.437770 0.035753 0.408240
O O4 0.285173 0.946124 0.910620
O O5 0.938463 0.223679 0.337646
O O6 0.868682 0.521094 0.362671
O O7 0.021963 0.438444 0.857436
O O8 0.905827 0.233141 0.754170
O O9 0.331501 0.451969 0.660049
O O10 0.424339 0.374805 0.519403
O O11 0.493420 0.599961 0.983372
O O12 0.824130 0.013148 0.854566
O O13 0.783971 0.759513 0.414834
O O14 0.751788 0.705582 0.834182
#
# Coordination Sequence:
#
# PCOD8047934 Si02
#       7
#     2   2   2   2   2   2   2
#     4  12  27  44  69  99 141 189 245 303 368 427
#     4  12  25  47  77 109 147 188 237 291 361 428
#     4  12  27  44  69  99 141 189 245 303 368 427
#     4  12  25  47  77 109 147 188 237 291 361 428
#     4  12  28  47  72 105 146 188 241 297 360 429
#     4  12  26  44  68  98 138 188 246 302 366 430
#     4  12  28  47  72 105 146 188 241 297 360 429
#
# _framework density 23.427793999999999
#
# number of rings (size 3 to 8) (size 9 to 14) (size 15 to 20)
#    0.000    0.000    4.286    5.143   10.000    0.000 
#    0.000    0.000    0.000    0.000    0.000    0.000 
#    0.000    0.000    0.000    0.000    0.000    0.000 
#
# Total GULP energy -173543.697569 kJ/mol
# GULP energy per Si atom -12395.978398 kJ/mol
# Density = 2.337447 g / cm^3
# Si number density = 23.427794 Si / 1000 Ang^3
#
#
#
# Elastic Constant Matrix: (Units=GPa)
#
#
# Indices 1 2 3 4 5 6 
#
# 1 85.3570 22.0373 13.4063 0.0000 4.7247 0.0000
# 2 22.0373 92.9747 25.5781 0.0000 0.7291 0.0000
# 3 13.4063 25.5781 79.2995 0.0000 1.9376 0.0000
# 4 0.0000 0.0000 0.0000 39.9546 0.0000 4.6253
# 5 4.7247 0.7291 1.9376 0.0000 44.6885 0.0000
# 6 0.0000 0.0000 0.0000 4.6253 0.0000 47.5359
#
#
#
# Elastic Compliance Matrix: (Units=1/GPa)
#
#
# Indices 1 2 3 4 5 6 
#
# 1 0.012665 -0.002646 -0.001257 0.000000 -0.001241 0.000000
# 2 -0.002646 0.012356 -0.003544 0.000000 0.000232 0.000000
# 3 -0.001257 -0.003544 0.013976 0.000000 -0.000415 0.000000
# 4 0.000000 0.000000 0.000000 0.025314 0.000000 -0.002463
# 5 -0.001241 0.000232 -0.000415 0.000000 0.022523 0.000000
# 6 0.000000 0.000000 0.000000 -0.002463 0.000000 0.021276
#
#
# Mechanical properties :
#
#
# Convention : Reuss Voigt Hill
#
# Bulk Modulus (GPa) = 41.48940 42.18606 41.83773
# Shear Modulus (GPa) = 38.15684 39.54309 38.84996
#
# Velocity S-wave (km/s) = 4.04009 4.11283 4.07662
# Velocity P-wave (km/s) = 6.28578 6.37179 6.32893
#
# Compressibility (1/GPa) = 0.02410254
#
# Stress axis : x y z
#
# Youngs Moduli (GPa) = 78.95843 80.93273 71.55051
#
# Poissons Ratio (x) = 0.21417 0.08995
# Poissons Ratio (y) = 0.20895 0.25355
# Poissons Ratio (z) = 0.09927 0.28680
#
# Static dielectric constant tensor:
#      x y z
#    x 4.212470 0.000000 0.108640 
#    y 0.000000 4.442530 0.000000 
#    z 0.108640 0.000000 4.107150 
# 
# 
# High freq. dielectric constant tensor:
#      x y z
#    x 1.935380 0.000000 0.008920 
#    y 0.000000 1.948740 0.000000 
#    z 0.008920 0.000000 1.924010 
# 
# From -- ./inp_files/3327.got.cif
#   From: 2010.03.12/outbox.cif.g09.slc.cpg/sg4_2_cif.got.tgz:3327.got - 2010.03.31 09:31:35.
