data_PCOD8047871
_publ_section_title
;
Structure prediction by ZEFSAII (Michael W. Deem and Ramdas Pophale) SiO2 
 PCOD8047871
Probable space group: P 21
;
_chemical_formula_sum "Si O2"
_cell_formula_units_Z 16
_cell_length_a 11.212729
_cell_length_b 4.937099
_cell_length_c 16.902349
_cell_angle_alpha 90.000000
_cell_angle_beta 47.406733
_cell_angle_gamma 90.000000
_cell_volume 688.830311
_symmetry_space_group_name_H-M "P 21"
_symmetry_group_IT_number 4
_symmetry_cell_setting 'monoclinic'
loop_
_space_group_symop_operation_xyz
x,y,z
-x,1/2+y,-z
loop_
_atom_site_type_symbol
_atom_site_label
_atom_site_fract_x
_atom_site_fract_y
_atom_site_fract_z
Si Si1 0.040641 0.608190 0.431905
Si Si2 0.937452 0.430195 0.311976
Si Si3 0.588058 0.121017 0.751683
Si Si4 0.561325 0.565925 0.015512
Si Si5 0.070582 0.940585 0.170052
Si Si6 0.075093 0.600673 0.927208
Si Si7 0.576676 0.308187 0.429569
Si Si8 0.444118 0.619806 0.739250
O O1 0.222118 0.674037 0.322803
O O2 0.042014 0.379940 0.498810
O O3 0.934952 0.508216 0.405078
O O4 0.755186 0.424569 0.362369
O O5 0.023922 0.140233 0.262834
O O6 0.040222 0.637745 0.212862
O O7 0.501454 0.182691 0.873432
O O8 0.512137 0.316973 0.719141
O O9 0.559179 0.813770 0.738505
O O10 0.451287 0.309323 0.041524
O O11 0.745323 0.468335 0.939732
O O12 0.954775 0.001599 0.148148
O O13 0.264799 0.643896 0.855192
O O14 0.014164 0.384765 0.018855
O O15 0.453244 0.556820 0.497984
O O16 0.549887 0.195881 0.354490
#
# Coordination Sequence:
#
# PCOD8047871 Si02
#       8
#     2   2   2   2   2   2   2   2
#     4  12  28  49  73 104 141 193 240 303 365 421
#     4  12  27  49  73 106 143 185 246 298 359 438
#     4  12  27  47  72 108 146 189 243 297 362 432
#     4  12  25  45  74 105 144 193 244 297 359 430
#     4  12  24  45  73 104 141 189 233 297 360 425
#     4  12  25  43  68 105 146 189 233 284 358 432
#     4  12  28  47  77 108 143 196 242 302 367 431
#     4  12  26  47  72 106 148 188 235 300 362 433
#
# _framework density 23.227779000000002
#
# number of rings (size 3 to 8) (size 9 to 14) (size 15 to 20)
#    0.000    0.000    1.250    9.000    7.000    0.000 
#    0.000    0.000    0.000    0.000    0.000    0.000 
#    0.000    0.000    0.000    0.000    0.000    0.000 
#
# Total GULP energy -198593.675150 kJ/mol
# GULP energy per Si atom -12412.104697 kJ/mol
# Density = 2.317491 g / cm^3
# Si number density = 23.227779 Si / 1000 Ang^3
#
#
#
# Elastic Constant Matrix: (Units=GPa)
#
#
# Indices 1 2 3 4 5 6 
#
# 1 90.6309 16.2198 31.7066 0.0000 3.6739 0.0000
# 2 16.2198 108.9146 29.6204 0.0000 -6.2187 0.0000
# 3 31.7066 29.6204 104.5120 0.0000 -5.2649 0.0000
# 4 0.0000 0.0000 0.0000 47.2619 0.0000 3.0027
# 5 3.6739 -6.2187 -5.2649 0.0000 26.9349 0.0000
# 6 0.0000 0.0000 0.0000 3.0027 0.0000 40.7156
#
#
#
# Elastic Compliance Matrix: (Units=1/GPa)
#
#
# Indices 1 2 3 4 5 6 
#
# 1 0.012610 -0.001033 -0.003668 0.000000 -0.002675 0.000000
# 2 -0.001033 0.010117 -0.002453 0.000000 0.001997 0.000000
# 3 -0.003668 -0.002453 0.011486 0.000000 0.002179 0.000000
# 4 0.000000 0.000000 0.000000 0.021258 0.000000 -0.001568
# 5 -0.002675 0.001997 0.002179 0.000000 0.038379 0.000000
# 6 0.000000 0.000000 0.000000 -0.001568 0.000000 0.024676
#
#
# Mechanical properties :
#
#
# Convention : Reuss Voigt Hill
#
# Bulk Modulus (GPa) = 50.23915 51.01678 50.62797
# Shear Modulus (GPa) = 35.85034 38.08319 36.96676
#
# Velocity S-wave (km/s) = 3.93291 4.05353 3.99368
# Velocity P-wave (km/s) = 6.50381 6.62718 6.56579
#
# Compressibility (1/GPa) = 0.01990479
#
# Stress axis : x y z
#
# Youngs Moduli (GPa) = 79.30072 98.84786 87.06275
#
# Poissons Ratio (x) = 0.10214 0.31931
# Poissons Ratio (y) = 0.08194 0.21358
# Poissons Ratio (z) = 0.29084 0.24249
#
# Static dielectric constant tensor:
#      x y z
#    x 4.080300 0.000000 -0.000570 
#    y 0.000000 4.417920 0.000000 
#    z -0.000570 0.000000 4.218050 
# 
# 
# High freq. dielectric constant tensor:
#      x y z
#    x 1.921790 0.000000 -0.000830 
#    y 0.000000 1.935360 0.000000 
#    z -0.000830 0.000000 1.930230 
# 
# From -- ./inp_files/13579.got.cif
#   From: 2010.03.12/outbox.cif.g09.slc.cpg/sg4_7_cif.got.tgz:13579.got - 2010.03.31 09:31:35.
