data_PCOD8047464
_publ_section_title
;
Structure prediction by ZEFSAII (Michael W. Deem and Ramdas Pophale) SiO2 
 PCOD8047464
Probable space group: P 21
;
_chemical_formula_sum "Si O2"
_cell_formula_units_Z 16
_cell_length_a 9.357683
_cell_length_b 13.352794
_cell_length_c 6.415669
_cell_angle_alpha 90.000000
_cell_angle_beta 69.486874
_cell_angle_gamma 90.000000
_cell_volume 750.814828
_symmetry_space_group_name_H-M "P 21"
_symmetry_group_IT_number 4
_symmetry_cell_setting 'monoclinic'
loop_
_space_group_symop_operation_xyz
x,y,z
-x,1/2+y,-z
loop_
_atom_site_type_symbol
_atom_site_label
_atom_site_fract_x
_atom_site_fract_y
_atom_site_fract_z
Si Si1 0.544094 0.000000 0.209232
Si Si2 0.553582 0.323269 0.496109
Si Si3 0.863585 0.075880 0.189814
Si Si4 0.640251 0.466910 0.084916
Si Si5 0.972943 0.611082 0.297906
Si Si6 0.349973 0.132626 0.578493
Si Si7 0.063307 0.946913 0.357344
Si Si8 0.145337 0.748074 0.486978
O O1 0.696184 0.063441 0.177584
O O2 0.395271 0.057334 0.369852
O O3 0.562031 0.896571 0.326209
O O4 0.510946 0.977097 0.983599
O O5 0.617416 0.372186 0.250534
O O6 0.469454 0.220801 0.497297
O O7 0.688656 0.297410 0.590267
O O8 0.883613 0.186504 0.284062
O O9 0.908665 0.985339 0.322048
O O10 0.986879 0.068341 0.946126
O O11 0.646510 0.571717 0.205591
O O12 0.793262 0.445852 0.874184
O O13 0.819813 0.679043 0.361581
O O14 0.907872 0.520172 0.466141
O O15 0.120351 0.667747 0.314689
O O16 0.031513 0.839091 0.483343
#
# Coordination Sequence:
#
# PCOD8047464 Si02
#       8
#     2   2   2   2   2   2   2   2
#     4  11  24  44  69 101 134 177 234 280 344 410
#     4  11  25  42  67 102 137 176 231 286 341 417
#     4  11  26  43  69 107 136 183 227 294 345 412
#     4  11  23  43  73  95 134 186 222 283 353 399
#     4  11  25  44  70 100 141 178 228 284 351 410
#     4  11  23  45  68  98 139 173 227 286 335 421
#     4  11  23  46  68  97 138 182 229 276 350 420
#     4  11  25  43  70  98 137 181 232 279 347 413
#
# _framework density 21.310181
#
# number of rings (size 3 to 8) (size 9 to 14) (size 15 to 20)
#    0.000    1.000    5.000    0.750    5.250    2.000 
#    0.000    0.000    0.000    0.000    0.000    0.000 
#    0.000    0.000    0.000    0.000    0.000    0.000 
#
# Total GULP energy -198267.724401 kJ/mol
# GULP energy per Si atom -12391.732775 kJ/mol
# Density = 2.126168 g / cm^3
# Si number density = 21.310181 Si / 1000 Ang^3
#
#
#
# Elastic Constant Matrix: (Units=GPa)
#
#
# Indices 1 2 3 4 5 6 
#
# 1 110.0878 41.0518 42.3557 0.0000 6.9780 0.0000
# 2 41.0518 122.3532 48.7990 0.0000 7.8901 0.0000
# 3 42.3557 48.7990 90.5061 0.0000 2.3649 0.0000
# 4 0.0000 0.0000 0.0000 23.3229 0.0000 1.0202
# 5 6.9780 7.8901 2.3649 0.0000 27.4248 0.0000
# 6 0.0000 0.0000 0.0000 1.0202 0.0000 36.4470
#
#
#
# Elastic Compliance Matrix: (Units=1/GPa)
#
#
# Indices 1 2 3 4 5 6 
#
# 1 0.011625 -0.002067 -0.004274 0.000000 -0.001995 0.000000
# 2 -0.002067 0.010956 -0.004882 0.000000 -0.002205 0.000000
# 3 -0.004274 -0.004882 0.015652 0.000000 0.001142 0.000000
# 4 0.000000 0.000000 0.000000 0.042929 0.000000 -0.001202
# 5 -0.001995 -0.002205 0.001142 0.000000 0.037507 0.000000
# 6 0.000000 0.000000 0.000000 -0.001202 0.000000 0.027471
#
#
# Mechanical properties :
#
#
# Convention : Reuss Voigt Hill
#
# Bulk Modulus (GPa) = 63.34549 65.26224 64.30386
# Shear Modulus (GPa) = 28.76079 30.15499 29.45789
#
# Velocity S-wave (km/s) = 3.67771 3.76580 3.72202
# Velocity P-wave (km/s) = 6.91550 7.04271 6.97939
#
# Compressibility (1/GPa) = 0.01578644
#
# Stress axis : x y z
#
# Youngs Moduli (GPa) = 86.01941 91.27346 63.89155
#
# Poissons Ratio (x) = 0.18870 0.27305
# Poissons Ratio (y) = 0.17783 0.31193
# Poissons Ratio (z) = 0.36762 0.44561
#
# Static dielectric constant tensor:
#      x y z
#    x 3.855850 0.000000 0.220400 
#    y 0.000000 3.876140 0.000000 
#    z 0.220400 0.000000 3.787160 
# 
# 
# High freq. dielectric constant tensor:
#      x y z
#    x 1.842670 0.000000 0.016770 
#    y 0.000000 1.836380 0.000000 
#    z 0.016770 0.000000 1.830280 
# 
# From -- ./inp_files/1535.got.cif
#   From: 2010.03.12/outbox.cif.g09.slc.cpg/sg4_1_cif.got.tgz:1535.got - 2010.03.31 09:31:35.
