data_PCOD8047912
_publ_section_title
;
Structure prediction by ZEFSAII (Michael W. Deem and Ramdas Pophale) SiO2 
 PCOD8047912
Probable space group: P 21
;
_chemical_formula_sum "Si O2"
_cell_formula_units_Z 16
_cell_length_a 8.738634
_cell_length_b 5.136868
_cell_length_c 19.349018
_cell_angle_alpha 90.000000
_cell_angle_beta 46.436388
_cell_angle_gamma 90.000000
_cell_volume 629.368525
_symmetry_space_group_name_H-M "P 21"
_symmetry_group_IT_number 4
_symmetry_cell_setting 'monoclinic'
loop_
_space_group_symop_operation_xyz
x,y,z
-x,1/2+y,-z
loop_
_atom_site_type_symbol
_atom_site_label
_atom_site_fract_x
_atom_site_fract_y
_atom_site_fract_z
Si Si1 0.919186 0.521960 0.667567
Si Si2 0.023572 0.231536 0.205623
Si Si3 0.319562 0.105879 0.710469
Si Si4 0.312793 0.800919 0.903165
Si Si5 0.373541 0.401680 0.558432
Si Si6 0.085099 0.419364 0.890311
Si Si7 0.558527 0.929136 0.950401
Si Si8 0.337317 0.519811 0.294814
O O1 0.794943 0.276222 0.678190
O O2 0.902154 0.544836 0.755696
O O3 0.169566 0.484102 0.576276
O O4 0.822719 0.776040 0.660115
O O5 0.793391 0.360056 0.291925
O O6 0.035459 0.082687 0.129964
O O7 0.197674 0.462348 0.147455
O O8 0.321327 0.348821 0.656394
O O9 0.175007 0.162806 0.823861
O O10 0.556765 0.033422 0.661271
O O11 0.294338 0.561824 0.855335
O O12 0.425288 0.737247 0.940117
O O13 0.468283 0.012216 0.819916
O O14 0.072254 0.886057 0.995600
O O15 0.541793 0.632782 0.500269
O O16 0.542510 0.717687 0.018131
#
# Coordination Sequence:
#
# PCOD8047912 Si02
#       8
#     2   2   2   2   2   2   2   2
#     4  12  27  49  80 117 156 195 253 315 398 459
#     4  12  25  44  73 102 147 208 265 314 382 450
#     4  12  27  50  79 110 159 204 264 318 401 459
#     4  12  26  43  70 105 164 206 276 306 387 422
#     4  12  28  53  89 119 148 195 257 323 397 488
#     4  12  26  45  68 107 155 220 262 334 358 466
#     4  12  28  42  65 100 147 201 269 328 371 426
#     4  12  27  46  76 116 160 209 246 318 380 460
#
# _framework density 25.422308000000001
#
# number of rings (size 3 to 8) (size 9 to 14) (size 15 to 20)
#    0.000    0.000    5.000    4.500    3.500    0.000 
#    0.000    2.500    0.000    1.500    0.000    0.000 
#    0.000    0.000    0.000    0.000    0.000    0.000 
#
# Total GULP energy -198275.664356 kJ/mol
# GULP energy per Si atom -12392.229022 kJ/mol
# Density = 2.536445 g / cm^3
# Si number density = 25.422308 Si / 1000 Ang^3
#
#
#
# Elastic Constant Matrix: (Units=GPa)
#
#
# Indices 1 2 3 4 5 6 
#
# 1 134.3858 41.0763 15.6810 0.0000 -40.1550 0.0000
# 2 41.0763 140.4302 26.5519 0.0000 -24.3766 0.0000
# 3 15.6810 26.5519 71.2071 0.0000 -19.9667 0.0000
# 4 0.0000 0.0000 0.0000 34.3978 0.0000 -8.6904
# 5 -40.1550 -24.3766 -19.9667 0.0000 28.7562 0.0000
# 6 0.0000 0.0000 0.0000 -8.6904 0.0000 41.4083
#
#
#
# Elastic Compliance Matrix: (Units=1/GPa)
#
#
# Indices 1 2 3 4 5 6 
#
# 1 0.013330 -0.001025 0.003008 0.000000 0.019834 0.000000
# 2 -0.001025 0.008543 -0.001652 0.000000 0.004663 0.000000
# 3 0.003008 -0.001652 0.018356 0.000000 0.015546 0.000000
# 4 0.000000 0.000000 0.000000 0.030699 0.000000 0.006443
# 5 0.019834 0.004663 0.015546 0.000000 0.077217 0.000000
# 6 0.000000 0.000000 0.000000 0.006443 0.000000 0.025502
#
#
# Mechanical properties :
#
#
# Convention : Reuss Voigt Hill
#
# Bulk Modulus (GPa) = 24.45539 56.96018 40.70779
# Shear Modulus (GPa) = 26.79303 38.42671 32.60987
#
# Velocity S-wave (km/s) = 3.24993 3.89206 3.58540
# Velocity P-wave (km/s) = 4.87066 6.53083 5.76086
#
# Compressibility (1/GPa) = 0.04089077
#
# Stress axis : x y z
#
# Youngs Moduli (GPa) = 75.01932 117.06014 54.47756
#
# Poissons Ratio (x) = 0.11999 -0.16388
# Poissons Ratio (y) = 0.07689 0.09000
# Poissons Ratio (z) = -0.22567 0.19340
#
# Static dielectric constant tensor:
#      x y z
#    x 5.042530 0.000000 -0.210390 
#    y 0.000000 4.511610 0.000000 
#    z -0.210390 0.000000 4.488130 
# 
# 
# High freq. dielectric constant tensor:
#      x y z
#    x 2.035370 0.000000 -0.020070 
#    y 0.000000 2.014510 0.000000 
#    z -0.020070 0.000000 1.994880 
# 
# From -- ./inp_files/16050.got.cif
#   From: 2010.03.12/outbox.cif.g09.slc.cpg/sg4_9_cif.got.tgz:16050.got - 2010.03.31 09:31:35.
