data_PCOD8047713
_publ_section_title
;
Structure prediction by ZEFSAII (Michael W. Deem and Ramdas Pophale) SiO2 
 PCOD8047713
Probable space group: P 21
;
_chemical_formula_sum "Si O2"
_cell_formula_units_Z 16
_cell_length_a 9.779910
_cell_length_b 7.960645
_cell_length_c 8.264814
_cell_angle_alpha 90.000000
_cell_angle_beta 91.819595
_cell_angle_gamma 90.000000
_cell_volume 643.127611
_symmetry_space_group_name_H-M "P 21"
_symmetry_group_IT_number 4
_symmetry_cell_setting 'monoclinic'
loop_
_space_group_symop_operation_xyz
x,y,z
-x,1/2+y,-z
loop_
_atom_site_type_symbol
_atom_site_label
_atom_site_fract_x
_atom_site_fract_y
_atom_site_fract_z
Si Si1 0.744438 0.240720 0.032293
Si Si2 0.730940 0.163110 0.448095
Si Si3 0.736077 0.998010 0.773220
Si Si4 0.109737 0.368100 0.684094
Si Si5 0.944175 0.781517 0.952004
Si Si6 0.143957 0.011149 0.511792
Si Si7 0.501045 0.752793 0.744589
Si Si8 0.738193 0.538810 0.823399
O O1 0.637357 0.299473 0.162067
O O2 0.725681 0.346838 0.867888
O O3 0.901229 0.247154 0.099899
O O4 0.708457 0.060498 0.954879
O O5 0.797619 0.343393 0.398790
O O6 0.564874 0.180198 0.423926
O O7 0.774712 0.130141 0.634958
O O8 0.766973 0.005171 0.328291
O O9 0.598726 0.908349 0.705910
O O10 0.872517 0.885805 0.803105
O O11 0.060415 0.361415 0.868319
O O12 0.002150 0.460939 0.564833
O O13 0.140620 0.176242 0.627893
O O14 0.857570 0.608731 0.947592
O O15 0.239267 0.066096 0.365947
O O16 0.592229 0.625822 0.854069
#
# Coordination Sequence:
#
# PCOD8047713 Si02
#       8
#     2   2   2   2   2   2   2   2
#     4  12  23  44  74 107 145 194 251 311 380 452
#     4  12  27  49  79 108 156 205 251 317 388 454
#     4  11  25  50  72 109 153 198 257 319 380 460
#     4  12  25  48  78 119 157 194 254 317 390 455
#     4  11  25  45  78 112 149 198 249 324 384 455
#     4  12  26  48  77 114 154 199 250 318 385 462
#     4  11  28  45  71 106 147 205 253 308 378 454
#     4  11  25  49  69 105 153 193 253 312 379 452
#
# _framework density 24.878420999999999
#
# number of rings (size 3 to 8) (size 9 to 14) (size 15 to 20)
#    0.000    0.500    3.750    3.750    5.250    2.000 
#    2.250    0.000    0.000    0.000    0.000    0.000 
#    0.000    0.000    0.000    0.000    0.000    0.000 
#
# Total GULP energy -198221.466045 kJ/mol
# GULP energy per Si atom -12388.841628 kJ/mol
# Density = 2.482180 g / cm^3
# Si number density = 24.878421 Si / 1000 Ang^3
#
#
#
# Elastic Constant Matrix: (Units=GPa)
#
#
# Indices 1 2 3 4 5 6 
#
# 1 156.5847 44.5776 35.6343 0.0000 15.6848 0.0000
# 2 44.5776 125.3326 17.7208 0.0000 12.8973 0.0000
# 3 35.6343 17.7208 94.8853 0.0000 5.0000 0.0000
# 4 0.0000 0.0000 0.0000 29.6349 0.0000 -3.5553
# 5 15.6848 12.8973 5.0000 0.0000 26.1327 0.0000
# 6 0.0000 0.0000 0.0000 -3.5553 0.0000 25.7394
#
#
#
# Elastic Compliance Matrix: (Units=1/GPa)
#
#
# Indices 1 2 3 4 5 6 
#
# 1 0.007856 -0.002127 -0.002384 0.000000 -0.003209 0.000000
# 2 -0.002127 0.009160 -0.000749 0.000000 -0.003101 0.000000
# 3 -0.002384 -0.000749 0.011596 0.000000 -0.000418 0.000000
# 4 0.000000 0.000000 0.000000 0.034313 0.000000 0.004739
# 5 -0.003209 -0.003101 -0.000418 0.000000 0.041803 0.000000
# 6 0.000000 0.000000 0.000000 0.004739 0.000000 0.039506
#
#
# Mechanical properties :
#
#
# Convention : Reuss Voigt Hill
#
# Bulk Modulus (GPa) = 55.26861 63.62977 59.44919
# Shear Modulus (GPa) = 31.09777 34.89272 32.99525
#
# Velocity S-wave (km/s) = 3.53936 3.74910 3.64574
# Velocity P-wave (km/s) = 6.24231 6.66129 6.45520
#
# Compressibility (1/GPa) = 0.01809345
#
# Stress axis : x y z
#
# Youngs Moduli (GPa) = 127.29500 109.16814 86.23519
#
# Poissons Ratio (x) = 0.23218 0.20558
# Poissons Ratio (y) = 0.27073 0.06456
# Poissons Ratio (z) = 0.30346 0.08173
#
# Static dielectric constant tensor:
#      x y z
#    x 4.530150 0.000000 0.219620 
#    y 0.000000 4.783940 0.000000 
#    z 0.219620 0.000000 4.234250 
# 
# 
# High freq. dielectric constant tensor:
#      x y z
#    x 1.989620 0.000000 0.014570 
#    y 0.000000 2.003860 0.000000 
#    z 0.014570 0.000000 1.989730 
# 
# From -- ./inp_files/5672.got.cif
#   From: 2010.03.12/outbox.cif.g09.slc.cpg/sg4_3_cif.got.tgz:5672.got - 2010.03.31 09:31:35.
