data_PCOD8047514
_publ_section_title
;
Structure prediction by ZEFSAII (Michael W. Deem and Ramdas Pophale) SiO2 
 PCOD8047514
Probable space group: P 21
;
_chemical_formula_sum "Si O2"
_cell_formula_units_Z 10
_cell_length_a 8.579724
_cell_length_b 9.584562
_cell_length_c 6.440302
_cell_angle_alpha 90.000000
_cell_angle_beta 120.317666
_cell_angle_gamma 90.000000
_cell_volume 457.175924
_symmetry_space_group_name_H-M "P 21"
_symmetry_group_IT_number 4
_symmetry_cell_setting 'monoclinic'
loop_
_space_group_symop_operation_xyz
x,y,z
-x,1/2+y,-z
loop_
_atom_site_type_symbol
_atom_site_label
_atom_site_fract_x
_atom_site_fract_y
_atom_site_fract_z
Si Si1 0.246414 0.063900 0.511436
Si Si2 0.128192 0.562707 0.905087
Si Si3 0.628224 0.075111 0.544352
Si Si4 0.680942 0.844369 0.240888
Si Si5 0.316802 0.786957 0.766654
O O1 0.441264 0.058899 0.538569
O O2 0.217639 0.202995 0.627501
O O3 0.089382 0.052176 0.232209
O O4 0.226058 0.935106 0.656458
O O5 0.210147 0.419345 0.869638
O O6 0.171431 0.690869 0.782216
O O7 0.205178 0.588982 0.185034
O O8 0.616831 0.215187 0.401567
O O9 0.663523 0.940248 0.430436
O O10 0.482630 0.805900 0.032093
#
# Coordination Sequence:
#
# PCOD8047514 Si02
#       5
#     2   2   2   2   2
#     4  12  23  42  69  97 130 170 215 267 316 377
#     4  11  25  43  66  98 130 169 217 263 318 384
#     4  11  24  45  65  95 130 169 218 262 322 381
#     4  11  23  46  67  92 135 172 209 266 325 379
#     4  11  23  46  67  92 135 172 209 266 325 379
#
# _framework density 21.873418000000001
#
# number of rings (size 3 to 8) (size 9 to 14) (size 15 to 20)
#    0.000    0.800    4.000    3.600    0.000    1.600 
#   14.400    0.000    0.000    0.000    0.000    0.000 
#    0.000    0.000    0.000    0.000    0.000    0.000 
#
# Total GULP energy -124064.001942 kJ/mol
# GULP energy per Si atom -12406.400194 kJ/mol
# Density = 2.182363 g / cm^3
# Si number density = 21.873418 Si / 1000 Ang^3
#
#
#
# Elastic Constant Matrix: (Units=GPa)
#
#
# Indices 1 2 3 4 5 6 
#
# 1 29.8778 15.5874 42.6063 0.0000 22.9826 0.0000
# 2 15.5874 144.4149 28.3810 0.0000 -8.1333 0.0000
# 3 42.6063 28.3810 134.8116 0.0000 20.1851 0.0000
# 4 0.0000 0.0000 0.0000 37.1009 0.0000 6.3112
# 5 22.9826 -8.1333 20.1851 0.0000 46.5794 0.0000
# 6 0.0000 0.0000 0.0000 6.3112 0.0000 7.3137
#
#
#
# Elastic Compliance Matrix: (Units=1/GPa)
#
#
# Indices 1 2 3 4 5 6 
#
# 1 0.109520 -0.009203 -0.026033 0.000000 -0.044364 0.000000
# 2 -0.009203 0.008185 0.000312 0.000000 0.005835 0.000000
# 3 -0.026033 0.000312 0.014595 0.000000 0.006574 0.000000
# 4 0.000000 0.000000 0.000000 0.031591 0.000000 -0.027261
# 5 -0.044364 0.005835 0.006574 0.000000 0.041528 0.000000
# 6 0.000000 0.000000 0.000000 -0.027261 0.000000 0.160254
#
#
# Mechanical properties :
#
#
# Convention : Reuss Voigt Hill
#
# Bulk Modulus (GPa) = 16.01245 53.58374 34.79810
# Shear Modulus (GPa) = 10.95674 33.03409 21.99542
#
# Velocity S-wave (km/s) = 2.24054 3.89040 3.17452
# Velocity P-wave (km/s) = 3.74563 6.68809 5.42035
#
# Compressibility (1/GPa) = 0.06245139
#
# Stress axis : x y z
#
# Youngs Moduli (GPa) = 9.13073 122.17153 68.51510
#
# Poissons Ratio (x) = 1.12440 1.78366
# Poissons Ratio (y) = 0.08403 -0.02136
# Poissons Ratio (z) = 0.23770 -0.03809
#
# Static dielectric constant tensor:
#      x y z
#    x 3.659580 0.000000 0.086310 
#    y 0.000000 4.289720 0.000000 
#    z 0.086310 0.000000 4.071710 
# 
# 
# High freq. dielectric constant tensor:
#      x y z
#    x 1.843840 0.000000 0.012000 
#    y 0.000000 1.879800 0.000000 
#    z 0.012000 0.000000 1.874230 
# 
# From -- ./inp_files/900.got.cif
#   From: 2010.03.12/outbox.cif.g09.slc.cpg/sg4_1_cif.got.tgz:900.got - 2010.03.31 09:31:35.
