data_PCOD8047938
_publ_section_title
;
Structure prediction by ZEFSAII (Michael W. Deem and Ramdas Pophale) SiO2 
 PCOD8047938
Probable space group: P 21
;
_chemical_formula_sum "Si O2"
_cell_formula_units_Z 14
_cell_length_a 10.146675
_cell_length_b 5.140700
_cell_length_c 15.659326
_cell_angle_alpha 90.000000
_cell_angle_beta 141.033068
_cell_angle_gamma 90.000000
_cell_volume 513.666412
_symmetry_space_group_name_H-M "P 21"
_symmetry_group_IT_number 4
_symmetry_cell_setting 'monoclinic'
loop_
_space_group_symop_operation_xyz
x,y,z
-x,1/2+y,-z
loop_
_atom_site_type_symbol
_atom_site_label
_atom_site_fract_x
_atom_site_fract_y
_atom_site_fract_z
Si Si1 0.110488 0.423850 0.455335
Si Si2 0.970497 0.041272 0.178871
Si Si3 0.519242 0.552386 0.342391
Si Si4 0.784294 0.058640 0.667361
Si Si5 0.704207 0.196354 0.300687
Si Si6 0.592853 0.916976 0.086070
Si Si7 0.868271 0.206756 0.950043
O O1 0.251944 0.164721 0.525236
O O2 0.218512 0.612123 0.436839
O O3 0.129775 0.539774 0.559318
O O4 0.857728 0.376856 0.318469
O O5 0.140010 0.815971 0.243337
O O6 0.064291 0.311119 0.256700
O O7 0.838838 0.915948 0.189479
O O8 0.826187 0.097926 0.024134
O O9 0.429872 0.471381 0.392001
O O10 0.539053 0.323913 0.282596
O O11 0.348657 0.743668 0.211284
O O12 0.563962 0.007962 0.169630
O O13 0.491038 0.127378 0.970068
O O14 0.987384 0.482416 0.021329
#
# Coordination Sequence:
#
# PCOD8047938 Si02
#       7
#     2   2   2   2   2   2   2
#     4  12  30  51  80 114 164 214 270 329 400 478
#     4  12  25  50  78 112 160 208 263 327 406 469
#     4  12  29  50  80 118 154 214 272 330 400 484
#     4  12  29  50  81 113 160 211 261 329 396 477
#     4  12  29  52  82 113 164 213 270 334 397 479
#     4  12  29  51  83 119 157 209 271 336 405 477
#     4  12  25  48  76 115 159 203 261 333 404 468
#
# _framework density 27.255042
#
# number of rings (size 3 to 8) (size 9 to 14) (size 15 to 20)
#    0.000    0.000    5.714    1.714   14.000    0.000 
#    0.000    0.000    0.000    0.000    0.000    0.000 
#    0.000    0.000    0.000    0.000    0.000    0.000 
#
# Total GULP energy -173518.840398 kJ/mol
# GULP energy per Si atom -12394.202886 kJ/mol
# Density = 2.719301 g / cm^3
# Si number density = 27.255042 Si / 1000 Ang^3
#
#
#
# Elastic Constant Matrix: (Units=GPa)
#
#
# Indices 1 2 3 4 5 6 
#
# 1 141.9317 -15.1319 0.7275 0.0000 -14.8825 0.0000
# 2 -15.1319 65.0249 -11.3190 0.0000 0.8825 0.0000
# 3 0.7275 -11.3190 62.6615 0.0000 -8.4546 0.0000
# 4 0.0000 0.0000 0.0000 35.6592 0.0000 -4.0651
# 5 -14.8825 0.8825 -8.4546 0.0000 21.6612 0.0000
# 6 0.0000 0.0000 0.0000 -4.0651 0.0000 40.3740
#
#
#
# Elastic Compliance Matrix: (Units=1/GPa)
#
#
# Indices 1 2 3 4 5 6 
#
# 1 0.007845 0.001927 0.001028 0.000000 0.005712 0.000000
# 2 0.001927 0.016356 0.003189 0.000000 0.001902 0.000000
# 3 0.001028 0.003189 0.017523 0.000000 0.007416 0.000000
# 4 0.000000 0.000000 0.000000 0.028369 0.000000 0.002856
# 5 0.005712 0.001902 0.007416 0.000000 0.052907 0.000000
# 6 0.000000 0.000000 0.000000 0.002856 0.000000 0.025056
#
#
# Mechanical properties :
#
#
# Convention : Reuss Voigt Hill
#
# Bulk Modulus (GPa) = 18.51450 24.24125 21.37787
# Shear Modulus (GPa) = 32.51531 39.22831 35.87181
#
# Velocity S-wave (km/s) = 3.45773 3.79793 3.63182
# Velocity P-wave (km/s) = 4.76959 5.30527 5.04455
#
# Compressibility (1/GPa) = 0.05401173
#
# Stress axis : x y z
#
# Youngs Moduli (GPa) = 127.47287 61.13814 57.06643
#
# Poissons Ratio (x) = -0.11781 -0.05865
# Poissons Ratio (y) = -0.24563 -0.18198
# Poissons Ratio (z) = -0.13101 -0.19496
#
# Static dielectric constant tensor:
#      x y z
#    x 5.472730 0.000000 -0.436000 
#    y 0.000000 4.726580 0.000000 
#    z -0.436000 0.000000 4.853250 
# 
# 
# High freq. dielectric constant tensor:
#      x y z
#    x 2.124890 0.000000 -0.013950 
#    y 0.000000 2.085230 0.000000 
#    z -0.013950 0.000000 2.088410 
# 
# From -- ./inp_files/8790.got.cif
#   From: 2010.03.12/outbox.cif.g09.slc.cpg/sg4_5_cif.got.tgz:8790.got - 2010.03.31 09:31:35.
