data_PCOD8047491
_publ_section_title
;
Structure prediction by ZEFSAII (Michael W. Deem and Ramdas Pophale) SiO2 
 PCOD8047491
Probable space group: P 21
;
_chemical_formula_sum "Si O2"
_cell_formula_units_Z 16
_cell_length_a 8.035984
_cell_length_b 8.907534
_cell_length_c 17.212226
_cell_angle_alpha 90.000000
_cell_angle_beta 147.934826
_cell_angle_gamma 90.000000
_cell_volume 654.083031
_symmetry_space_group_name_H-M "P 21"
_symmetry_group_IT_number 4
_symmetry_cell_setting 'monoclinic'
loop_
_space_group_symop_operation_xyz
x,y,z
-x,1/2+y,-z
loop_
_atom_site_type_symbol
_atom_site_label
_atom_site_fract_x
_atom_site_fract_y
_atom_site_fract_z
Si Si1 0.187603 0.105030 0.832649
Si Si2 0.770052 0.258498 0.558470
Si Si3 0.304891 0.894101 0.630301
Si Si4 0.818223 0.265058 0.108997
Si Si5 0.589939 0.951076 0.354303
Si Si6 0.756971 0.161899 0.798434
Si Si7 0.238282 0.195655 0.129683
Si Si8 0.236707 0.062886 0.363997
O O1 0.041102 0.139447 0.689465
O O2 0.970732 0.192660 0.808179
O O3 0.222181 0.929632 0.867997
O O4 0.502063 0.198472 0.951044
O O5 0.719243 0.260123 0.444952
O O6 0.458735 0.200108 0.481266
O O7 0.844102 0.433853 0.606072
O O8 0.473636 0.814731 0.772577
O O9 0.966513 0.966565 0.511477
O O10 0.561047 0.013383 0.704390
O O11 0.062594 0.267483 0.134994
O O12 0.916114 0.142119 0.212070
O O13 0.510646 0.783905 0.296387
O O14 0.421103 0.042973 0.219334
O O15 0.435378 0.986136 0.374869
O O16 0.998005 0.161856 0.966055
#
# Coordination Sequence:
#
# PCOD8047491 Si02
#       8
#     2   2   2   2   2   2   2   2
#     4  12  26  45  71 105 140 189 235 296 357 425
#     4  12  24  44  72 100 141 188 230 297 357 415
#     4  12  25  48  69 103 141 186 238 295 357 423
#     4  11  25  48  69 104 143 184 244 289 359 424
#     4  11  25  43  70 105 137 186 239 287 356 422
#     4  12  25  47  71 102 143 184 242 292 351 427
#     4  11  25  48  71  99 144 190 233 299 352 417
#     4  11  23  45  67 100 143 181 235 293 349 425
#
# _framework density 24.461725999999999
#
# number of rings (size 3 to 8) (size 9 to 14) (size 15 to 20)
#    0.000    0.500    5.000    3.750    3.500    1.000 
#    4.500    0.000    0.000    0.000    0.000    0.000 
#    0.000    0.000    0.000    0.000    0.000    0.000 
#
# Total GULP energy -198249.043761 kJ/mol
# GULP energy per Si atom -12390.565235 kJ/mol
# Density = 2.440605 g / cm^3
# Si number density = 24.461726 Si / 1000 Ang^3
#
#
#
# Elastic Constant Matrix: (Units=GPa)
#
#
# Indices 1 2 3 4 5 6 
#
# 1 32.7600 20.8849 30.7870 0.0000 9.9296 0.0000
# 2 20.8849 107.0838 48.9382 0.0000 2.8139 0.0000
# 3 30.7870 48.9382 173.9917 0.0000 12.5470 0.0000
# 4 0.0000 0.0000 0.0000 54.2962 0.0000 6.9928
# 5 9.9296 2.8139 12.5470 0.0000 32.0066 0.0000
# 6 0.0000 0.0000 0.0000 6.9928 0.0000 25.2556
#
#
#
# Elastic Compliance Matrix: (Units=1/GPa)
#
#
# Indices 1 2 3 4 5 6 
#
# 1 0.042101 -0.005596 -0.005114 0.000000 -0.010565 0.000000
# 2 -0.005596 0.011462 -0.002353 0.000000 0.001651 0.000000
# 3 -0.005114 -0.002353 0.007394 0.000000 -0.001105 0.000000
# 4 0.000000 0.000000 0.000000 0.019099 0.000000 -0.005288
# 5 -0.010565 0.001651 -0.001105 0.000000 0.034809 0.000000
# 6 0.000000 0.000000 0.000000 -0.005288 0.000000 0.041059
#
#
# Mechanical properties :
#
#
# Convention : Reuss Voigt Hill
#
# Bulk Modulus (GPa) = 28.71029 57.22842 42.96935
# Shear Modulus (GPa) = 25.81865 36.52670 31.17267
#
# Velocity S-wave (km/s) = 3.25233 3.86841 3.57367
# Velocity P-wave (km/s) = 5.08584 6.58777 5.88492
#
# Compressibility (1/GPa) = 0.03483072
#
# Stress axis : x y z
#
# Youngs Moduli (GPa) = 23.75265 87.24664 135.25172
#
# Poissons Ratio (x) = 0.48827 0.69161
# Poissons Ratio (y) = 0.13293 0.31819
# Poissons Ratio (z) = 0.12146 0.20526
#
# Static dielectric constant tensor:
#      x y z
#    x 3.973480 0.000000 0.065920 
#    y 0.000000 4.681120 0.000000 
#    z 0.065920 0.000000 4.767100 
# 
# 
# High freq. dielectric constant tensor:
#      x y z
#    x 1.936310 0.000000 0.009630 
#    y 0.000000 1.995200 0.000000 
#    z 0.009630 0.000000 1.999490 
# 
# From -- ./inp_files/7951.got.cif
#   From: 2010.03.12/outbox.cif.g09.slc.cpg/sg4_4_cif.got.tgz:7951.got - 2010.03.31 09:31:35.
