data_PCOD8047317
_publ_section_title
;
Structure prediction by ZEFSAII (Michael W. Deem and Ramdas Pophale) SiO2 
 PCOD8047317
Probable space group: P 21
;
_chemical_formula_sum "Si O2"
_cell_formula_units_Z 14
_cell_length_a 21.285266
_cell_length_b 5.001869
_cell_length_c 8.402392
_cell_angle_alpha 90.000000
_cell_angle_beta 138.089605
_cell_angle_gamma 90.000000
_cell_volume 597.543767
_symmetry_space_group_name_H-M "P 21"
_symmetry_group_IT_number 4
_symmetry_cell_setting 'monoclinic'
loop_
_space_group_symop_operation_xyz
x,y,z
-x,1/2+y,-z
loop_
_atom_site_type_symbol
_atom_site_label
_atom_site_fract_x
_atom_site_fract_y
_atom_site_fract_z
Si Si1 0.656480 0.402610 0.326516
Si Si2 0.225895 0.534768 0.635275
Si Si3 0.059008 0.662950 0.094986
Si Si4 0.422551 0.396344 0.921969
Si Si5 0.246623 0.352354 0.013956
Si Si6 0.205789 0.857659 0.133126
Si Si7 0.542989 0.884322 0.656072
O O1 0.723198 0.327102 0.299300
O O2 0.581868 0.152444 0.204843
O O3 0.717835 0.465213 0.596401
O O4 0.565918 0.605107 0.138665
O O5 0.132679 0.524820 0.353637
O O6 0.306715 0.326733 0.731809
O O7 0.197167 0.475451 0.763188
O O8 0.106461 0.791331 0.028072
O O9 0.993485 0.413054 0.919429
O O10 0.471103 0.443935 0.183725
O O11 0.245198 0.582078 0.141883
O O12 0.353609 0.269821 0.182913
O O13 0.192077 0.088491 0.974597
O O14 0.469352 0.663111 0.459516
#
# Coordination Sequence:
#
# PCOD8047317 Si02
#       7
#     2   2   2   2   2   2   2
#     4   9  18  34  60  84 115 157 218 246 278 375
#     4   8  22  35  64  88 120 160 221 232 305 390
#     4  11  24  41  66  95 125 165 217 263 318 375
#     4   9  18  33  61  85 112 161 219 240 281 374
#     4  11  23  39  65  94 125 165 212 259 315 371
#     4  11  23  39  63  96 126 159 215 262 313 372
#     4  11  22  37  61  94 129 159 206 264 314 365
#
# _framework density 23.429245999999999
#
# number of rings (size 3 to 8) (size 9 to 14) (size 15 to 20)
#    0.857    1.143    0.000    3.429    8.000    0.000 
#    0.000    2.857    0.000   17.143    0.000    0.000 
#    0.000    0.000    0.000    0.000    0.000    0.000 
#
# Total GULP energy -173452.907539 kJ/mol
# GULP energy per Si atom -12389.493396 kJ/mol
# Density = 2.337592 g / cm^3
# Si number density = 23.429246 Si / 1000 Ang^3
#
#
#
# Elastic Constant Matrix: (Units=GPa)
#
#
# Indices 1 2 3 4 5 6 
#
# 1 96.2621 12.4886 42.7494 0.0000 -8.1232 0.0000
# 2 12.4886 97.1469 7.4724 0.0000 -12.5731 0.0000
# 3 42.7494 7.4724 78.6897 0.0000 0.3119 0.0000
# 4 0.0000 0.0000 0.0000 16.4983 0.0000 -49.5792
# 5 -8.1232 -12.5731 0.3119 0.0000 27.9080 0.0000
# 6 0.0000 0.0000 0.0000 -49.5792 0.0000 -67.6265
#
#
#
# Elastic Compliance Matrix: (Units=1/GPa)
#
#
# Indices 1 2 3 4 5 6 
#
# 1 0.014218 -0.000734 -0.007670 0.000000 0.003894 0.000000
# 2 -0.000734 0.011058 -0.000670 0.000000 0.004776 0.000000
# 3 -0.007670 -0.000670 0.016949 0.000000 -0.002724 0.000000
# 4 0.000000 0.000000 0.000000 0.018923 0.000000 -0.013873
# 5 0.003894 0.004776 -0.002724 0.000000 0.039147 0.000000
# 6 0.000000 0.000000 0.000000 -0.013873 0.000000 -0.004616
#
#
# Mechanical properties :
#
#
# Convention : Reuss Voigt Hill
#
# Bulk Modulus (GPa) = 41.53346 44.16883 42.85114
# Shear Modulus (GPa) = 41.03301 9.31518 25.17410
#
# Velocity S-wave (km/s) = 4.18946 1.99612 3.28147
# Velocity P-wave (km/s) = 6.41621 4.91992 5.71723
#
# Compressibility (1/GPa) = 0.02407697
#
# Stress axis : x y z
#
# Youngs Moduli (GPa) = 70.33187 90.43503 58.99893
#
# Poissons Ratio (x) = 0.06637 0.45252
# Poissons Ratio (y) = 0.05162 0.03954
# Poissons Ratio (z) = 0.53945 0.06061
#
# Static dielectric constant tensor:
#      x y z
#    x 4.384430 0.000000 0.240230 
#    y 0.000000 4.469170 0.000000 
#    z 0.240230 0.000000 4.052560 
# 
# 
# High freq. dielectric constant tensor:
#      x y z
#    x 1.926510 0.000000 0.012160 
#    y 0.000000 1.946710 0.000000 
#    z 0.012160 0.000000 1.914280 
# 
# From -- ./inp_files/9826.got.cif
#   From: 2010.03.12/outbox.cif.g09.slc.cpg/sg4_5_cif.got.tgz:9826.got - 2010.03.31 09:31:35.
