data_PCOD8047820
_publ_section_title
;
Structure prediction by ZEFSAII (Michael W. Deem and Ramdas Pophale) SiO2 
 PCOD8047820
Probable space group: P 21
;
_chemical_formula_sum "Si O2"
_cell_formula_units_Z 16
_cell_length_a 12.513467
_cell_length_b 5.561992
_cell_length_c 10.050468
_cell_angle_alpha 90.000000
_cell_angle_beta 80.334388
_cell_angle_gamma 90.000000
_cell_volume 689.580635
_symmetry_space_group_name_H-M "P 21"
_symmetry_group_IT_number 4
_symmetry_cell_setting 'monoclinic'
loop_
_space_group_symop_operation_xyz
x,y,z
-x,1/2+y,-z
loop_
_atom_site_type_symbol
_atom_site_label
_atom_site_fract_x
_atom_site_fract_y
_atom_site_fract_z
Si Si1 0.228652 0.583790 0.126635
Si Si2 0.466145 0.849420 0.345104
Si Si3 0.054497 0.677414 0.954921
Si Si4 0.898856 0.118048 0.344526
Si Si5 0.541149 0.217503 0.930689
Si Si6 0.331363 0.518575 0.540012
Si Si7 0.899127 0.338363 0.629231
Si Si8 0.292245 0.204179 0.297932
O O1 0.328570 0.769765 0.090296
O O2 0.146496 0.628060 0.267326
O O3 0.283967 0.327844 0.153454
O O4 0.164639 0.586568 0.001888
O O5 0.488346 0.664807 0.218952
O O6 0.383786 0.767547 0.478239
O O7 0.581137 0.883132 0.389901
O O8 0.409086 0.075319 0.285156
O O9 0.069000 0.752493 0.798163
O O10 0.981270 0.432206 0.972028
O O11 0.907297 0.286041 0.471227
O O12 0.774033 0.045561 0.346653
O O13 0.979363 0.893753 0.347493
O O14 0.486916 0.468707 0.988354
O O15 0.290498 0.395244 0.415600
O O16 0.816169 0.554074 0.662688
#
# Coordination Sequence:
#
# PCOD8047820 Si02
#       8
#     2   2   2   2   2   2   2   2
#     4  12  26  50  76 106 154 209 247 318 393 456
#     4  12  25  46  73 107 151 198 251 318 397 441
#     4  12  30  53  76 112 161 206 245 313 394 463
#     4  12  26  48  74 119 144 192 268 313 380 462
#     4  12  28  48  75 112 149 205 267 310 370 471
#     4  12  25  45  73 110 146 194 248 330 383 450
#     4  12  25  46  78 108 147 198 256 323 377 460
#     4  12  21  46  79 102 146 202 258 301 396 455
#
# _framework density 23.202506
#
# number of rings (size 3 to 8) (size 9 to 14) (size 15 to 20)
#    0.000    0.000    7.500    2.250    3.500    1.000 
#    2.250    0.000    0.000    0.000    0.000    0.000 
#    0.000    0.000    0.000    0.000    0.000    0.000 
#
# Total GULP energy -198248.377756 kJ/mol
# GULP energy per Si atom -12390.523610 kJ/mol
# Density = 2.314970 g / cm^3
# Si number density = 23.202506 Si / 1000 Ang^3
#
#
#
# Elastic Constant Matrix: (Units=GPa)
#
#
# Indices 1 2 3 4 5 6 
#
# 1 131.8063 22.5331 39.8004 0.0000 2.2646 0.0000
# 2 22.5331 71.8645 18.7835 0.0000 -4.8598 0.0000
# 3 39.8004 18.7835 132.5433 0.0000 0.5601 0.0000
# 4 0.0000 0.0000 0.0000 29.9712 0.0000 2.4548
# 5 2.2646 -4.8598 0.5601 0.0000 42.8039 0.0000
# 6 0.0000 0.0000 0.0000 2.4548 0.0000 38.8302
#
#
#
# Elastic Compliance Matrix: (Units=1/GPa)
#
#
# Indices 1 2 3 4 5 6 
#
# 1 0.008660 -0.002162 -0.002291 0.000000 -0.000674 0.000000
# 2 -0.002162 0.015110 -0.001500 0.000000 0.001850 0.000000
# 3 -0.002291 -0.001500 0.008446 0.000000 -0.000160 0.000000
# 4 0.000000 0.000000 0.000000 0.033539 0.000000 -0.002120
# 5 -0.000674 0.001850 -0.000160 0.000000 0.023610 0.000000
# 6 0.000000 0.000000 0.000000 -0.002120 0.000000 0.025887
#
#
# Mechanical properties :
#
#
# Convention : Reuss Voigt Hill
#
# Bulk Modulus (GPa) = 49.23759 55.38311 52.31035
# Shear Modulus (GPa) = 37.33337 39.32754 38.33046
#
# Velocity S-wave (km/s) = 4.01561 4.12147 4.06889
# Velocity P-wave (km/s) = 6.53966 6.82422 6.68345
#
# Compressibility (1/GPa) = 0.02030969
#
# Stress axis : x y z
#
# Youngs Moduli (GPa) = 115.47453 66.18096 118.40004
#
# Poissons Ratio (x) = 0.14308 0.27128
# Poissons Ratio (y) = 0.24966 0.17759
# Poissons Ratio (z) = 0.26457 0.09927
#
# Static dielectric constant tensor:
#      x y z
#    x 4.534730 0.000000 -0.089870 
#    y 0.000000 4.130760 0.000000 
#    z -0.089870 0.000000 4.436460 
# 
# 
# High freq. dielectric constant tensor:
#      x y z
#    x 1.933940 0.000000 0.003740 
#    y 0.000000 1.904790 0.000000 
#    z 0.003740 0.000000 1.924960 
# 
# From -- ./inp_files/7359.got.cif
#   From: 2010.03.12/outbox.cif.g09.slc.cpg/sg4_4_cif.got.tgz:7359.got - 2010.03.31 09:31:35.
