data_PCOD8047549
_publ_section_title
;
Structure prediction by ZEFSAII (Michael W. Deem and Ramdas Pophale) SiO2 
 PCOD8047549
Probable space group: P 21
;
_chemical_formula_sum "Si O2"
_cell_formula_units_Z 14
_cell_length_a 6.360287
_cell_length_b 12.873082
_cell_length_c 7.796380
_cell_angle_alpha 90.000000
_cell_angle_beta 58.059628
_cell_angle_gamma 90.000000
_cell_volume 541.695001
_symmetry_space_group_name_H-M "P 21"
_symmetry_group_IT_number 4
_symmetry_cell_setting 'monoclinic'
loop_
_space_group_symop_operation_xyz
x,y,z
-x,1/2+y,-z
loop_
_atom_site_type_symbol
_atom_site_label
_atom_site_fract_x
_atom_site_fract_y
_atom_site_fract_z
Si Si1 0.973394 0.839690 0.399062
Si Si2 0.688236 0.139757 0.120480
Si Si3 0.396551 0.514208 0.360713
Si Si4 0.878927 0.197418 0.387083
Si Si5 0.628290 0.742739 0.001996
Si Si6 0.197104 0.146712 0.745858
Si Si7 0.443404 0.956351 0.077052
O O1 0.881013 0.730083 0.362070
O O2 0.124502 0.805971 0.505847
O O3 0.164024 0.909915 0.207636
O O4 0.720050 0.902759 0.543514
O O5 0.686870 0.195766 0.308069
O O6 0.618200 0.222921 0.003702
O O7 0.504120 0.040432 0.199641
O O8 0.962918 0.101878 0.950101
O O9 0.172170 0.597763 0.469933
O O10 0.625897 0.549560 0.389424
O O11 0.515572 0.516064 0.119652
O O12 0.152251 0.185038 0.192003
O O13 0.611492 0.704554 0.205104
O O14 0.652332 0.867087 0.001265
#
# Coordination Sequence:
#
# PCOD8047549 Si02
#       7
#     2   2   2   2   2   2   2
#     4  12  27  53  82 117 163 213 273 328 408 479
#     4  11  25  51  81 112 161 208 263 331 406 471
#     4  12  27  49  79 122 157 211 274 323 404 480
#     4  11  27  50  76 121 162 205 266 342 396 473
#     4  11  23  50  80 112 155 213 263 323 406 470
#     4  11  26  50  82 112 166 205 260 343 396 474
#     4  12  25  51  82 112 160 213 269 328 396 485
#
# _framework density 25.844804
#
# number of rings (size 3 to 8) (size 9 to 14) (size 15 to 20)
#    0.000    0.571    4.286    2.571    6.000    0.000 
#    7.714    0.000    0.000    0.000    0.000    0.000 
#    0.000    0.000    0.000    0.000    0.000    0.000 
#
# Total GULP energy -173491.545573 kJ/mol
# GULP energy per Si atom -12392.253255 kJ/mol
# Density = 2.578598 g / cm^3
# Si number density = 25.844804 Si / 1000 Ang^3
#
#
#
# Elastic Constant Matrix: (Units=GPa)
#
#
# Indices 1 2 3 4 5 6 
#
# 1 127.1593 62.7482 39.9174 0.0000 9.6125 0.0000
# 2 62.7482 120.7316 27.5859 0.0000 10.2576 0.0000
# 3 39.9174 27.5859 92.8946 0.0000 7.4055 0.0000
# 4 0.0000 0.0000 0.0000 50.2746 0.0000 -8.2103
# 5 9.6125 10.2576 7.4055 0.0000 35.7741 0.0000
# 6 0.0000 0.0000 0.0000 -8.2103 0.0000 57.5414
#
#
#
# Elastic Compliance Matrix: (Units=1/GPa)
#
#
# Indices 1 2 3 4 5 6 
#
# 1 0.011525 -0.005146 -0.003350 0.000000 -0.000928 0.000000
# 2 -0.005146 0.011331 -0.001022 0.000000 -0.001655 0.000000
# 3 -0.003350 -0.001022 0.012621 0.000000 -0.001419 0.000000
# 4 0.000000 0.000000 0.000000 0.020365 0.000000 0.002906
# 5 -0.000928 -0.001655 -0.001419 0.000000 0.028971 0.000000
# 6 0.000000 0.000000 0.000000 0.002906 0.000000 0.017793
#
#
# Mechanical properties :
#
#
# Convention : Reuss Voigt Hill
#
# Bulk Modulus (GPa) = 60.82079 66.80983 63.81531
# Shear Modulus (GPa) = 39.33170 42.75361 41.04265
#
# Velocity S-wave (km/s) = 3.90531 4.07165 3.98935
# Velocity P-wave (km/s) = 6.62717 6.92900 6.77976
#
# Compressibility (1/GPa) = 0.01644175
#
# Stress axis : x y z
#
# Youngs Moduli (GPa) = 86.76604 88.25111 79.23171
#
# Poissons Ratio (x) = 0.45411 0.26546
# Poissons Ratio (y) = 0.44647 0.08097
# Poissons Ratio (z) = 0.29071 0.09018
#
# Static dielectric constant tensor:
#      x y z
#    x 4.722110 0.000000 0.009880 
#    y 0.000000 4.637720 0.000000 
#    z 0.009880 0.000000 4.661810 
# 
# 
# High freq. dielectric constant tensor:
#      x y z
#    x 2.027300 0.000000 -0.011770 
#    y 0.000000 2.032150 0.000000 
#    z -0.011770 0.000000 2.042390 
# 
# From -- ./inp_files/4779.got.cif
#   From: 2010.03.12/outbox.cif.g09.slc.cpg/sg4_3_cif.got.tgz:4779.got - 2010.03.31 09:31:35.
