data_PCOD8047987
_publ_section_title
;
Structure prediction by ZEFSAII (Michael W. Deem and Ramdas Pophale) SiO2 
 PCOD8047987
Probable space group: P 21
;
_chemical_formula_sum "Si O2"
_cell_formula_units_Z 16
_cell_length_a 9.151824
_cell_length_b 5.655744
_cell_length_c 25.880864
_cell_angle_alpha 90.000000
_cell_angle_beta 150.169090
_cell_angle_gamma 90.000000
_cell_volume 666.374934
_symmetry_space_group_name_H-M "P 21"
_symmetry_group_IT_number 4
_symmetry_cell_setting 'monoclinic'
loop_
_space_group_symop_operation_xyz
x,y,z
-x,1/2+y,-z
loop_
_atom_site_type_symbol
_atom_site_label
_atom_site_fract_x
_atom_site_fract_y
_atom_site_fract_z
Si Si1 0.754313 0.939410 0.253396
Si Si2 0.245707 0.664051 0.136392
Si Si3 0.615562 0.813495 0.907203
Si Si4 0.800902 0.112990 0.654903
Si Si5 0.812173 0.767873 0.569408
Si Si6 0.755419 0.952150 0.754208
Si Si7 0.602880 0.362554 0.053353
Si Si8 0.100237 0.861098 0.555726
O O1 0.471072 0.880349 0.201325
O O2 0.885946 0.731302 0.259281
O O3 0.638328 0.120129 0.175258
O O4 0.011716 0.022041 0.371631
O O5 0.393013 0.452868 0.149308
O O6 0.215085 0.620756 0.187460
O O7 0.939348 0.712359 0.014809
O O8 0.512772 0.955567 0.926477
O O9 0.527241 0.258269 0.548970
O O10 0.822476 0.868583 0.630621
O O11 0.750770 0.100257 0.700268
O O12 0.980161 0.917895 0.576534
O O13 0.450182 0.807545 0.663823
O O14 0.050512 0.793272 0.843325
O O15 0.553721 0.608063 0.005942
O O16 0.955801 0.611916 0.491715
#
# Coordination Sequence:
#
# PCOD8047987 Si02
#       8
#     2   2   2   2   2   2   2   2
#     4  12  26  48  82 108 158 206 268 324 400 466
#     4  12  27  49  80 116 157 207 269 326 398 478
#     4  12  27  49  80 114 155 213 263 331 393 483
#     4  12  27  49  80 116 157 207 269 326 398 478
#     4  12  27  49  80 114 155 213 263 331 393 483
#     4  12  28  50  80 118 160 214 262 336 404 468
#     4  12  30  51  81 119 162 209 268 332 395 474
#     4  12  30  51  81 119 162 209 268 332 395 474
#
# _framework density 24.010508000000002
#
# number of rings (size 3 to 8) (size 9 to 14) (size 15 to 20)
#    0.000    0.000    5.000    3.750   10.500    3.000 
#    0.000    0.000    0.000    0.000    0.000    0.000 
#    0.000    0.000    0.000    0.000    0.000    0.000 
#
# Total GULP energy -198243.872226 kJ/mol
# GULP energy per Si atom -12390.242014 kJ/mol
# Density = 2.395586 g / cm^3
# Si number density = 24.010508 Si / 1000 Ang^3
#
#
#
# Elastic Constant Matrix: (Units=GPa)
#
#
# Indices 1 2 3 4 5 6 
#
# 1 153.1766 21.9853 39.0145 0.0000 -10.1488 0.0000
# 2 21.9853 79.0148 30.0899 0.0000 -6.8179 0.0000
# 3 39.0145 30.0899 137.2470 0.0000 22.0018 0.0000
# 4 0.0000 0.0000 0.0000 33.4532 0.0000 9.6009
# 5 -10.1488 -6.8179 22.0018 0.0000 53.7605 0.0000
# 6 0.0000 0.0000 0.0000 9.6009 0.0000 29.8263
#
#
#
# Elastic Compliance Matrix: (Units=1/GPa)
#
#
# Indices 1 2 3 4 5 6 
#
# 1 0.007386 -0.001020 -0.002225 0.000000 0.002175 0.000000
# 2 -0.001020 0.014484 -0.003370 0.000000 0.003024 0.000000
# 3 -0.002225 -0.003370 0.009411 0.000000 -0.004699 0.000000
# 4 0.000000 0.000000 0.000000 0.032935 0.000000 -0.010602
# 5 0.002175 0.003024 -0.004699 0.000000 0.021318 0.000000
# 6 0.000000 0.000000 0.000000 -0.010602 0.000000 0.036940
#
#
# Mechanical properties :
#
#
# Convention : Reuss Voigt Hill
#
# Bulk Modulus (GPa) = 55.40017 61.29087 58.34552
# Shear Modulus (GPa) = 35.28087 41.96458 38.62273
#
# Velocity S-wave (km/s) = 3.83742 4.18516 4.01506
# Velocity P-wave (km/s) = 6.53895 6.99544 6.77104
#
# Compressibility (1/GPa) = 0.01805049
#
# Stress axis : x y z
#
# Youngs Moduli (GPa) = 135.39966 69.04173 106.26325
#
# Poissons Ratio (x) = 0.07043 0.23638
# Poissons Ratio (y) = 0.13813 0.35812
# Poissons Ratio (z) = 0.30120 0.23268
#
# Static dielectric constant tensor:
#      x y z
#    x 4.696470 0.000000 0.241000 
#    y 0.000000 4.033990 0.000000 
#    z 0.241000 0.000000 4.706690 
# 
# 
# High freq. dielectric constant tensor:
#      x y z
#    x 1.975000 0.000000 0.013890 
#    y 0.000000 1.925860 0.000000 
#    z 0.013890 0.000000 1.979620 
# 
# From -- ./inp_files/9464.got.cif
#   From: 2010.03.12/outbox.cif.g09.slc.cpg/sg4_5_cif.got.tgz:9464.got - 2010.03.31 09:31:35.
