data_PCOD8047373
_publ_section_title
;
Structure prediction by ZEFSAII (Michael W. Deem and Ramdas Pophale) SiO2 
 PCOD8047373
Probable space group: P 21
;
_chemical_formula_sum "Si O2"
_cell_formula_units_Z 14
_cell_length_a 9.759629
_cell_length_b 9.400546
_cell_length_c 7.850695
_cell_angle_alpha 90.000000
_cell_angle_beta 47.046553
_cell_angle_gamma 90.000000
_cell_volume 527.170065
_symmetry_space_group_name_H-M "P 21"
_symmetry_group_IT_number 4
_symmetry_cell_setting 'monoclinic'
loop_
_space_group_symop_operation_xyz
x,y,z
-x,1/2+y,-z
loop_
_atom_site_type_symbol
_atom_site_label
_atom_site_fract_x
_atom_site_fract_y
_atom_site_fract_z
Si Si1 0.753132 0.232520 0.870460
Si Si2 0.715346 0.618531 0.376501
Si Si3 0.684742 0.685791 0.766520
Si Si4 0.469802 0.365719 0.613355
Si Si5 0.825870 0.917934 0.856401
Si Si6 0.163715 0.736383 0.582423
Si Si7 0.875044 0.520281 0.901203
O O1 0.794642 0.281173 0.645567
O O2 0.844321 0.350390 0.919256
O O3 0.860571 0.085218 0.813926
O O4 0.533340 0.209716 0.087010
O O5 0.775632 0.603520 0.524893
O O6 0.534910 0.518392 0.490661
O O7 0.664881 0.785836 0.405117
O O8 0.863767 0.574340 0.106426
O O9 0.789389 0.837610 0.705855
O O10 0.718627 0.591048 0.908280
O O11 0.646041 0.258202 0.477705
O O12 0.362974 0.383810 0.880990
O O13 0.010258 0.848831 0.786116
O O14 0.081681 0.575245 0.667721
#
# Coordination Sequence:
#
# PCOD8047373 Si02
#       7
#     2   2   2   2   2   2   2
#     4  12  21  41  75 113 147 199 253 312 389 452
#     4  12  25  47  77 113 149 203 259 316 392 459
#     4  11  22  44  79 105 146 204 249 315 379 460
#     4  12  25  50  74 108 156 198 258 321 383 462
#     4  11  24  47  75 111 151 199 256 312 386 462
#     4  11  24  48  75 107 157 195 254 319 374 472
#     4  11  25  47  75 113 156 196 259 319 385 463
#
# _framework density 26.556896999999999
#
# number of rings (size 3 to 8) (size 9 to 14) (size 15 to 20)
#    0.000    0.571    5.714    3.429    0.000    2.286 
#    2.571    8.571    0.000    0.000    0.000    0.000 
#    0.000    0.000    0.000    0.000    0.000    0.000 
#
# Total GULP energy -173534.383057 kJ/mol
# GULP energy per Si atom -12395.313076 kJ/mol
# Density = 2.649645 g / cm^3
# Si number density = 26.556897 Si / 1000 Ang^3
#
#
#
# Elastic Constant Matrix: (Units=GPa)
#
#
# Indices 1 2 3 4 5 6 
#
# 1 43.1989 13.2657 29.0190 0.0000 6.7943 0.0000
# 2 13.2657 161.6849 12.7971 0.0000 10.2430 0.0000
# 3 29.0190 12.7971 112.7353 0.0000 12.6397 0.0000
# 4 0.0000 0.0000 0.0000 37.5212 0.0000 3.7533
# 5 6.7943 10.2430 12.6397 0.0000 41.7476 0.0000
# 6 0.0000 0.0000 0.0000 3.7533 0.0000 16.8243
#
#
#
# Elastic Compliance Matrix: (Units=1/GPa)
#
#
# Indices 1 2 3 4 5 6 
#
# 1 0.028667 -0.001666 -0.006949 0.000000 -0.002153 0.000000
# 2 -0.001666 0.006414 -0.000159 0.000000 -0.001255 0.000000
# 3 -0.006949 -0.000159 0.010916 0.000000 -0.002135 0.000000
# 4 0.000000 0.000000 0.000000 0.027260 0.000000 -0.006081
# 5 -0.002153 -0.001255 -0.002135 0.000000 0.025258 0.000000
# 6 0.000000 0.000000 0.000000 -0.006081 0.000000 0.060794
#
#
# Mechanical properties :
#
#
# Convention : Reuss Voigt Hill
#
# Bulk Modulus (GPa) = 35.14836 47.53141 41.33988
# Shear Modulus (GPa) = 26.83293 36.72111 31.77702
#
# Velocity S-wave (km/s) = 3.18212 3.72255 3.46289
# Velocity P-wave (km/s) = 5.17349 6.03434 5.62042
#
# Compressibility (1/GPa) = 0.02845083
#
# Stress axis : x y z
#
# Youngs Moduli (GPa) = 34.88389 155.91961 91.60557
#
# Poissons Ratio (x) = 0.25971 0.63653
# Poissons Ratio (y) = 0.05810 0.01453
# Poissons Ratio (z) = 0.24239 0.02473
#
# Static dielectric constant tensor:
#      x y z
#    x 4.425850 0.000000 -0.088420 
#    y 0.000000 5.028860 0.000000 
#    z -0.088420 0.000000 5.071460 
# 
# 
# High freq. dielectric constant tensor:
#      x y z
#    x 2.043700 0.000000 -0.005140 
#    y 0.000000 2.073810 0.000000 
#    z -0.005140 0.000000 2.074630 
# 
# From -- ./inp_files/7922.got.cif
#   From: 2010.03.12/outbox.cif.g09.slc.cpg/sg4_4_cif.got.tgz:7922.got - 2010.03.31 09:31:35.
