data_PCOD8047017
_publ_section_title
;
Structure prediction by ZEFSAII (Michael W. Deem and Ramdas Pophale) SiO2 
 PCOD8047017
Probable space group: P 21
;
_chemical_formula_sum "Si O2"
_cell_formula_units_Z 16
_cell_length_a 17.085314
_cell_length_b 9.941744
_cell_length_c 11.412613
_cell_angle_alpha 90.000000
_cell_angle_beta 20.945358
_cell_angle_gamma 90.000000
_cell_volume 692.977732
_symmetry_space_group_name_H-M "P 21"
_symmetry_group_IT_number 4
_symmetry_cell_setting 'monoclinic'
loop_
_space_group_symop_operation_xyz
x,y,z
-x,1/2+y,-z
loop_
_atom_site_type_symbol
_atom_site_label
_atom_site_fract_x
_atom_site_fract_y
_atom_site_fract_z
Si Si1 0.841808 0.386800 0.260402
Si Si2 0.495816 0.665958 0.303141
Si Si3 0.747469 0.410301 0.897178
Si Si4 0.807842 0.912844 0.851233
Si Si5 0.184961 0.543957 0.916094
Si Si6 0.547718 0.799941 0.860646
Si Si7 0.036936 0.833030 0.160878
Si Si8 0.516607 0.507721 0.869470
O O1 0.720515 0.239968 0.452765
O O2 0.682429 0.504695 0.527714
O O3 0.873048 0.411758 0.078396
O O4 0.070876 0.415795 0.008954
O O5 0.412654 0.587247 0.535542
O O6 0.629909 0.555294 0.041341
O O7 0.679066 0.778489 0.069192
O O8 0.817018 0.376602 0.932348
O O9 0.939757 0.388463 0.533259
O O10 0.560102 0.305558 0.118038
O O11 0.771289 0.010035 0.011065
O O12 0.722214 0.983133 0.851758
O O13 0.031983 0.675222 0.136793
O O14 0.540845 0.644849 0.908776
O O15 0.785207 0.870114 0.532947
O O16 0.410804 0.886735 0.145757
#
# Coordination Sequence:
#
# PCOD8047017 Si02
#       8
#     2   2   2   2   2   2   2   2
#     4  10  23  48  71 104 147 193 247 317 377 450
#     4  10  27  45  71 113 147 195 260 311 379 468
#     4  12  27  46  75 108 151 200 251 313 388 448
#     4  11  26  47  72 108 150 197 256 316 386 454
#     4  11  23  48  74 102 151 197 252 316 387 445
#     4  12  26  46  76 108 144 196 250 313 388 455
#     4  11  25  48  72 106 145 195 254 310 375 466
#     4  11  25  46  73 105 149 191 248 316 378 458
#
# _framework density 23.088766
#
# number of rings (size 3 to 8) (size 9 to 14) (size 15 to 20)
#    0.000    1.000    2.500    2.250   12.250    0.000 
#    9.000    0.000    0.000    0.000    0.000    0.000 
#    0.000    0.000    0.000    0.000    0.000    0.000 
#
# Total GULP energy -198232.362024 kJ/mol
# GULP energy per Si atom -12389.522626 kJ/mol
# Density = 2.303621 g / cm^3
# Si number density = 23.088766 Si / 1000 Ang^3
#
#
#
# Elastic Constant Matrix: (Units=GPa)
#
#
# Indices 1 2 3 4 5 6 
#
# 1 140.7701 52.6844 46.4636 0.0000 0.1711 0.0000
# 2 52.6844 120.8744 51.6431 0.0000 11.0143 0.0000
# 3 46.4636 51.6431 113.9319 0.0000 5.0699 0.0000
# 4 0.0000 0.0000 0.0000 39.6405 0.0000 0.5620
# 5 0.1711 11.0143 5.0699 0.0000 32.7257 0.0000
# 6 0.0000 0.0000 0.0000 0.5620 0.0000 37.1641
#
#
#
# Elastic Compliance Matrix: (Units=1/GPa)
#
#
# Indices 1 2 3 4 5 6 
#
# 1 0.009021 -0.003047 -0.002357 0.000000 0.001344 0.000000
# 2 -0.003047 0.011541 -0.003843 0.000000 -0.003273 0.000000
# 3 -0.002357 -0.003843 0.011502 0.000000 -0.000476 0.000000
# 4 0.000000 0.000000 0.000000 0.025232 0.000000 -0.000382
# 5 0.001344 -0.003273 -0.000476 0.000000 0.031725 0.000000
# 6 0.000000 0.000000 0.000000 -0.000382 0.000000 0.026913
#
#
# Mechanical properties :
#
#
# Convention : Reuss Voigt Hill
#
# Bulk Modulus (GPa) = 73.69975 75.23985 74.46980
# Shear Modulus (GPa) = 35.98346 36.89175 36.43760
#
# Velocity S-wave (km/s) = 3.95205 4.00161 3.97691
# Velocity P-wave (km/s) = 7.26735 7.34905 7.30831
#
# Compressibility (1/GPa) = 0.01356857
#
# Stress axis : x y z
#
# Youngs Moduli (GPa) = 110.85727 86.64510 86.94276
#
# Poissons Ratio (x) = 0.26400 0.20496
# Poissons Ratio (y) = 0.33778 0.33414
# Poissons Ratio (z) = 0.26134 0.33300
#
# Static dielectric constant tensor:
#      x y z
#    x 4.071790 0.000000 0.039780 
#    y 0.000000 4.221620 0.000000 
#    z 0.039780 0.000000 4.356390 
# 
# 
# High freq. dielectric constant tensor:
#      x y z
#    x 1.907310 0.000000 0.005400 
#    y 0.000000 1.903740 0.000000 
#    z 0.005400 0.000000 1.925320 
# 
# From -- ./inp_files/12905.got.cif
#   From: 2010.03.12/outbox.cif.g09.slc.cpg/sg4_7_cif.got.tgz:12905.got - 2010.03.31 09:31:35.
