data_PCOD8047287
_publ_section_title
;
Structure prediction by ZEFSAII (Michael W. Deem and Ramdas Pophale) SiO2 
 PCOD8047287
Probable space group: P 21
;
_chemical_formula_sum "Si O2"
_cell_formula_units_Z 16
_cell_length_a 11.611168
_cell_length_b 8.934703
_cell_length_c 10.386603
_cell_angle_alpha 90.000000
_cell_angle_beta 38.747091
_cell_angle_gamma 90.000000
_cell_volume 674.408949
_symmetry_space_group_name_H-M "P 21"
_symmetry_group_IT_number 4
_symmetry_cell_setting 'monoclinic'
loop_
_space_group_symop_operation_xyz
x,y,z
-x,1/2+y,-z
loop_
_atom_site_type_symbol
_atom_site_label
_atom_site_fract_x
_atom_site_fract_y
_atom_site_fract_z
Si Si1 0.387437 0.013750 0.713694
Si Si2 0.793126 0.035908 0.287916
Si Si3 0.822642 0.698585 0.657202
Si Si4 0.054080 0.844047 0.905803
Si Si5 0.265757 0.290745 0.984761
Si Si6 0.519546 0.041664 0.085927
Si Si7 0.353220 0.865122 0.005875
Si Si8 0.950799 0.985263 0.416402
O O1 0.573245 0.019234 0.466844
O O2 0.221365 0.962906 0.763935
O O3 0.341333 0.177100 0.811274
O O4 0.411520 0.893244 0.807271
O O5 0.841275 0.060634 0.395523
O O6 0.862997 0.177943 0.143463
O O7 0.900305 0.887012 0.147554
O O8 0.737652 0.709276 0.875244
O O9 0.684112 0.596811 0.693711
O O10 0.829769 0.858143 0.586002
O O11 0.018092 0.613840 0.501851
O O12 0.941724 0.845705 0.868944
O O13 0.398277 0.435275 0.874638
O O14 0.500693 0.949751 0.968545
O O15 0.645624 0.189001 0.960825
O O16 0.145969 0.921099 0.201892
#
# Coordination Sequence:
#
# PCOD8047287 Si02
#       8
#     2   2   2   2   2   2   2   2
#     4  12  26  50  77 111 150 203 262 318 389 452
#     4  12  28  49  83 106 151 205 256 332 381 460
#     4  11  23  44  70 113 152 202 252 306 391 456
#     4  12  26  54  75 110 157 197 264 320 388 449
#     4  12  25  49  73 109 161 199 252 324 380 460
#     4  11  23  40  70 106 143 204 237 312 377 445
#     4  11  21  43  69 105 155 193 256 313 378 452
#     4  11  24  45  69 110 155 201 247 321 380 456
#
# _framework density 23.724478000000001
#
# number of rings (size 3 to 8) (size 9 to 14) (size 15 to 20)
#    0.000    0.500    7.500    0.750    5.250    2.000 
#    0.000    1.250    0.000    0.000    0.000    0.000 
#    0.000    0.000    0.000    0.000    0.000    0.000 
#
# Total GULP energy -198357.373005 kJ/mol
# GULP energy per Si atom -12397.335813 kJ/mol
# Density = 2.367048 g / cm^3
# Si number density = 23.724478 Si / 1000 Ang^3
#
#
#
# Elastic Constant Matrix: (Units=GPa)
#
#
# Indices 1 2 3 4 5 6 
#
# 1 97.0912 40.8043 34.9264 0.0000 -32.6513 0.0000
# 2 40.8043 88.4620 34.0972 0.0000 -10.9776 0.0000
# 3 34.9264 34.0972 110.2839 0.0000 -22.5971 0.0000
# 4 0.0000 0.0000 0.0000 35.5623 0.0000 -3.1059
# 5 -32.6513 -10.9776 -22.5971 0.0000 31.6033 0.0000
# 6 0.0000 0.0000 0.0000 -3.1059 0.0000 44.8243
#
#
#
# Elastic Compliance Matrix: (Units=1/GPa)
#
#
# Indices 1 2 3 4 5 6 
#
# 1 0.018856 -0.006397 -0.000536 0.000000 0.016876 0.000000
# 2 -0.006397 0.015102 -0.003424 0.000000 -0.003812 0.000000
# 3 -0.000536 -0.003424 0.011645 0.000000 0.006583 0.000000
# 4 0.000000 0.000000 0.000000 0.028291 0.000000 0.001960
# 5 0.016876 -0.003812 0.006583 0.000000 0.052461 0.000000
# 6 0.000000 0.000000 0.000000 0.001960 0.000000 0.022445
#
#
# Mechanical properties :
#
#
# Convention : Reuss Voigt Hill
#
# Bulk Modulus (GPa) = 40.17902 57.27697 48.72800
# Shear Modulus (GPa) = 28.11984 34.79860 31.45922
#
# Velocity S-wave (km/s) = 3.44651 3.83401 3.64541
# Velocity P-wave (km/s) = 5.72803 6.61774 6.18889
#
# Compressibility (1/GPa) = 0.02488861
#
# Stress axis : x y z
#
# Youngs Moduli (GPa) = 53.03300 66.21738 85.87494
#
# Poissons Ratio (x) = 0.42358 0.04603
# Poissons Ratio (y) = 0.33924 0.29406
# Poissons Ratio (z) = 0.02843 0.22675
#
# Static dielectric constant tensor:
#      x y z
#    x 4.523840 0.000000 -0.324290 
#    y 0.000000 4.686180 0.000000 
#    z -0.324290 0.000000 3.944100 
# 
# 
# High freq. dielectric constant tensor:
#      x y z
#    x 1.946750 0.000000 -0.029820 
#    y 0.000000 1.953270 0.000000 
#    z -0.029820 0.000000 1.911830 
# 
# From -- ./inp_files/12102.got.cif
#   From: 2010.03.12/outbox.cif.g09.slc.cpg/sg4_7_cif.got.tgz:12102.got - 2010.03.31 09:31:35.
