data_PCOD8047244
_publ_section_title
;
Structure prediction by ZEFSAII (Michael W. Deem and Ramdas Pophale) SiO2 
 PCOD8047244
Probable space group: P 21
;
_chemical_formula_sum "Si O2"
_cell_formula_units_Z 14
_cell_length_a 7.928437
_cell_length_b 8.907241
_cell_length_c 16.023993
_cell_angle_alpha 90.000000
_cell_angle_beta 29.067068
_cell_angle_gamma 90.000000
_cell_volume 549.779588
_symmetry_space_group_name_H-M "P 21"
_symmetry_group_IT_number 4
_symmetry_cell_setting 'monoclinic'
loop_
_space_group_symop_operation_xyz
x,y,z
-x,1/2+y,-z
loop_
_atom_site_type_symbol
_atom_site_label
_atom_site_fract_x
_atom_site_fract_y
_atom_site_fract_z
Si Si1 0.217428 0.208780 0.943096
Si Si2 0.759115 0.390838 0.821082
Si Si3 0.595631 0.752821 0.544953
Si Si4 0.057067 0.679754 0.650096
Si Si5 0.037910 0.417364 0.875768
Si Si6 0.191045 0.944240 0.497145
Si Si7 0.618652 0.014723 0.636948
O O1 0.451492 0.300735 0.908911
O O2 0.988412 0.316398 0.981484
O O3 0.443427 0.090265 0.792090
O O4 0.969330 0.096543 0.102065
O O5 0.148099 0.347173 0.625364
O O6 0.728170 0.568731 0.807482
O O7 0.758884 0.373451 0.923039
O O8 0.290293 0.664905 0.630941
O O9 0.831297 0.623258 0.482059
O O10 0.405107 0.873730 0.689273
O O11 0.981824 0.856178 0.662765
O O12 0.293849 0.639943 0.468003
O O13 0.424035 0.380413 0.678632
O O14 0.973516 0.923585 0.506550
#
# Coordination Sequence:
#
# PCOD8047244 Si02
#       7
#     2   2   2   2   2   2   2
#     4  12  28  50  69 103 149 202 243 294 361 443
#     4  11  24  49  71 106 147 188 245 298 366 436
#     4  11  20  38  73 107 141 174 236 305 364 421
#     4  11  21  39  71 107 140 182 231 311 359 420
#     4  12  27  48  73 102 153 194 245 299 363 438
#     4  12  21  41  71 110 136 180 237 301 365 419
#     4  11  23  41  68 105 142 184 239 296 362 431
#
# _framework density 25.464753999999999
#
# number of rings (size 3 to 8) (size 9 to 14) (size 15 to 20)
#    0.000    0.571    5.714    3.429    2.000    1.143 
#    2.571    0.000    0.000    0.000    0.000    0.000 
#    0.000    0.000    0.000    0.000    0.000    0.000 
#
# Total GULP energy -173458.491029 kJ/mol
# GULP energy per Si atom -12389.892216 kJ/mol
# Density = 2.540679 g / cm^3
# Si number density = 25.464754 Si / 1000 Ang^3
#
#
#
# Elastic Constant Matrix: (Units=GPa)
#
#
# Indices 1 2 3 4 5 6 
#
# 1 149.8466 56.5949 29.2549 0.0000 10.0947 0.0000
# 2 56.5949 134.6285 25.5286 0.0000 -1.5603 0.0000
# 3 29.2549 25.5286 25.8295 0.0000 3.6170 0.0000
# 4 0.0000 0.0000 0.0000 40.4140 0.0000 5.6142
# 5 10.0947 -1.5603 3.6170 0.0000 21.7303 0.0000
# 6 0.0000 0.0000 0.0000 5.6142 0.0000 57.5736
#
#
#
# Elastic Compliance Matrix: (Units=1/GPa)
#
#
# Indices 1 2 3 4 5 6 
#
# 1 0.009331 -0.002513 -0.007630 0.000000 -0.003245 0.000000
# 2 -0.002513 0.009923 -0.007396 0.000000 0.003111 0.000000
# 3 -0.007630 -0.007396 0.055540 0.000000 -0.006231 0.000000
# 4 0.000000 0.000000 0.000000 0.025084 0.000000 -0.002446
# 5 -0.003245 0.003111 -0.006231 0.000000 0.048787 0.000000
# 6 0.000000 0.000000 0.000000 -0.002446 0.000000 0.017608
#
#
# Mechanical properties :
#
#
# Convention : Reuss Voigt Hill
#
# Bulk Modulus (GPa) = 25.17960 59.22905 42.20432
# Shear Modulus (GPa) = 23.30028 37.20533 30.25280
#
# Velocity S-wave (km/s) = 3.02818 3.82652 3.45052
# Velocity P-wave (km/s) = 4.70489 6.54467 5.69950
#
# Compressibility (1/GPa) = 0.03971470
#
# Stress axis : x y z
#
# Youngs Moduli (GPa) = 107.17007 100.77596 18.00500
#
# Poissons Ratio (x) = 0.25328 0.13738
# Poissons Ratio (y) = 0.26936 0.13317
# Poissons Ratio (z) = 0.81770 0.74538
#
# Static dielectric constant tensor:
#      x y z
#    x 4.728740 0.000000 0.294790 
#    y 0.000000 4.985620 0.000000 
#    z 0.294790 0.000000 3.991750 
# 
# 
# High freq. dielectric constant tensor:
#      x y z
#    x 2.027260 0.000000 0.017920 
#    y 0.000000 2.048050 0.000000 
#    z 0.017920 0.000000 1.973370 
# 
# From -- ./inp_files/11074.got.cif
#   From: 2010.03.12/outbox.cif.g09.slc.cpg/sg4_6_cif.got.tgz:11074.got - 2010.03.31 09:31:35.
