data_PCOD8047234
_publ_section_title
;
Structure prediction by ZEFSAII (Michael W. Deem and Ramdas Pophale) SiO2 
 PCOD8047234
Probable space group: P 21
;
_chemical_formula_sum "Si O2"
_cell_formula_units_Z 16
_cell_length_a 10.900757
_cell_length_b 13.285768
_cell_length_c 10.107395
_cell_angle_alpha 90.000000
_cell_angle_beta 26.969363
_cell_angle_gamma 90.000000
_cell_volume 663.855043
_symmetry_space_group_name_H-M "P 21"
_symmetry_group_IT_number 4
_symmetry_cell_setting 'monoclinic'
loop_
_space_group_symop_operation_xyz
x,y,z
-x,1/2+y,-z
loop_
_atom_site_type_symbol
_atom_site_label
_atom_site_fract_x
_atom_site_fract_y
_atom_site_fract_z
Si Si1 0.902077 0.391040 0.844762
Si Si2 0.493822 0.591969 0.950975
Si Si3 0.039252 0.583449 0.581814
Si Si4 0.816747 0.148181 0.276354
Si Si5 0.364529 0.290356 0.282974
Si Si6 0.729117 0.526286 0.250336
Si Si7 0.711671 0.874022 0.928457
Si Si8 0.738738 0.357518 0.443745
O O1 0.055841 0.464324 0.593112
O O2 0.118234 0.298905 0.627929
O O3 0.602599 0.368037 0.084372
O O4 0.866495 0.445849 0.018288
O O5 0.508841 0.678188 0.823100
O O6 0.784286 0.596975 0.735895
O O7 0.292513 0.625987 0.259565
O O8 0.404164 0.486366 0.978003
O O9 0.028857 0.642146 0.730510
O O10 0.766412 0.267924 0.306844
O O11 0.544506 0.080485 0.536293
O O12 0.032743 0.109700 0.958547
O O13 0.265612 0.309560 0.227416
O O14 0.667587 0.463392 0.441285
O O15 0.004729 0.877864 0.711322
O O16 0.507445 0.821423 0.227149
#
# Coordination Sequence:
#
# PCOD8047234 Si02
#       8
#     2   2   2   2   2   2   2   2
#     4  11  21  41  65  92 131 171 227 282 329 390
#     4  12  23  38  63  99 139 176 214 270 354 408
#     4  11  19  39  65  93 132 173 222 278 311 409
#     4  11  23  44  74 103 124 187 241 277 338 400
#     4  12  23  40  65 101 133 177 221 271 348 417
#     4  11  25  46  71  99 132 179 235 293 332 398
#     4  12  24  43  67 101 142 181 217 286 346 408
#     4  12  26  47  70 100 141 180 229 285 346 410
#
# _framework density 24.101648999999998
#
# number of rings (size 3 to 8) (size 9 to 14) (size 15 to 20)
#    0.000    0.500    2.500    8.250    0.000    0.000 
#    6.750    0.000    0.000    0.000    0.000    0.000 
#    0.000    0.000    0.000    0.000    0.000    0.000 
#
# Total GULP energy -198345.272918 kJ/mol
# GULP energy per Si atom -12396.579557 kJ/mol
# Density = 2.404679 g / cm^3
# Si number density = 24.101649 Si / 1000 Ang^3
#
#
#
# Elastic Constant Matrix: (Units=GPa)
#
#
# Indices 1 2 3 4 5 6 
#
# 1 32.2454 12.2441 13.2371 0.0000 -11.8862 0.0000
# 2 12.2441 86.9173 -14.6886 0.0000 0.7571 0.0000
# 3 13.2371 -14.6886 107.2648 0.0000 -8.9780 0.0000
# 4 0.0000 0.0000 0.0000 37.7781 0.0000 10.3688
# 5 -11.8862 0.7571 -8.9780 0.0000 25.6718 0.0000
# 6 0.0000 0.0000 0.0000 10.3688 0.0000 18.7715
#
#
#
# Elastic Compliance Matrix: (Units=1/GPa)
#
#
# Indices 1 2 3 4 5 6 
#
# 1 0.042212 -0.006888 -0.004635 0.000000 0.018127 0.000000
# 2 -0.006888 0.012903 0.002388 0.000000 -0.002734 0.000000
# 3 -0.004635 0.002388 0.010339 0.000000 0.001399 0.000000
# 4 0.000000 0.000000 0.000000 0.031201 0.000000 -0.017234
# 5 0.018127 -0.002734 0.001399 0.000000 0.047916 0.000000
# 6 0.000000 0.000000 0.000000 -0.017234 0.000000 0.062792
#
#
# Mechanical properties :
#
#
# Convention : Reuss Voigt Hill
#
# Bulk Modulus (GPa) = 21.19359 27.55697 24.37528
# Shear Modulus (GPa) = 20.71590 30.81992 25.76791
#
# Velocity S-wave (km/s) = 2.93494 3.57984 3.27331
# Velocity P-wave (km/s) = 4.50529 5.34279 4.94182
#
# Compressibility (1/GPa) = 0.04718408
#
# Stress axis : x y z
#
# Youngs Moduli (GPa) = 23.68983 77.50231 96.72253
#
# Poissons Ratio (x) = 0.53381 0.44833
# Poissons Ratio (y) = 0.16317 -0.23097
# Poissons Ratio (z) = 0.10981 -0.18507
#
# Static dielectric constant tensor:
#      x y z
#    x 3.958960 0.000000 0.029950 
#    y 0.000000 5.149330 0.000000 
#    z 0.029950 0.000000 4.435630 
# 
# 
# High freq. dielectric constant tensor:
#      x y z
#    x 1.927870 0.000000 -0.006970 
#    y 0.000000 1.969600 0.000000 
#    z -0.006970 0.000000 1.974760 
# 
# From -- ./inp_files/12350.got.cif
#   From: 2010.03.12/outbox.cif.g09.slc.cpg/sg4_7_cif.got.tgz:12350.got - 2010.03.31 09:31:35.
