data_PCOD8047598
_publ_section_title
;
Structure prediction by ZEFSAII (Michael W. Deem and Ramdas Pophale) SiO2 
 PCOD8047598
Probable space group: P 21
;
_chemical_formula_sum "Si O2"
_cell_formula_units_Z 16
_cell_length_a 8.953045
_cell_length_b 11.263597
_cell_length_c 12.338490
_cell_angle_alpha 90.000000
_cell_angle_beta 37.308452
_cell_angle_gamma 90.000000
_cell_volume 754.150945
_symmetry_space_group_name_H-M "P 21"
_symmetry_group_IT_number 4
_symmetry_cell_setting 'monoclinic'
loop_
_space_group_symop_operation_xyz
x,y,z
-x,1/2+y,-z
loop_
_atom_site_type_symbol
_atom_site_label
_atom_site_fract_x
_atom_site_fract_y
_atom_site_fract_z
Si Si1 0.457202 0.088870 0.825420
Si Si2 0.870723 0.813459 0.307521
Si Si3 0.399273 0.711931 0.477996
Si Si4 0.483706 0.591099 0.781915
Si Si5 0.122327 0.928193 0.552722
Si Si6 0.292212 0.349817 0.363812
Si Si7 0.101014 0.557888 0.816137
Si Si8 0.233444 0.613306 0.143453
O O1 0.553227 0.163878 0.669061
O O2 0.604820 0.136747 0.843676
O O3 0.506394 0.949549 0.779693
O O4 0.169439 0.111356 0.009928
O O5 0.653180 0.725364 0.396260
O O6 0.808987 0.872463 0.457965
O O7 0.121263 0.738535 0.170504
O O8 0.911794 0.917328 0.197228
O O9 0.270801 0.840338 0.545421
O O10 0.225273 0.622224 0.642746
O O11 0.694339 0.497778 0.631944
O O12 0.584963 0.722937 0.715465
O O13 0.249255 0.579371 0.840101
O O14 0.404675 0.561455 0.949926
O O15 0.932269 0.853651 0.590704
O O16 0.985807 0.021274 0.708571
#
# Coordination Sequence:
#
# PCOD8047598 Si02
#       8
#     2   2   2   2   2   2   2   2
#     4  11  27  45  69 107 137 181 235 280 346 415
#     4  12  23  46  74  98 139 183 228 288 349 406
#     4  12  25  45  70 101 138 180 228 285 344 413
#     4  12  25  48  70 102 142 181 230 287 348 407
#     4  11  26  45  69 103 135 184 231 279 350 407
#     4  11  24  44  74  97 139 183 227 285 345 411
#     4  12  26  45  72 103 137 185 228 287 347 413
#     4  11  26  46  70 101 141 181 227 289 341 414
#
# _framework density 21.215911999999999
#
# number of rings (size 3 to 8) (size 9 to 14) (size 15 to 20)
#    0.000    0.500    5.000    2.250    5.250    2.000 
#    4.500    0.000    0.000    0.000    0.000    0.000 
#    0.000    0.000    0.000    0.000    0.000    0.000 
#
# Total GULP energy -198542.943218 kJ/mol
# GULP energy per Si atom -12408.933951 kJ/mol
# Density = 2.116762 g / cm^3
# Si number density = 21.215912 Si / 1000 Ang^3
#
#
#
# Elastic Constant Matrix: (Units=GPa)
#
#
# Indices 1 2 3 4 5 6 
#
# 1 -78.8086 -38.5456 -130.7553 0.0000 30.1069 0.0000
# 2 -38.5456 53.8046 -56.0138 0.0000 8.9611 0.0000
# 3 -130.7553 -56.0138 -39.9288 0.0000 30.3654 0.0000
# 4 0.0000 0.0000 0.0000 13.0584 0.0000 -3.4789
# 5 30.1069 8.9611 30.3654 0.0000 28.9514 0.0000
# 6 0.0000 0.0000 0.0000 -3.4789 0.0000 39.6008
#
#
#
# Elastic Compliance Matrix: (Units=1/GPa)
#
#
# Indices 1 2 3 4 5 6 
#
# 1 0.006006 -0.005432 -0.008633 0.000000 0.004490 0.000000
# 2 -0.005432 0.013951 -0.000429 0.000000 0.001780 0.000000
# 3 -0.008633 -0.000429 0.005982 0.000000 0.002835 0.000000
# 4 0.000000 0.000000 0.000000 0.078414 0.000000 0.006889
# 5 0.004490 0.001780 0.002835 0.000000 0.026347 0.000000
# 6 0.000000 0.000000 0.000000 0.006889 0.000000 0.025857
#
#
# Mechanical properties :
#
#
# Convention : Reuss Voigt Hill
#
# Bulk Modulus (GPa) = -328.14334 -57.28469 -192.71402
# Shear Modulus (GPa) = 27.09610 27.01427 27.05518
#
# Velocity S-wave (km/s) = 3.57761 3.57221 3.57491
# Velocity P-wave (km/s) = 11.74472 3.16942 8.60185
#
# Compressibility (1/GPa) = -0.00304745
#
# Stress axis : x y z
#
# Youngs Moduli (GPa) = 166.50320 71.67791 167.16164
#
# Poissons Ratio (x) = 0.38937 1.44303
# Poissons Ratio (y) = 0.90447 0.07167
# Poissons Ratio (z) = 1.43735 0.03073
#
# Static dielectric constant tensor:
#      x y z
#    x 3.950120 0.000000 -0.030980 
#    y 0.000000 3.817960 0.000000 
#    z -0.030980 0.000000 3.969120 
# 
# 
# High freq. dielectric constant tensor:
#      x y z
#    x 1.845710 0.000000 -0.001460 
#    y 0.000000 1.838810 0.000000 
#    z -0.001460 0.000000 1.842060 
# 
# From -- ./inp_files/4604.got.cif
#   From: 2010.03.12/outbox.cif.g09.slc.cpg/sg4_3_cif.got.tgz:4604.got - 2010.03.31 09:31:35.
