data_PCOD8047787
_publ_section_title
;
Structure prediction by ZEFSAII (Michael W. Deem and Ramdas Pophale) SiO2 
 PCOD8047787
Probable space group: P 21
;
_chemical_formula_sum "Si O2"
_cell_formula_units_Z 16
_cell_length_a 12.525120
_cell_length_b 5.076911
_cell_length_c 10.445581
_cell_angle_alpha 90.000000
_cell_angle_beta 66.952305
_cell_angle_gamma 90.000000
_cell_volume 611.204432
_symmetry_space_group_name_H-M "P 21"
_symmetry_group_IT_number 4
_symmetry_cell_setting 'monoclinic'
loop_
_space_group_symop_operation_xyz
x,y,z
-x,1/2+y,-z
loop_
_atom_site_type_symbol
_atom_site_label
_atom_site_fract_x
_atom_site_fract_y
_atom_site_fract_z
Si Si1 0.220654 0.755790 0.572251
Si Si2 0.482118 0.755409 0.817826
Si Si3 0.662718 0.975872 0.907773
Si Si4 0.931770 0.468184 0.567491
Si Si5 0.140079 0.252239 0.749500
Si Si6 0.716767 0.603577 0.100977
Si Si7 0.469604 0.938100 0.446387
Si Si8 0.122586 0.803922 0.145461
O O1 0.178118 0.853023 0.454780
O O2 0.165892 0.471752 0.630324
O O3 0.358292 0.747471 0.501734
O O4 0.181679 0.960189 0.697562
O O5 0.605445 0.891644 0.797672
O O6 0.496810 0.502596 0.717279
O O7 0.394315 0.953626 0.782981
O O8 0.419450 0.686703 0.981623
O O9 0.794544 0.081262 0.828316
O O10 0.667461 0.721845 0.993999
O O11 0.897204 0.519555 0.731699
O O12 0.969290 0.740558 0.484118
O O13 0.220389 0.318787 0.836730
O O14 0.004061 0.211059 0.841344
O O15 0.818419 0.404427 0.011210
O O16 0.556244 0.723631 0.472692
#
# Coordination Sequence:
#
# PCOD8047787 Si02
#       8
#     2   2   2   2   2   2   2   2
#     4  12  27  49  78 113 152 215 254 319 396 468
#     4  11  26  51  77 114 156 201 272 331 399 471
#     4  11  26  47  78 110 147 210 259 336 397 457
#     4  12  25  49  75 110 155 203 255 321 383 463
#     4  12  28  50  76 113 162 202 261 321 395 479
#     4  11  28  47  79 107 155 206 257 333 401 466
#     4  12  30  49  80 118 161 210 266 325 396 483
#     4  11  28  46  77 115 152 205 266 322 399 479
#
# _framework density 26.177823
#
# number of rings (size 3 to 8) (size 9 to 14) (size 15 to 20)
#    0.000    0.500    3.750    1.500   15.750    2.000 
#    0.000    0.000    0.000    0.000    0.000    0.000 
#    0.000    0.000    0.000    0.000    0.000    0.000 
#
# Total GULP energy -198335.975792 kJ/mol
# GULP energy per Si atom -12395.998487 kJ/mol
# Density = 2.611824 g / cm^3
# Si number density = 26.177823 Si / 1000 Ang^3
#
#
#
# Elastic Constant Matrix: (Units=GPa)
#
#
# Indices 1 2 3 4 5 6 
#
# 1 166.9103 30.7739 25.5164 0.0000 -4.8384 0.0000
# 2 30.7739 100.3761 12.8625 0.0000 -7.4371 0.0000
# 3 25.5164 12.8625 59.2665 0.0000 5.7831 0.0000
# 4 0.0000 0.0000 0.0000 28.4213 0.0000 9.3569
# 5 -4.8384 -7.4371 5.7831 0.0000 41.1579 0.0000
# 6 0.0000 0.0000 0.0000 9.3569 0.0000 41.2544
#
#
#
# Elastic Compliance Matrix: (Units=1/GPa)
#
#
# Indices 1 2 3 4 5 6 
#
# 1 0.006723 -0.001662 -0.002617 0.000000 0.000858 0.000000
# 2 -0.001662 0.010858 -0.001838 0.000000 0.002025 0.000000
# 3 -0.002617 -0.001838 0.018718 0.000000 -0.003270 0.000000
# 4 0.000000 0.000000 0.000000 0.038024 0.000000 -0.008624
# 5 0.000858 0.002025 -0.003270 0.000000 0.025223 0.000000
# 6 0.000000 0.000000 0.000000 -0.008624 0.000000 0.026196
#
#
# Mechanical properties :
#
#
# Convention : Reuss Voigt Hill
#
# Bulk Modulus (GPa) = 41.55841 51.65095 46.60468
# Shear Modulus (GPa) = 34.24713 39.32675 36.78694
#
# Velocity S-wave (km/s) = 3.62090 3.88015 3.75276
# Velocity P-wave (km/s) = 5.77850 6.31250 6.05140
#
# Compressibility (1/GPa) = 0.02406252
#
# Stress axis : x y z
#
# Youngs Moduli (GPa) = 148.75008 92.10028 53.42497
#
# Poissons Ratio (x) = 0.15308 0.13983
# Poissons Ratio (y) = 0.24724 0.09822
# Poissons Ratio (z) = 0.38933 0.16932
#
# Static dielectric constant tensor:
#      x y z
#    x 5.031780 0.000000 -0.056150 
#    y 0.000000 4.485880 0.000000 
#    z -0.056150 0.000000 4.551470 
# 
# 
# High freq. dielectric constant tensor:
#      x y z
#    x 2.070570 0.000000 0.004190 
#    y 0.000000 2.041770 0.000000 
#    z 0.004190 0.000000 2.034970 
# 
# From -- ./inp_files/11607.got.cif
#   From: 2010.03.12/outbox.cif.g09.slc.cpg/sg4_6_cif.got.tgz:11607.got - 2010.03.31 09:31:35.
