data_PCOD8047245
_publ_section_title
;
Structure prediction by ZEFSAII (Michael W. Deem and Ramdas Pophale) SiO2 
 PCOD8047245
Probable space group: P 21
;
_chemical_formula_sum "Si O2"
_cell_formula_units_Z 12
_cell_length_a 15.801614
_cell_length_b 6.326361
_cell_length_c 9.405937
_cell_angle_alpha 90.000000
_cell_angle_beta 36.063961
_cell_angle_gamma 90.000000
_cell_volume 553.531932
_symmetry_space_group_name_H-M "P 21"
_symmetry_group_IT_number 4
_symmetry_cell_setting 'monoclinic'
loop_
_space_group_symop_operation_xyz
x,y,z
-x,1/2+y,-z
loop_
_atom_site_type_symbol
_atom_site_label
_atom_site_fract_x
_atom_site_fract_y
_atom_site_fract_z
Si Si1 0.333302 0.886130 0.550325
Si Si2 0.560791 0.162596 0.111417
Si Si3 0.046910 0.388410 0.751193
Si Si4 0.648245 0.016994 0.688194
Si Si5 0.779149 0.139044 0.043041
Si Si6 0.132356 0.242351 0.924851
O O1 0.293779 0.712243 0.484638
O O2 0.325428 0.777710 0.714804
O O3 0.490245 0.975221 0.300248
O O4 0.227261 0.085926 0.697405
O O5 0.466626 0.377391 0.244364
O O6 0.718708 0.182483 0.966683
O O7 0.571725 0.096695 0.933326
O O8 0.208360 0.380613 0.468314
O O9 0.043742 0.374383 0.928171
O O10 0.946958 0.208161 0.817055
O O11 0.971187 0.615198 0.826656
O O12 0.772366 0.896549 0.105281
#
# Coordination Sequence:
#
# PCOD8047245 Si02
#       6
#     2   2   2   2   2   2
#     4  11  23  40  73  98 131 178 224 288 331 408
#     4  12  27  46  67 101 136 185 230 282 344 411
#     4  11  21  40  70  99 133 182 221 279 337 407
#     4  12  25  48  69  94 140 189 231 271 354 411
#     4  11  26  42  70 104 136 172 234 291 335 399
#     4  11  20  40  69 106 130 172 230 275 341 394
#
# _framework density 21.678965000000002
#
# number of rings (size 3 to 8) (size 9 to 14) (size 15 to 20)
#    0.000    0.667    6.667    1.000    4.667    1.333 
#    3.000    0.000    0.000    0.000    0.000    0.000 
#    0.000    0.000    0.000    0.000    0.000    0.000 
#
# Total GULP energy -148765.360956 kJ/mol
# GULP energy per Si atom -12397.113413 kJ/mol
# Density = 2.162962 g / cm^3
# Si number density = 21.678965 Si / 1000 Ang^3
#
#
#
# Elastic Constant Matrix: (Units=GPa)
#
#
# Indices 1 2 3 4 5 6 
#
# 1 117.2682 46.5015 22.1285 0.0000 -16.0829 0.0000
# 2 46.5015 115.6893 31.4702 0.0000 -7.0816 0.0000
# 3 22.1285 31.4702 59.1512 0.0000 -17.8709 0.0000
# 4 0.0000 0.0000 0.0000 38.4627 0.0000 -3.6876
# 5 -16.0829 -7.0816 -17.8709 0.0000 27.9901 0.0000
# 6 0.0000 0.0000 0.0000 -3.6876 0.0000 25.8899
#
#
#
# Elastic Compliance Matrix: (Units=1/GPa)
#
#
# Indices 1 2 3 4 5 6 
#
# 1 0.010853 -0.003930 -0.000478 0.000000 0.004937 0.000000
# 2 -0.003930 0.011557 -0.005547 0.000000 -0.002876 0.000000
# 3 -0.000478 -0.005547 0.024196 0.000000 0.013771 0.000000
# 4 0.000000 0.000000 0.000000 0.026359 0.000000 0.003754
# 5 0.004937 -0.002876 0.013771 0.000000 0.046628 0.000000
# 6 0.000000 0.000000 0.000000 0.003754 0.000000 0.039160
#
#
# Mechanical properties :
#
#
# Convention : Reuss Voigt Hill
#
# Bulk Modulus (GPa) = 37.45888 54.70100 46.07994
# Shear Modulus (GPa) = 26.65793 31.26911 28.96352
#
# Velocity S-wave (km/s) = 3.51047 3.80198 3.65913
# Velocity P-wave (km/s) = 5.80927 6.67536 6.25732
#
# Compressibility (1/GPa) = 0.02669594
#
# Stress axis : x y z
#
# Youngs Moduli (GPa) = 92.13876 86.53131 41.32897
#
# Poissons Ratio (x) = 0.34010 0.01974
# Poissons Ratio (y) = 0.36214 0.22925
# Poissons Ratio (z) = 0.04400 0.47999
#
# Static dielectric constant tensor:
#      x y z
#    x 3.552340 0.000000 -0.163430 
#    y 0.000000 4.176240 0.000000 
#    z -0.163430 0.000000 3.761870 
# 
# 
# High freq. dielectric constant tensor:
#      x y z
#    x 1.826450 0.000000 -0.018990 
#    y 0.000000 1.865500 0.000000 
#    z -0.018990 0.000000 1.840570 
# 
# From -- ./inp_files/8779.got.cif
#   From: 2010.03.12/outbox.cif.g09.slc.cpg/sg4_5_cif.got.tgz:8779.got - 2010.03.31 09:31:35.
