data_PCOD8047936
_publ_section_title
;
Structure prediction by ZEFSAII (Michael W. Deem and Ramdas Pophale) SiO2 
 PCOD8047936
Probable space group: P 21
;
_chemical_formula_sum "Si O2"
_cell_formula_units_Z 12
_cell_length_a 12.391067
_cell_length_b 8.295020
_cell_length_c 8.559473
_cell_angle_alpha 90.000000
_cell_angle_beta 146.343540
_cell_angle_gamma 90.000000
_cell_volume 487.583651
_symmetry_space_group_name_H-M "P 21"
_symmetry_group_IT_number 4
_symmetry_cell_setting 'monoclinic'
loop_
_space_group_symop_operation_xyz
x,y,z
-x,1/2+y,-z
loop_
_atom_site_type_symbol
_atom_site_label
_atom_site_fract_x
_atom_site_fract_y
_atom_site_fract_z
Si Si1 0.143506 0.376470 0.619163
Si Si2 0.492612 0.461983 0.254155
Si Si3 0.940367 0.791623 0.028297
Si Si4 0.860725 0.514259 0.499132
Si Si5 0.465854 0.166853 0.413334
Si Si6 0.229953 0.516264 0.410467
O O1 0.130000 0.202717 0.524943
O O2 0.223090 0.505244 0.588921
O O3 0.926710 0.421042 0.420291
O O4 0.290391 0.396160 0.941388
O O5 0.642615 0.471418 0.290603
O O6 0.560554 0.336294 0.470759
O O7 0.477781 0.628704 0.336320
O O8 0.125985 0.680192 0.232263
O O9 0.767593 0.680137 0.890822
O O10 0.871318 0.855208 0.776999
O O11 0.990300 0.953687 0.186920
O O12 0.552256 0.029836 0.399218
#
# Coordination Sequence:
#
# PCOD8047936 Si02
#       6
#     2   2   2   2   2   2
#     4  12  29  49  75 112 156 196 250 313 379 447
#     4  12  28  50  76 112 151 197 254 305 380 444
#     4  12  25  49  73 112 150 198 261 299 372 450
#     4  12  27  51  75 111 154 198 250 308 379 449
#     4  12  25  48  74 107 149 195 256 305 369 449
#     4  12  26  45  77 110 150 204 247 314 373 443
#
# _framework density 24.611163000000001
#
# number of rings (size 3 to 8) (size 9 to 14) (size 15 to 20)
#    0.000    0.000    5.000    4.000    2.333    0.000 
#    0.000    1.667    0.000    0.000    0.000    0.000 
#    0.000    0.000    0.000    0.000    0.000    0.000 
#
# Total GULP energy -148708.659411 kJ/mol
# GULP energy per Si atom -12392.388284 kJ/mol
# Density = 2.455515 g / cm^3
# Si number density = 24.611163 Si / 1000 Ang^3
#
#
#
# Elastic Constant Matrix: (Units=GPa)
#
#
# Indices 1 2 3 4 5 6 
#
# 1 176.7187 46.8738 41.0614 0.0000 14.2643 0.0000
# 2 46.8738 113.3671 51.7764 0.0000 1.3888 0.0000
# 3 41.0614 51.7764 77.2995 0.0000 -0.4180 0.0000
# 4 0.0000 0.0000 0.0000 47.7957 0.0000 -11.1259
# 5 14.2643 1.3888 -0.4180 0.0000 33.7468 0.0000
# 6 0.0000 0.0000 0.0000 -11.1259 0.0000 49.5900
#
#
#
# Elastic Compliance Matrix: (Units=1/GPa)
#
#
# Indices 1 2 3 4 5 6 
#
# 1 0.006932 -0.001645 -0.002596 0.000000 -0.002894 0.000000
# 2 -0.001645 0.013112 -0.007909 0.000000 0.000058 0.000000
# 3 -0.002596 -0.007909 0.019622 0.000000 0.001666 0.000000
# 4 0.000000 0.000000 0.000000 0.022075 0.000000 0.004953
# 5 -0.002894 0.000058 0.001666 0.000000 0.030874 0.000000
# 6 0.000000 0.000000 0.000000 0.004953 0.000000 0.021277
#
#
# Mechanical properties :
#
#
# Convention : Reuss Voigt Hill
#
# Bulk Modulus (GPa) = 65.07516 71.86760 68.47138
# Shear Modulus (GPa) = 34.88837 41.40474 38.14655
#
# Velocity S-wave (km/s) = 3.76917 4.10610 3.94124
# Velocity P-wave (km/s) = 6.74098 7.19338 6.97085
#
# Compressibility (1/GPa) = 0.01536685
#
# Stress axis : x y z
#
# Youngs Moduli (GPa) = 144.26118 76.26368 50.96293
#
# Poissons Ratio (x) = 0.12546 0.13230
# Poissons Ratio (y) = 0.23731 0.40305
# Poissons Ratio (z) = 0.37450 0.60315
#
# Static dielectric constant tensor:
#      x y z
#    x 4.888860 0.000000 0.071330 
#    y 0.000000 4.359800 0.000000 
#    z 0.071330 0.000000 4.016650 
# 
# 
# High freq. dielectric constant tensor:
#      x y z
#    x 2.013550 0.000000 0.009430 
#    y 0.000000 1.978660 0.000000 
#    z 0.009430 0.000000 1.943620 
# 
# From -- ./inp_files/8074.got.cif
#   From: 2010.03.12/outbox.cif.g09.slc.cpg/sg4_5_cif.got.tgz:8074.got - 2010.03.31 09:31:35.
