data_PCOD8047684
_publ_section_title
;
Structure prediction by ZEFSAII (Michael W. Deem and Ramdas Pophale) SiO2 
 PCOD8047684
Probable space group: P 21
;
_chemical_formula_sum "Si O2"
_cell_formula_units_Z 14
_cell_length_a 5.082808
_cell_length_b 9.453184
_cell_length_c 11.282593
_cell_angle_alpha 90.000000
_cell_angle_beta 75.413025
_cell_angle_gamma 90.000000
_cell_volume 524.639879
_symmetry_space_group_name_H-M "P 21"
_symmetry_group_IT_number 4
_symmetry_cell_setting 'monoclinic'
loop_
_space_group_symop_operation_xyz
x,y,z
-x,1/2+y,-z
loop_
_atom_site_type_symbol
_atom_site_label
_atom_site_fract_x
_atom_site_fract_y
_atom_site_fract_z
Si Si1 0.431434 0.081110 0.134091
Si Si2 0.798539 0.361941 0.680475
Si Si3 0.026927 0.032004 0.981378
Si Si4 0.862809 0.849830 0.785273
Si Si5 0.418499 0.488044 0.390750
Si Si6 0.743428 0.251254 0.444221
Si Si7 0.751263 0.702240 0.240344
O O1 0.383252 0.248876 0.144184
O O2 0.317346 0.014615 0.269628
O O3 0.750499 0.053046 0.085431
O O4 0.271937 0.002473 0.044759
O O5 0.867814 0.354160 0.532555
O O6 0.561906 0.249284 0.738571
O O7 0.075371 0.322170 0.715411
O O8 0.001318 0.907690 0.888508
O O9 0.106974 0.175580 0.902001
O O10 0.072315 0.747036 0.693047
O O11 0.756605 0.974561 0.710773
O O12 0.460742 0.330556 0.440370
O O13 0.287058 0.591383 0.504775
O O14 0.715539 0.555165 0.320109
#
# Coordination Sequence:
#
# PCOD8047684 Si02
#       7
#     2   2   2   2   2   2   2
#     4  12  31  47  83 115 159 209 269 340 399 482
#     4  11  27  47  78 115 156 202 272 319 408 471
#     4  12  27  51  78 112 158 210 262 333 403 468
#     4  12  30  51  81 119 160 208 280 330 408 481
#     4  11  27  49  80 118 163 210 262 332 405 479
#     4  11  28  47  86 111 166 212 262 339 401 490
#     4  11  24  50  74 110 154 211 259 323 386 485
#
# _framework density 26.684972999999999
#
# number of rings (size 3 to 8) (size 9 to 14) (size 15 to 20)
#    0.000    0.571    1.429    4.286   16.000    0.000 
#    0.000    0.000    0.000    0.000    0.000    0.000 
#    0.000    0.000    0.000    0.000    0.000    0.000 
#
# Total GULP energy -173598.658836 kJ/mol
# GULP energy per Si atom -12399.904203 kJ/mol
# Density = 2.662424 g / cm^3
# Si number density = 26.684973 Si / 1000 Ang^3
#
#
#
# Elastic Constant Matrix: (Units=GPa)
#
#
# Indices 1 2 3 4 5 6 
#
# 1 83.4677 5.4944 5.9232 0.0000 -3.2604 0.0000
# 2 5.4944 85.6304 14.6932 0.0000 2.5575 0.0000
# 3 5.9232 14.6932 91.9749 0.0000 -5.4123 0.0000
# 4 0.0000 0.0000 0.0000 57.5999 0.0000 1.5531
# 5 -3.2604 2.5575 -5.4123 0.0000 41.7510 0.0000
# 6 0.0000 0.0000 0.0000 1.5531 0.0000 26.9398
#
#
#
# Elastic Compliance Matrix: (Units=1/GPa)
#
#
# Indices 1 2 3 4 5 6 
#
# 1 0.012106 -0.000698 -0.000615 0.000000 0.000908 0.000000
# 2 -0.000698 0.012088 -0.001948 0.000000 -0.001048 0.000000
# 3 -0.000615 -0.001948 0.011314 0.000000 0.001538 0.000000
# 4 0.000000 0.000000 0.000000 0.017388 0.000000 -0.001002
# 5 0.000908 -0.001048 0.001538 0.000000 0.024286 0.000000
# 6 0.000000 0.000000 0.000000 -0.001002 0.000000 0.037178
#
#
# Mechanical properties :
#
#
# Convention : Reuss Voigt Hill
#
# Bulk Modulus (GPa) = 34.49907 34.81052 34.65480
# Shear Modulus (GPa) = 38.30141 40.92229 39.61185
#
# Velocity S-wave (km/s) = 3.79267 3.92028 3.85700
# Velocity P-wave (km/s) = 5.66881 5.79351 5.73150
#
# Compressibility (1/GPa) = 0.02898629
#
# Stress axis : x y z
#
# Youngs Moduli (GPa) = 82.60531 82.72382 88.38776
#
# Poissons Ratio (x) = 0.05778 0.05432
# Poissons Ratio (y) = 0.05769 0.17216
# Poissons Ratio (z) = 0.05077 0.16113
#
# Static dielectric constant tensor:
#      x y z
#    x 4.638900 0.000000 -0.000960 
#    y 0.000000 4.679520 0.000000 
#    z -0.000960 0.000000 5.096420 
# 
# 
# High freq. dielectric constant tensor:
#      x y z
#    x 2.072210 0.000000 -0.006000 
#    y 0.000000 2.067650 0.000000 
#    z -0.006000 0.000000 2.082930 
# 
# From -- ./inp_files/10240.got.cif
#   From: 2010.03.12/outbox.cif.g09.slc.cpg/sg4_6_cif.got.tgz:10240.got - 2010.03.31 09:31:35.
