data_PCOD8047886
_publ_section_title
;
Structure prediction by ZEFSAII (Michael W. Deem and Ramdas Pophale) SiO2 
 PCOD8047886
Probable space group: P 21
;
_chemical_formula_sum "Si O2"
_cell_formula_units_Z 12
_cell_length_a 12.552766
_cell_length_b 8.506610
_cell_length_c 12.631193
_cell_angle_alpha 90.000000
_cell_angle_beta 22.727500
_cell_angle_gamma 90.000000
_cell_volume 521.098564
_symmetry_space_group_name_H-M "P 21"
_symmetry_group_IT_number 4
_symmetry_cell_setting 'monoclinic'
loop_
_space_group_symop_operation_xyz
x,y,z
-x,1/2+y,-z
loop_
_atom_site_type_symbol
_atom_site_label
_atom_site_fract_x
_atom_site_fract_y
_atom_site_fract_z
Si Si1 0.567328 0.788910 0.273636
Si Si2 0.237769 0.288988 0.665794
Si Si3 0.304973 0.638238 0.895076
Si Si4 0.963514 0.098393 0.256336
Si Si5 0.318937 0.681986 0.126034
Si Si6 0.874941 0.518849 0.660570
O O1 0.651695 0.794871 0.317628
O O2 0.247940 0.743255 0.556690
O O3 0.606199 0.957789 0.184738
O O4 0.739283 0.658669 0.052929
O O5 0.483935 0.245065 0.362505
O O6 0.128400 0.461080 0.738159
O O7 0.997366 0.158797 0.878489
O O8 0.299961 0.703994 0.018117
O O9 0.979035 0.031743 0.360085
O O10 0.239691 0.844956 0.255127
O O11 0.104393 0.549279 0.360627
O O12 0.628418 0.643180 0.876959
#
# Coordination Sequence:
#
# PCOD8047886 Si02
#       6
#     2   2   2   2   2   2
#     4  12  26  44  75 107 142 190 237 291 348 432
#     4  12  24  48  73 102 146 191 238 287 359 415
#     4  12  27  47  71 108 145 185 239 295 353 418
#     4  12  27  47  71 107 145 186 238 295 354 418
#     4  12  28  49  76 106 141 188 237 296 358 421
#     4  12  28  49  74 106 141 188 237 296 358 420
#
# _framework density 23.028272000000001
#
# number of rings (size 3 to 8) (size 9 to 14) (size 15 to 20)
#    0.000    0.000    1.667    8.000    9.333    0.000 
#    0.000    0.000    0.000    0.000    0.000    0.000 
#    0.000    0.000    0.000    0.000    0.000    0.000 
#
# Total GULP energy -148949.386616 kJ/mol
# GULP energy per Si atom -12412.448885 kJ/mol
# Density = 2.297586 g / cm^3
# Si number density = 23.028272 Si / 1000 Ang^3
#
#
#
# Elastic Constant Matrix: (Units=GPa)
#
#
# Indices 1 2 3 4 5 6 
#
# 1 70.4851 -9.8643 13.9093 0.0000 -8.7912 0.0000
# 2 -9.8643 86.9216 2.5098 0.0000 10.1525 0.0000
# 3 13.9093 2.5098 95.2543 0.0000 4.5359 0.0000
# 4 0.0000 0.0000 0.0000 45.2982 0.0000 3.0922
# 5 -8.7912 10.1525 4.5359 0.0000 42.4924 0.0000
# 6 0.0000 0.0000 0.0000 3.0922 0.0000 32.7039
#
#
#
# Elastic Compliance Matrix: (Units=1/GPa)
#
#
# Indices 1 2 3 4 5 6 
#
# 1 0.015247 0.001442 -0.002411 0.000000 0.003067 0.000000
# 2 0.001442 0.011974 -0.000406 0.000000 -0.002519 0.000000
# 3 -0.002411 -0.000406 0.010936 0.000000 -0.001569 0.000000
# 4 0.000000 0.000000 0.000000 0.022219 0.000000 -0.002101
# 5 0.003067 -0.002519 -0.001569 0.000000 0.024938 0.000000
# 6 0.000000 0.000000 0.000000 -0.002101 0.000000 0.030776
#
#
# Mechanical properties :
#
#
# Convention : Reuss Voigt Hill
#
# Bulk Modulus (GPa) = 28.24262 29.53005 28.88634
# Shear Modulus (GPa) = 38.27236 40.50598 39.38917
#
# Velocity S-wave (km/s) = 4.08115 4.19855 4.14027
# Velocity P-wave (km/s) = 5.87356 6.02951 5.95205
#
# Compressibility (1/GPa) = 0.03540748
#
# Stress axis : x y z
#
# Youngs Moduli (GPa) = 65.58485 83.51283 91.44426
#
# Poissons Ratio (x) = -0.12040 0.22043
# Poissons Ratio (y) = -0.09455 0.03713
# Poissons Ratio (z) = 0.15809 0.03391
#
# Static dielectric constant tensor:
#      x y z
#    x 4.122400 0.000000 -0.047300 
#    y 0.000000 4.203240 0.000000 
#    z -0.047300 0.000000 4.389750 
# 
# 
# High freq. dielectric constant tensor:
#      x y z
#    x 1.919880 0.000000 0.000310 
#    y 0.000000 1.920110 0.000000 
#    z 0.000310 0.000000 1.929250 
# 
# From -- ./inp_files/3673.got.cif
#   From: 2010.03.12/outbox.cif.g09.slc.cpg/sg4_2_cif.got.tgz:3673.got - 2010.03.31 09:31:35.
