data_PCOD8047237
_publ_section_title
;
Structure prediction by ZEFSAII (Michael W. Deem and Ramdas Pophale) SiO2 
 PCOD8047237
Probable space group: P 21
;
_chemical_formula_sum "Si O2"
_cell_formula_units_Z 16
_cell_length_a 11.855944
_cell_length_b 13.007897
_cell_length_c 6.373751
_cell_angle_alpha 90.000000
_cell_angle_beta 47.683690
_cell_angle_gamma 90.000000
_cell_volume 726.843579
_symmetry_space_group_name_H-M "P 21"
_symmetry_group_IT_number 4
_symmetry_cell_setting 'monoclinic'
loop_
_space_group_symop_operation_xyz
x,y,z
-x,1/2+y,-z
loop_
_atom_site_type_symbol
_atom_site_label
_atom_site_fract_x
_atom_site_fract_y
_atom_site_fract_z
Si Si1 0.055708 0.868050 0.286064
Si Si2 0.038959 0.618514 0.981308
Si Si3 0.848738 0.900951 0.179134
Si Si4 0.259126 0.157312 0.383805
Si Si5 0.537650 0.829871 0.661499
Si Si6 0.080350 0.220287 0.238193
Si Si7 0.702068 0.431621 0.734433
Si Si8 0.720106 0.290516 0.316005
O O1 0.132900 0.946468 0.355826
O O2 0.896528 0.893286 0.368291
O O3 0.037878 0.761830 0.439115
O O4 0.176042 0.866093 0.948271
O O5 0.076339 0.503586 0.009391
O O6 0.197076 0.680695 0.791016
O O7 0.984952 0.621188 0.803905
O O8 0.903214 0.665913 0.292105
O O9 0.665706 0.906923 0.409483
O O10 0.898261 0.807407 0.967599
O O11 0.381030 0.235693 0.323383
O O12 0.233653 0.186387 0.169577
O O13 0.332132 0.043670 0.319419
O O14 0.445499 0.780830 0.582584
O O15 0.431278 0.897786 0.942510
O O16 0.708948 0.340382 0.557736
#
# Coordination Sequence:
#
# PCOD8047237 Si02
#       8
#     2   2   2   2   2   2   2   2
#     4  11  19  44  67  99 136 168 234 286 337 396
#     4  12  24  43  75 104 132 181 240 290 349 403
#     4  12  25  44  70 104 139 182 229 293 347 412
#     4  12  25  46  71 106 132 185 240 282 352 414
#     4  11  27  46  63 101 152 176 228 283 342 432
#     4  12  21  43  75  98 139 176 232 303 337 399
#     4  11  26  44  73  99 139 191 224 289 348 416
#     4  11  23  44  66 101 141 179 221 286 340 412
#
# _framework density 22.012989999999999
#
# number of rings (size 3 to 8) (size 9 to 14) (size 15 to 20)
#    0.000    0.500    6.250    2.250    1.750    3.000 
#    0.000    0.000    0.000    0.000    0.000    0.000 
#    0.000    0.000    0.000    0.000    0.000    0.000 
#
# Total GULP energy -198257.659124 kJ/mol
# GULP energy per Si atom -12391.103695 kJ/mol
# Density = 2.196289 g / cm^3
# Si number density = 22.012990 Si / 1000 Ang^3
#
#
#
# Elastic Constant Matrix: (Units=GPa)
#
#
# Indices 1 2 3 4 5 6 
#
# 1 163.6983 35.6904 36.2491 0.0000 -1.0198 0.0000
# 2 35.6904 91.3086 11.6050 0.0000 1.6499 0.0000
# 3 36.2491 11.6050 81.1381 0.0000 -1.5169 0.0000
# 4 0.0000 0.0000 0.0000 33.5899 0.0000 -5.3225
# 5 -1.0198 1.6499 -1.5169 0.0000 30.6310 0.0000
# 6 0.0000 0.0000 0.0000 -5.3225 0.0000 26.7203
#
#
#
# Elastic Compliance Matrix: (Units=1/GPa)
#
#
# Indices 1 2 3 4 5 6 
#
# 1 0.007294 -0.002487 -0.002899 0.000000 0.000233 0.000000
# 2 -0.002487 0.012017 -0.000622 0.000000 -0.000761 0.000000
# 3 -0.002899 -0.000622 0.013720 0.000000 0.000616 0.000000
# 4 0.000000 0.000000 0.000000 0.030741 0.000000 0.006123
# 5 0.000233 -0.000761 0.000616 0.000000 0.032726 0.000000
# 6 0.000000 0.000000 0.000000 0.006123 0.000000 0.038644
#
#
# Mechanical properties :
#
#
# Convention : Reuss Voigt Hill
#
# Bulk Modulus (GPa) = 47.58263 55.91491 51.74877
# Shear Modulus (GPa) = 32.43311 35.02827 33.73069
#
# Velocity S-wave (km/s) = 3.84260 3.99338 3.91872
# Velocity P-wave (km/s) = 6.43041 6.83512 6.63585
#
# Compressibility (1/GPa) = 0.02101607
#
# Stress axis : x y z
#
# Youngs Moduli (GPa) = 137.09191 83.21706 72.88537
#
# Poissons Ratio (x) = 0.20696 0.21128
# Poissons Ratio (y) = 0.34095 0.04533
# Poissons Ratio (z) = 0.39740 0.05175
#
# Static dielectric constant tensor:
#      x y z
#    x 4.487020 0.000000 0.193010 
#    y 0.000000 3.809930 0.000000 
#    z 0.193010 0.000000 3.986800 
# 
# 
# High freq. dielectric constant tensor:
#      x y z
#    x 1.877910 0.000000 0.014880 
#    y 0.000000 1.857720 0.000000 
#    z 0.014880 0.000000 1.860440 
# 
# From -- ./inp_files/1654.got.cif
#   From: 2010.03.12/outbox.cif.g09.slc.cpg/sg4_1_cif.got.tgz:1654.got - 2010.03.31 09:31:35.
