data_PCOD8047738
_publ_section_title
;
Structure prediction by ZEFSAII (Michael W. Deem and Ramdas Pophale) SiO2 
 PCOD8047738
Probable space group: P 21
;
_chemical_formula_sum "Si O2"
_cell_formula_units_Z 16
_cell_length_a 8.692565
_cell_length_b 9.325488
_cell_length_c 16.006142
_cell_angle_alpha 90.000000
_cell_angle_beta 32.344833
_cell_angle_gamma 90.000000
_cell_volume 694.178235
_symmetry_space_group_name_H-M "P 21"
_symmetry_group_IT_number 4
_symmetry_cell_setting 'monoclinic'
loop_
_space_group_symop_operation_xyz
x,y,z
-x,1/2+y,-z
loop_
_atom_site_type_symbol
_atom_site_label
_atom_site_fract_x
_atom_site_fract_y
_atom_site_fract_z
Si Si1 0.130781 0.097460 0.648866
Si Si2 0.833089 0.803305 0.006645
Si Si3 0.136294 0.046154 0.122963
Si Si4 0.654769 0.342647 0.111397
Si Si5 0.650268 0.081184 0.004091
Si Si6 0.899291 0.997214 0.581735
Si Si7 0.363694 0.768861 0.356141
Si Si8 0.402151 0.370028 0.578454
O O1 0.321835 0.242348 0.551222
O O2 0.909378 0.127502 0.824766
O O3 0.960917 0.073498 0.641521
O O4 0.322800 0.957180 0.581755
O O5 0.589820 0.740067 0.178968
O O6 0.960689 0.675215 0.892702
O O7 0.087803 0.875726 0.942652
O O8 0.686924 0.917081 0.012770
O O9 0.345683 0.104202 0.098839
O O10 0.853804 0.983091 0.294972
O O11 0.308079 0.928055 0.991676
O O12 0.359264 0.384553 0.291320
O O13 0.652528 0.175412 0.087451
O O14 0.825312 0.123376 0.549870
O O15 0.172758 0.908944 0.422917
O O16 0.533002 0.792967 0.363704
#
# Coordination Sequence:
#
# PCOD8047738 Si02
#       8
#     2   2   2   2   2   2   2   2
#     4  11  25  47  66 102 136 181 223 284 334 409
#     4  12  26  43  72 101 139 178 228 282 340 402
#     4  12  24  45  69 101 134 180 226 280 337 401
#     4  12  24  45  69 101 134 180 226 280 337 401
#     4  12  26  43  72 101 139 178 228 282 340 402
#     4  11  27  45  71  97 143 175 233 274 344 405
#     4  11  25  47  66 102 136 181 223 284 334 409
#     4  11  27  45  71  97 143 175 233 274 344 405
#
# _framework density 23.048836000000001
#
# number of rings (size 3 to 8) (size 9 to 14) (size 15 to 20)
#    0.000    0.500    5.000    1.500    7.000    3.000 
#    0.000    0.000    0.000    0.000    0.000    0.000 
#    0.000    0.000    0.000    0.000    0.000    0.000 
#
# Total GULP energy -198541.074461 kJ/mol
# GULP energy per Si atom -12408.817154 kJ/mol
# Density = 2.299638 g / cm^3
# Si number density = 23.048836 Si / 1000 Ang^3
#
#
#
# Elastic Constant Matrix: (Units=GPa)
#
#
# Indices 1 2 3 4 5 6 
#
# 1 91.7584 30.5321 39.8061 0.0000 -20.4556 0.0000
# 2 30.5321 114.0415 24.3757 0.0000 -5.1183 0.0000
# 3 39.8061 24.3757 65.9088 0.0000 -20.2881 0.0000
# 4 0.0000 0.0000 0.0000 44.7316 0.0000 -5.2972
# 5 -20.4556 -5.1183 -20.2881 0.0000 27.7352 0.0000
# 6 0.0000 0.0000 0.0000 -5.2972 0.0000 37.9518
#
#
#
# Elastic Compliance Matrix: (Units=1/GPa)
#
#
# Indices 1 2 3 4 5 6 
#
# 1 0.016150 -0.002578 -0.006815 0.000000 0.006450 0.000000
# 2 -0.002578 0.009957 -0.002769 0.000000 -0.002089 0.000000
# 3 -0.006815 -0.002769 0.024016 0.000000 0.012030 0.000000
# 4 0.000000 0.000000 0.000000 0.022731 0.000000 0.003173
# 5 0.006450 -0.002089 0.012030 0.000000 0.049227 0.000000
# 6 0.000000 0.000000 0.000000 0.003173 0.000000 0.026792
#
#
# Mechanical properties :
#
#
# Convention : Reuss Voigt Hill
#
# Bulk Modulus (GPa) = 38.76009 51.23738 44.99874
# Shear Modulus (GPa) = 27.50330 33.88338 30.69334
#
# Velocity S-wave (km/s) = 3.45811 3.83831 3.65316
# Velocity P-wave (km/s) = 5.72693 6.47469 6.11226
#
# Compressibility (1/GPa) = 0.02579973
#
# Stress axis : x y z
#
# Youngs Moduli (GPa) = 61.91782 100.43292 41.63954
#
# Poissons Ratio (x) = 0.25889 0.28378
# Poissons Ratio (y) = 0.15961 0.11529
# Poissons Ratio (z) = 0.42199 0.27807
#
# Static dielectric constant tensor:
#      x y z
#    x 4.061340 0.000000 -0.214190 
#    y 0.000000 4.161160 0.000000 
#    z -0.214190 0.000000 4.029950 
# 
# 
# High freq. dielectric constant tensor:
#      x y z
#    x 1.910870 0.000000 -0.017670 
#    y 0.000000 1.923960 0.000000 
#    z -0.017670 0.000000 1.906460 
# 
# From -- ./inp_files/5434.got.cif
#   From: 2010.03.12/outbox.cif.g09.slc.cpg/sg4_3_cif.got.tgz:5434.got - 2010.03.31 09:31:35.
