data_PCOD8047538
_publ_section_title
;
Structure prediction by ZEFSAII (Michael W. Deem and Ramdas Pophale) SiO2 
 PCOD8047538
Probable space group: P 21
;
_chemical_formula_sum "Si O2"
_cell_formula_units_Z 14
_cell_length_a 9.917506
_cell_length_b 8.106553
_cell_length_c 8.155768
_cell_angle_alpha 90.000000
_cell_angle_beta 120.285373
_cell_angle_gamma 90.000000
_cell_volume 566.210784
_symmetry_space_group_name_H-M "P 21"
_symmetry_group_IT_number 4
_symmetry_cell_setting 'monoclinic'
loop_
_space_group_symop_operation_xyz
x,y,z
-x,1/2+y,-z
loop_
_atom_site_type_symbol
_atom_site_label
_atom_site_fract_x
_atom_site_fract_y
_atom_site_fract_z
Si Si1 0.013991 0.900520 0.847482
Si Si2 0.399070 0.949455 0.475263
Si Si3 0.037042 0.015133 0.210876
Si Si4 0.853020 0.960552 0.418772
Si Si5 0.358280 0.963801 0.985721
Si Si6 0.595759 0.226853 0.242692
Si Si7 0.433925 0.270002 0.686594
O O1 0.995421 0.708481 0.802157
O O2 0.932740 0.994700 0.644731
O O3 0.189287 0.967294 0.960712
O O4 0.951007 0.944635 0.992685
O O5 0.428769 0.773146 0.582427
O O6 0.509763 0.932921 0.383584
O O7 0.220174 0.975627 0.314228
O O8 0.466593 0.100541 0.618992
O O9 0.970477 0.932364 0.337852
O O10 0.746933 0.115151 0.305897
O O11 0.746803 0.795046 0.372375
O O12 0.449545 0.792357 0.090362
O O13 0.441791 0.136886 0.075219
O O14 0.359645 0.914979 0.794482
#
# Coordination Sequence:
#
# PCOD8047538 Si02
#       7
#     2   2   2   2   2   2   2
#     4  12  27  50  77 114 156 200 267 318 394 463
#     4  12  25  47  75 108 154 204 254 318 388 463
#     4  12  28  50  79 113 153 210 257 328 386 467
#     4  11  26  50  77 114 152 204 262 320 392 461
#     4  11  23  48  70 113 147 193 257 314 383 459
#     4  11  25  46  78 107 154 201 252 324 385 466
#     4  11  24  47  74 109 150 196 257 312 388 455
#
# _framework density 24.725774999999999
#
# number of rings (size 3 to 8) (size 9 to 14) (size 15 to 20)
#    0.000    0.571    4.286    3.429    2.000    1.143 
#   12.857    0.000    0.000    0.000    0.000    0.000 
#    0.000    0.000    0.000    0.000    0.000    0.000 
#
# Total GULP energy -173493.566253 kJ/mol
# GULP energy per Si atom -12392.397589 kJ/mol
# Density = 2.466950 g / cm^3
# Si number density = 24.725775 Si / 1000 Ang^3
#
#
#
# Elastic Constant Matrix: (Units=GPa)
#
#
# Indices 1 2 3 4 5 6 
#
# 1 113.2963 19.5019 38.4742 0.0000 -5.3344 0.0000
# 2 19.5019 74.6017 7.2651 0.0000 -1.1837 0.0000
# 3 38.4742 7.2651 89.5336 0.0000 -0.2307 0.0000
# 4 0.0000 0.0000 0.0000 37.9175 0.0000 -9.1509
# 5 -5.3344 -1.1837 -0.2307 0.0000 42.5574 0.0000
# 6 0.0000 0.0000 0.0000 -9.1509 0.0000 31.7723
#
#
#
# Elastic Compliance Matrix: (Units=1/GPa)
#
#
# Indices 1 2 3 4 5 6 
#
# 1 0.010804 -0.002371 -0.004447 0.000000 0.001264 0.000000
# 2 -0.002371 0.014038 -0.000120 0.000000 0.000093 0.000000
# 3 -0.004447 -0.000120 0.013088 0.000000 -0.000490 0.000000
# 4 0.000000 0.000000 0.000000 0.028343 0.000000 0.008163
# 5 0.001264 0.000093 -0.000490 0.000000 0.023656 0.000000
# 6 0.000000 0.000000 0.000000 0.008163 0.000000 0.033825
#
#
# Mechanical properties :
#
#
# Convention : Reuss Voigt Hill
#
# Bulk Modulus (GPa) = 41.57341 45.32378 43.44859
# Shear Modulus (GPa) = 34.32911 36.59547 35.46229
#
# Velocity S-wave (km/s) = 3.73016 3.85132 3.79122
# Velocity P-wave (km/s) = 5.94999 6.17635 6.06423
#
# Compressibility (1/GPa) = 0.02405384
#
# Stress axis : x y z
#
# Youngs Moduli (GPa) = 92.55575 71.23760 76.40316
#
# Poissons Ratio (x) = 0.16892 0.33977
# Poissons Ratio (y) = 0.21947 0.00916
# Poissons Ratio (z) = 0.41161 0.00854
#
# Static dielectric constant tensor:
#      x y z
#    x 4.543500 0.000000 -0.382530 
#    y 0.000000 4.187360 0.000000 
#    z -0.382530 0.000000 4.891450 
# 
# 
# High freq. dielectric constant tensor:
#      x y z
#    x 1.987350 0.000000 -0.023920 
#    y 0.000000 1.984480 0.000000 
#    z -0.023920 0.000000 2.004980 
# 
# From -- ./inp_files/5302.got.cif
#   From: 2010.03.12/outbox.cif.g09.slc.cpg/sg4_3_cif.got.tgz:5302.got - 2010.03.31 09:31:35.
