data_PCOD8047318
_publ_section_title
;
Structure prediction by ZEFSAII (Michael W. Deem and Ramdas Pophale) SiO2 
 PCOD8047318
Probable space group: P 21
;
_chemical_formula_sum "Si O2"
_cell_formula_units_Z 16
_cell_length_a 27.320522
_cell_length_b 6.081000
_cell_length_c 12.112904
_cell_angle_alpha 90.000000
_cell_angle_beta 21.078353
_cell_angle_gamma 90.000000
_cell_volume 723.744799
_symmetry_space_group_name_H-M "P 21"
_symmetry_group_IT_number 4
_symmetry_cell_setting 'monoclinic'
loop_
_space_group_symop_operation_xyz
x,y,z
-x,1/2+y,-z
loop_
_atom_site_type_symbol
_atom_site_label
_atom_site_fract_x
_atom_site_fract_y
_atom_site_fract_z
Si Si1 0.414234 0.310750 0.833660
Si Si2 0.636958 0.630467 0.280564
Si Si3 0.939767 0.241066 0.461629
Si Si4 0.285656 0.675524 0.225775
Si Si5 0.840187 0.031884 0.094893
Si Si6 0.555527 0.930416 0.634855
Si Si7 0.069559 0.688311 0.869566
Si Si8 0.895274 0.378646 0.801339
O O1 0.510356 0.468511 0.560648
O O2 0.335022 0.165774 0.908753
O O3 0.503558 0.176605 0.732344
O O4 0.306056 0.427449 0.140789
O O5 0.598687 0.855905 0.421660
O O6 0.770737 0.547286 0.060553
O O7 0.794885 0.285626 0.707907
O O8 0.942910 0.344624 0.575951
O O9 0.978514 0.983831 0.396173
O O10 0.051807 0.336149 0.141586
O O11 0.199191 0.682451 0.517895
O O12 0.432701 0.782504 0.941291
O O13 0.878223 0.192899 0.115059
O O14 0.688465 0.931972 0.433969
O O15 0.845380 0.160320 0.967401
O O16 0.999797 0.436268 0.000149
#
# Coordination Sequence:
#
# PCOD8047318 Si02
#       8
#     2   2   2   2   2   2   2   2
#     4  11  23  39  67 100 151 194 242 297 376 455
#     4  11  22  37  63 100 148 199 238 294 372 458
#     4  12  25  43  68 105 148 190 246 303 374 453
#     4  11  28  47  73 109 142 200 253 316 371 459
#     4  12  26  48  75 104 149 196 244 315 380 451
#     4  11  24  44  67 106 145 186 246 305 378 447
#     4  12  29  56  85 111 148 204 264 318 384 458
#     4  12  25  38  66 109 147 189 247 304 379 451
#
# _framework density 22.107240000000001
#
# number of rings (size 3 to 8) (size 9 to 14) (size 15 to 20)
#    0.000    0.500    6.250    1.500    7.000    2.000 
#    2.250    0.000    0.000    0.000    0.000    0.000 
#    0.000    0.000    0.000    0.000    0.000    0.000 
#
# Total GULP energy -198215.379788 kJ/mol
# GULP energy per Si atom -12388.461237 kJ/mol
# Density = 2.205692 g / cm^3
# Si number density = 22.107240 Si / 1000 Ang^3
#
#
#
# Elastic Constant Matrix: (Units=GPa)
#
#
# Indices 1 2 3 4 5 6 
#
# 1 77.8169 15.5860 29.3943 0.0000 -7.4240 0.0000
# 2 15.5860 90.7464 30.6021 0.0000 -2.9364 0.0000
# 3 29.3943 30.6021 109.7875 0.0000 -3.9041 0.0000
# 4 0.0000 0.0000 0.0000 32.4980 0.0000 -6.9974
# 5 -7.4240 -2.9364 -3.9041 0.0000 37.3050 0.0000
# 6 0.0000 0.0000 0.0000 -6.9974 0.0000 27.5670
#
#
#
# Elastic Compliance Matrix: (Units=1/GPa)
#
#
# Indices 1 2 3 4 5 6 
#
# 1 0.014654 -0.001262 -0.003484 0.000000 0.002452 0.000000
# 2 -0.001262 0.012285 -0.003072 0.000000 0.000394 0.000000
# 3 -0.003484 -0.003072 0.010905 0.000000 0.000206 0.000000
# 4 0.000000 0.000000 0.000000 0.032550 0.000000 0.008262
# 5 0.002452 0.000394 0.000206 0.000000 0.027347 0.000000
# 6 0.000000 0.000000 0.000000 0.008262 0.000000 0.038372
#
#
# Mechanical properties :
#
#
# Convention : Reuss Voigt Hill
#
# Bulk Modulus (GPa) = 45.03305 47.72395 46.37850
# Shear Modulus (GPa) = 31.41620 32.99189 32.20405
#
# Velocity S-wave (km/s) = 3.77381 3.86729 3.82084
# Velocity P-wave (km/s) = 6.27721 6.44792 6.36314
#
# Compressibility (1/GPa) = 0.02220591
#
# Stress axis : x y z
#
# Youngs Moduli (GPa) = 68.24253 81.39735 91.70033
#
# Poissons Ratio (x) = 0.10276 0.31950
# Poissons Ratio (y) = 0.08615 0.28174
# Poissons Ratio (z) = 0.23777 0.25009
#
# Static dielectric constant tensor:
#      x y z
#    x 3.867200 0.000000 -0.220870 
#    y 0.000000 4.402050 0.000000 
#    z -0.220870 0.000000 4.092640 
# 
# 
# High freq. dielectric constant tensor:
#      x y z
#    x 1.857170 0.000000 -0.011780 
#    y 0.000000 1.877580 0.000000 
#    z -0.011780 0.000000 1.872780 
# 
# From -- ./inp_files/7300.got.cif
#   From: 2010.03.12/outbox.cif.g09.slc.cpg/sg4_4_cif.got.tgz:7300.got - 2010.03.31 09:31:35.
