data_PCOD8047134
_publ_section_title
;
Structure prediction by ZEFSAII (Michael W. Deem and Ramdas Pophale) SiO2 
 PCOD8047134
Probable space group: P 21
;
_chemical_formula_sum "Si O2"
_cell_formula_units_Z 16
_cell_length_a 9.374338
_cell_length_b 5.156267
_cell_length_c 21.719431
_cell_angle_alpha 90.000000
_cell_angle_beta 144.955237
_cell_angle_gamma 90.000000
_cell_volume 602.837022
_symmetry_space_group_name_H-M "P 21"
_symmetry_group_IT_number 4
_symmetry_cell_setting 'monoclinic'
loop_
_space_group_symop_operation_xyz
x,y,z
-x,1/2+y,-z
loop_
_atom_site_type_symbol
_atom_site_label
_atom_site_fract_x
_atom_site_fract_y
_atom_site_fract_z
Si Si1 0.644350 0.866660 0.074377
Si Si2 0.859493 0.976098 0.468424
Si Si3 0.141377 0.010796 0.034282
Si Si4 0.033416 0.550373 0.149700
Si Si5 0.863334 0.757277 0.280755
Si Si6 0.745664 0.914422 0.653829
Si Si7 0.761321 0.649684 0.543403
Si Si8 0.492973 0.779920 0.245507
O O1 0.691211 0.873272 0.164703
O O2 0.914646 0.806011 0.138985
O O3 0.452327 0.641145 0.985151
O O4 0.822785 0.915325 0.528050
O O5 0.601957 0.933388 0.342007
O O6 0.059604 0.773378 0.510674
O O7 0.393922 0.994590 0.161761
O O8 0.052554 0.308075 0.004481
O O9 0.169533 0.934426 0.970725
O O10 0.110388 0.350164 0.231667
O O11 0.276241 0.597682 0.194064
O O12 0.690199 0.618627 0.272382
O O13 0.071859 0.573726 0.326357
O O14 0.992654 0.976308 0.369329
O O15 0.687657 0.668066 0.590243
O O16 0.481235 0.039251 0.577298
#
# Coordination Sequence:
#
# PCOD8047134 Si02
#       8
#     2   2   2   2   2   2   2   2
#     4  11  27  49  73 106 147 194 248 303 367 442
#     4  12  27  48  74 109 152 197 249 306 373 441
#     4  10  24  47  71 106 146 186 240 302 366 435
#     4  10  24  47  75 108 142 197 244 308 366 449
#     4  11  25  46  70 105 145 196 239 314 371 438
#     4  11  24  45  70 105 148 193 252 298 375 438
#     4  12  24  45  73 104 150 200 250 309 365 449
#     4  11  23  47  74 107 144 189 246 304 367 438
#
# _framework density 26.541173000000001
#
# number of rings (size 3 to 8) (size 9 to 14) (size 15 to 20)
#    0.000    1.000    3.750    1.500    3.500    8.000 
#   11.250    0.000    0.000    0.000    0.000    0.000 
#    0.000    0.000    0.000    0.000    0.000    0.000 
#
# Total GULP energy -198232.514712 kJ/mol
# GULP energy per Si atom -12389.532169 kJ/mol
# Density = 2.648076 g / cm^3
# Si number density = 26.541173 Si / 1000 Ang^3
#
#
#
# Elastic Constant Matrix: (Units=GPa)
#
#
# Indices 1 2 3 4 5 6 
#
# 1 130.5830 -1.6629 36.8931 0.0000 -13.3249 0.0000
# 2 -1.6629 28.0941 -1.2969 0.0000 0.1294 0.0000
# 3 36.8931 -1.2969 167.3497 0.0000 -33.5548 0.0000
# 4 0.0000 0.0000 0.0000 28.4640 0.0000 -6.5073
# 5 -13.3249 0.1294 -33.5548 0.0000 58.3573 0.0000
# 6 0.0000 0.0000 0.0000 -6.5073 0.0000 32.6957
#
#
#
# Elastic Compliance Matrix: (Units=1/GPa)
#
#
# Indices 1 2 3 4 5 6 
#
# 1 0.008217 0.000407 -0.001619 0.000000 0.000944 0.000000
# 2 0.000407 0.035628 0.000214 0.000000 0.000137 0.000000
# 3 -0.001619 0.000214 0.007076 0.000000 0.003698 0.000000
# 4 0.000000 0.000000 0.000000 0.036807 0.000000 0.007325
# 5 0.000944 0.000137 0.003698 0.000000 0.019478 0.000000
# 6 0.000000 0.000000 0.000000 0.007325 0.000000 0.032043
#
#
# Mechanical properties :
#
#
# Convention : Reuss Voigt Hill
#
# Bulk Modulus (GPa) = 20.43956 43.76594 32.10275
# Shear Modulus (GPa) = 31.73554 43.37629 37.55592
#
# Velocity S-wave (km/s) = 3.46166 4.04704 3.76574
# Velocity P-wave (km/s) = 4.86777 6.19384 5.57041
#
# Compressibility (1/GPa) = 0.04892472
#
# Stress axis : x y z
#
# Youngs Moduli (GPa) = 121.70020 28.06782 141.33081
#
# Poissons Ratio (x) = -0.01143 0.22881
# Poissons Ratio (y) = -0.04957 -0.03021
# Poissons Ratio (z) = 0.19703 -0.00600
#
# Static dielectric constant tensor:
#      x y z
#    x 5.188450 0.000000 -0.345260 
#    y 0.000000 4.137210 0.000000 
#    z -0.345260 0.000000 5.598090 
# 
# 
# High freq. dielectric constant tensor:
#      x y z
#    x 2.084990 0.000000 -0.014930 
#    y 0.000000 2.011450 0.000000 
#    z -0.014930 0.000000 2.104900 
# 
# From -- ./inp_files/8926.got.cif
#   From: 2010.03.12/outbox.cif.g09.slc.cpg/sg4_5_cif.got.tgz:8926.got - 2010.03.31 09:31:35.
