data_PCOD8047843
_publ_section_title
;
Structure prediction by ZEFSAII (Michael W. Deem and Ramdas Pophale) SiO2 
 PCOD8047843
Probable space group: P 21
;
_chemical_formula_sum "Si O2"
_cell_formula_units_Z 14
_cell_length_a 31.274151
_cell_length_b 4.934335
_cell_length_c 24.071470
_cell_angle_alpha 90.000000
_cell_angle_beta 9.683792
_cell_angle_gamma 90.000000
_cell_volume 624.841638
_symmetry_space_group_name_H-M "P 21"
_symmetry_group_IT_number 4
_symmetry_cell_setting 'monoclinic'
loop_
_space_group_symop_operation_xyz
x,y,z
-x,1/2+y,-z
loop_
_atom_site_type_symbol
_atom_site_label
_atom_site_fract_x
_atom_site_fract_y
_atom_site_fract_z
Si Si1 0.892246 0.334870 0.778113
Si Si2 0.328979 0.941105 0.379003
Si Si3 0.837158 0.140509 0.199511
Si Si4 0.488194 0.945910 0.552055
Si Si5 0.872030 0.791866 0.638205
Si Si6 0.967191 0.943375 0.280112
Si Si7 0.455912 0.328133 0.780065
O O1 0.097855 0.280083 0.466830
O O2 0.039961 0.421361 0.644264
O O3 0.706756 0.569140 0.993488
O O4 0.731704 0.067773 0.996751
O O5 0.107089 0.747063 0.641328
O O6 0.362957 0.912725 0.401409
O O7 0.240722 0.246125 0.480491
O O8 0.588716 0.884947 0.014146
O O9 0.619787 0.261897 0.516480
O O10 0.723882 0.059742 0.285259
O O11 0.046269 0.372958 0.921013
O O12 0.581836 0.665634 0.405059
O O13 0.248667 0.881164 0.897713
O O14 0.923864 0.493376 0.595547
#
# Coordination Sequence:
#
# PCOD8047843 Si02
#       7
#     2   2   2   2   2   2   2
#     4  12  24  47  74  98 144 190 225 287 353 417
#     4  12  26  44  73 106 139 182 236 288 342 422
#     4  12  28  47  72 107 137 180 244 294 341 416
#     4  12  28  49  71 100 146 190 226 291 359 417
#     4  12  23  45  72 106 138 182 239 289 346 406
#     4  12  28  46  68 107 144 184 229 286 359 419
#     4  12  25  46  72 102 138 188 233 285 346 417
#
# _framework density 22.405677000000001
#
# number of rings (size 3 to 8) (size 9 to 14) (size 15 to 20)
#    0.000    0.000    4.286    5.143    8.000    1.143 
#    0.000    0.000    0.000    0.000    0.000    0.000 
#    0.000    0.000    0.000    0.000    0.000    0.000 
#
# Total GULP energy -173752.489602 kJ/mol
# GULP energy per Si atom -12410.892114 kJ/mol
# Density = 2.235468 g / cm^3
# Si number density = 22.405677 Si / 1000 Ang^3
#
#
#
# Elastic Constant Matrix: (Units=GPa)
#
#
# Indices 1 2 3 4 5 6 
#
# 1 101.7236 1.2905 -1.7998 0.0000 -3.9079 0.0000
# 2 1.2905 81.9957 8.1969 0.0000 -2.8216 0.0000
# 3 -1.7998 8.1969 73.0515 0.0000 13.4475 0.0000
# 4 0.0000 0.0000 0.0000 44.5284 0.0000 -5.5740
# 5 -3.9079 -2.8216 13.4475 0.0000 60.8403 0.0000
# 6 0.0000 0.0000 0.0000 -5.5740 0.0000 38.5402
#
#
#
# Elastic Compliance Matrix: (Units=1/GPa)
#
#
# Indices 1 2 3 4 5 6 
#
# 1 0.009858 -0.000150 0.000151 0.000000 0.000593 0.000000
# 2 -0.000150 0.012385 -0.001561 0.000000 0.000910 0.000000
# 3 0.000151 -0.001561 0.014468 0.000000 -0.003261 0.000000
# 4 0.000000 0.000000 0.000000 0.022872 0.000000 0.003308
# 5 0.000593 0.000910 -0.003261 0.000000 0.017237 0.000000
# 6 0.000000 0.000000 0.000000 0.003308 0.000000 0.026425
#
#
# Mechanical properties :
#
#
# Convention : Reuss Voigt Hill
#
# Bulk Modulus (GPa) = 29.76982 30.23845 30.00414
# Shear Modulus (GPa) = 42.53032 45.38734 43.95883
#
# Velocity S-wave (km/s) = 4.36155 4.50567 4.43420
# Velocity P-wave (km/s) = 6.21931 6.37128 6.29575
#
# Compressibility (1/GPa) = 0.03359106
#
# Stress axis : x y z
#
# Youngs Moduli (GPa) = 101.44146 80.73979 69.11788
#
# Poissons Ratio (x) = 0.01209 -0.01040
# Poissons Ratio (y) = 0.01520 0.10789
# Poissons Ratio (z) = -0.01527 0.12603
#
# Static dielectric constant tensor:
#      x y z
#    x 3.999560 0.000000 0.027890 
#    y 0.000000 4.313900 0.000000 
#    z 0.027890 0.000000 3.962340 
# 
# 
# High freq. dielectric constant tensor:
#      x y z
#    x 1.892240 0.000000 0.005110 
#    y 0.000000 1.903970 0.000000 
#    z 0.005110 0.000000 1.881610 
# 
# From -- ./inp_files/15955.got.cif
#   From: 2010.03.12/outbox.cif.g09.slc.cpg/sg4_8_cif.got.tgz:15955.got - 2010.03.31 09:31:35.
