data_PCOD8047778
_publ_section_title
;
Structure prediction by ZEFSAII (Michael W. Deem and Ramdas Pophale) SiO2 
 PCOD8047778
Probable space group: P 21
;
_chemical_formula_sum "Si O2"
_cell_formula_units_Z 16
_cell_length_a 9.329740
_cell_length_b 15.051273
_cell_length_c 5.372264
_cell_angle_alpha 90.000000
_cell_angle_beta 65.271390
_cell_angle_gamma 90.000000
_cell_volume 685.218612
_symmetry_space_group_name_H-M "P 21"
_symmetry_group_IT_number 4
_symmetry_cell_setting 'monoclinic'
loop_
_space_group_symop_operation_xyz
x,y,z
-x,1/2+y,-z
loop_
_atom_site_type_symbol
_atom_site_label
_atom_site_fract_x
_atom_site_fract_y
_atom_site_fract_z
Si Si1 0.319200 0.767200 0.722032
Si Si2 0.861349 0.647507 0.934328
Si Si3 0.790380 0.353373 0.691176
Si Si4 0.813344 0.077873 0.150401
Si Si5 0.137430 0.309536 0.385980
Si Si6 0.362241 0.033109 0.178497
Si Si7 0.693896 0.987556 0.745731
Si Si8 0.636960 0.691550 0.487944
O O1 0.243108 0.784980 0.507470
O O2 0.282756 0.666869 0.815384
O O3 0.508658 0.769805 0.557500
O O4 0.270533 0.829100 0.988186
O O5 0.905657 0.748517 0.822255
O O6 0.806894 0.573995 0.777273
O O7 0.002270 0.603701 0.985521
O O8 0.689531 0.653657 0.187488
O O9 0.700691 0.441055 0.658762
O O10 0.979451 0.360409 0.587896
O O11 0.765424 0.026809 0.438648
O O12 0.784147 0.021561 0.924936
O O13 0.276130 0.381680 0.254571
O O14 0.200943 0.234710 0.527837
O O15 0.432994 0.105560 0.316812
O O16 0.506471 0.009092 0.885838
#
# Coordination Sequence:
#
# PCOD8047778 Si02
#       8
#     2   2   2   2   2   2   2   2
#     4  12  26  48  76 103 145 190 240 295 357 428
#     4  11  26  46  75 103 149 189 240 293 363 424
#     4  12  28  47  75 107 144 188 244 295 358 423
#     4  12  26  48  76 103 145 190 240 295 357 428
#     4  11  27  46  71 108 143 189 238 300 355 429
#     4  11  27  46  71 108 143 189 238 300 355 429
#     4  12  28  47  75 107 144 188 244 295 358 423
#     4  11  26  46  75 103 149 189 240 293 363 424
#
# _framework density 23.350214000000001
#
# number of rings (size 3 to 8) (size 9 to 14) (size 15 to 20)
#    0.000    0.500    2.500    3.750   14.000    0.000 
#    0.000    0.000    0.000    0.000    0.000    0.000 
#    0.000    0.000    0.000    0.000    0.000    0.000 
#
# Total GULP energy -198209.019509 kJ/mol
# GULP energy per Si atom -12388.063719 kJ/mol
# Density = 2.329707 g / cm^3
# Si number density = 23.350214 Si / 1000 Ang^3
#
#
#
# Elastic Constant Matrix: (Units=GPa)
#
#
# Indices 1 2 3 4 5 6 
#
# 1 101.1385 30.7392 24.6592 0.0000 -20.0812 0.0000
# 2 30.7392 107.6061 18.4050 0.0000 -7.8911 0.0000
# 3 24.6592 18.4050 96.4272 0.0000 -1.9312 0.0000
# 4 0.0000 0.0000 0.0000 28.5491 0.0000 -11.6286
# 5 -20.0812 -7.8911 -1.9312 0.0000 37.5139 0.0000
# 6 0.0000 0.0000 0.0000 -11.6286 0.0000 38.9886
#
#
#
# Elastic Compliance Matrix: (Units=1/GPa)
#
#
# Indices 1 2 3 4 5 6 
#
# 1 0.012526 -0.002699 -0.002568 0.000000 0.006005 0.000000
# 2 -0.002699 0.010330 -0.001268 0.000000 0.000663 0.000000
# 3 -0.002568 -0.001268 0.011248 0.000000 -0.001062 0.000000
# 4 0.000000 0.000000 0.000000 0.039871 0.000000 0.011892
# 5 0.006005 0.000663 -0.001062 0.000000 0.029956 0.000000
# 6 0.000000 0.000000 0.000000 0.011892 0.000000 0.029195
#
#
# Mechanical properties :
#
#
# Convention : Reuss Voigt Hill
#
# Bulk Modulus (GPa) = 47.54172 50.30871 48.92521
# Shear Modulus (GPa) = 32.63552 36.43489 34.53520
#
# Velocity S-wave (km/s) = 3.74258 3.95443 3.84996
# Velocity P-wave (km/s) = 6.25143 6.51476 6.38445
#
# Compressibility (1/GPa) = 0.02103416
#
# Stress axis : x y z
#
# Youngs Moduli (GPa) = 79.83329 96.80924 88.90473
#
# Poissons Ratio (x) = 0.26125 0.22830
# Poissons Ratio (y) = 0.21544 0.11275
# Poissons Ratio (z) = 0.20501 0.12277
#
# Static dielectric constant tensor:
#      x y z
#    x 4.200360 0.000000 -0.094050 
#    y 0.000000 4.250290 0.000000 
#    z -0.094050 0.000000 4.054190 
# 
# 
# High freq. dielectric constant tensor:
#      x y z
#    x 1.941600 0.000000 -0.009850 
#    y 0.000000 1.933910 0.000000 
#    z -0.009850 0.000000 1.913100 
# 
# From -- ./inp_files/1935.got.cif
#   From: 2010.03.12/outbox.cif.g09.slc.cpg/sg4_1_cif.got.tgz:1935.got - 2010.03.31 09:31:35.
