data_PCOD8047895
_publ_section_title
;
Structure prediction by ZEFSAII (Michael W. Deem and Ramdas Pophale) SiO2 
 PCOD8047895
Probable space group: P 21
;
_chemical_formula_sum "Si O2"
_cell_formula_units_Z 16
_cell_length_a 9.001456
_cell_length_b 8.330745
_cell_length_c 18.223315
_cell_angle_alpha 90.000000
_cell_angle_beta 148.455328
_cell_angle_gamma 90.000000
_cell_volume 714.926117
_symmetry_space_group_name_H-M "P 21"
_symmetry_group_IT_number 4
_symmetry_cell_setting 'monoclinic'
loop_
_space_group_symop_operation_xyz
x,y,z
-x,1/2+y,-z
loop_
_atom_site_type_symbol
_atom_site_label
_atom_site_fract_x
_atom_site_fract_y
_atom_site_fract_z
Si Si1 0.860537 0.570630 0.247470
Si Si2 0.847842 0.941772 0.486754
Si Si3 0.166756 0.450657 0.231628
Si Si4 0.722957 0.610885 0.955416
Si Si5 0.269753 0.117669 0.207111
Si Si6 0.739612 0.944435 0.027954
Si Si7 0.181736 0.440528 0.771409
Si Si8 0.790289 0.575592 0.489767
O O1 0.926077 0.758677 0.282838
O O2 0.006992 0.480687 0.375694
O O3 0.972748 0.490727 0.219995
O O4 0.521849 0.551761 0.109109
O O5 0.769617 0.755866 0.452740
O O6 0.565493 0.045668 0.358878
O O7 0.066729 0.967155 0.512637
O O8 0.179286 0.260664 0.223100
O O9 0.478033 0.516066 0.376200
O O10 0.030404 0.536535 0.103033
O O11 0.700854 0.679427 0.863856
O O12 0.494226 0.468611 0.869550
O O13 0.659559 0.757707 0.984156
O O14 0.023168 0.983817 0.101616
O O15 0.814388 0.987177 0.142514
O O16 0.965522 0.559305 0.638885
#
# Coordination Sequence:
#
# PCOD8047895 Si02
#       8
#     2   2   2   2   2   2   2   2
#     4  12  28  45  74 107 149 196 244 303 370 440
#     4  12  28  49  73 109 146 197 245 305 374 440
#     4  12  27  47  73 109 147 196 247 304 372 441
#     4  12  25  49  74 110 149 195 248 306 373 440
#     4  12  28  47  76 108 150 195 248 308 370 445
#     4  12  26  46  75 110 147 195 247 302 376 436
#     4  12  24  49  75 104 150 192 247 306 368 442
#     4  12  28  48  76 103 150 192 248 306 371 444
#
# _framework density 22.379936000000001
#
# number of rings (size 3 to 8) (size 9 to 14) (size 15 to 20)
#    0.000    0.000    3.750    5.250    8.750    0.000 
#    0.000    0.000    0.000    0.000    0.000    0.000 
#    0.000    0.000    0.000    0.000    0.000    0.000 
#
# Total GULP energy -198529.056540 kJ/mol
# GULP energy per Si atom -12408.066034 kJ/mol
# Density = 2.232900 g / cm^3
# Si number density = 22.379936 Si / 1000 Ang^3
#
#
#
# Elastic Constant Matrix: (Units=GPa)
#
#
# Indices 1 2 3 4 5 6 
#
# 1 87.0344 14.8883 40.8667 0.0000 -5.4428 0.0000
# 2 14.8883 86.9760 22.2276 0.0000 -8.3475 0.0000
# 3 40.8667 22.2276 135.5771 0.0000 -4.6500 0.0000
# 4 0.0000 0.0000 0.0000 33.3360 0.0000 0.5059
# 5 -5.4428 -8.3475 -4.6500 0.0000 40.5853 0.0000
# 6 0.0000 0.0000 0.0000 0.5059 0.0000 31.5152
#
#
#
# Elastic Compliance Matrix: (Units=1/GPa)
#
#
# Indices 1 2 3 4 5 6 
#
# 1 0.013580 -0.001232 -0.003853 0.000000 0.001126 0.000000
# 2 -0.001232 0.012320 -0.001574 0.000000 0.002189 0.000000
# 3 -0.003853 -0.001574 0.008801 0.000000 0.000168 0.000000
# 4 0.000000 0.000000 0.000000 0.030005 0.000000 -0.000482
# 5 0.001126 0.002189 0.000168 0.000000 0.025260 0.000000
# 6 0.000000 0.000000 0.000000 -0.000482 0.000000 0.031738
#
#
# Mechanical properties :
#
#
# Convention : Reuss Voigt Hill
#
# Bulk Modulus (GPa) = 46.76173 51.72809 49.24491
# Shear Modulus (GPa) = 35.17428 36.52762 35.85095
#
# Velocity S-wave (km/s) = 3.96875 4.04438 4.00675
# Velocity P-wave (km/s) = 6.47620 6.70620 6.59220
#
# Compressibility (1/GPa) = 0.02138501
#
# Stress axis : x y z
#
# Youngs Moduli (GPa) = 73.63808 81.16576 113.62400
#
# Poissons Ratio (x) = 0.09998 0.43777
# Poissons Ratio (y) = 0.09071 0.17879
# Poissons Ratio (z) = 0.28371 0.12772
#
# Static dielectric constant tensor:
#      x y z
#    x 4.033450 0.000000 -0.026760 
#    y 0.000000 4.040130 0.000000 
#    z -0.026760 0.000000 4.260940 
# 
# 
# High freq. dielectric constant tensor:
#      x y z
#    x 1.883650 0.000000 -0.003700 
#    y 0.000000 1.889950 0.000000 
#    z -0.003700 0.000000 1.903250 
# 
# From -- ./inp_files/5393.got.cif
#   From: 2010.03.12/outbox.cif.g09.slc.cpg/sg4_3_cif.got.tgz:5393.got - 2010.03.31 09:31:35.
