data_PCOD8047084
_publ_section_title
;
Structure prediction by ZEFSAII (Michael W. Deem and Ramdas Pophale) SiO2 
 PCOD8047084
Probable space group: P 21
;
_chemical_formula_sum "Si O2"
_cell_formula_units_Z 16
_cell_length_a 10.445305
_cell_length_b 8.336431
_cell_length_c 13.774730
_cell_angle_alpha 90.000000
_cell_angle_beta 30.188109
_cell_angle_gamma 90.000000
_cell_volume 603.135217
_symmetry_space_group_name_H-M "P 21"
_symmetry_group_IT_number 4
_symmetry_cell_setting 'monoclinic'
loop_
_space_group_symop_operation_xyz
x,y,z
-x,1/2+y,-z
loop_
_atom_site_type_symbol
_atom_site_label
_atom_site_fract_x
_atom_site_fract_y
_atom_site_fract_z
Si Si1 0.094642 0.648080 0.540966
Si Si2 0.562036 0.608730 0.725433
Si Si3 0.274784 0.501594 0.599140
Si Si4 0.913252 0.159095 0.099588
Si Si5 0.010116 0.193747 0.690593
Si Si6 0.734398 0.900880 0.724212
Si Si7 0.618663 0.430794 0.871091
Si Si8 0.848992 0.504824 0.223439
O O1 0.264020 0.647951 0.527815
O O2 0.244156 0.551589 0.360608
O O3 0.018578 0.824940 0.553634
O O4 0.828702 0.567785 0.749739
O O5 0.348399 0.623342 0.784917
O O6 0.844291 0.600124 0.491432
O O7 0.544465 0.770425 0.801803
O O8 0.528278 0.450670 0.817242
O O9 0.083079 0.534800 0.813283
O O10 0.199378 0.336465 0.597774
O O11 0.562273 0.491508 0.450206
O O12 0.949545 0.334740 0.119876
O O13 0.142957 0.124174 0.874923
O O14 0.970066 0.075637 0.809469
O O15 0.746537 0.260140 0.817531
O O16 0.623931 0.961518 0.899739
#
# Coordination Sequence:
#
# PCOD8047084 Si02
#       8
#     2   2   2   2   2   2   2   2
#     4  10  24  44  70 102 143 191 245 313 373 456
#     4  11  22  47  76 103 147 198 251 315 380 454
#     4  11  22  47  72 108 146 196 249 318 382 446
#     4  12  26  44  72 117 147 202 256 304 393 448
#     4  11  22  49  78 104 151 200 257 323 383 453
#     4  11  22  46  70 105 140 192 250 309 386 442
#     4  10  24  44  73 107 144 198 254 314 379 460
#     4  12  24  45  75 108 154 201 250 318 372 465
#
# _framework density 26.52805
#
# number of rings (size 3 to 8) (size 9 to 14) (size 15 to 20)
#    0.000    1.000    5.000    1.500    0.000    6.000 
#    9.000    1.250    0.000    0.000    0.000    0.000 
#    0.000    0.000    0.000    0.000    0.000    0.000 
#
# Total GULP energy -198361.591378 kJ/mol
# GULP energy per Si atom -12397.599461 kJ/mol
# Density = 2.646767 g / cm^3
# Si number density = 26.528050 Si / 1000 Ang^3
#
#
#
# Elastic Constant Matrix: (Units=GPa)
#
#
# Indices 1 2 3 4 5 6 
#
# 1 108.6726 56.6284 19.7301 0.0000 31.8471 0.0000
# 2 56.6284 93.0519 30.0911 0.0000 12.2644 0.0000
# 3 19.7301 30.0911 124.0603 0.0000 42.9158 0.0000
# 4 0.0000 0.0000 0.0000 29.1198 0.0000 20.2985
# 5 31.8471 12.2644 42.9158 0.0000 46.9184 0.0000
# 6 0.0000 0.0000 0.0000 20.2985 0.0000 52.7828
#
#
#
# Elastic Compliance Matrix: (Units=1/GPa)
#
#
# Indices 1 2 3 4 5 6 
#
# 1 0.017743 -0.010440 0.004290 0.000000 -0.013239 0.000000
# 2 -0.010440 0.017819 -0.005123 0.000000 0.007114 0.000000
# 3 0.004290 -0.005123 0.013407 0.000000 -0.013836 0.000000
# 4 0.000000 0.000000 0.000000 0.046918 0.000000 -0.018043
# 5 -0.013239 0.007114 -0.013836 0.000000 0.041096 0.000000
# 6 0.000000 0.000000 0.000000 -0.018043 0.000000 0.025884
#
#
# Mechanical properties :
#
#
# Convention : Reuss Voigt Hill
#
# Bulk Modulus (GPa) = 37.84503 59.85379 48.84941
# Shear Modulus (GPa) = 25.74377 40.38657 33.06517
#
# Velocity S-wave (km/s) = 3.11856 3.90604 3.53430
# Velocity P-wave (km/s) = 5.22152 6.55395 5.92531
#
# Compressibility (1/GPa) = 0.02642355
#
# Stress axis : x y z
#
# Youngs Moduli (GPa) = 56.36007 56.11915 74.58655
#
# Poissons Ratio (x) = 0.58590 -0.31999
# Poissons Ratio (y) = 0.58842 0.38209
# Poissons Ratio (z) = -0.24179 0.28749
#
# Static dielectric constant tensor:
#      x y z
#    x 5.061330 0.000000 0.301720 
#    y 0.000000 4.924190 0.000000 
#    z 0.301720 0.000000 4.756610 
# 
# 
# High freq. dielectric constant tensor:
#      x y z
#    x 2.071430 0.000000 0.019430 
#    y 0.000000 2.059570 0.000000 
#    z 0.019430 0.000000 2.065140 
# 
# From -- ./inp_files/13946.got.cif
#   From: 2010.03.12/outbox.cif.g09.slc.cpg/sg4_7_cif.got.tgz:13946.got - 2010.03.31 09:31:35.
