data_PCOD8047932
_publ_section_title
;
Structure prediction by ZEFSAII (Michael W. Deem and Ramdas Pophale) SiO2 
 PCOD8047932
Probable space group: P 21
;
_chemical_formula_sum "Si O2"
_cell_formula_units_Z 14
_cell_length_a 15.741021
_cell_length_b 8.324391
_cell_length_c 5.063807
_cell_angle_alpha 90.000000
_cell_angle_beta 134.888423
_cell_angle_gamma 90.000000
_cell_volume 470.101471
_symmetry_space_group_name_H-M "P 21"
_symmetry_group_IT_number 4
_symmetry_cell_setting 'monoclinic'
loop_
_space_group_symop_operation_xyz
x,y,z
-x,1/2+y,-z
loop_
_atom_site_type_symbol
_atom_site_label
_atom_site_fract_x
_atom_site_fract_y
_atom_site_fract_z
Si Si1 0.375940 0.157360 0.347576
Si Si2 0.796677 0.926077 0.869661
Si Si3 0.421884 0.621700 0.537491
Si Si4 0.962255 0.184760 0.394817
Si Si5 0.394083 0.902751 0.827754
Si Si6 0.815412 0.683099 0.440848
Si Si7 0.137586 0.847966 0.323328
O O1 0.293259 0.318015 0.151950
O O2 0.521810 0.172794 0.630645
O O3 0.342521 0.043972 0.516607
O O4 0.315217 0.099885 0.928773
O O5 0.810792 0.844751 0.610360
O O6 0.718312 0.092728 0.716783
O O7 0.922737 0.995373 0.264833
O O8 0.464119 0.768191 0.812281
O O9 0.495465 0.457199 0.749108
O O10 0.941023 0.243245 0.646570
O O11 0.105764 0.215349 0.657882
O O12 0.889664 0.293292 0.030567
O O13 0.277548 0.821200 0.707273
O O14 0.891993 0.539905 0.744608
#
# Coordination Sequence:
#
# PCOD8047932 Si02
#       7
#     2   2   2   2   2   2   2
#     4  12  25  47  74 113 158 216 268 340 412 489
#     4  12  28  49  76 118 156 218 275 339 409 499
#     4  12  26  46  76 111 157 213 274 336 415 492
#     4  12  31  50  84 119 163 212 278 336 408 496
#     4  12  25  47  74 112 161 209 273 339 414 490
#     4  12  28  50  80 111 166 211 271 338 416 491
#     4  12  27  53  78 118 161 213 263 342 406 481
#
# _framework density 29.780806999999999
#
# number of rings (size 3 to 8) (size 9 to 14) (size 15 to 20)
#    0.000    0.000    4.286    4.286    6.000    3.429 
#    0.000    0.000    0.000    0.000    0.000    0.000 
#    0.000    0.000    0.000    0.000    0.000    0.000 
#
# Total GULP energy -173444.083656 kJ/mol
# GULP energy per Si atom -12388.863118 kJ/mol
# Density = 2.971302 g / cm^3
# Si number density = 29.780807 Si / 1000 Ang^3
#
#
#
# Elastic Constant Matrix: (Units=GPa)
#
#
# Indices 1 2 3 4 5 6 
#
# 1 157.5282 32.3558 20.4225 0.0000 19.2206 0.0000
# 2 32.3558 81.0642 -7.9366 0.0000 3.3336 0.0000
# 3 20.4225 -7.9366 73.2858 0.0000 24.6311 0.0000
# 4 0.0000 0.0000 0.0000 39.1604 0.0000 -1.8205
# 5 19.2206 3.3336 24.6311 0.0000 55.4600 0.0000
# 6 0.0000 0.0000 0.0000 -1.8205 0.0000 60.1444
#
#
#
# Elastic Compliance Matrix: (Units=1/GPa)
#
#
# Indices 1 2 3 4 5 6 
#
# 1 0.007413 -0.003079 -0.001878 0.000000 -0.001550 0.000000
# 2 -0.003079 0.013867 0.002682 0.000000 -0.000957 0.000000
# 3 -0.001878 0.002682 0.016803 0.000000 -0.006973 0.000000
# 4 0.000000 0.000000 0.000000 0.025572 0.000000 0.000774
# 5 -0.001550 -0.000957 -0.006973 0.000000 0.021722 0.000000
# 6 0.000000 0.000000 0.000000 0.000774 0.000000 0.016650
#
#
# Mechanical properties :
#
#
# Convention : Reuss Voigt Hill
#
# Bulk Modulus (GPa) = 29.82345 44.61794 37.22069
# Shear Modulus (GPa) = 42.46088 48.75539 45.60813
#
# Velocity S-wave (km/s) = 3.78005 4.05055 3.91763
# Velocity P-wave (km/s) = 5.39330 6.07376 5.74362
#
# Compressibility (1/GPa) = 0.03353066
#
# Stress axis : x y z
#
# Youngs Moduli (GPa) = 134.89616 72.11487 59.51487
#
# Poissons Ratio (x) = 0.22204 0.11179
# Poissons Ratio (y) = 0.41535 -0.15959
# Poissons Ratio (z) = 0.25338 -0.19338
#
# Static dielectric constant tensor:
#      x y z
#    x 5.659830 0.000000 0.325620 
#    y 0.000000 6.033820 0.000000 
#    z 0.325620 0.000000 5.321640 
# 
# 
# High freq. dielectric constant tensor:
#      x y z
#    x 2.241240 0.000000 0.021110 
#    y 0.000000 2.245880 0.000000 
#    z 0.021110 0.000000 2.208260 
# 
# From -- ./inp_files/2385.got.cif
#   From: 2010.03.12/outbox.cif.g09.slc.cpg/sg4_2_cif.got.tgz:2385.got - 2010.03.31 09:31:35.
