data_PCOD8047794
_publ_section_title
;
Structure prediction by ZEFSAII (Michael W. Deem and Ramdas Pophale) SiO2 
 PCOD8047794
Probable space group: P 21
;
_chemical_formula_sum "Si O2"
_cell_formula_units_Z 16
_cell_length_a 7.980188
_cell_length_b 9.937889
_cell_length_c 11.395107
_cell_angle_alpha 90.000000
_cell_angle_beta 132.937675
_cell_angle_gamma 90.000000
_cell_volume 661.596486
_symmetry_space_group_name_H-M "P 21"
_symmetry_group_IT_number 4
_symmetry_cell_setting 'monoclinic'
loop_
_space_group_symop_operation_xyz
x,y,z
-x,1/2+y,-z
loop_
_atom_site_type_symbol
_atom_site_label
_atom_site_fract_x
_atom_site_fract_y
_atom_site_fract_z
Si Si1 0.225670 0.379250 0.170304
Si Si2 0.101250 0.646142 0.014548
Si Si3 0.310698 0.685022 0.860976
Si Si4 0.601066 0.966306 0.512018
Si Si5 0.231485 0.197225 0.809302
Si Si6 0.816980 0.944974 0.360565
Si Si7 0.273160 0.928889 0.691855
Si Si8 0.727103 0.234092 0.668468
O O1 0.058541 0.489150 0.027437
O O2 0.221879 0.404712 0.308247
O O3 0.481948 0.398261 0.246747
O O4 0.135431 0.229931 0.098575
O O5 0.278524 0.707699 0.194307
O O6 0.214240 0.651181 0.941916
O O7 0.211330 0.587547 0.714944
O O8 0.236467 0.833872 0.787017
O O9 0.586660 0.672695 0.999744
O O10 0.709735 0.951087 0.437427
O O11 0.362504 0.883875 0.402154
O O12 0.561358 0.123968 0.525167
O O13 0.304722 0.333271 0.777234
O O14 0.984473 0.212699 0.748517
O O15 0.239800 0.080539 0.717568
O O16 0.084232 0.904109 0.500833
#
# Coordination Sequence:
#
# PCOD8047794 Si02
#       8
#     2   2   2   2   2   2   2   2
#     4  11  26  50  73 110 151 197 250 308 370 447
#     4  11  26  49  74 109 148 198 245 308 375 443
#     4  12  27  49  77 112 150 198 249 311 380 447
#     4  11  26  49  74 109 148 198 245 308 375 443
#     4  12  25  49  75 110 151 195 253 306 376 443
#     4  12  27  49  77 112 150 198 249 311 380 447
#     4  12  25  49  75 110 151 195 253 306 376 443
#     4  11  26  50  73 110 151 197 250 308 370 447
#
# _framework density 24.183924000000001
#
# number of rings (size 3 to 8) (size 9 to 14) (size 15 to 20)
#    0.000    0.500    2.500    4.500    7.000    1.000 
#    4.500    0.000    0.000    0.000    0.000    0.000 
#    0.000    0.000    0.000    0.000    0.000    0.000 
#
# Total GULP energy -198453.456369 kJ/mol
# GULP energy per Si atom -12403.341023 kJ/mol
# Density = 2.412888 g / cm^3
# Si number density = 24.183924 Si / 1000 Ang^3
#
#
#
# Elastic Constant Matrix: (Units=GPa)
#
#
# Indices 1 2 3 4 5 6 
#
# 1 134.0211 56.5915 62.7266 0.0000 -0.6028 0.0000
# 2 56.5915 83.1455 38.7387 0.0000 5.4122 0.0000
# 3 62.7266 38.7387 119.4008 0.0000 1.2452 0.0000
# 4 0.0000 0.0000 0.0000 54.8963 0.0000 4.0782
# 5 -0.6028 5.4122 1.2452 0.0000 44.4654 0.0000
# 6 0.0000 0.0000 0.0000 4.0782 0.0000 30.4189
#
#
#
# Elastic Compliance Matrix: (Units=1/GPa)
#
#
# Indices 1 2 3 4 5 6 
#
# 1 0.012176 -0.006327 -0.004355 0.000000 0.001057 0.000000
# 2 -0.006327 0.017571 -0.002354 0.000000 -0.002159 0.000000
# 3 -0.004355 -0.002354 0.011428 0.000000 -0.000092 0.000000
# 4 0.000000 0.000000 0.000000 0.018399 0.000000 -0.002467
# 5 0.001057 -0.002159 -0.000092 0.000000 0.022769 0.000000
# 6 0.000000 0.000000 0.000000 -0.002467 0.000000 0.033205
#
#
# Mechanical properties :
#
#
# Convention : Reuss Voigt Hill
#
# Bulk Modulus (GPa) = 66.21597 72.52013 69.36805
# Shear Modulus (GPa) = 34.09343 37.85682 35.97512
#
# Velocity S-wave (km/s) = 3.75874 3.96077 3.86108
# Velocity P-wave (km/s) = 6.80273 7.13925 6.97302
#
# Compressibility (1/GPa) = 0.01510210
#
# Stress axis : x y z
#
# Youngs Moduli (GPa) = 82.12672 56.91157 87.50617
#
# Poissons Ratio (x) = 0.36010 0.38108
# Poissons Ratio (y) = 0.51965 0.20601
# Poissons Ratio (z) = 0.35765 0.13398
#
# Static dielectric constant tensor:
#      x y z
#    x 4.212640 0.000000 -0.129610 
#    y 0.000000 4.605420 0.000000 
#    z -0.129610 0.000000 4.685430 
# 
# 
# High freq. dielectric constant tensor:
#      x y z
#    x 1.960670 0.000000 -0.015640 
#    y 0.000000 1.967890 0.000000 
#    z -0.015640 0.000000 1.969670 
# 
# From -- ./inp_files/11113.got.cif
#   From: 2010.03.12/outbox.cif.g09.slc.cpg/sg4_6_cif.got.tgz:11113.got - 2010.03.31 09:31:35.
