data_PCOD8047124
_publ_section_title
;
Structure prediction by ZEFSAII (Michael W. Deem and Ramdas Pophale) SiO2 
 PCOD8047124
Probable space group: P 21
;
_chemical_formula_sum "Si O2"
_cell_formula_units_Z 14
_cell_length_a 9.665271
_cell_length_b 5.470709
_cell_length_c 14.474395
_cell_angle_alpha 90.000000
_cell_angle_beta 133.561434
_cell_angle_gamma 90.000000
_cell_volume 554.597498
_symmetry_space_group_name_H-M "P 21"
_symmetry_group_IT_number 4
_symmetry_cell_setting 'monoclinic'
loop_
_space_group_symop_operation_xyz
x,y,z
-x,1/2+y,-z
loop_
_atom_site_type_symbol
_atom_site_label
_atom_site_fract_x
_atom_site_fract_y
_atom_site_fract_z
Si Si1 0.791640 0.097170 0.917570
Si Si2 0.526483 0.718798 0.876311
Si Si3 0.016068 0.265508 0.627866
Si Si4 0.226100 0.973178 0.859156
Si Si5 0.889323 0.756653 0.812273
Si Si6 0.438165 0.966873 0.285246
Si Si7 0.819796 0.766303 0.498723
O O1 0.686650 0.350914 0.854646
O O2 0.673852 0.941086 0.937552
O O3 0.802863 0.999659 0.817703
O O4 0.003460 0.119638 0.054787
O O5 0.460077 0.657571 0.739436
O O6 0.329601 0.798846 0.833163
O O7 0.635454 0.516258 0.990021
O O8 0.893592 0.516516 0.582189
O O9 0.165580 0.231363 0.781959
O O10 0.131662 0.264091 0.586525
O O11 0.891727 0.017090 0.578150
O O12 0.033359 0.821932 0.796687
O O13 0.703277 0.587511 0.701940
O O14 0.589137 0.784866 0.402735
#
# Coordination Sequence:
#
# PCOD8047124 Si02
#       7
#     2   2   2   2   2   2   2
#     4  11  20  42  63 100 140 194 236 282 366 451
#     4  11  26  39  68 109 151 183 238 302 383 451
#     4  10  25  45  74 104 145 188 249 313 369 427
#     4  12  25  43  67 114 151 189 230 316 387 444
#     4  11  22  39  66 102 148 191 235 292 379 450
#     4  11  24  42  73 102 139 194 246 298 351 462
#     4  10  24  46  73 105 134 197 258 305 353 433
#
# _framework density 25.243535000000001
#
# number of rings (size 3 to 8) (size 9 to 14) (size 15 to 20)
#    0.000    1.143    2.857    2.571   12.000    1.143 
#    0.000    0.000    3.143    0.000    0.000    0.000 
#    0.000    0.000    0.000    0.000    0.000    0.000 
#
# Total GULP energy -173444.555639 kJ/mol
# GULP energy per Si atom -12388.896831 kJ/mol
# Density = 2.518608 g / cm^3
# Si number density = 25.243535 Si / 1000 Ang^3
#
#
#
# Elastic Constant Matrix: (Units=GPa)
#
#
# Indices 1 2 3 4 5 6 
#
# 1 139.5787 38.6718 26.6117 0.0000 24.6690 0.0000
# 2 38.6718 112.0237 31.0632 0.0000 17.2423 0.0000
# 3 26.6117 31.0632 82.6310 0.0000 16.6266 0.0000
# 4 0.0000 0.0000 0.0000 36.4580 0.0000 6.0119
# 5 24.6690 17.2423 16.6266 0.0000 30.5504 0.0000
# 6 0.0000 0.0000 0.0000 6.0119 0.0000 25.1358
#
#
#
# Elastic Compliance Matrix: (Units=1/GPa)
#
#
# Indices 1 2 3 4 5 6 
#
# 1 0.008869 -0.001929 -0.001021 0.000000 -0.005517 0.000000
# 2 -0.001929 0.010847 -0.002850 0.000000 -0.003013 0.000000
# 3 -0.001021 -0.002850 0.014613 0.000000 -0.005520 0.000000
# 4 0.000000 0.000000 0.000000 0.028555 0.000000 -0.006830
# 5 -0.005517 -0.003013 -0.005520 0.000000 0.041892 0.000000
# 6 0.000000 0.000000 0.000000 -0.006830 0.000000 0.041417
#
#
# Mechanical properties :
#
#
# Convention : Reuss Voigt Hill
#
# Bulk Modulus (GPa) = 43.99884 58.54742 51.27313
# Shear Modulus (GPa) = 30.23540 34.28795 32.26168
#
# Velocity S-wave (km/s) = 3.46460 3.68949 3.57882
# Velocity P-wave (km/s) = 5.78552 6.43375 6.11823
#
# Compressibility (1/GPa) = 0.02272787
#
# Stress axis : x y z
#
# Youngs Moduli (GPa) = 112.75687 92.19393 68.43281
#
# Poissons Ratio (x) = 0.17788 0.06986
# Poissons Ratio (y) = 0.21755 0.19503
# Poissons Ratio (z) = 0.11510 0.26275
#
# Static dielectric constant tensor:
#      x y z
#    x 4.449950 0.000000 0.222400 
#    y 0.000000 4.642480 0.000000 
#    z 0.222400 0.000000 4.330150 
# 
# 
# High freq. dielectric constant tensor:
#      x y z
#    x 2.005820 0.000000 0.012590 
#    y 0.000000 2.010210 0.000000 
#    z 0.012590 0.000000 1.989040 
# 
# From -- ./inp_files/8753.got.cif
#   From: 2010.03.12/outbox.cif.g09.slc.cpg/sg4_5_cif.got.tgz:8753.got - 2010.03.31 09:31:35.
