data_PCOD8047611
_publ_section_title
;
Structure prediction by ZEFSAII (Michael W. Deem and Ramdas Pophale) SiO2 
 PCOD8047611
Probable space group: P 21
;
_chemical_formula_sum "Si O2"
_cell_formula_units_Z 16
_cell_length_a 6.714721
_cell_length_b 8.426373
_cell_length_c 11.719487
_cell_angle_alpha 90.000000
_cell_angle_beta 97.113049
_cell_angle_gamma 90.000000
_cell_volume 657.993936
_symmetry_space_group_name_H-M "P 21"
_symmetry_group_IT_number 4
_symmetry_cell_setting 'monoclinic'
loop_
_space_group_symop_operation_xyz
x,y,z
-x,1/2+y,-z
loop_
_atom_site_type_symbol
_atom_site_label
_atom_site_fract_x
_atom_site_fract_y
_atom_site_fract_z
Si Si1 0.375448 0.326110 0.126299
Si Si2 0.116213 0.100571 0.255078
Si Si3 0.268233 0.513774 0.527807
Si Si4 0.449605 0.876543 0.285342
Si Si5 0.063732 0.524785 0.982188
Si Si6 0.095403 0.824428 0.575640
Si Si7 0.298470 0.826391 0.030324
Si Si8 0.469040 0.021631 0.662754
O O1 0.295949 0.181725 0.195431
O O2 0.207334 0.379483 0.024669
O O3 0.428938 0.472393 0.211974
O O4 0.570944 0.274256 0.068950
O O5 0.022640 0.221693 0.337634
O O6 0.233898 0.947250 0.316721
O O7 0.941941 0.044478 0.155856
O O8 0.374750 0.494198 0.658463
O O9 0.221075 0.700614 0.508512
O O10 0.409089 0.450629 0.436097
O O11 0.062099 0.415154 0.514831
O O12 0.441630 0.862815 0.147845
O O13 0.514047 0.710310 0.346014
O O14 0.144219 0.683802 0.048857
O O15 0.837212 0.481609 0.008810
O O16 0.241295 0.955871 0.642689
#
# Coordination Sequence:
#
# PCOD8047611 Si02
#       8
#     2   2   2   2   2   2   2   2
#     4  12  25  46  76 106 152 198 248 304 383 456
#     4  11  26  49  74 111 155 202 253 309 386 458
#     4  12  28  48  79 111 151 201 255 317 383 460
#     4  11  27  47  75 111 152 195 257 315 377 459
#     4  11  24  45  70 109 149 189 250 301 370 461
#     4  12  28  50  80 109 155 202 256 322 384 455
#     4  11  26  46  74 111 149 200 243 316 377 456
#     4  12  26  49  76 110 149 197 256 314 382 457
#
# _framework density 24.316333
#
# number of rings (size 3 to 8) (size 9 to 14) (size 15 to 20)
#    0.000    0.500    3.750    3.000   10.500    0.000 
#    0.000    0.000    0.000    0.000    0.000    0.000 
#    0.000    0.000    0.000    0.000    0.000    0.000 
#
# Total GULP energy -198383.072236 kJ/mol
# GULP energy per Si atom -12398.942015 kJ/mol
# Density = 2.426099 g / cm^3
# Si number density = 24.316333 Si / 1000 Ang^3
#
#
#
# Elastic Constant Matrix: (Units=GPa)
#
#
# Indices 1 2 3 4 5 6 
#
# 1 120.1004 48.1049 65.0827 0.0000 6.5064 0.0000
# 2 48.1049 101.6384 30.0686 0.0000 13.2571 0.0000
# 3 65.0827 30.0686 90.9107 0.0000 25.6709 0.0000
# 4 0.0000 0.0000 0.0000 36.9482 0.0000 12.5125
# 5 6.5064 13.2571 25.6709 0.0000 56.8258 0.0000
# 6 0.0000 0.0000 0.0000 12.5125 0.0000 53.9261
#
#
#
# Elastic Compliance Matrix: (Units=1/GPa)
#
#
# Indices 1 2 3 4 5 6 
#
# 1 0.016066 -0.004881 -0.011106 0.000000 0.004316 0.000000
# 2 -0.004881 0.012444 0.000047 0.000000 -0.002365 0.000000
# 3 -0.011106 0.000047 0.021296 0.000000 -0.008360 0.000000
# 4 0.000000 0.000000 0.000000 0.029373 0.000000 -0.006815
# 5 0.004316 -0.002365 -0.008360 0.000000 0.021432 0.000000
# 6 0.000000 0.000000 0.000000 -0.006815 0.000000 0.020125
#
#
# Mechanical properties :
#
#
# Convention : Reuss Voigt Hill
#
# Bulk Modulus (GPa) = 55.79066 66.57352 61.18209
# Shear Modulus (GPa) = 31.52754 40.83292 36.18023
#
# Velocity S-wave (km/s) = 3.60468 4.10230 3.86151
# Velocity P-wave (km/s) = 6.34968 7.06229 6.71545
#
# Compressibility (1/GPa) = 0.01792415
#
# Stress axis : x y z
#
# Youngs Moduli (GPa) = 62.24297 80.36112 46.95801
#
# Poissons Ratio (x) = 0.39227 0.52151
# Poissons Ratio (y) = 0.30383 -0.00219
# Poissons Ratio (z) = 0.69127 -0.00375
#
# Static dielectric constant tensor:
#      x y z
#    x 4.360250 0.000000 0.229780 
#    y 0.000000 4.453650 0.000000 
#    z 0.229780 0.000000 4.212480 
# 
# 
# High freq. dielectric constant tensor:
#      x y z
#    x 1.967170 0.000000 0.021070 
#    y 0.000000 1.976680 0.000000 
#    z 0.021070 0.000000 1.962270 
# 
# From -- ./inp_files/3707.got.cif
#   From: 2010.03.12/outbox.cif.g09.slc.cpg/sg4_2_cif.got.tgz:3707.got - 2010.03.31 09:31:35.
