data_PCOD8047631
_publ_section_title
;
Structure prediction by ZEFSAII (Michael W. Deem and Ramdas Pophale) SiO2 
 PCOD8047631
Probable space group: P 21
;
_chemical_formula_sum "Si O2"
_cell_formula_units_Z 12
_cell_length_a 6.690410
_cell_length_b 9.807731
_cell_length_c 8.225554
_cell_angle_alpha 90.000000
_cell_angle_beta 101.507678
_cell_angle_gamma 90.000000
_cell_volume 528.892366
_symmetry_space_group_name_H-M "P 21"
_symmetry_group_IT_number 4
_symmetry_cell_setting 'monoclinic'
loop_
_space_group_symop_operation_xyz
x,y,z
-x,1/2+y,-z
loop_
_atom_site_type_symbol
_atom_site_label
_atom_site_fract_x
_atom_site_fract_y
_atom_site_fract_z
Si Si1 0.507812 0.835710 0.185849
Si Si2 0.559983 0.253246 0.465153
Si Si3 0.122445 0.202002 0.246894
Si Si4 0.838832 0.009456 0.383469
Si Si5 0.145632 0.923486 0.688959
Si Si6 0.673972 0.598998 0.024010
O O1 0.403373 0.784796 0.337306
O O2 0.505323 0.709098 0.057922
O O3 0.734974 0.888344 0.264366
O O4 0.405939 0.965470 0.081495
O O5 0.320914 0.244713 0.384448
O O6 0.670001 0.115917 0.421806
O O7 0.657843 0.379434 0.383484
O O8 0.025355 0.068293 0.310335
O O9 0.935121 0.307663 0.202365
O O10 0.177051 0.179024 0.069732
O O11 0.941721 0.943937 0.554969
O O12 0.204058 0.058982 0.794538
#
# Coordination Sequence:
#
# PCOD8047631 Si02
#       6
#     2   2   2   2   2   2
#     4  12  27  47  77 107 153 199 246 307 376 443
#     4  11  24  49  76 102 147 199 250 301 360 448
#     4  11  24  46  71 105 147 190 249 303 370 439
#     4  11  25  45  74 106 137 199 258 291 362 454
#     4  11  26  44  74 108 141 193 254 298 367 447
#     4  12  28  45  72 114 153 192 239 320 381 429
#
# _framework density 22.688927
#
# number of rings (size 3 to 8) (size 9 to 14) (size 15 to 20)
#    0.000    0.667    3.333    3.000    9.333    2.667 
#    0.000    0.000    0.000    0.000    0.000    0.000 
#    0.000    0.000    0.000    0.000    0.000    0.000 
#
# Total GULP energy -148743.607408 kJ/mol
# GULP energy per Si atom -12395.300617 kJ/mol
# Density = 2.263729 g / cm^3
# Si number density = 22.688927 Si / 1000 Ang^3
#
#
#
# Elastic Constant Matrix: (Units=GPa)
#
#
# Indices 1 2 3 4 5 6 
#
# 1 88.7889 16.2566 39.5673 0.0000 -20.0383 0.0000
# 2 16.2566 81.1822 36.7734 0.0000 -18.8668 0.0000
# 3 39.5673 36.7734 86.4044 0.0000 -27.5764 0.0000
# 4 0.0000 0.0000 0.0000 47.7808 0.0000 6.7156
# 5 -20.0383 -18.8668 -27.5764 0.0000 48.9064 0.0000
# 6 0.0000 0.0000 0.0000 6.7156 0.0000 33.2428
#
#
#
# Elastic Compliance Matrix: (Units=1/GPa)
#
#
# Indices 1 2 3 4 5 6 
#
# 1 0.014442 0.000427 -0.005919 0.000000 0.002744 0.000000
# 2 0.000427 0.015573 -0.005915 0.000000 0.002848 0.000000
# 3 -0.005919 -0.005915 0.018656 0.000000 0.005813 0.000000
# 4 0.000000 0.000000 0.000000 0.021541 0.000000 -0.004352
# 5 0.002744 0.002848 0.005813 0.000000 0.025948 0.000000
# 6 0.000000 0.000000 0.000000 -0.004352 0.000000 0.030961
#
#
# Mechanical properties :
#
#
# Convention : Reuss Voigt Hill
#
# Bulk Modulus (GPa) = 38.67280 49.06334 43.86807
# Shear Modulus (GPa) = 31.53509 36.90455 34.21982
#
# Velocity S-wave (km/s) = 3.73217 4.03742 3.88779
# Velocity P-wave (km/s) = 5.97109 6.58830 6.28727
#
# Compressibility (1/GPa) = 0.02585797
#
# Stress axis : x y z
#
# Youngs Moduli (GPa) = 69.24435 64.21174 53.60073
#
# Poissons Ratio (x) = -0.02743 0.31727
# Poissons Ratio (y) = -0.02957 0.31703
# Poissons Ratio (z) = 0.40987 0.37979
#
# Static dielectric constant tensor:
#      x y z
#    x 3.977460 0.000000 -0.119240 
#    y 0.000000 4.411980 0.000000 
#    z -0.119240 0.000000 4.129780 
# 
# 
# High freq. dielectric constant tensor:
#      x y z
#    x 1.897050 0.000000 -0.008070 
#    y 0.000000 1.907490 0.000000 
#    z -0.008070 0.000000 1.900100 
# 
# From -- ./inp_files/1212.got.cif
#   From: 2010.03.12/outbox.cif.g09.slc.cpg/sg4_1_cif.got.tgz:1212.got - 2010.03.31 09:31:35.
