data_PCOD8047627
_publ_section_title
;
Structure prediction by ZEFSAII (Michael W. Deem and Ramdas Pophale) SiO2 
 PCOD8047627
Probable space group: P 21
;
_chemical_formula_sum "Si O2"
_cell_formula_units_Z 16
_cell_length_a 10.735733
_cell_length_b 8.426425
_cell_length_c 10.731568
_cell_angle_alpha 90.000000
_cell_angle_beta 135.157626
_cell_angle_gamma 90.000000
_cell_volume 684.581515
_symmetry_space_group_name_H-M "P 21"
_symmetry_group_IT_number 4
_symmetry_cell_setting 'monoclinic'
loop_
_space_group_symop_operation_xyz
x,y,z
-x,1/2+y,-z
loop_
_atom_site_type_symbol
_atom_site_label
_atom_site_fract_x
_atom_site_fract_y
_atom_site_fract_z
Si Si1 0.690013 0.971660 0.097815
Si Si2 0.057070 0.495613 0.364833
Si Si3 0.921607 0.527668 0.009724
Si Si4 0.386367 0.513896 0.437434
Si Si5 0.236412 0.358409 0.119696
Si Si6 0.603525 0.689766 0.218851
Si Si7 0.998167 0.662951 0.559607
Si Si8 0.362163 0.809333 0.266363
O O1 0.716815 0.871449 0.991203
O O2 0.653446 0.853220 0.185687
O O3 0.875369 0.063117 0.256715
O O4 0.513399 0.080170 0.957523
O O5 0.240588 0.449462 0.431408
O O6 0.075773 0.641200 0.474981
O O7 0.982166 0.345134 0.387240
O O8 0.926046 0.549452 0.162130
O O9 0.827566 0.358350 0.918967
O O10 0.109001 0.504344 0.074611
O O11 0.834153 0.685716 0.893722
O O12 0.350424 0.696210 0.378547
O O13 0.565540 0.482110 0.639422
O O14 0.401042 0.397313 0.326460
O O15 0.478046 0.720988 0.246473
O O16 0.788184 0.612015 0.401372
#
# Coordination Sequence:
#
# PCOD8047627 Si02
#       8
#     2   2   2   2   2   2   2   2
#     4  12  28  48  76 108 153 197 252 301 377 442
#     4  11  25  46  72 101 142 190 244 299 367 437
#     4  11  25  43  77 100 147 189 249 308 365 445
#     4  11  24  46  69 101 146 182 240 304 366 441
#     4  11  25  46  70 110 139 197 247 298 376 442
#     4  12  28  48  74 113 148 199 249 308 368 447
#     4  12  25  50  73 107 152 196 247 305 371 447
#     4  12  24  47  69 108 143 190 240 309 372 433
#
# _framework density 23.371943999999999
#
# number of rings (size 3 to 8) (size 9 to 14) (size 15 to 20)
#    0.000    0.500    3.750    3.750    8.750    1.000 
#    4.500    0.000    0.000    0.000    0.000    0.000 
#    0.000    0.000    0.000    0.000    0.000    0.000 
#
# Total GULP energy -198278.994747 kJ/mol
# GULP energy per Si atom -12392.437172 kJ/mol
# Density = 2.331875 g / cm^3
# Si number density = 23.371944 Si / 1000 Ang^3
#
#
#
# Elastic Constant Matrix: (Units=GPa)
#
#
# Indices 1 2 3 4 5 6 
#
# 1 67.5423 15.0226 6.7575 0.0000 -12.7340 0.0000
# 2 15.0226 85.3877 2.8382 0.0000 3.0392 0.0000
# 3 6.7575 2.8382 75.0471 0.0000 16.0317 0.0000
# 4 0.0000 0.0000 0.0000 45.2104 0.0000 -1.2195
# 5 -12.7340 3.0392 16.0317 0.0000 37.7600 0.0000
# 6 0.0000 0.0000 0.0000 -1.2195 0.0000 31.0083
#
#
#
# Elastic Compliance Matrix: (Units=1/GPa)
#
#
# Indices 1 2 3 4 5 6 
#
# 1 0.017195 -0.003186 -0.002993 0.000000 0.007326 0.000000
# 2 -0.003186 0.012340 0.000288 0.000000 -0.002190 0.000000
# 3 -0.002993 0.000288 0.015181 0.000000 -0.007478 0.000000
# 4 0.000000 0.000000 0.000000 0.022142 0.000000 0.000871
# 5 0.007326 -0.002190 -0.007478 0.000000 0.032305 0.000000
# 6 0.000000 0.000000 0.000000 0.000871 0.000000 0.032284
#
#
# Mechanical properties :
#
#
# Convention : Reuss Voigt Hill
#
# Bulk Modulus (GPa) = 30.36383 30.80153 30.58268
# Shear Modulus (GPa) = 32.42398 36.35300 34.38849
#
# Velocity S-wave (km/s) = 3.72869 3.94815 3.83999
# Velocity P-wave (km/s) = 5.61759 5.83021 5.72489
#
# Compressibility (1/GPa) = 0.03293392
#
# Stress axis : x y z
#
# Youngs Moduli (GPa) = 58.15693 81.03554 65.87196
#
# Poissons Ratio (x) = 0.25821 0.19714
# Poissons Ratio (y) = 0.18531 -0.01898
# Poissons Ratio (z) = 0.17405 -0.02335
#
# Static dielectric constant tensor:
#      x y z
#    x 4.002560 0.000000 0.019130 
#    y 0.000000 3.991930 0.000000 
#    z 0.019130 0.000000 4.691390 
# 
# 
# High freq. dielectric constant tensor:
#      x y z
#    x 1.913380 0.000000 -0.004790 
#    y 0.000000 1.924190 0.000000 
#    z -0.004790 0.000000 1.946270 
# 
# From -- ./inp_files/12054.got.cif
#   From: 2010.03.12/outbox.cif.g09.slc.cpg/sg4_7_cif.got.tgz:12054.got - 2010.03.31 09:31:35.
