data_PCOD8047570
_publ_section_title
;
Structure prediction by ZEFSAII (Michael W. Deem and Ramdas Pophale) SiO2 
 PCOD8047570
Probable space group: P 21
;
_chemical_formula_sum "Si O2"
_cell_formula_units_Z 16
_cell_length_a 19.463049
_cell_length_b 8.013586
_cell_length_c 6.888396
_cell_angle_alpha 90.000000
_cell_angle_beta 39.344880
_cell_angle_gamma 90.000000
_cell_volume 681.139585
_symmetry_space_group_name_H-M "P 21"
_symmetry_group_IT_number 4
_symmetry_cell_setting 'monoclinic'
loop_
_space_group_symop_operation_xyz
x,y,z
-x,1/2+y,-z
loop_
_atom_site_type_symbol
_atom_site_label
_atom_site_fract_x
_atom_site_fract_y
_atom_site_fract_z
Si Si1 0.993118 0.290860 0.416835
Si Si2 0.644067 0.030436 0.697746
Si Si3 0.778586 0.534470 0.525784
Si Si4 0.473904 0.802888 0.300151
Si Si5 0.627509 0.573159 0.199843
Si Si6 0.981033 0.632486 0.261368
Si Si7 0.241642 0.252425 0.777912
Si Si8 0.847717 0.174586 0.416930
O O1 0.984434 0.279592 0.668690
O O2 0.956685 0.477907 0.455987
O O3 0.904430 0.170259 0.504921
O O4 0.112706 0.256683 0.075377
O O5 0.707188 0.929522 0.392993
O O6 0.594581 0.196490 0.707089
O O7 0.730722 0.086298 0.673471
O O8 0.557965 0.913566 0.993399
O O9 0.867400 0.672638 0.402432
O O10 0.722927 0.611873 0.457189
O O11 0.840485 0.362580 0.348446
O O12 0.687354 0.493995 0.884285
O O13 0.525345 0.674778 0.341585
O O14 0.401851 0.926779 0.586583
O O15 0.707338 0.703860 0.128134
O O16 0.073454 0.582957 0.907250
#
# Coordination Sequence:
#
# PCOD8047570 Si02
#       8
#     2   2   2   2   2   2   2   2
#     4  11  25  41  69 106 143 188 236 284 356 448
#     4  12  27  50  78 107 142 198 245 316 373 430
#     4  11  25  44  73 105 145 193 238 296 368 444
#     4  12  29  49  78 108 147 191 264 311 373 434
#     4  12  27  49  75 107 143 194 243 311 365 436
#     4  11  24  43  66 106 147 189 232 288 355 441
#     4  12  23  47  75 105 147 190 238 299 372 440
#     4  11  26  43  72 104 148 187 236 295 366 435
#
# _framework density 23.490047000000001
#
# number of rings (size 3 to 8) (size 9 to 14) (size 15 to 20)
#    0.000    0.500    5.000    2.250    5.250    4.000 
#    0.000    0.000    0.000    0.000    0.000    0.000 
#    0.000    0.000    0.000    0.000    0.000    0.000 
#
# Total GULP energy -198420.113846 kJ/mol
# GULP energy per Si atom -12401.257115 kJ/mol
# Density = 2.343658 g / cm^3
# Si number density = 23.490047 Si / 1000 Ang^3
#
#
#
# Elastic Constant Matrix: (Units=GPa)
#
#
# Indices 1 2 3 4 5 6 
#
# 1 91.9525 13.1118 18.6907 0.0000 -14.7536 0.0000
# 2 13.1118 57.0605 7.8028 0.0000 -8.6416 0.0000
# 3 18.6907 7.8028 78.0364 0.0000 -10.1579 0.0000
# 4 0.0000 0.0000 0.0000 42.8758 0.0000 -0.6492
# 5 -14.7536 -8.6416 -10.1579 0.0000 34.2312 0.0000
# 6 0.0000 0.0000 0.0000 -0.6492 0.0000 40.9458
#
#
#
# Elastic Compliance Matrix: (Units=1/GPa)
#
#
# Indices 1 2 3 4 5 6 
#
# 1 0.012259 -0.001886 -0.002207 0.000000 0.004153 0.000000
# 2 -0.001886 0.018634 -0.000941 0.000000 0.003612 0.000000
# 3 -0.002207 -0.000941 0.013816 0.000000 0.002911 0.000000
# 4 0.000000 0.000000 0.000000 0.023329 0.000000 0.000370
# 5 0.004153 0.003612 0.002911 0.000000 0.032779 0.000000
# 6 0.000000 0.000000 0.000000 0.000370 0.000000 0.024428
#
#
# Mechanical properties :
#
#
# Convention : Reuss Voigt Hill
#
# Bulk Modulus (GPa) = 28.86800 34.02888 31.44844
# Shear Modulus (GPa) = 34.04568 36.10681 35.07625
#
# Velocity S-wave (km/s) = 3.81118 3.92485 3.86844
# Velocity P-wave (km/s) = 5.62876 5.92092 5.77669
#
# Compressibility (1/GPa) = 0.03464043
#
# Stress axis : x y z
#
# Youngs Moduli (GPa) = 81.57248 53.66405 72.37885
#
# Poissons Ratio (x) = 0.10123 0.15974
# Poissons Ratio (y) = 0.15387 0.06813
# Poissons Ratio (z) = 0.18004 0.05051
#
# Static dielectric constant tensor:
#      x y z
#    x 4.565260 0.000000 0.039410 
#    y 0.000000 4.195990 0.000000 
#    z 0.039410 0.000000 4.024030 
# 
# 
# High freq. dielectric constant tensor:
#      x y z
#    x 1.947520 0.000000 -0.000930 
#    y 0.000000 1.928660 0.000000 
#    z -0.000930 0.000000 1.924750 
# 
# From -- ./inp_files/2592.got.cif
#   From: 2010.03.12/outbox.cif.g09.slc.cpg/sg4_2_cif.got.tgz:2592.got - 2010.03.31 09:31:35.
