data_PCOD8047793
_publ_section_title
;
Structure prediction by ZEFSAII (Michael W. Deem and Ramdas Pophale) SiO2 
 PCOD8047793
Probable space group: P 21
;
_chemical_formula_sum "Si O2"
_cell_formula_units_Z 16
_cell_length_a 14.871520
_cell_length_b 8.662509
_cell_length_c 14.553797
_cell_angle_alpha 90.000000
_cell_angle_beta 20.006518
_cell_angle_gamma 90.000000
_cell_volume 641.449946
_symmetry_space_group_name_H-M "P 21"
_symmetry_group_IT_number 4
_symmetry_cell_setting 'monoclinic'
loop_
_space_group_symop_operation_xyz
x,y,z
-x,1/2+y,-z
loop_
_atom_site_type_symbol
_atom_site_label
_atom_site_fract_x
_atom_site_fract_y
_atom_site_fract_z
Si Si1 0.281995 0.295290 0.568468
Si Si2 0.946650 0.058747 0.980978
Si Si3 0.330354 0.811477 0.659013
Si Si4 0.696633 0.145776 0.844842
Si Si5 0.597256 0.074142 0.143727
Si Si6 0.830542 0.495096 0.711055
Si Si7 0.978356 0.561003 0.775094
Si Si8 0.492231 0.757034 0.302505
O O1 0.506277 0.385288 0.412083
O O2 0.403026 0.211325 0.362328
O O3 0.193729 0.170400 0.728335
O O4 0.038255 0.402991 0.772878
O O5 0.738982 0.132707 0.251554
O O6 0.827414 0.037841 0.994521
O O7 0.052176 0.899996 0.921180
O O8 0.482296 0.820801 0.416581
O O9 0.756230 0.320266 0.758618
O O10 0.728864 0.125113 0.922735
O O11 0.899547 0.032403 0.600072
O O12 0.399243 0.108271 0.101694
O O13 0.459412 0.905687 0.266715
O O14 0.865313 0.517209 0.785520
O O15 0.255727 0.646747 0.500872
O O16 0.766972 0.666220 0.030005
#
# Coordination Sequence:
#
# PCOD8047793 Si02
#       8
#     2   2   2   2   2   2   2   2
#     4  11  28  47  78 107 164 209 266 326 402 473
#     4  11  26  49  74 105 158 208 270 325 401 474
#     4  11  28  47  73 116 153 216 273 332 391 474
#     4  12  30  53  89 117 166 203 271 332 405 492
#     4  11  28  52  77 114 156 218 258 330 411 477
#     4  12  30  55  82 125 156 211 265 332 410 485
#     4  12  31  51  79 117 162 208 262 334 402 475
#     4  12  29  50  80 115 161 209 273 329 392 478
#
# _framework density 24.943491000000002
#
# number of rings (size 3 to 8) (size 9 to 14) (size 15 to 20)
#    0.000    0.500    1.250    3.000   22.750    0.000 
#    0.000    0.000    0.000    0.000    0.000    0.000 
#    0.000    0.000    0.000    0.000    0.000    0.000 
#
# Total GULP energy -198489.321336 kJ/mol
# GULP energy per Si atom -12405.582584 kJ/mol
# Density = 2.488672 g / cm^3
# Si number density = 24.943491 Si / 1000 Ang^3
#
#
#
# Elastic Constant Matrix: (Units=GPa)
#
#
# Indices 1 2 3 4 5 6 
#
# 1 108.1171 33.0692 22.7253 0.0000 -4.5452 0.0000
# 2 33.0692 101.8043 18.8157 0.0000 0.7563 0.0000
# 3 22.7253 18.8157 99.4137 0.0000 1.7882 0.0000
# 4 0.0000 0.0000 0.0000 51.5990 0.0000 -4.6447
# 5 -4.5452 0.7563 1.7882 0.0000 46.3902 0.0000
# 6 0.0000 0.0000 0.0000 -4.6447 0.0000 25.9876
#
#
#
# Elastic Compliance Matrix: (Units=1/GPa)
#
#
# Indices 1 2 3 4 5 6 
#
# 1 0.010645 -0.003122 -0.001863 0.000000 0.001166 0.000000
# 2 -0.003122 0.011095 -0.001378 0.000000 -0.000434 0.000000
# 3 -0.001863 -0.001378 0.010756 0.000000 -0.000575 0.000000
# 4 0.000000 0.000000 0.000000 0.019697 0.000000 0.003520
# 5 0.001166 -0.000434 -0.000575 0.000000 0.021700 0.000000
# 6 0.000000 0.000000 0.000000 0.003520 0.000000 0.039109
#
#
# Mechanical properties :
#
#
# Convention : Reuss Voigt Hill
#
# Bulk Modulus (GPa) = 50.58637 50.95060 50.76848
# Shear Modulus (GPa) = 37.78752 40.44371 39.11561
#
# Velocity S-wave (km/s) = 3.89643 4.03105 3.96431
# Velocity P-wave (km/s) = 6.36924 6.49127 6.43054
#
# Compressibility (1/GPa) = 0.01976817
#
# Stress axis : x y z
#
# Youngs Moduli (GPa) = 93.94236 90.13158 92.96996
#
# Poissons Ratio (x) = 0.28139 0.17324
# Poissons Ratio (y) = 0.29329 0.12815
# Poissons Ratio (z) = 0.17505 0.12424
#
# Static dielectric constant tensor:
#      x y z
#    x 4.428990 0.000000 -0.059620 
#    y 0.000000 4.791280 0.000000 
#    z -0.059620 0.000000 4.578290 
# 
# 
# High freq. dielectric constant tensor:
#      x y z
#    x 1.994390 0.000000 -0.004630 
#    y 0.000000 2.007850 0.000000 
#    z -0.004630 0.000000 2.007540 
# 
# From -- ./inp_files/14191.got.cif
#   From: 2010.03.12/outbox.cif.g09.slc.cpg/sg4_8_cif.got.tgz:14191.got - 2010.03.31 09:31:35.
