data_PCOD8047960
_publ_section_title
;
Structure prediction by ZEFSAII (Michael W. Deem and Ramdas Pophale) SiO2 
 PCOD8047960
Probable space group: P 21
;
_chemical_formula_sum "Si O2"
_cell_formula_units_Z 16
_cell_length_a 11.909575
_cell_length_b 6.435010
_cell_length_c 15.050329
_cell_angle_alpha 90.000000
_cell_angle_beta 37.691325
_cell_angle_gamma 90.000000
_cell_volume 705.215839
_symmetry_space_group_name_H-M "P 21"
_symmetry_group_IT_number 4
_symmetry_cell_setting 'monoclinic'
loop_
_space_group_symop_operation_xyz
x,y,z
-x,1/2+y,-z
loop_
_atom_site_type_symbol
_atom_site_label
_atom_site_fract_x
_atom_site_fract_y
_atom_site_fract_z
Si Si1 0.234259 0.760060 0.785147
Si Si2 0.551212 0.863357 0.131270
Si Si3 0.393795 0.130366 0.373604
Si Si4 0.858998 0.130370 0.873605
Si Si5 0.147235 0.528718 0.499433
Si Si6 0.804551 0.260064 0.714854
Si Si7 0.146105 0.028720 0.000563
Si Si8 0.186245 0.863354 0.631272
O O1 0.392848 0.634145 0.734804
O O2 0.311887 0.803191 0.637162
O O3 0.047938 0.633686 0.892626
O O4 0.201712 0.959427 0.867165
O O5 0.413788 0.803202 0.137160
O O6 0.399062 0.941408 0.299317
O O7 0.685866 0.674909 0.073029
O O8 0.662740 0.065085 0.033644
O O9 0.302761 0.347350 0.400108
O O10 0.269972 0.065081 0.533645
O O11 0.862460 0.134158 0.765195
O O12 0.897027 0.347350 0.900109
O O13 0.002303 0.941408 0.799317
O O14 0.166827 0.633678 0.392613
O O15 0.168069 0.674908 0.573031
O O16 0.936046 0.459426 0.632825
#
# Coordination Sequence:
#
# PCOD8047960 Si02
#       8
#     2   2   2   2   2   2   2   2
#     4  12  26  44  80 100 148 200 234 306 380 434
#     4  12  27  48  73 110 146 193 252 304 370 452
#     4  12  27  48  73 110 146 193 252 304 370 452
#     4  12  27  48  73 110 146 193 252 304 370 452
#     4  12  26  52  70 110 154 188 246 318 370 442
#     4  12  26  44  80 100 148 200 234 306 380 434
#     4  12  26  52  70 110 154 188 246 318 370 442
#     4  12  27  48  73 110 146 193 252 304 370 452
#
# _framework density 22.688089999999999
#
# number of rings (size 3 to 8) (size 9 to 14) (size 15 to 20)
#    0.000    0.000    5.000    4.500    3.500    0.000 
#    0.000    0.000    0.000    0.000    0.000    0.000 
#    0.000    0.000    0.000    0.000    0.000    0.000 
#
# Total GULP energy -198247.206866 kJ/mol
# GULP energy per Si atom -12390.450429 kJ/mol
# Density = 2.263645 g / cm^3
# Si number density = 22.688090 Si / 1000 Ang^3
#
#
#
# Elastic Constant Matrix: (Units=GPa)
#
#
# Indices 1 2 3 4 5 6 
#
# 1 117.7996 52.3403 38.4640 0.0000 -1.0179 0.0000
# 2 52.3403 106.2863 33.1855 0.0000 0.5114 0.0000
# 3 38.4640 33.1855 90.7489 0.0000 1.7323 0.0000
# 4 0.0000 0.0000 0.0000 48.2031 0.0000 -1.1148
# 5 -1.0179 0.5114 1.7323 0.0000 58.2829 0.0000
# 6 0.0000 0.0000 0.0000 -1.1148 0.0000 6.8589
#
#
#
# Elastic Compliance Matrix: (Units=1/GPa)
#
#
# Indices 1 2 3 4 5 6 
#
# 1 0.011643 -0.004733 -0.003211 0.000000 0.000340 0.000000
# 2 -0.004733 0.012545 -0.002579 0.000000 -0.000116 0.000000
# 3 -0.003211 -0.002579 0.013332 0.000000 -0.000430 0.000000
# 4 0.000000 0.000000 0.000000 0.020824 0.000000 0.003385
# 5 0.000340 -0.000116 -0.000430 0.000000 0.017177 0.000000
# 6 0.000000 0.000000 0.000000 0.003385 0.000000 0.146346
#
#
# Mechanical properties :
#
#
# Convention : Reuss Voigt Hill
#
# Bulk Modulus (GPa) = 60.70087 62.53493 61.61790
# Shear Modulus (GPa) = 20.12846 35.39197 27.76021
#
# Velocity S-wave (km/s) = 2.98179 3.95389 3.50174
# Velocity P-wave (km/s) = 6.21831 6.96183 6.60054
#
# Compressibility (1/GPa) = 0.01647423
#
# Stress axis : x y z
#
# Youngs Moduli (GPa) = 85.88724 79.71242 75.00905
#
# Poissons Ratio (x) = 0.37726 0.24084
# Poissons Ratio (y) = 0.40649 0.19347
# Poissons Ratio (z) = 0.27576 0.20560
#
# Static dielectric constant tensor:
#      x y z
#    x 4.478750 0.000000 -0.002200 
#    y 0.000000 4.057210 0.000000 
#    z -0.002200 0.000000 4.558310 
# 
# 
# High freq. dielectric constant tensor:
#      x y z
#    x 1.915720 0.000000 0.000170 
#    y 0.000000 1.896880 0.000000 
#    z 0.000170 0.000000 1.909540 
# 
# From -- ./inp_files/10737.got.cif
#   From: 2010.03.12/outbox.cif.g09.slc.cpg/sg4_6_cif.got.tgz:10737.got - 2010.03.31 09:31:35.
