data_PCOD8047486
_publ_section_title
;
Structure prediction by ZEFSAII (Michael W. Deem and Ramdas Pophale) SiO2 
 PCOD8047486
Probable space group: P 21
;
_chemical_formula_sum "Si O2"
_cell_formula_units_Z 14
_cell_length_a 11.436498
_cell_length_b 9.220445
_cell_length_c 9.242009
_cell_angle_alpha 90.000000
_cell_angle_beta 37.358676
_cell_angle_gamma 90.000000
_cell_volume 591.369395
_symmetry_space_group_name_H-M "P 21"
_symmetry_group_IT_number 4
_symmetry_cell_setting 'monoclinic'
loop_
_space_group_symop_operation_xyz
x,y,z
-x,1/2+y,-z
loop_
_atom_site_type_symbol
_atom_site_label
_atom_site_fract_x
_atom_site_fract_y
_atom_site_fract_z
Si Si1 0.718011 0.459780 0.238225
Si Si2 0.679072 0.628114 0.739528
Si Si3 0.571684 0.880035 0.053331
Si Si4 0.223100 0.777320 0.556932
Si Si5 0.073036 0.462507 0.695305
Si Si6 0.629352 0.745419 0.487287
Si Si7 0.969214 0.949039 0.602734
O O1 0.837902 0.381872 0.250085
O O2 0.651245 0.623007 0.342722
O O3 0.538483 0.357347 0.382109
O O4 0.853240 0.475391 0.964612
O O5 0.652513 0.751056 0.879441
O O6 0.579316 0.662107 0.684676
O O7 0.907316 0.596284 0.499856
O O8 0.567005 0.484158 0.904703
O O9 0.772314 0.964306 0.892444
O O10 0.451528 0.812838 0.305164
O O11 0.095844 0.815863 0.541023
O O12 0.191395 0.608386 0.618707
O O13 0.081158 0.425266 0.517147
O O14 0.172336 0.332327 0.685288
#
# Coordination Sequence:
#
# PCOD8047486 Si02
#       7
#     2   2   2   2   2   2   2
#     4  12  28  51  75 105 155 204 253 311 372 455
#     4  11  25  45  71 114 149 189 248 306 380 440
#     4  11  23  44  78 103 155 189 243 309 373 442
#     4  11  26  49  73 115 148 203 251 304 387 447
#     4  12  27  46  80 112 151 196 256 312 378 454
#     4  12  27  51  71 111 149 201 254 307 380 450
#     4  11  24  44  76 110 145 190 249 309 378 434
#
# _framework density 23.673867999999999
#
# number of rings (size 3 to 8) (size 9 to 14) (size 15 to 20)
#    0.000    0.571    4.286    3.429    4.000    6.857 
#    2.571    0.000    0.000    0.000    0.000    0.000 
#    0.000    0.000    0.000    0.000    0.000    0.000 
#
# Total GULP energy -173566.027876 kJ/mol
# GULP energy per Si atom -12397.573420 kJ/mol
# Density = 2.361999 g / cm^3
# Si number density = 23.673868 Si / 1000 Ang^3
#
#
#
# Elastic Constant Matrix: (Units=GPa)
#
#
# Indices 1 2 3 4 5 6 
#
# 1 89.1096 34.3940 32.9021 0.0000 -16.7989 0.0000
# 2 34.3940 123.6809 32.6103 0.0000 -17.1506 0.0000
# 3 32.9021 32.6103 127.3272 0.0000 -21.3816 0.0000
# 4 0.0000 0.0000 0.0000 32.2738 0.0000 -8.6450
# 5 -16.7989 -17.1506 -21.3816 0.0000 34.8419 0.0000
# 6 0.0000 0.0000 0.0000 -8.6450 0.0000 45.9793
#
#
#
# Elastic Compliance Matrix: (Units=1/GPa)
#
#
# Indices 1 2 3 4 5 6 
#
# 1 0.013836 -0.002713 -0.002213 0.000000 0.003978 0.000000
# 2 -0.002713 0.009543 -0.001309 0.000000 0.002587 0.000000
# 3 -0.002213 -0.001309 0.009447 0.000000 0.004086 0.000000
# 4 0.000000 0.000000 0.000000 0.032628 0.000000 0.006135
# 5 0.003978 0.002587 0.004086 0.000000 0.034400 0.000000
# 6 0.000000 0.000000 0.000000 0.006135 0.000000 0.022902
#
#
# Mechanical properties :
#
#
# Convention : Reuss Voigt Hill
#
# Bulk Modulus (GPa) = 49.12018 59.99225 54.55622
# Shear Modulus (GPa) = 35.20852 38.63309 36.92081
#
# Velocity S-wave (km/s) = 3.86065 4.04405 3.95341
# Velocity P-wave (km/s) = 6.37703 6.87036 6.62829
#
# Compressibility (1/GPa) = 0.02035823
#
# Stress axis : x y z
#
# Youngs Moduli (GPa) = 72.27524 104.78393 105.85439
#
# Poissons Ratio (x) = 0.28424 0.23421
# Poissons Ratio (y) = 0.19605 0.13855
# Poissons Ratio (z) = 0.15991 0.13715
#
# Static dielectric constant tensor:
#      x y z
#    x 4.184600 0.000000 -0.139440 
#    y 0.000000 4.473880 0.000000 
#    z -0.139440 0.000000 4.461810 
# 
# 
# High freq. dielectric constant tensor:
#      x y z
#    x 1.928610 0.000000 -0.011480 
#    y 0.000000 1.957940 0.000000 
#    z -0.011480 0.000000 1.936420 
# 
# From -- ./inp_files/7477.got.cif
#   From: 2010.03.12/outbox.cif.g09.slc.cpg/sg4_4_cif.got.tgz:7477.got - 2010.03.31 09:31:35.
