data_PCOD8047998
_publ_section_title
;
Structure prediction by ZEFSAII (Michael W. Deem and Ramdas Pophale) SiO2 
 PCOD8047998
Probable space group: P 21
;
_chemical_formula_sum "Si O2"
_cell_formula_units_Z 16
_cell_length_a 9.165736
_cell_length_b 11.023071
_cell_length_c 9.785434
_cell_angle_alpha 90.000000
_cell_angle_beta 133.482968
_cell_angle_gamma 90.000000
_cell_volume 717.355980
_symmetry_space_group_name_H-M "P 21"
_symmetry_group_IT_number 4
_symmetry_cell_setting 'monoclinic'
loop_
_space_group_symop_operation_xyz
x,y,z
-x,1/2+y,-z
loop_
_atom_site_type_symbol
_atom_site_label
_atom_site_fract_x
_atom_site_fract_y
_atom_site_fract_z
Si Si1 0.446557 0.146010 0.043859
Si Si2 0.653118 0.155588 0.904791
Si Si3 0.044599 0.006559 0.154577
Si Si4 0.295313 0.655620 0.541467
Si Si5 0.093821 0.310446 0.720434
Si Si6 0.156316 0.389668 0.451441
Si Si7 0.200694 0.918255 0.977944
Si Si8 0.603789 0.668868 0.513726
O O1 0.561354 0.098842 0.983415
O O2 0.296615 0.254872 0.912134
O O3 0.338483 0.035302 0.048867
O O4 0.612906 0.197976 0.254983
O O5 0.505619 0.113217 0.689162
O O6 0.877752 0.109374 0.022521
O O7 0.655908 0.301664 0.915276
O O8 0.254943 0.066764 0.330510
O O9 0.974890 0.921484 0.231814
O O10 0.068833 0.931536 0.030482
O O11 0.071474 0.705523 0.384500
O O12 0.287487 0.510609 0.523421
O O13 0.434241 0.709718 0.511737
O O14 0.130128 0.356843 0.592031
O O15 0.268392 0.285809 0.441092
O O16 0.937944 0.405544 0.244153
#
# Coordination Sequence:
#
# PCOD8047998 Si02
#       8
#     2   2   2   2   2   2   2   2
#     4  12  27  47  73 109 145 192 242 299 365 436
#     4  12  27  48  76 105 147 194 242 299 371 432
#     4  12  29  48  75 109 147 191 250 302 364 435
#     4  12  27  48  76 105 147 194 242 299 371 432
#     4  12  29  48  75 109 147 191 250 302 364 435
#     4  12  26  50  77 104 153 194 242 307 364 434
#     4  12  26  50  77 104 153 194 242 307 364 434
#     4  12  27  47  73 109 145 192 242 299 365 436
#
# _framework density 22.304127000000001
#
# number of rings (size 3 to 8) (size 9 to 14) (size 15 to 20)
#    0.000    0.000    5.000    3.750   10.500    1.000 
#    0.000    0.000    0.000    0.000    0.000    0.000 
#    0.000    0.000    0.000    0.000    0.000    0.000 
#
# Total GULP energy -198563.249597 kJ/mol
# GULP energy per Si atom -12410.203100 kJ/mol
# Density = 2.225336 g / cm^3
# Si number density = 22.304127 Si / 1000 Ang^3
#
#
#
# Elastic Constant Matrix: (Units=GPa)
#
#
# Indices 1 2 3 4 5 6 
#
# 1 89.8791 18.8653 4.8579 0.0000 -6.5994 0.0000
# 2 18.8653 82.6532 14.1602 0.0000 -6.4507 0.0000
# 3 4.8579 14.1602 115.1186 0.0000 2.8217 0.0000
# 4 0.0000 0.0000 0.0000 31.2838 0.0000 -3.4537
# 5 -6.5994 -6.4507 2.8217 0.0000 36.8737 0.0000
# 6 0.0000 0.0000 0.0000 -3.4537 0.0000 34.6014
#
#
#
# Elastic Compliance Matrix: (Units=1/GPa)
#
#
# Indices 1 2 3 4 5 6 
#
# 1 0.011791 -0.002520 -0.000229 0.000000 0.001687 0.000000
# 2 -0.002520 0.013093 -0.001552 0.000000 0.001958 0.000000
# 3 -0.000229 -0.001552 0.008912 0.000000 -0.000994 0.000000
# 4 0.000000 0.000000 0.000000 0.032322 0.000000 0.003226
# 5 0.001687 0.001958 -0.000994 0.000000 0.027840 0.000000
# 6 0.000000 0.000000 0.000000 0.003226 0.000000 0.029223
#
#
# Mechanical properties :
#
#
# Convention : Reuss Voigt Hill
#
# Bulk Modulus (GPa) = 39.69389 40.37974 40.03681
# Shear Modulus (GPa) = 35.66828 37.20295 36.43561
#
# Velocity S-wave (km/s) = 4.00331 4.08853 4.04614
# Velocity P-wave (km/s) = 6.26131 6.35858 6.31013
#
# Compressibility (1/GPa) = 0.02519279
#
# Stress axis : x y z
#
# Youngs Moduli (GPa) = 84.80807 76.37803 112.21269
#
# Poissons Ratio (x) = 0.19251 0.02569
# Poissons Ratio (y) = 0.21376 0.17417
# Poissons Ratio (z) = 0.01941 0.11855
#
# Static dielectric constant tensor:
#      x y z
#    x 4.147280 0.000000 0.014980 
#    y 0.000000 3.905210 0.000000 
#    z 0.014980 0.000000 4.338430 
# 
# 
# High freq. dielectric constant tensor:
#      x y z
#    x 1.894170 0.000000 0.000590 
#    y 0.000000 1.875650 0.000000 
#    z 0.000590 0.000000 1.902700 
# 
# From -- ./inp_files/6382.got.cif
#   From: 2010.03.12/outbox.cif.g09.slc.cpg/sg4_4_cif.got.tgz:6382.got - 2010.03.31 09:31:35.
