data_PCOD8047119
_publ_section_title
;
Structure prediction by ZEFSAII (Michael W. Deem and Ramdas Pophale) SiO2 
 PCOD8047119
Probable space group: P 21
;
_chemical_formula_sum "Si O2"
_cell_formula_units_Z 12
_cell_length_a 5.678280
_cell_length_b 9.512532
_cell_length_c 9.166557
_cell_angle_alpha 90.000000
_cell_angle_beta 95.948296
_cell_angle_gamma 90.000000
_cell_volume 492.464058
_symmetry_space_group_name_H-M "P 21"
_symmetry_group_IT_number 4
_symmetry_cell_setting 'monoclinic'
loop_
_space_group_symop_operation_xyz
x,y,z
-x,1/2+y,-z
loop_
_atom_site_type_symbol
_atom_site_label
_atom_site_fract_x
_atom_site_fract_y
_atom_site_fract_z
Si Si1 0.879708 0.379800 0.231693
Si Si2 0.340125 0.647530 0.597972
Si Si3 0.842679 0.146050 0.721080
Si Si4 0.759177 0.667015 0.831310
Si Si5 0.120080 0.431537 0.785127
Si Si6 0.464503 0.523932 0.042625
O O1 0.834255 0.269438 0.356901
O O2 0.636602 0.412858 0.132328
O O3 0.977641 0.521527 0.307909
O O4 0.080198 0.307876 0.139823
O O5 0.344777 0.657910 0.423174
O O6 0.603252 0.676820 0.673953
O O7 0.239379 0.497105 0.646636
O O8 0.702399 0.110973 0.858755
O O9 0.009236 0.280690 0.747385
O O10 0.915335 0.528852 0.834092
O O11 0.599778 0.647863 0.964841
O O12 0.320575 0.426159 0.921796
#
# Coordination Sequence:
#
# PCOD8047119 Si02
#       6
#     2   2   2   2   2   2
#     4  11  25  44  70 100 138 181 228 283 341 405
#     4  10  24  47  71  99 139 185 228 278 340 408
#     4  12  26  43  72 106 138 179 230 282 342 408
#     4  10  24  46  69  96 138 182 226 283 342 403
#     4  10  25  46  70 102 140 179 228 283 339 407
#     4  11  26  44  72 105 137 180 230 285 344 405
#
# _framework density 24.367263000000001
#
# number of rings (size 3 to 8) (size 9 to 14) (size 15 to 20)
#    0.000    1.333    0.000    3.000    0.000   25.333 
#    0.000    0.000    0.000    4.000    0.000    0.000 
#    0.000    0.000    0.000    0.000    0.000    0.000 
#
# Total GULP energy -148836.302330 kJ/mol
# GULP energy per Si atom -12403.025194 kJ/mol
# Density = 2.431180 g / cm^3
# Si number density = 24.367263 Si / 1000 Ang^3
#
#
#
# Elastic Constant Matrix: (Units=GPa)
#
#
# Indices 1 2 3 4 5 6 
#
# 1 91.7461 42.6171 24.2104 0.0000 24.0404 0.0000
# 2 42.6171 167.9484 32.5921 0.0000 14.9837 0.0000
# 3 24.2104 32.5921 119.1880 0.0000 13.0962 0.0000
# 4 0.0000 0.0000 0.0000 22.2838 0.0000 8.6067
# 5 24.0404 14.9837 13.0962 0.0000 27.8042 0.0000
# 6 0.0000 0.0000 0.0000 8.6067 0.0000 45.3997
#
#
#
# Elastic Compliance Matrix: (Units=1/GPa)
#
#
# Indices 1 2 3 4 5 6 
#
# 1 0.015421 -0.002677 -0.001154 0.000000 -0.011347 0.000000
# 2 -0.002677 0.006954 -0.001266 0.000000 -0.000837 0.000000
# 3 -0.001154 -0.001266 0.009266 0.000000 -0.002685 0.000000
# 4 0.000000 0.000000 0.000000 0.048421 0.000000 -0.009179
# 5 -0.011347 -0.000837 -0.002685 0.000000 0.047493 0.000000
# 6 0.000000 0.000000 0.000000 -0.009179 0.000000 0.023767
#
#
# Mechanical properties :
#
#
# Convention : Reuss Voigt Hill
#
# Bulk Modulus (GPa) = 46.62509 64.19130 55.40819
# Shear Modulus (GPa) = 29.64504 37.72841 33.68672
#
# Velocity S-wave (km/s) = 3.49175 3.93914 3.72218
# Velocity P-wave (km/s) = 5.95250 6.86218 6.42347
#
# Compressibility (1/GPa) = 0.02144768
#
# Stress axis : x y z
#
# Youngs Moduli (GPa) = 64.84714 143.80726 107.92655
#
# Poissons Ratio (x) = 0.38495 0.12450
# Poissons Ratio (y) = 0.17358 0.13662
# Poissons Ratio (z) = 0.07481 0.18204
#
# Static dielectric constant tensor:
#      x y z
#    x 4.629800 0.000000 0.127750 
#    y 0.000000 4.464170 0.000000 
#    z 0.127750 0.000000 4.302400 
# 
# 
# High freq. dielectric constant tensor:
#      x y z
#    x 1.979830 0.000000 0.012160 
#    y 0.000000 1.982160 0.000000 
#    z 0.012160 0.000000 1.960730 
# 
# From -- ./inp_files/4506.got.cif
#   From: 2010.03.12/outbox.cif.g09.slc.cpg/sg4_3_cif.got.tgz:4506.got - 2010.03.31 09:31:35.
