data_PCOD8047293
_publ_section_title
;
Structure prediction by ZEFSAII (Michael W. Deem and Ramdas Pophale) SiO2 
 PCOD8047293
Probable space group: P 21
;
_chemical_formula_sum "Si O2"
_cell_formula_units_Z 16
_cell_length_a 14.449288
_cell_length_b 8.238607
_cell_length_c 6.466833
_cell_angle_alpha 90.000000
_cell_angle_beta 117.839719
_cell_angle_gamma 90.000000
_cell_volume 680.723287
_symmetry_space_group_name_H-M "P 21"
_symmetry_group_IT_number 4
_symmetry_cell_setting 'monoclinic'
loop_
_space_group_symop_operation_xyz
x,y,z
-x,1/2+y,-z
loop_
_atom_site_type_symbol
_atom_site_label
_atom_site_fract_x
_atom_site_fract_y
_atom_site_fract_z
Si Si1 0.385771 0.802830 0.400330
Si Si2 0.137647 0.464292 0.120009
Si Si3 0.476718 0.303710 0.089594
Si Si4 0.883593 0.470807 0.376885
Si Si5 0.212235 0.704318 0.519774
Si Si6 0.359830 0.983754 0.985916
Si Si7 0.009422 0.231406 0.238069
Si Si8 0.689742 0.045616 0.990790
O O1 0.495888 0.800860 0.636667
O O2 0.296402 0.806131 0.479681
O O3 0.374866 0.963869 0.248488
O O4 0.374246 0.645473 0.246241
O O5 0.181871 0.537743 0.379450
O O6 0.084326 0.295085 0.130426
O O7 0.229234 0.428277 0.049354
O O8 0.066270 0.601085 0.941766
O O9 0.422932 0.137035 0.965341
O O10 0.581171 0.329908 0.061310
O O11 0.390062 0.440942 0.956632
O O12 0.884904 0.330016 0.555646
O O13 0.929784 0.639931 0.511414
O O14 0.951220 0.395140 0.258665
O O15 0.762433 0.499118 0.190501
O O16 0.248044 0.665327 0.791951
#
# Coordination Sequence:
#
# PCOD8047293 Si02
#       8
#     2   2   2   2   2   2   2   2
#     4  11  21  44  69 103 139 191 236 299 361 443
#     4  11  26  46  74 109 141 193 247 310 369 448
#     4  12  26  43  71 102 145 193 240 302 372 451
#     4  12  25  48  74 107 148 199 245 314 378 445
#     4  11  21  46  74  99 150 186 233 312 373 433
#     4  12  26  45  71 106 147 191 247 302 374 447
#     4  12  27  47  77 109 148 197 254 312 383 444
#     4  11  24  45  72 103 148 186 240 303 376 439
#
# _framework density 23.504411999999999
#
# number of rings (size 3 to 8) (size 9 to 14) (size 15 to 20)
#    0.000    0.500    3.750    4.500    1.750    3.000 
#    2.250    0.000    0.000    0.000    0.000    0.000 
#    0.000    0.000    0.000    0.000    0.000    0.000 
#
# Total GULP energy -198350.466536 kJ/mol
# GULP energy per Si atom -12396.904158 kJ/mol
# Density = 2.345091 g / cm^3
# Si number density = 23.504412 Si / 1000 Ang^3
#
#
#
# Elastic Constant Matrix: (Units=GPa)
#
#
# Indices 1 2 3 4 5 6 
#
# 1 114.2796 35.3472 33.5568 0.0000 -1.6084 0.0000
# 2 35.3472 72.8468 22.5061 0.0000 4.8038 0.0000
# 3 33.5568 22.5061 101.8635 0.0000 4.0610 0.0000
# 4 0.0000 0.0000 0.0000 37.0968 0.0000 -5.7036
# 5 -1.6084 4.8038 4.0610 0.0000 37.4083 0.0000
# 6 0.0000 0.0000 0.0000 -5.7036 0.0000 47.5948
#
#
#
# Elastic Compliance Matrix: (Units=1/GPa)
#
#
# Indices 1 2 3 4 5 6 
#
# 1 0.010969 -0.004592 -0.002653 0.000000 0.001349 0.000000
# 2 -0.004592 0.016745 -0.002103 0.000000 -0.002119 0.000000
# 3 -0.002653 -0.002103 0.011198 0.000000 -0.001060 0.000000
# 4 0.000000 0.000000 0.000000 0.027462 0.000000 0.003291
# 5 0.001349 -0.002119 -0.001060 0.000000 0.027177 0.000000
# 6 0.000000 0.000000 0.000000 0.003291 0.000000 0.021405
#
#
# Mechanical properties :
#
#
# Convention : Reuss Voigt Hill
#
# Bulk Modulus (GPa) = 49.46246 52.42335 50.94291
# Shear Modulus (GPa) = 35.61537 37.59197 36.60367
#
# Velocity S-wave (km/s) = 3.89686 4.00354 3.95056
# Velocity P-wave (km/s) = 6.42938 6.61235 6.52151
#
# Compressibility (1/GPa) = 0.02021735
#
# Stress axis : x y z
#
# Youngs Moduli (GPa) = 91.16922 59.72003 89.30395
#
# Poissons Ratio (x) = 0.27422 0.23689
# Poissons Ratio (y) = 0.41862 0.18776
# Poissons Ratio (z) = 0.24184 0.12556
#
# Static dielectric constant tensor:
#      x y z
#    x 4.378730 0.000000 -0.051500 
#    y 0.000000 4.102320 0.000000 
#    z -0.051500 0.000000 4.336610 
# 
# 
# High freq. dielectric constant tensor:
#      x y z
#    x 1.943180 0.000000 -0.002800 
#    y 0.000000 1.921970 0.000000 
#    z -0.002800 0.000000 1.930340 
# 
# From -- ./inp_files/3664.got.cif
#   From: 2010.03.12/outbox.cif.g09.slc.cpg/sg4_2_cif.got.tgz:3664.got - 2010.03.31 09:31:35.
