data_PCOD8047509
_publ_section_title
;
Structure prediction by ZEFSAII (Michael W. Deem and Ramdas Pophale) SiO2 
 PCOD8047509
Probable space group: P 21
;
_chemical_formula_sum "Si O2"
_cell_formula_units_Z 12
_cell_length_a 17.228323
_cell_length_b 5.166047
_cell_length_c 16.384735
_cell_angle_alpha 90.000000
_cell_angle_beta 18.499543
_cell_angle_gamma 90.000000
_cell_volume 462.707855
_symmetry_space_group_name_H-M "P 21"
_symmetry_group_IT_number 4
_symmetry_cell_setting 'monoclinic'
loop_
_space_group_symop_operation_xyz
x,y,z
-x,1/2+y,-z
loop_
_atom_site_type_symbol
_atom_site_label
_atom_site_fract_x
_atom_site_fract_y
_atom_site_fract_z
Si Si1 0.859172 0.505000 0.380342
Si Si2 0.249912 0.892853 0.340656
Si Si3 0.162741 0.977434 0.083151
Si Si4 0.471636 0.699046 0.400486
Si Si5 0.737264 0.604277 0.847994
Si Si6 0.152960 0.394682 0.841540
O O1 0.768818 0.582019 0.562189
O O2 0.641425 0.439579 0.535975
O O3 0.001444 0.752452 0.203535
O O4 0.030094 0.253452 0.216116
O O5 0.985386 0.766167 0.590838
O O6 0.326665 0.010689 0.178175
O O7 0.485382 0.726991 0.130932
O O8 0.220169 0.897976 0.120716
O O9 0.399434 0.002245 0.790446
O O10 0.269265 0.521309 0.645354
O O11 0.648524 0.837269 0.287807
O O12 0.969652 0.617256 0.058830
#
# Coordination Sequence:
#
# PCOD8047509 Si02
#       6
#     2   2   2   2   2   2
#     4  11  27  49  77 117 162 211 273 338 406 492
#     4  11  23  45  75 115 163 224 279 343 408 490
#     4  11  27  49  77 117 162 211 273 338 406 492
#     4  12  28  54  82 118 158 218 266 340 430 492
#     4  11  23  45  75 115 163 224 279 343 408 490
#     4  12  30  52  84 120 158 208 270 342 416 516
#
# _framework density 25.934289
#
# number of rings (size 3 to 8) (size 9 to 14) (size 15 to 20)
#    0.000    0.667    1.667    4.000    0.000   17.333 
#    0.000    0.000    0.000    0.000    0.000    0.000 
#    0.000    0.000    0.000    0.000    0.000    0.000 
#
# Total GULP energy -148697.558121 kJ/mol
# GULP energy per Si atom -12391.463177 kJ/mol
# Density = 2.587526 g / cm^3
# Si number density = 25.934289 Si / 1000 Ang^3
#
#
#
# Elastic Constant Matrix: (Units=GPa)
#
#
# Indices 1 2 3 4 5 6 
#
# 1 104.0924 6.7321 9.1012 0.0000 14.3031 0.0000
# 2 6.7321 105.0987 30.2115 0.0000 -0.5657 0.0000
# 3 9.1012 30.2115 141.1921 0.0000 -5.8584 0.0000
# 4 0.0000 0.0000 0.0000 49.1127 0.0000 -15.8270
# 5 14.3031 -0.5657 -5.8584 0.0000 44.8444 0.0000
# 6 0.0000 0.0000 0.0000 -15.8270 0.0000 -10.1659
#
#
#
# Elastic Compliance Matrix: (Units=1/GPa)
#
#
# Indices 1 2 3 4 5 6 
#
# 1 0.010156 -0.000469 -0.000693 0.000000 -0.003336 0.000000
# 2 -0.000469 0.010161 -0.002144 0.000000 -0.000002 0.000000
# 3 -0.000693 -0.002144 0.007635 0.000000 0.001191 0.000000
# 4 0.000000 0.000000 0.000000 0.013559 0.000000 -0.021109
# 5 -0.003336 -0.000002 0.001191 0.000000 0.023519 0.000000
# 6 0.000000 0.000000 0.000000 -0.021109 0.000000 -0.065504
#
#
# Mechanical properties :
#
#
# Convention : Reuss Voigt Hill
#
# Bulk Modulus (GPa) = 46.85913 49.16363 48.01138
# Shear Modulus (GPa) = 377.29317 37.04746 207.17032
#
# Velocity S-wave (km/s) = 12.07461 3.78367 8.94741
# Velocity P-wave (km/s) = 14.57747 6.17141 11.19350
#
# Compressibility (1/GPa) = 0.02134056
#
# Stress axis : x y z
#
# Youngs Moduli (GPa) = 98.46289 98.41297 130.96875
#
# Poissons Ratio (x) = 0.04620 0.09071
# Poissons Ratio (y) = 0.04622 0.28081
# Poissons Ratio (z) = 0.06820 0.21101
#
# Static dielectric constant tensor:
#      x y z
#    x 5.260310 0.000000 0.118280 
#    y 0.000000 4.403870 0.000000 
#    z 0.118280 0.000000 5.151710 
# 
# 
# High freq. dielectric constant tensor:
#      x y z
#    x 2.073060 0.000000 0.002550 
#    y 0.000000 2.012790 0.000000 
#    z 0.002550 0.000000 2.060860 
# 
# From -- ./inp_files/14123.got.cif
#   From: 2010.03.12/outbox.cif.g09.slc.cpg/sg4_8_cif.got.tgz:14123.got - 2010.03.31 09:31:35.
