data_PCOD8047478
_publ_section_title
;
Structure prediction by ZEFSAII (Michael W. Deem and Ramdas Pophale) SiO2 
 PCOD8047478
Probable space group: P 21
;
_chemical_formula_sum "Si O2"
_cell_formula_units_Z 16
_cell_length_a 10.078898
_cell_length_b 5.135045
_cell_length_c 21.252173
_cell_angle_alpha 90.000000
_cell_angle_beta 38.001033
_cell_angle_gamma 90.000000
_cell_volume 677.193291
_symmetry_space_group_name_H-M "P 21"
_symmetry_group_IT_number 4
_symmetry_cell_setting 'monoclinic'
loop_
_space_group_symop_operation_xyz
x,y,z
-x,1/2+y,-z
loop_
_atom_site_type_symbol
_atom_site_label
_atom_site_fract_x
_atom_site_fract_y
_atom_site_fract_z
Si Si1 0.863707 0.698150 0.475984
Si Si2 0.052370 0.838044 0.120898
Si Si3 0.269802 0.943590 0.357240
Si Si4 0.491547 0.452604 0.462222
Si Si5 0.712555 0.864361 0.140135
Si Si6 0.375585 0.887867 0.901360
Si Si7 0.939583 0.337847 0.239233
Si Si8 0.861859 0.822138 0.704654
O O1 0.692341 0.586776 0.590543
O O2 0.735799 0.935737 0.490552
O O3 0.947976 0.513308 0.388904
O O4 0.072939 0.746001 0.441785
O O5 0.904663 0.800494 0.115117
O O6 0.035104 0.612170 0.179273
O O7 0.984196 0.117254 0.172076
O O8 0.297288 0.830174 0.002029
O O9 0.179263 0.097253 0.330250
O O10 0.490156 0.796910 0.259729
O O11 0.514184 0.746442 0.478151
O O12 0.685100 0.379371 0.343334
O O13 0.744307 0.654247 0.073235
O O14 0.694484 0.156747 0.120163
O O15 0.629601 0.952175 0.804605
O O16 0.051589 0.227182 0.260451
#
# Coordination Sequence:
#
# PCOD8047478 Si02
#       8
#     2   2   2   2   2   2   2   2
#     4  12  23  42  68  98 137 177 231 280 340 406
#     4  12  26  45  70 103 138 177 233 281 339 406
#     4  11  24  40  69  99 134 177 227 289 340 404
#     4  12  26  45  70  98 138 186 226 269 343 414
#     4  11  23  44  71 101 139 171 227 282 350 404
#     4  11  24  44  75 100 132 182 224 289 347 396
#     4  12  27  45  68  99 141 183 226 281 334 414
#     4  11  25  45  65  96 137 179 230 281 345 404
#
# _framework density 23.626935
#
# number of rings (size 3 to 8) (size 9 to 14) (size 15 to 20)
#    0.000    0.500    3.750    4.500    1.750    3.000 
#    0.000    0.000    0.000    0.000    0.000    0.000 
#    0.000    0.000    0.000    0.000    0.000    0.000 
#
# Total GULP energy -198351.610973 kJ/mol
# GULP energy per Si atom -12396.975686 kJ/mol
# Density = 2.357316 g / cm^3
# Si number density = 23.626935 Si / 1000 Ang^3
#
#
#
# Elastic Constant Matrix: (Units=GPa)
#
#
# Indices 1 2 3 4 5 6 
#
# 1 54.7513 -4.8817 18.6498 0.0000 1.0853 0.0000
# 2 -4.8817 74.2644 12.6573 0.0000 -0.8116 0.0000
# 3 18.6498 12.6573 130.9368 0.0000 -2.6260 0.0000
# 4 0.0000 0.0000 0.0000 39.8912 0.0000 7.5003
# 5 1.0853 -0.8116 -2.6260 0.0000 23.5607 0.0000
# 6 0.0000 0.0000 0.0000 7.5003 0.0000 31.9184
#
#
#
# Elastic Compliance Matrix: (Units=1/GPa)
#
#
# Indices 1 2 3 4 5 6 
#
# 1 0.019456 0.001772 -0.002966 0.000000 -0.001166 0.000000
# 2 0.001772 0.013855 -0.001587 0.000000 0.000219 0.000000
# 3 -0.002966 -0.001587 0.008233 0.000000 0.001000 0.000000
# 4 0.000000 0.000000 0.000000 0.026227 0.000000 -0.006163
# 5 -0.001166 0.000219 0.001000 0.000000 0.042616 0.000000
# 6 0.000000 0.000000 0.000000 -0.006163 0.000000 0.032778
#
#
# Mechanical properties :
#
#
# Convention : Reuss Voigt Hill
#
# Bulk Modulus (GPa) = 27.79256 34.75593 31.27425
# Shear Modulus (GPa) = 31.10978 34.64255 32.87617
#
# Velocity S-wave (km/s) = 3.63258 3.83329 3.73429
# Velocity P-wave (km/s) = 5.42059 5.85956 5.64435
#
# Compressibility (1/GPa) = 0.03598085
#
# Stress axis : x y z
#
# Youngs Moduli (GPa) = 51.39882 72.17724 121.45971
#
# Poissons Ratio (x) = -0.12787 0.36022
# Poissons Ratio (y) = -0.09106 0.19279
# Poissons Ratio (z) = 0.15244 0.11456
#
# Static dielectric constant tensor:
#      x y z
#    x 4.211800 0.000000 -0.231500 
#    y 0.000000 4.058110 0.000000 
#    z -0.231500 0.000000 4.621270 
# 
# 
# High freq. dielectric constant tensor:
#      x y z
#    x 1.934590 0.000000 -0.008090 
#    y 0.000000 1.927040 0.000000 
#    z -0.008090 0.000000 1.958070 
# 
# From -- ./inp_files/9549.got.cif
#   From: 2010.03.12/outbox.cif.g09.slc.cpg/sg4_5_cif.got.tgz:9549.got - 2010.03.31 09:31:35.
