data_PCOD8047011
_publ_section_title
;
Structure prediction by ZEFSAII (Michael W. Deem and Ramdas Pophale) SiO2 
 PCOD8047011
Probable space group: P 21
;
_chemical_formula_sum "Si O2"
_cell_formula_units_Z 16
_cell_length_a 11.173043
_cell_length_b 10.292095
_cell_length_c 6.576480
_cell_angle_alpha 90.000000
_cell_angle_beta 100.347486
_cell_angle_gamma 90.000000
_cell_volume 743.956514
_symmetry_space_group_name_H-M "P 21"
_symmetry_group_IT_number 4
_symmetry_cell_setting 'monoclinic'
loop_
_space_group_symop_operation_xyz
x,y,z
-x,1/2+y,-z
loop_
_atom_site_type_symbol
_atom_site_label
_atom_site_fract_x
_atom_site_fract_y
_atom_site_fract_z
Si Si1 0.789386 0.447610 0.160045
Si Si2 0.204633 0.301414 0.504549
Si Si3 0.863444 0.221457 0.911938
Si Si4 0.708279 0.976476 0.794697
Si Si5 0.948601 0.383891 0.593596
Si Si6 0.102478 0.118461 0.148706
Si Si7 0.617836 0.800019 0.085490
Si Si8 0.471901 0.027467 0.912685
O O1 0.883722 0.435959 0.372168
O O2 0.656069 0.473726 0.210517
O O3 0.784237 0.317375 0.025759
O O4 0.824389 0.569319 0.026819
O O5 0.250515 0.435317 0.416742
O O6 0.192343 0.187446 0.335313
O O7 0.309311 0.258623 0.691546
O O8 0.078927 0.325948 0.579723
O O9 0.803227 0.081064 0.906303
O O10 0.869456 0.270970 0.679719
O O11 0.999198 0.218615 0.045542
O O12 0.570114 0.034030 0.756453
O O13 0.713224 0.847313 0.940745
O O14 0.964528 0.498919 0.760523
O O15 0.543384 0.671006 0.993676
O O16 0.525075 0.922439 0.093493
#
# Coordination Sequence:
#
# PCOD8047011 Si02
#       8
#     2   2   2   2   2   2   2   2
#     4  11  23  45  69  99 143 180 236 291 350 425
#     4  12  24  43  71 105 134 187 225 293 355 423
#     4  11  24  42  66 103 142 180 232 292 352 421
#     4  10  25  44  66 100 138 182 233 285 344 416
#     4  11  26  41  70 104 136 186 228 290 363 426
#     4  11  25  40  70 101 141 177 231 294 358 416
#     4  10  24  46  71  97 142 182 243 286 352 420
#     4  10  23  47  71  97 138 192 228 295 348 409
#
# _framework density 21.506633999999998
#
# number of rings (size 3 to 8) (size 9 to 14) (size 15 to 20)
#    0.750    0.500    1.250    3.750    8.750    1.000 
#   11.250    0.000    0.000    0.000    0.000    0.000 
#    0.000    0.000    0.000    0.000    0.000    0.000 
#
# Total GULP energy -198358.880858 kJ/mol
# GULP energy per Si atom -12397.430054 kJ/mol
# Density = 2.145768 g / cm^3
# Si number density = 21.506634 Si / 1000 Ang^3
#
#
#
# Elastic Constant Matrix: (Units=GPa)
#
#
# Indices 1 2 3 4 5 6 
#
# 1 94.1540 41.0958 36.2442 0.0000 3.2936 0.0000
# 2 41.0958 110.2270 35.2034 0.0000 4.5843 0.0000
# 3 36.2442 35.2034 88.6621 0.0000 4.8807 0.0000
# 4 0.0000 0.0000 0.0000 35.4081 0.0000 1.8351
# 5 3.2936 4.5843 4.8807 0.0000 32.9899 0.0000
# 6 0.0000 0.0000 0.0000 1.8351 0.0000 39.9417
#
#
#
# Elastic Compliance Matrix: (Units=1/GPa)
#
#
# Indices 1 2 3 4 5 6 
#
# 1 0.013905 -0.003851 -0.004142 0.000000 -0.000240 0.000000
# 2 -0.003851 0.011480 -0.002941 0.000000 -0.000776 0.000000
# 3 -0.004142 -0.002941 0.014210 0.000000 -0.001280 0.000000
# 4 0.000000 0.000000 0.000000 0.028310 0.000000 -0.001301
# 5 -0.000240 -0.000776 -0.001280 0.000000 0.030633 0.000000
# 6 0.000000 0.000000 0.000000 -0.001301 0.000000 0.025096
#
#
# Mechanical properties :
#
#
# Convention : Reuss Voigt Hill
#
# Bulk Modulus (GPa) = 56.41300 57.57000 56.99150
# Shear Modulus (GPa) = 33.02290 33.70125 33.36208
#
# Velocity S-wave (km/s) = 3.92277 3.96285 3.94286
# Velocity P-wave (km/s) = 6.84141 6.91126 6.87642
#
# Compressibility (1/GPa) = 0.01772641
#
# Stress axis : x y z
#
# Youngs Moduli (GPa) = 71.91852 87.11133 70.37285
#
# Poissons Ratio (x) = 0.33549 0.29146
# Poissons Ratio (y) = 0.27698 0.20696
# Poissons Ratio (z) = 0.29786 0.25619
#
# Static dielectric constant tensor:
#      x y z
#    x 3.870120 0.000000 -0.164770 
#    y 0.000000 3.999140 0.000000 
#    z -0.164770 0.000000 3.659740 
# 
# 
# High freq. dielectric constant tensor:
#      x y z
#    x 1.847560 0.000000 -0.005860 
#    y 0.000000 1.860620 0.000000 
#    z -0.005860 0.000000 1.820770 
# 
# From -- ./inp_files/2878.got.cif
#   From: 2010.03.12/outbox.cif.g09.slc.cpg/sg4_2_cif.got.tgz:2878.got - 2010.03.31 09:31:35.
