data_PCOD8047808
_publ_section_title
;
Structure prediction by ZEFSAII (Michael W. Deem and Ramdas Pophale) SiO2 
 PCOD8047808
Probable space group: P 21
;
_chemical_formula_sum "Si O2"
_cell_formula_units_Z 12
_cell_length_a 10.805578
_cell_length_b 9.059714
_cell_length_c 4.970184
_cell_angle_alpha 90.000000
_cell_angle_beta 87.770170
_cell_angle_gamma 90.000000
_cell_volume 486.189956
_symmetry_space_group_name_H-M "P 21"
_symmetry_group_IT_number 4
_symmetry_cell_setting 'monoclinic'
loop_
_space_group_symop_operation_xyz
x,y,z
-x,1/2+y,-z
loop_
_atom_site_type_symbol
_atom_site_label
_atom_site_fract_x
_atom_site_fract_y
_atom_site_fract_z
Si Si1 0.237436 0.043790 0.186753
Si Si2 0.596652 0.289800 0.679342
Si Si3 0.090987 0.259396 0.504566
Si Si4 0.700851 0.137727 0.165542
Si Si5 0.069338 0.804430 0.967371
Si Si6 0.322221 0.313274 0.806289
O O1 0.135213 0.095552 0.413510
O O2 0.344216 0.955573 0.342907
O O3 0.293182 0.184279 0.022206
O O4 0.161611 0.942750 0.985016
O O5 0.660776 0.174769 0.473250
O O6 0.450266 0.284387 0.638489
O O7 0.622343 0.245462 0.983520
O O8 0.215779 0.339048 0.592379
O O9 0.035147 0.340743 0.245785
O O10 0.990069 0.254839 0.746906
O O11 0.848669 0.164751 0.134331
O O12 0.668085 0.974317 0.061075
#
# Coordination Sequence:
#
# PCOD8047808 Si02
#       6
#     2   2   2   2   2   2
#     4  11  28  51  78 114 150 211 250 318 386 459
#     4  11  28  51  78 108 160 198 258 316 388 452
#     4  12  28  45  77 111 148 197 253 308 379 456
#     4  11  28  50  74 113 150 204 252 324 378 453
#     4  11  27  49  75 107 159 193 254 313 390 450
#     4  12  29  46  82 113 153 199 265 311 385 456
#
# _framework density 24.681713999999999
#
# number of rings (size 3 to 8) (size 9 to 14) (size 15 to 20)
#    0.000    0.667    1.667    3.000   16.333    1.333 
#    3.000    0.000    0.000    0.000    0.000    0.000 
#    0.000    0.000    0.000    0.000    0.000    0.000 
#
# Total GULP energy -148787.344714 kJ/mol
# GULP energy per Si atom -12398.945393 kJ/mol
# Density = 2.462554 g / cm^3
# Si number density = 24.681714 Si / 1000 Ang^3
#
#
#
# Elastic Constant Matrix: (Units=GPa)
#
#
# Indices 1 2 3 4 5 6 
#
# 1 140.0498 54.8026 37.5426 0.0000 -22.6092 0.0000
# 2 54.8026 141.2617 42.6032 0.0000 -21.8878 0.0000
# 3 37.5426 42.6032 113.1530 0.0000 -19.8124 0.0000
# 4 0.0000 0.0000 0.0000 32.9850 0.0000 -7.2038
# 5 -22.6092 -21.8878 -19.8124 0.0000 28.3601 0.0000
# 6 0.0000 0.0000 0.0000 -7.2038 0.0000 33.3900
#
#
#
# Elastic Compliance Matrix: (Units=1/GPa)
#
#
# Indices 1 2 3 4 5 6 
#
# 1 0.009188 -0.002467 -0.001334 0.000000 0.004489 0.000000
# 2 -0.002467 0.009220 -0.001995 0.000000 0.003755 0.000000
# 3 -0.001334 -0.001995 0.010910 0.000000 0.005019 0.000000
# 4 0.000000 0.000000 0.000000 0.031816 0.000000 0.006864
# 5 0.004489 0.003755 0.005019 0.000000 0.045244 0.000000
# 6 0.000000 0.000000 0.000000 0.006864 0.000000 0.031430
#
#
# Mechanical properties :
#
#
# Convention : Reuss Voigt Hill
#
# Bulk Modulus (GPa) = 56.41359 73.81793 65.11576
# Shear Modulus (GPa) = 32.19424 36.24809 34.22116
#
# Velocity S-wave (km/s) = 3.61553 3.83642 3.72761
# Velocity P-wave (km/s) = 6.35102 7.04251 6.70569
#
# Compressibility (1/GPa) = 0.01772623
#
# Stress axis : x y z
#
# Youngs Moduli (GPa) = 108.84052 108.46451 91.65832
#
# Poissons Ratio (x) = 0.26754 0.12224
# Poissons Ratio (y) = 0.26847 0.18289
# Poissons Ratio (z) = 0.14515 0.21643
#
# Static dielectric constant tensor:
#      x y z
#    x 4.770110 0.000000 -0.013810 
#    y 0.000000 4.489040 0.000000 
#    z -0.013810 0.000000 4.303930 
# 
# 
# High freq. dielectric constant tensor:
#      x y z
#    x 1.998630 0.000000 -0.002380 
#    y 0.000000 1.978600 0.000000 
#    z -0.002380 0.000000 1.980710 
# 
# From -- ./inp_files/2545.got.cif
#   From: 2010.03.12/outbox.cif.g09.slc.cpg/sg4_2_cif.got.tgz:2545.got - 2010.03.31 09:31:35.
