data_PCOD8047922
_publ_section_title
;
Structure prediction by ZEFSAII (Michael W. Deem and Ramdas Pophale) SiO2 
 PCOD8047922
Probable space group: P 21
;
_chemical_formula_sum "Si O2"
_cell_formula_units_Z 14
_cell_length_a 14.438648
_cell_length_b 5.493356
_cell_length_c 9.790327
_cell_angle_alpha 90.000000
_cell_angle_beta 46.453917
_cell_angle_gamma 90.000000
_cell_volume 562.849047
_symmetry_space_group_name_H-M "P 21"
_symmetry_group_IT_number 4
_symmetry_cell_setting 'monoclinic'
loop_
_space_group_symop_operation_xyz
x,y,z
-x,1/2+y,-z
loop_
_atom_site_type_symbol
_atom_site_label
_atom_site_fract_x
_atom_site_fract_y
_atom_site_fract_z
Si Si1 0.489301 0.826760 0.430221
Si Si2 0.929619 0.515834 0.049303
Si Si3 0.123469 0.978948 0.205209
Si Si4 0.740212 0.491479 0.470145
Si Si5 0.145027 0.687030 0.434732
Si Si6 0.396080 0.393746 0.233307
Si Si7 0.381822 0.232608 0.952944
O O1 0.523761 0.577293 0.472115
O O2 0.350262 0.776774 0.499497
O O3 0.600106 0.885849 0.204539
O O4 0.817799 0.605648 0.263972
O O5 0.880063 0.427314 0.951848
O O6 0.986939 0.263121 0.054484
O O7 0.988349 0.060022 0.401745
O O8 0.158537 0.739106 0.258653
O O9 0.232914 0.174607 0.126262
O O10 0.844611 0.428012 0.481066
O O11 0.632269 0.660133 0.646902
O O12 0.264549 0.540757 0.369493
O O13 0.523341 0.504353 0.171097
O O14 0.434207 0.357270 0.036101
#
# Coordination Sequence:
#
# PCOD8047922 Si02
#       7
#     2   2   2   2   2   2   2
#     4  12  28  50  77 114 161 211 265 328 402 483
#     4  12  29  50  79 114 160 211 264 327 402 482
#     4  12  27  48  77 119 151 204 275 329 399 477
#     4  12  26  51  78 109 162 215 259 333 407 480
#     4  12  26  50  76 113 159 207 263 337 407 472
#     4  12  25  49  80 114 159 207 266 329 418 471
#     4  12  25  46  77 117 150 203 270 333 391 485
#
# _framework density 24.873456000000001
#
# number of rings (size 3 to 8) (size 9 to 14) (size 15 to 20)
#    0.000    0.000    4.286    5.143    2.000    4.571 
#    0.000    0.000    0.000    0.000    0.000    0.000 
#    0.000    0.000    0.000    0.000    0.000    0.000 
#
# Total GULP energy -173483.578752 kJ/mol
# GULP energy per Si atom -12391.684197 kJ/mol
# Density = 2.481684 g / cm^3
# Si number density = 24.873456 Si / 1000 Ang^3
#
#
#
# Elastic Constant Matrix: (Units=GPa)
#
#
# Indices 1 2 3 4 5 6 
#
# 1 115.2383 22.2186 21.0512 0.0000 6.8364 0.0000
# 2 22.2186 74.6785 13.4846 0.0000 5.9436 0.0000
# 3 21.0512 13.4846 145.9226 0.0000 25.3211 0.0000
# 4 0.0000 0.0000 0.0000 27.1975 0.0000 0.7358
# 5 6.8364 5.9436 25.3211 0.0000 48.8434 0.0000
# 6 0.0000 0.0000 0.0000 0.7358 0.0000 21.4077
#
#
#
# Elastic Compliance Matrix: (Units=1/GPa)
#
#
# Indices 1 2 3 4 5 6 
#
# 1 0.009390 -0.002570 -0.001037 0.000000 -0.000464 0.000000
# 2 -0.002570 0.014376 -0.000787 0.000000 -0.000981 0.000000
# 3 -0.001037 -0.000787 0.007729 0.000000 -0.003766 0.000000
# 4 0.000000 0.000000 0.000000 0.036802 0.000000 -0.001265
# 5 -0.000464 -0.000981 -0.003766 0.000000 0.022610 0.000000
# 6 0.000000 0.000000 0.000000 -0.001265 0.000000 0.046756
#
#
# Mechanical properties :
#
#
# Convention : Reuss Voigt Hill
#
# Bulk Modulus (GPa) = 44.03941 49.92758 46.98350
# Shear Modulus (GPa) = 32.46357 38.09538 35.27947
#
# Velocity S-wave (km/s) = 3.61660 3.91777 3.77020
# Velocity P-wave (km/s) = 5.93158 6.37036 6.15488
#
# Compressibility (1/GPa) = 0.02270693
#
# Stress axis : x y z
#
# Youngs Moduli (GPa) = 106.49616 69.56248 129.38765
#
# Poissons Ratio (x) = 0.17875 0.13413
# Poissons Ratio (y) = 0.27365 0.10188
# Poissons Ratio (z) = 0.11040 0.05478
#
# Static dielectric constant tensor:
#      x y z
#    x 4.617220 0.000000 0.168920 
#    y 0.000000 4.273850 0.000000 
#    z 0.168920 0.000000 4.721170 
# 
# 
# High freq. dielectric constant tensor:
#      x y z
#    x 2.007030 0.000000 0.009890 
#    y 0.000000 1.967550 0.000000 
#    z 0.009890 0.000000 2.015200 
# 
# From -- ./inp_files/8750.got.cif
#   From: 2010.03.12/outbox.cif.g09.slc.cpg/sg4_5_cif.got.tgz:8750.got - 2010.03.31 09:31:35.
