data_PCOD8047474
_publ_section_title
;
Structure prediction by ZEFSAII (Michael W. Deem and Ramdas Pophale) SiO2 
 PCOD8047474
Probable space group: P 21
;
_chemical_formula_sum "Si O2"
_cell_formula_units_Z 16
_cell_length_a 6.709053
_cell_length_b 9.432700
_cell_length_c 18.033104
_cell_angle_alpha 90.000000
_cell_angle_beta 41.296567
_cell_angle_gamma 90.000000
_cell_volume 753.152885
_symmetry_space_group_name_H-M "P 21"
_symmetry_group_IT_number 4
_symmetry_cell_setting 'monoclinic'
loop_
_space_group_symop_operation_xyz
x,y,z
-x,1/2+y,-z
loop_
_atom_site_type_symbol
_atom_site_label
_atom_site_fract_x
_atom_site_fract_y
_atom_site_fract_z
Si Si1 0.103039 0.436140 0.420093
Si Si2 0.778953 0.502671 0.246005
Si Si3 0.282941 0.144296 0.983344
Si Si4 0.896584 0.954474 0.992842
Si Si5 0.070618 0.743830 0.237288
Si Si6 0.161093 0.230128 0.537028
Si Si7 0.855720 0.274370 0.349155
Si Si8 0.238833 0.049455 0.161458
O O1 0.448835 0.474222 0.306119
O O2 0.074871 0.356143 0.505778
O O3 0.908884 0.578842 0.480329
O O4 0.984235 0.336911 0.388556
O O5 0.881602 0.387169 0.276665
O O6 0.015120 0.503674 0.113530
O O7 0.788178 0.657294 0.282225
O O8 0.631946 0.151496 0.863341
O O9 0.111723 0.284066 0.001612
O O10 0.245164 0.131453 0.081989
O O11 0.136540 0.006527 0.986376
O O12 0.571780 0.022967 0.101216
O O13 0.037565 0.757237 0.334688
O O14 0.078800 0.896911 0.196185
O O15 0.512905 0.228460 0.459081
O O16 0.053225 0.137928 0.273446
#
# Coordination Sequence:
#
# PCOD8047474 Si02
#       8
#     2   2   2   2   2   2   2   2
#     4  11  27  45  73 102 138 183 234 288 345 423
#     4  11  23  44  68 100 134 185 225 278 352 410
#     4  11  25  45  64 105 135 183 226 284 350 407
#     4  11  25  40  69  96 138 179 228 278 346 414
#     4  11  25  46  72 100 141 182 234 288 343 413
#     4  11  27  46  70 106 136 188 232 287 352 407
#     4  11  26  46  71  97 143 184 225 290 350 412
#     4  11  26  44  69 102 139 180 230 287 344 418
#
# _framework density 21.244025000000001
#
# number of rings (size 3 to 8) (size 9 to 14) (size 15 to 20)
#    0.000    1.000    3.750    0.750    8.750    0.000 
#    2.250    0.000    0.000    0.000    0.000    0.000 
#    0.000    0.000    0.000    0.000    0.000    0.000 
#
# Total GULP energy -198509.332628 kJ/mol
# GULP energy per Si atom -12406.833289 kJ/mol
# Density = 2.119567 g / cm^3
# Si number density = 21.244025 Si / 1000 Ang^3
#
#
#
# Elastic Constant Matrix: (Units=GPa)
#
#
# Indices 1 2 3 4 5 6 
#
# 1 90.6925 41.7608 47.5101 0.0000 -8.9269 0.0000
# 2 41.7608 114.3432 48.9690 0.0000 -19.4262 0.0000
# 3 47.5101 48.9690 96.4484 0.0000 0.6862 0.0000
# 4 0.0000 0.0000 0.0000 37.5702 0.0000 -2.1112
# 5 -8.9269 -19.4262 0.6862 0.0000 23.1479 0.0000
# 6 0.0000 0.0000 0.0000 -2.1112 0.0000 44.9767
#
#
#
# Elastic Compliance Matrix: (Units=1/GPa)
#
#
# Indices 1 2 3 4 5 6 
#
# 1 0.016057 -0.002151 -0.006850 0.000000 0.004590 0.000000
# 2 -0.002151 0.014065 -0.006161 0.000000 0.011157 0.000000
# 3 -0.006850 -0.006161 0.016930 0.000000 -0.008314 0.000000
# 4 0.000000 0.000000 0.000000 0.026687 0.000000 0.001253
# 5 0.004590 0.011157 -0.008314 0.000000 0.054581 0.000000
# 6 0.000000 0.000000 0.000000 0.001253 0.000000 0.022293
#
#
# Mechanical properties :
#
#
# Convention : Reuss Voigt Hill
#
# Bulk Modulus (GPa) = 59.78071 64.21821 61.99946
# Shear Modulus (GPa) = 26.80778 32.02190 29.41484
#
# Velocity S-wave (km/s) = 3.55617 3.88666 3.72508
# Velocity P-wave (km/s) = 6.71289 7.10182 6.91010
#
# Compressibility (1/GPa) = 0.01672780
#
# Stress axis : x y z
#
# Youngs Moduli (GPa) = 62.27788 71.09736 59.06681
#
# Poissons Ratio (x) = 0.15291 0.40463
# Poissons Ratio (y) = 0.13395 0.36392
# Poissons Ratio (z) = 0.42662 0.43804
#
# Static dielectric constant tensor:
#      x y z
#    x 3.803360 0.000000 -0.066170 
#    y 0.000000 3.959050 0.000000 
#    z -0.066170 0.000000 3.846010 
# 
# 
# High freq. dielectric constant tensor:
#      x y z
#    x 1.833500 0.000000 -0.000800 
#    y 0.000000 1.845750 0.000000 
#    z -0.000800 0.000000 1.841790 
# 
# From -- ./inp_files/2567.got.cif
#   From: 2010.03.12/outbox.cif.g09.slc.cpg/sg4_2_cif.got.tgz:2567.got - 2010.03.31 09:31:35.
