data_PCOD8047942
_publ_section_title
;
Structure prediction by ZEFSAII (Michael W. Deem and Ramdas Pophale) SiO2 
 PCOD8047942
Probable space group: P 21
;
_chemical_formula_sum "Si O2"
_cell_formula_units_Z 14
_cell_length_a 11.317769
_cell_length_b 8.338066
_cell_length_c 9.246977
_cell_angle_alpha 90.000000
_cell_angle_beta 38.658067
_cell_angle_gamma 90.000000
_cell_volume 545.101649
_symmetry_space_group_name_H-M "P 21"
_symmetry_group_IT_number 4
_symmetry_cell_setting 'monoclinic'
loop_
_space_group_symop_operation_xyz
x,y,z
-x,1/2+y,-z
loop_
_atom_site_type_symbol
_atom_site_label
_atom_site_fract_x
_atom_site_fract_y
_atom_site_fract_z
Si Si1 0.564059 0.836700 0.813208
Si Si2 0.045042 0.533386 0.885551
Si Si3 0.723706 0.077356 0.884241
Si Si4 0.843683 0.585669 0.542616
Si Si5 0.349485 0.383509 0.772621
Si Si6 0.782835 0.377258 0.346284
Si Si7 0.262156 0.061166 0.025726
O O1 0.719076 0.725592 0.582670
O O2 0.679746 0.926054 0.827122
O O3 0.453019 0.957551 0.810977
O O4 0.403139 0.727237 0.042909
O O5 0.219809 0.415514 0.755067
O O6 0.117792 0.713065 0.792882
O O7 0.888290 0.523576 0.163556
O O8 0.930059 0.476811 0.851330
O O9 0.938645 0.132705 0.658887
O O10 0.679127 0.035566 0.093920
O O11 0.809563 0.417165 0.491328
O O12 0.753683 0.575624 0.787550
O O13 0.563497 0.368299 0.513800
O O14 0.280023 0.228163 0.925193
#
# Coordination Sequence:
#
# PCOD8047942 Si02
#       7
#     2   2   2   2   2   2   2
#     4  12  26  47  78 122 167 215 277 352 422 497
#     4  12  29  55  83 123 173 226 285 346 425 521
#     4  12  25  48  81 122 170 217 284 344 428 507
#     4  12  27  51  85 121 171 220 282 364 427 499
#     4  12  26  56  82 122 171 226 283 351 418 514
#     4  12  29  55  87 118 172 226 289 354 427 505
#     4  12  28  52  84 126 172 220 286 355 425 507
#
# _framework density 25.683284
#
# number of rings (size 3 to 8) (size 9 to 14) (size 15 to 20)
#    0.000    0.000    7.143    0.000    6.000    2.286 
#    2.571    0.000    0.000    0.000    0.000    0.000 
#    0.000    0.000    0.000    0.000    0.000    0.000 
#
# Total GULP energy -173588.424198 kJ/mol
# GULP energy per Si atom -12399.173157 kJ/mol
# Density = 2.562483 g / cm^3
# Si number density = 25.683284 Si / 1000 Ang^3
#
#
#
# Elastic Constant Matrix: (Units=GPa)
#
#
# Indices 1 2 3 4 5 6 
#
# 1 173.7472 67.9852 72.3183 0.0000 -36.1727 0.0000
# 2 67.9852 134.9907 61.7322 0.0000 -7.8174 0.0000
# 3 72.3183 61.7322 126.8283 0.0000 -42.9779 0.0000
# 4 0.0000 0.0000 0.0000 35.0301 0.0000 -2.2312
# 5 -36.1727 -7.8174 -42.9779 0.0000 56.7098 0.0000
# 6 0.0000 0.0000 0.0000 -2.2312 0.0000 45.2298
#
#
#
# Elastic Compliance Matrix: (Units=1/GPa)
#
#
# Indices 1 2 3 4 5 6 
#
# 1 0.008610 -0.003108 -0.002262 0.000000 0.003350 0.000000
# 2 -0.003108 0.011036 -0.005053 0.000000 -0.004291 0.000000
# 3 -0.002262 -0.005053 0.014679 0.000000 0.008985 0.000000
# 4 0.000000 0.000000 0.000000 0.028637 0.000000 0.001413
# 5 0.003350 -0.004291 0.008985 0.000000 0.025988 0.000000
# 6 0.000000 0.000000 0.000000 0.001413 0.000000 0.022179
#
#
# Mechanical properties :
#
#
# Convention : Reuss Voigt Hill
#
# Bulk Modulus (GPa) = 74.19248 93.29307 83.74277
# Shear Modulus (GPa) = 36.63862 42.96264 39.80063
#
# Velocity S-wave (km/s) = 3.78107 4.09441 3.94086
# Velocity P-wave (km/s) = 6.92908 7.66522 7.30643
#
# Compressibility (1/GPa) = 0.01347846
#
# Stress axis : x y z
#
# Youngs Moduli (GPa) = 116.13777 90.61532 68.12590
#
# Poissons Ratio (x) = 0.28165 0.15409
# Poissons Ratio (y) = 0.36098 0.34426
# Poissons Ratio (z) = 0.26268 0.45790
#
# Static dielectric constant tensor:
#      x y z
#    x 5.178110 0.000000 -0.325520 
#    y 0.000000 4.661750 0.000000 
#    z -0.325520 0.000000 4.496780 
# 
# 
# High freq. dielectric constant tensor:
#      x y z
#    x 2.047250 0.000000 -0.026770 
#    y 0.000000 2.025720 0.000000 
#    z -0.026770 0.000000 2.017040 
# 
# From -- ./inp_files/7915.got.cif
#   From: 2010.03.12/outbox.cif.g09.slc.cpg/sg4_4_cif.got.tgz:7915.got - 2010.03.31 09:31:35.
