data_PCOD8047995
_publ_section_title
;
Structure prediction by ZEFSAII (Michael W. Deem and Ramdas Pophale) SiO2 
 PCOD8047995
Probable space group: P 21
;
_chemical_formula_sum "Si O2"
_cell_formula_units_Z 14
_cell_length_a 11.689480
_cell_length_b 5.209337
_cell_length_c 8.986005
_cell_angle_alpha 90.000000
_cell_angle_beta 98.966316
_cell_angle_gamma 90.000000
_cell_volume 540.511067
_symmetry_space_group_name_H-M "P 21"
_symmetry_group_IT_number 4
_symmetry_cell_setting 'monoclinic'
loop_
_space_group_symop_operation_xyz
x,y,z
-x,1/2+y,-z
loop_
_atom_site_type_symbol
_atom_site_label
_atom_site_fract_x
_atom_site_fract_y
_atom_site_fract_z
Si Si1 0.156692 0.672990 0.116442
Si Si2 0.308826 0.326330 0.862820
Si Si3 0.624068 0.808298 0.814141
Si Si4 0.936260 0.648743 0.462121
Si Si5 0.903731 0.562296 0.127215
Si Si6 0.251593 0.964835 0.385953
Si Si7 0.368221 0.840119 0.697647
O O1 0.272283 0.509857 0.161900
O O2 0.151561 0.815362 0.275517
O O3 0.029945 0.544361 0.075711
O O4 0.175761 0.859068 0.978799
O O5 0.173454 0.331128 0.900788
O O6 0.343952 0.588503 0.790903
O O7 0.304401 0.091269 0.746998
O O8 0.396375 0.247547 0.014417
O O9 0.658994 0.569839 0.718390
O O10 0.504244 0.910712 0.722316
O O11 0.913784 0.497860 0.302724
O O12 0.819370 0.680580 0.536338
O O13 0.019239 0.437212 0.558255
O O14 0.323355 0.792542 0.519775
#
# Coordination Sequence:
#
# PCOD8047995 Si02
#       7
#     2   2   2   2   2   2   2
#     4  12  28  49  79 122 158 220 260 349 404 503
#     4  12  27  52  80 119 154 219 268 338 401 497
#     4  12  29  52  79 113 167 207 282 330 407 489
#     4  12  28  48  78 112 161 208 260 329 405 491
#     4  12  26  49  83 116 169 206 277 331 425 489
#     4  12  29  48  76 118 156 213 270 333 409 476
#     4  12  31  50  85 114 163 215 277 332 413 467
#
# _framework density 25.901415
#
# number of rings (size 3 to 8) (size 9 to 14) (size 15 to 20)
#    0.000    0.000    4.286    3.429   10.000    0.000 
#    0.000    0.000    0.000    0.000    0.000    0.000 
#    0.000    0.000    0.000    0.000    0.000    0.000 
#
# Total GULP energy -173460.432867 kJ/mol
# GULP energy per Si atom -12390.030919 kJ/mol
# Density = 2.584246 g / cm^3
# Si number density = 25.901415 Si / 1000 Ang^3
#
#
#
# Elastic Constant Matrix: (Units=GPa)
#
#
# Indices 1 2 3 4 5 6 
#
# 1 117.3714 25.1540 5.8855 0.0000 12.0512 0.0000
# 2 25.1540 97.0065 14.9161 0.0000 -5.9517 0.0000
# 3 5.8855 14.9161 143.7777 0.0000 6.0606 0.0000
# 4 0.0000 0.0000 0.0000 33.0998 0.0000 -0.8493
# 5 12.0512 -5.9517 6.0606 0.0000 35.0401 0.0000
# 6 0.0000 0.0000 0.0000 -0.8493 0.0000 42.2157
#
#
#
# Elastic Compliance Matrix: (Units=1/GPa)
#
#
# Indices 1 2 3 4 5 6 
#
# 1 0.009477 -0.002694 0.000049 0.000000 -0.003725 0.000000
# 2 -0.002694 0.011380 -0.001200 0.000000 0.003067 0.000000
# 3 0.000049 -0.001200 0.007139 0.000000 -0.001455 0.000000
# 4 0.000000 0.000000 0.000000 0.030227 0.000000 0.000608
# 5 -0.003725 0.003067 -0.001455 0.000000 0.030593 0.000000
# 6 0.000000 0.000000 0.000000 0.000608 0.000000 0.023700
#
#
# Mechanical properties :
#
#
# Convention : Reuss Voigt Hill
#
# Bulk Modulus (GPa) = 49.24468 50.00742 49.62605
# Shear Modulus (GPa) = 39.37818 42.88445 41.13131
#
# Velocity S-wave (km/s) = 3.90335 4.07342 3.98929
# Velocity P-wave (km/s) = 6.27443 6.43991 6.35770
#
# Compressibility (1/GPa) = 0.02030676
#
# Stress axis : x y z
#
# Youngs Moduli (GPa) = 105.51545 87.87641 140.07587
#
# Poissons Ratio (x) = 0.23670 -0.00680
# Poissons Ratio (y) = 0.28421 0.16803
# Poissons Ratio (z) = -0.00512 0.10541
#
# Static dielectric constant tensor:
#      x y z
#    x 4.762640 0.000000 0.184430 
#    y 0.000000 4.315400 0.000000 
#    z 0.184430 0.000000 5.538030 
# 
# 
# High freq. dielectric constant tensor:
#      x y z
#    x 2.047980 0.000000 0.004740 
#    y 0.000000 2.007720 0.000000 
#    z 0.004740 0.000000 2.069140 
# 
# From -- ./inp_files/7406.got.cif
#   From: 2010.03.12/outbox.cif.g09.slc.cpg/sg4_4_cif.got.tgz:7406.got - 2010.03.31 09:31:35.
