data_PCOD8047724
_publ_section_title
;
Structure prediction by ZEFSAII (Michael W. Deem and Ramdas Pophale) SiO2 
 PCOD8047724
Probable space group: P 21
;
_chemical_formula_sum "Si O2"
_cell_formula_units_Z 14
_cell_length_a 8.288242
_cell_length_b 13.588517
_cell_length_c 4.766851
_cell_angle_alpha 90.000000
_cell_angle_beta 103.340660
_cell_angle_gamma 90.000000
_cell_volume 522.379065
_symmetry_space_group_name_H-M "P 21"
_symmetry_group_IT_number 4
_symmetry_cell_setting 'monoclinic'
loop_
_space_group_symop_operation_xyz
x,y,z
-x,1/2+y,-z
loop_
_atom_site_type_symbol
_atom_site_label
_atom_site_fract_x
_atom_site_fract_y
_atom_site_fract_z
Si Si1 0.302822 0.531500 0.115686
Si Si2 0.138190 0.899204 0.422997
Si Si3 0.985350 0.097283 0.375474
Si Si4 0.467231 0.208460 0.713223
Si Si5 0.059809 0.381065 0.176062
Si Si6 0.487288 0.841070 0.774533
Si Si7 0.860021 0.693547 0.091177
O O1 0.407070 0.618391 0.305542
O O2 0.421484 0.440103 0.086856
O O3 0.166441 0.481717 0.270552
O O4 0.202490 0.572813 0.803770
O O5 0.008301 0.832537 0.562085
O O6 0.324842 0.869782 0.539340
O O7 0.103530 0.900922 0.079019
O O8 0.088320 0.004237 0.537435
O O9 0.982320 0.174781 0.634748
O O10 0.104238 0.132197 0.171417
O O11 0.416332 0.267956 0.408889
O O12 0.305053 0.164514 0.802708
O O13 0.559328 0.281536 0.965606
O O14 0.164447 0.306560 0.020334
#
# Coordination Sequence:
#
# PCOD8047724 Si02
#       7
#     2   2   2   2   2   2   2
#     4  11  28  51  75 114 155 200 261 323 385 464
#     4  11  25  47  72 109 150 200 249 312 383 461
#     4  11  26  46  79 109 147 203 259 320 384 462
#     4  12  29  48  79 113 154 207 256 319 394 470
#     4  11  25  46  74 107 155 198 252 323 380 453
#     4  12  28  50  75 114 155 202 255 323 397 455
#     4  12  25  48  74 114 150 202 258 322 387 461
#
# _framework density 26.800464000000002
#
# number of rings (size 3 to 8) (size 9 to 14) (size 15 to 20)
#    0.000    0.571    1.429    5.143    8.000    5.714 
#    0.000    0.000    0.000    0.000    0.000    0.000 
#    0.000    0.000    0.000    0.000    0.000    0.000 
#
# Total GULP energy -173455.152425 kJ/mol
# GULP energy per Si atom -12389.653745 kJ/mol
# Density = 2.673947 g / cm^3
# Si number density = 26.800464 Si / 1000 Ang^3
#
#
#
# Elastic Constant Matrix: (Units=GPa)
#
#
# Indices 1 2 3 4 5 6 
#
# 1 85.5712 16.0115 5.8217 0.0000 5.0543 0.0000
# 2 16.0115 107.2821 26.6784 0.0000 10.0833 0.0000
# 3 5.8217 26.6784 88.3854 0.0000 -5.5582 0.0000
# 4 0.0000 0.0000 0.0000 34.2307 0.0000 10.9289
# 5 5.0543 10.0833 -5.5582 0.0000 44.5006 0.0000
# 6 0.0000 0.0000 0.0000 10.9289 0.0000 41.3375
#
#
#
# Elastic Compliance Matrix: (Units=1/GPa)
#
#
# Indices 1 2 3 4 5 6 
#
# 1 0.012075 -0.001610 -0.000376 0.000000 -0.001054 0.000000
# 2 -0.001610 0.010621 -0.003265 0.000000 -0.002632 0.000000
# 3 -0.000376 -0.003265 0.012472 0.000000 0.002340 0.000000
# 4 0.000000 0.000000 0.000000 0.031907 0.000000 -0.008436
# 5 -0.001054 -0.002632 0.002340 0.000000 0.023480 0.000000
# 6 0.000000 0.000000 0.000000 -0.008436 0.000000 0.026421
#
#
# Mechanical properties :
#
#
# Convention : Reuss Voigt Hill
#
# Bulk Modulus (GPa) = 40.54140 42.02909 41.28524
# Shear Modulus (GPa) = 36.84626 39.52891 38.18759
#
# Velocity S-wave (km/s) = 3.71190 3.84465 3.77886
# Velocity P-wave (km/s) = 5.79059 5.95187 5.87178
#
# Compressibility (1/GPa) = 0.02466614
#
# Stress axis : x y z
#
# Youngs Moduli (GPa) = 82.81454 94.15492 80.18224
#
# Poissons Ratio (x) = 0.15156 0.03013
# Poissons Ratio (y) = 0.13331 0.26182
# Poissons Ratio (z) = 0.03112 0.30744
#
# Static dielectric constant tensor:
#      x y z
#    x 4.513880 0.000000 0.098980 
#    y 0.000000 5.151020 0.000000 
#    z 0.098980 0.000000 4.898190 
# 
# 
# High freq. dielectric constant tensor:
#      x y z
#    x 2.068000 0.000000 0.003110 
#    y 0.000000 2.089660 0.000000 
#    z 0.003110 0.000000 2.089450 
# 
# From -- ./inp_files/1663.got.cif
#   From: 2010.03.12/outbox.cif.g09.slc.cpg/sg4_1_cif.got.tgz:1663.got - 2010.03.31 09:31:35.
