data_PCOD8047702
_publ_section_title
;
Structure prediction by ZEFSAII (Michael W. Deem and Ramdas Pophale) SiO2 
 PCOD8047702
Probable space group: P 21
;
_chemical_formula_sum "Si O2"
_cell_formula_units_Z 14
_cell_length_a 9.216618
_cell_length_b 12.753042
_cell_length_c 5.040510
_cell_angle_alpha 90.000000
_cell_angle_beta 83.156784
_cell_angle_gamma 90.000000
_cell_volume 588.240383
_symmetry_space_group_name_H-M "P 21"
_symmetry_group_IT_number 4
_symmetry_cell_setting 'monoclinic'
loop_
_space_group_symop_operation_xyz
x,y,z
-x,1/2+y,-z
loop_
_atom_site_type_symbol
_atom_site_label
_atom_site_fract_x
_atom_site_fract_y
_atom_site_fract_z
Si Si1 0.972487 0.924940 0.226773
Si Si2 0.810818 0.996090 0.763202
Si Si3 0.324867 0.137538 0.724196
Si Si4 0.862832 0.632671 0.752976
Si Si5 0.116164 0.723291 0.395638
Si Si6 0.483997 0.936508 0.869568
Si Si7 0.568139 0.303611 0.611328
O O1 0.844520 0.944957 0.470261
O O2 0.045334 0.811322 0.226451
O O3 0.901324 0.929452 0.954215
O O4 0.099631 0.009987 0.236631
O O5 0.640376 0.991396 0.865000
O O6 0.862706 0.116692 0.777279
O O7 0.259887 0.145596 0.445728
O O8 0.467242 0.208365 0.726132
O O9 0.365107 0.018994 0.791930
O O10 0.201937 0.176716 0.957890
O O11 0.008015 0.699884 0.664067
O O12 0.269708 0.761363 0.479654
O O13 0.493999 0.844178 0.653446
O O14 0.432850 0.893651 0.165284
#
# Coordination Sequence:
#
# PCOD8047702 Si02
#       7
#     2   2   2   2   2   2   2
#     4  11  25  44  73 102 145 190 243 292 372 424
#     4  11  26  47  69 111 144 190 237 313 358 434
#     4  12  25  49  71 109 144 189 243 307 357 440
#     4  11  26  45  75 107 148 189 244 303 359 435
#     4  11  26  50  74 109 148 195 244 303 373 438
#     4  12  26  48  75 106 150 187 254 299 368 436
#     4  12  28  45  77 106 143 200 239 299 377 431
#
# _framework density 23.799795
#
# number of rings (size 3 to 8) (size 9 to 14) (size 15 to 20)
#    0.000    0.571    1.429    6.000    6.000    6.857 
#    0.000    0.000    0.000    0.000    0.000    0.000 
#    0.000    0.000    0.000    0.000    0.000    0.000 
#
# Total GULP energy -173722.950259 kJ/mol
# GULP energy per Si atom -12408.782161 kJ/mol
# Density = 2.374563 g / cm^3
# Si number density = 23.799795 Si / 1000 Ang^3
#
#
#
# Elastic Constant Matrix: (Units=GPa)
#
#
# Indices 1 2 3 4 5 6 
#
# 1 116.6830 40.2786 20.8897 0.0000 -21.3467 0.0000
# 2 40.2786 91.2733 15.1804 0.0000 -9.9632 0.0000
# 3 20.8897 15.1804 76.0708 0.0000 7.0239 0.0000
# 4 0.0000 0.0000 0.0000 23.9374 0.0000 1.3113
# 5 -21.3467 -9.9632 7.0239 0.0000 29.4145 0.0000
# 6 0.0000 0.0000 0.0000 1.3113 0.0000 45.7478
#
#
#
# Elastic Compliance Matrix: (Units=1/GPa)
#
#
# Indices 1 2 3 4 5 6 
#
# 1 0.011981 -0.003850 -0.003276 0.000000 0.008173 0.000000
# 2 -0.003850 0.013177 -0.001765 0.000000 0.002091 0.000000
# 3 -0.003276 -0.001765 0.015003 0.000000 -0.006558 0.000000
# 4 0.000000 0.000000 0.000000 0.041841 0.000000 -0.001199
# 5 0.008173 0.002091 -0.006558 0.000000 0.042203 0.000000
# 6 0.000000 0.000000 0.000000 -0.001199 0.000000 0.021893
#
#
# Mechanical properties :
#
#
# Convention : Reuss Voigt Hill
#
# Bulk Modulus (GPa) = 44.68770 48.52493 46.60631
# Shear Modulus (GPa) = 29.18147 33.66516 31.42331
#
# Velocity S-wave (km/s) = 3.50540 3.76508 3.63756
# Velocity P-wave (km/s) = 5.93305 6.27170 6.10472
#
# Compressibility (1/GPa) = 0.02237752
#
# Stress axis : x y z
#
# Youngs Moduli (GPa) = 83.46460 75.89000 66.65224
#
# Poissons Ratio (x) = 0.29219 0.21838
# Poissons Ratio (y) = 0.32135 0.11766
# Poissons Ratio (z) = 0.27347 0.13397
#
# Static dielectric constant tensor:
#      x y z
#    x 4.306900 0.000000 -0.208440 
#    y 0.000000 4.413370 0.000000 
#    z -0.208440 0.000000 4.184620 
# 
# 
# High freq. dielectric constant tensor:
#      x y z
#    x 1.957630 0.000000 -0.005460 
#    y 0.000000 1.953560 0.000000 
#    z -0.005460 0.000000 1.942850 
# 
# From -- ./inp_files/1382.got.cif
#   From: 2010.03.12/outbox.cif.g09.slc.cpg/sg4_1_cif.got.tgz:1382.got - 2010.03.31 09:31:35.
