data_PCOD8047607
_publ_section_title
;
Structure prediction by ZEFSAII (Michael W. Deem and Ramdas Pophale) SiO2 
 PCOD8047607
Probable space group: P 21
;
_chemical_formula_sum "Si O2"
_cell_formula_units_Z 16
_cell_length_a 7.265660
_cell_length_b 5.490277
_cell_length_c 18.317045
_cell_angle_alpha 90.000000
_cell_angle_beta 109.773692
_cell_angle_gamma 90.000000
_cell_volume 687.592407
_symmetry_space_group_name_H-M "P 21"
_symmetry_group_IT_number 4
_symmetry_cell_setting 'monoclinic'
loop_
_space_group_symop_operation_xyz
x,y,z
-x,1/2+y,-z
loop_
_atom_site_type_symbol
_atom_site_label
_atom_site_fract_x
_atom_site_fract_y
_atom_site_fract_z
Si Si1 0.574513 0.972370 0.078565
Si Si2 0.899729 0.864293 0.871545
Si Si3 0.812790 0.608441 0.193598
Si Si4 0.382447 0.695468 0.490100
Si Si5 0.004522 0.201473 0.639688
Si Si6 0.203342 0.687831 0.622953
Si Si7 0.787495 0.200643 0.979476
Si Si8 0.529841 0.260762 0.213188
O O1 0.719868 0.749321 0.113551
O O2 0.337439 0.945554 0.049252
O O3 0.619071 0.156175 0.149903
O O4 0.627423 0.045312 0.003334
O O5 0.704537 0.741427 0.813175
O O6 0.830577 0.106727 0.904243
O O7 0.046613 0.906323 0.824515
O O8 0.011110 0.705129 0.948126
O O9 0.951464 0.755694 0.268686
O O10 0.627537 0.527242 0.219345
O O11 0.484747 0.432004 0.505471
O O12 0.277608 0.736756 0.552497
O O13 0.227203 0.688235 0.403383
O O14 0.079564 0.436737 0.604327
O O15 0.087435 0.933597 0.629389
O O16 0.383655 0.635461 0.702822
#
# Coordination Sequence:
#
# PCOD8047607 Si02
#       8
#     2   2   2   2   2   2   2   2
#     4  12  22  46  64  94 134 182 228 300 352 434
#     4  12  24  42  64 102 128 184 236 298 358 428
#     4  11  24  45  68  98 139 181 237 292 354 421
#     4  12  26  46  74 118 152 182 232 296 348 418
#     4  11  24  47  76 103 144 197 237 282 355 431
#     4  11  24  47  76 103 144 197 237 282 355 431
#     4  12  24  40  68  94 134 178 236 294 366 422
#     4  11  24  45  68  98 139 181 237 292 354 421
#
# _framework density 23.269598999999999
#
# number of rings (size 3 to 8) (size 9 to 14) (size 15 to 20)
#    0.000    0.500    3.750    5.250    1.750    0.000 
#    4.500    0.000    0.000    0.000    0.000    0.000 
#    0.000    0.000    0.000    0.000    0.000    0.000 
#
# Total GULP energy -198231.103042 kJ/mol
# GULP energy per Si atom -12389.443940 kJ/mol
# Density = 2.321664 g / cm^3
# Si number density = 23.269599 Si / 1000 Ang^3
#
#
#
# Elastic Constant Matrix: (Units=GPa)
#
#
# Indices 1 2 3 4 5 6 
#
# 1 120.1582 25.6294 28.3324 0.0000 33.5680 0.0000
# 2 25.6294 87.5605 5.6839 0.0000 14.8505 0.0000
# 3 28.3324 5.6839 91.3211 0.0000 26.5556 0.0000
# 4 0.0000 0.0000 0.0000 27.7025 0.0000 2.0857
# 5 33.5680 14.8505 26.5556 0.0000 48.0796 0.0000
# 6 0.0000 0.0000 0.0000 2.0857 0.0000 45.9906
#
#
#
# Elastic Compliance Matrix: (Units=1/GPa)
#
#
# Indices 1 2 3 4 5 6 
#
# 1 0.010806 -0.002031 -0.001447 0.000000 -0.006118 0.000000
# 2 -0.002031 0.012446 0.000668 0.000000 -0.002795 0.000000
# 3 -0.001447 0.000668 0.013252 0.000000 -0.006516 0.000000
# 4 0.000000 0.000000 0.000000 0.036221 0.000000 -0.001643
# 5 -0.006118 -0.002795 -0.006516 0.000000 0.029532 0.000000
# 6 0.000000 0.000000 0.000000 -0.001643 0.000000 0.021818
#
#
# Mechanical properties :
#
#
# Convention : Reuss Voigt Hill
#
# Bulk Modulus (GPa) = 32.37912 46.48123 39.43018
# Shear Modulus (GPa) = 35.71652 40.31415 38.01533
#
# Velocity S-wave (km/s) = 3.92203 4.16682 4.04628
# Velocity P-wave (km/s) = 5.86982 6.57026 6.22989
#
# Compressibility (1/GPa) = 0.03088410
#
# Stress axis : x y z
#
# Youngs Moduli (GPa) = 92.54151 80.34738 75.45751
#
# Poissons Ratio (x) = 0.16322 0.10920
# Poissons Ratio (y) = 0.18799 -0.05044
# Poissons Ratio (z) = 0.13392 -0.05370
#
# Static dielectric constant tensor:
#      x y z
#    x 4.159410 0.000000 0.257170 
#    y 0.000000 4.180980 0.000000 
#    z 0.257170 0.000000 4.456980 
# 
# 
# High freq. dielectric constant tensor:
#      x y z
#    x 1.923350 0.000000 0.016490 
#    y 0.000000 1.912440 0.000000 
#    z 0.016490 0.000000 1.931880 
# 
# From -- ./inp_files/14664.got.cif
#   From: 2010.03.12/outbox.cif.g09.slc.cpg/sg4_8_cif.got.tgz:14664.got - 2010.03.31 09:31:35.
