data_PCOD8047077
_publ_section_title
;
Structure prediction by ZEFSAII (Michael W. Deem and Ramdas Pophale) SiO2 
 PCOD8047077
Probable space group: P 21
;
_chemical_formula_sum "Si O2"
_cell_formula_units_Z 12
_cell_length_a 11.967570
_cell_length_b 7.935225
_cell_length_c 4.969276
_cell_angle_alpha 90.000000
_cell_angle_beta 96.804562
_cell_angle_gamma 90.000000
_cell_volume 468.584996
_symmetry_space_group_name_H-M "P 21"
_symmetry_group_IT_number 4
_symmetry_cell_setting 'monoclinic'
loop_
_space_group_symop_operation_xyz
x,y,z
-x,1/2+y,-z
loop_
_atom_site_type_symbol
_atom_site_label
_atom_site_fract_x
_atom_site_fract_y
_atom_site_fract_z
Si Si1 0.431844 0.921090 0.632811
Si Si2 0.886650 0.115558 0.922048
Si Si3 0.204952 0.293830 0.847969
Si Si4 0.997323 0.243073 0.438926
Si Si5 0.200135 0.920263 0.821211
Si Si6 0.456487 0.288636 0.838080
O O1 0.298498 0.895812 0.630215
O O2 0.464807 0.903210 0.330133
O O3 0.471824 0.101937 0.739167
O O4 0.500274 0.791930 0.842777
O O5 0.994548 0.138406 0.155846
O O6 0.795289 0.262490 0.967743
O O7 0.838341 0.926059 0.940864
O O8 0.927703 0.131094 0.631850
O O9 0.327292 0.351590 0.780503
O O10 0.122023 0.291802 0.566087
O O11 0.212549 0.102945 0.970077
O O12 0.921291 0.413779 0.368307
#
# Coordination Sequence:
#
# PCOD8047077 Si02
#       6
#     2   2   2   2   2   2
#     4  11  25  45  69  98 137 175 233 275 346 394
#     4  10  25  41  68 100 130 183 213 281 330 401
#     4  11  24  47  68 104 137 177 232 271 347 404
#     4  10  24  44  68 100 137 174 218 279 336 400
#     4   9  25  45  68  99 135 177 220 287 330 403
#     4  11  27  44  71  99 134 184 220 293 327 412
#
# _framework density 25.609010999999999
#
# number of rings (size 3 to 8) (size 9 to 14) (size 15 to 20)
#    1.000    0.667    0.000    2.000    9.333    2.667 
#    6.000    0.000    0.000    0.000    0.000    0.000 
#    0.000    0.000    0.000    0.000    0.000    0.000 
#
# Total GULP energy -148747.021466 kJ/mol
# GULP energy per Si atom -12395.585122 kJ/mol
# Density = 2.555072 g / cm^3
# Si number density = 25.609011 Si / 1000 Ang^3
#
#
#
# Elastic Constant Matrix: (Units=GPa)
#
#
# Indices 1 2 3 4 5 6 
#
# 1 84.2549 4.7387 -32.4823 0.0000 6.8662 0.0000
# 2 4.7387 106.9841 -5.0329 0.0000 0.0797 0.0000
# 3 -32.4823 -5.0329 49.0838 0.0000 -0.6335 0.0000
# 4 0.0000 0.0000 0.0000 34.0475 0.0000 -3.1907
# 5 6.8662 0.0797 -0.6335 0.0000 19.1809 0.0000
# 6 0.0000 0.0000 0.0000 -3.1907 0.0000 30.6039
#
#
#
# Elastic Compliance Matrix: (Units=1/GPa)
#
#
# Indices 1 2 3 4 5 6 
#
# 1 0.016509 -0.000218 0.010831 0.000000 -0.005551 0.000000
# 2 -0.000218 0.009395 0.000820 0.000000 0.000066 0.000000
# 3 0.010831 0.000820 0.027587 0.000000 -0.002969 0.000000
# 4 0.000000 0.000000 0.000000 0.029661 0.000000 0.003092
# 5 -0.005551 0.000066 -0.002969 0.000000 0.054024 0.000000
# 6 0.000000 0.000000 0.000000 0.003092 0.000000 0.032998
#
#
# Mechanical properties :
#
#
# Convention : Reuss Voigt Hill
#
# Bulk Modulus (GPa) = 13.09599 19.41886 16.25742
# Shear Modulus (GPa) = 28.94205 34.97308 31.95756
#
# Velocity S-wave (km/s) = 3.36542 3.69949 3.53640
# Velocity P-wave (km/s) = 4.49737 5.08405 4.79968
#
# Compressibility (1/GPa) = 0.07635928
#
# Stress axis : x y z
#
# Youngs Moduli (GPa) = 60.57272 106.43552 36.24907
#
# Poissons Ratio (x) = 0.02316 -0.39262
# Poissons Ratio (y) = 0.01318 -0.02973
# Poissons Ratio (z) = -0.65608 -0.08730
#
# Static dielectric constant tensor:
#      x y z
#    x 4.584630 0.000000 -0.010580 
#    y 0.000000 4.734310 0.000000 
#    z -0.010580 0.000000 4.812490 
# 
# 
# High freq. dielectric constant tensor:
#      x y z
#    x 2.021120 0.000000 -0.009630 
#    y 0.000000 2.037320 0.000000 
#    z -0.009630 0.000000 2.001680 
# 
# From -- ./inp_files/2540.got.cif
#   From: 2010.03.12/outbox.cif.g09.slc.cpg/sg4_2_cif.got.tgz:2540.got - 2010.03.31 09:31:35.
