data_PCOD8047687
_publ_section_title
;
Structure prediction by ZEFSAII (Michael W. Deem and Ramdas Pophale) SiO2 
 PCOD8047687
Probable space group: P 21
;
_chemical_formula_sum "Si O2"
_cell_formula_units_Z 16
_cell_length_a 16.150851
_cell_length_b 8.569352
_cell_length_c 10.990348
_cell_angle_alpha 90.000000
_cell_angle_beta 22.324307
_cell_angle_gamma 90.000000
_cell_volume 577.783860
_symmetry_space_group_name_H-M "P 21"
_symmetry_group_IT_number 4
_symmetry_cell_setting 'monoclinic'
loop_
_space_group_symop_operation_xyz
x,y,z
-x,1/2+y,-z
loop_
_atom_site_type_symbol
_atom_site_label
_atom_site_fract_x
_atom_site_fract_y
_atom_site_fract_z
Si Si1 0.591993 0.732690 0.112554
Si Si2 0.925512 0.205853 0.540768
Si Si3 0.821663 0.939381 0.517413
Si Si4 0.463521 0.525618 0.514873
Si Si5 0.804833 0.827539 0.283845
Si Si6 0.639937 0.469888 0.850530
Si Si7 0.051300 0.622943 0.231998
Si Si8 0.741971 0.471762 0.366487
O O1 0.532266 0.652088 0.322164
O O2 0.439554 0.885616 0.304491
O O3 0.571110 0.616661 0.027343
O O4 0.841360 0.793582 0.779329
O O5 0.729497 0.329247 0.811492
O O6 0.897863 0.091420 0.694567
O O7 0.923009 0.101922 0.422128
O O8 0.764718 0.943613 0.451745
O O9 0.996817 0.806130 0.304120
O O10 0.586164 0.914243 0.906461
O O11 0.382111 0.364936 0.561255
O O12 0.662941 0.484551 0.332851
O O13 0.254426 0.589566 0.871962
O O14 0.791260 0.647876 0.345574
O O15 0.045459 0.864673 0.908241
O O16 0.833710 0.520113 0.492459
#
# Coordination Sequence:
#
# PCOD8047687 Si02
#       8
#     2   2   2   2   2   2   2   2
#     4  11  24  50  79 115 159 212 270 331 411 490
#     4  11  26  49  80 113 160 214 271 330 406 496
#     4  12  25  49  79 111 163 211 269 337 411 480
#     4  12  26  52  84 121 167 216 276 344 416 484
#     4  12  28  50  79 127 165 211 279 346 407 496
#     4  11  25  48  73 112 158 208 270 331 403 482
#     4  11  25  47  75 118 157 215 270 336 408 487
#     4  12  27  47  79 119 169 213 267 345 422 485
#
# _framework density 27.692015999999999
#
# number of rings (size 3 to 8) (size 9 to 14) (size 15 to 20)
#    0.000    0.500    1.250    6.750    1.750    4.000 
#   13.500    0.000    0.000    0.000    0.000    0.000 
#    0.000    0.000    0.000    0.000    0.000    0.000 
#
# Total GULP energy -198439.006698 kJ/mol
# GULP energy per Si atom -12402.437919 kJ/mol
# Density = 2.762899 g / cm^3
# Si number density = 27.692016 Si / 1000 Ang^3
#
#
#
# Elastic Constant Matrix: (Units=GPa)
#
#
# Indices 1 2 3 4 5 6 
#
# 1 49.2153 4.6253 3.4717 0.0000 -5.0898 0.0000
# 2 4.6253 128.2027 17.7666 0.0000 -6.5431 0.0000
# 3 3.4717 17.7666 84.0363 0.0000 3.5886 0.0000
# 4 0.0000 0.0000 0.0000 52.1578 0.0000 -3.3981
# 5 -5.0898 -6.5431 3.5886 0.0000 53.6360 0.0000
# 6 0.0000 0.0000 0.0000 -3.3981 0.0000 33.3328
#
#
#
# Elastic Compliance Matrix: (Units=1/GPa)
#
#
# Indices 1 2 3 4 5 6 
#
# 1 0.020628 -0.000531 -0.000823 0.000000 0.001948 0.000000
# 2 -0.000531 0.008114 -0.001739 0.000000 0.001056 0.000000
# 3 -0.000823 -0.001739 0.012349 0.000000 -0.001116 0.000000
# 4 0.000000 0.000000 0.000000 0.019301 0.000000 0.001968
# 5 0.001948 0.001056 -0.001116 0.000000 0.019033 0.000000
# 6 0.000000 0.000000 0.000000 0.001968 0.000000 0.030201
#
#
# Mechanical properties :
#
#
# Convention : Reuss Voigt Hill
#
# Bulk Modulus (GPa) = 28.64817 34.79793 31.72305
# Shear Modulus (GPa) = 39.23226 43.53135 41.38181
#
# Velocity S-wave (km/s) = 3.76804 3.96912 3.86989
# Velocity P-wave (km/s) = 5.41281 5.79643 5.60790
#
# Compressibility (1/GPa) = 0.03490625
#
# Stress axis : x y z
#
# Youngs Moduli (GPa) = 48.47713 123.24187 80.97909
#
# Poissons Ratio (x) = 0.06541 0.06666
# Poissons Ratio (y) = 0.02573 0.14079
# Poissons Ratio (z) = 0.03990 0.21427
#
# Static dielectric constant tensor:
#      x y z
#    x 5.312120 0.000000 -0.141430 
#    y 0.000000 4.848420 0.000000 
#    z -0.141430 0.000000 5.252590 
# 
# 
# High freq. dielectric constant tensor:
#      x y z
#    x 2.128340 0.000000 -0.002990 
#    y 0.000000 2.119450 0.000000 
#    z -0.002990 0.000000 2.131510 
# 
# From -- ./inp_files/12901.got.cif
#   From: 2010.03.12/outbox.cif.g09.slc.cpg/sg4_7_cif.got.tgz:12901.got - 2010.03.31 09:31:35.
