data_PCOD8047796
_publ_section_title
;
Structure prediction by ZEFSAII (Michael W. Deem and Ramdas Pophale) SiO2 
 PCOD8047796
Probable space group: P 21
;
_chemical_formula_sum "Si O2"
_cell_formula_units_Z 16
_cell_length_a 9.176093
_cell_length_b 9.069996
_cell_length_c 9.176078
_cell_angle_alpha 90.000000
_cell_angle_beta 60.186100
_cell_angle_gamma 90.000000
_cell_volume 662.619172
_symmetry_space_group_name_H-M "P 21"
_symmetry_group_IT_number 4
_symmetry_cell_setting 'monoclinic'
loop_
_space_group_symop_operation_xyz
x,y,z
-x,1/2+y,-z
loop_
_atom_site_type_symbol
_atom_site_label
_atom_site_fract_x
_atom_site_fract_y
_atom_site_fract_z
Si Si1 0.709159 0.979800 0.241701
Si Si2 0.180305 0.680463 0.349225
Si Si3 0.326923 0.936241 0.451754
Si Si4 0.508572 0.001955 0.848031
Si Si5 0.741701 0.329463 0.209161
Si Si6 0.348032 0.307312 0.008573
Si Si7 0.849222 0.628798 0.680309
Si Si8 0.048244 0.873020 0.173076
O O1 0.523883 0.943621 0.393091
O O2 0.741306 0.907056 0.067946
O O3 0.848918 0.907293 0.277811
O O4 0.727652 0.154632 0.227663
O O5 0.303712 0.806636 0.346986
O O6 0.293499 0.534650 0.277066
O O7 0.092311 0.723560 0.239075
O O8 0.039547 0.654631 0.539551
O O9 0.222187 0.901970 0.651081
O O10 0.260929 0.085701 0.407683
O O11 0.432049 0.902214 0.758694
O O12 0.410868 0.154634 0.910866
O O13 0.498207 0.904633 0.001791
O O14 0.893094 0.365635 0.023884
O O15 0.222935 0.274613 0.206500
O O16 0.846985 0.502626 0.803718
#
# Coordination Sequence:
#
# PCOD8047796 Si02
#       8
#     2   2   2   2   2   2   2   2
#     4  12  28  48  79 115 155 201 263 327 395 463
#     4  11  26  49  75 110 155 203 259 312 391 473
#     4  11  27  49  75 112 155 199 261 320 391 466
#     4  12  25  46  77 110 152 202 254 316 386 466
#     4  12  28  48  79 115 155 201 263 327 395 463
#     4  12  25  46  77 110 152 202 254 316 386 466
#     4  11  26  49  75 110 155 203 259 312 391 473
#     4  11  27  49  75 112 155 199 261 320 391 466
#
# _framework density 24.146598999999998
#
# number of rings (size 3 to 8) (size 9 to 14) (size 15 to 20)
#    0.000    0.500    2.500    4.500   10.500    3.000 
#    0.000    0.000    0.000    0.000    0.000    0.000 
#    0.000    0.000    0.000    0.000    0.000    0.000 
#
# Total GULP energy -198397.798811 kJ/mol
# GULP energy per Si atom -12399.862426 kJ/mol
# Density = 2.409164 g / cm^3
# Si number density = 24.146599 Si / 1000 Ang^3
#
#
#
# Elastic Constant Matrix: (Units=GPa)
#
#
# Indices 1 2 3 4 5 6 
#
# 1 113.2140 21.9397 18.4641 0.0000 -4.8869 0.0000
# 2 21.9397 74.1976 21.9535 0.0000 -0.0138 0.0000
# 3 18.4641 21.9535 120.2067 0.0000 -1.1709 0.0000
# 4 0.0000 0.0000 0.0000 29.4341 0.0000 4.0975
# 5 -4.8869 -0.0138 -1.1709 0.0000 46.9779 0.0000
# 6 0.0000 0.0000 0.0000 4.0975 0.0000 34.1646
#
#
#
# Elastic Compliance Matrix: (Units=1/GPa)
#
#
# Indices 1 2 3 4 5 6 
#
# 1 0.009525 -0.002523 -0.000993 0.000000 0.000965 0.000000
# 2 -0.002523 0.014916 -0.002340 0.000000 -0.000316 0.000000
# 3 -0.000993 -0.002340 0.008900 0.000000 0.000118 0.000000
# 4 0.000000 0.000000 0.000000 0.034551 0.000000 -0.004144
# 5 0.000965 -0.000316 0.000118 0.000000 0.021390 0.000000
# 6 0.000000 0.000000 0.000000 -0.004144 0.000000 0.029767
#
#
# Mechanical properties :
#
#
# Convention : Reuss Voigt Hill
#
# Bulk Modulus (GPa) = 46.23120 48.03697 47.13409
# Shear Modulus (GPa) = 36.23987 38.46604 37.35296
#
# Velocity S-wave (km/s) = 3.87825 3.99560 3.93736
# Velocity P-wave (km/s) = 6.26435 6.42055 6.34293
#
# Compressibility (1/GPa) = 0.02163041
#
# Stress axis : x y z
#
# Youngs Moduli (GPa) = 104.98358 67.04376 112.35983
#
# Poissons Ratio (x) = 0.16912 0.11157
# Poissons Ratio (y) = 0.26483 0.26288
# Poissons Ratio (z) = 0.10425 0.15686
#
# Static dielectric constant tensor:
#      x y z
#    x 4.348940 0.000000 0.053580 
#    y 0.000000 4.625410 0.000000 
#    z 0.053580 0.000000 4.287070 
# 
# 
# High freq. dielectric constant tensor:
#      x y z
#    x 1.961690 0.000000 0.000080 
#    y 0.000000 1.962840 0.000000 
#    z 0.000080 0.000000 1.961600 
# 
# From -- ./inp_files/5786.got.cif
#   From: 2010.03.12/outbox.cif.g09.slc.cpg/sg4_3_cif.got.tgz:5786.got - 2010.03.31 09:31:35.
