data_PCOD8047396
_publ_section_title
;
Structure prediction by ZEFSAII (Michael W. Deem and Ramdas Pophale) SiO2 
 PCOD8047396
Probable space group: P 21
;
_chemical_formula_sum "Si O2"
_cell_formula_units_Z 16
_cell_length_a 11.642760
_cell_length_b 8.530516
_cell_length_c 15.434073
_cell_angle_alpha 90.000000
_cell_angle_beta 152.159495
_cell_angle_gamma 90.000000
_cell_volume 715.879161
_symmetry_space_group_name_H-M "P 21"
_symmetry_group_IT_number 4
_symmetry_cell_setting 'monoclinic'
loop_
_space_group_symop_operation_xyz
x,y,z
-x,1/2+y,-z
loop_
_atom_site_type_symbol
_atom_site_label
_atom_site_fract_x
_atom_site_fract_y
_atom_site_fract_z
Si Si1 0.353831 0.671060 0.589167
Si Si2 0.383164 0.210352 0.749555
Si Si3 0.509934 0.056027 0.141465
Si Si4 0.174339 0.035692 0.770399
Si Si5 0.711988 0.492192 0.547115
Si Si6 0.224237 0.982474 0.211174
Si Si7 0.058397 0.693692 0.665775
Si Si8 0.280889 0.640657 0.176559
O O1 0.476397 0.671553 0.766633
O O2 0.273374 0.842815 0.506182
O O3 0.545362 0.597169 0.649536
O O4 0.112320 0.565564 0.433446
O O5 0.516006 0.375763 0.849747
O O6 0.348265 0.112483 0.813777
O O7 0.558064 0.111129 0.802361
O O8 0.117686 0.240041 0.530831
O O9 0.748677 0.066171 0.239458
O O10 0.266962 0.102154 0.924722
O O11 0.208992 0.847985 0.793939
O O12 0.788342 0.447356 0.695155
O O13 0.432599 0.559007 0.356387
O O14 0.905910 0.622577 0.644192
O O15 0.256330 0.823502 0.179985
O O16 0.982730 0.063770 0.011919
#
# Coordination Sequence:
#
# PCOD8047396 Si02
#       8
#     2   2   2   2   2   2   2   2
#     4  12  25  47  70 106 142 191 234 300 361 422
#     4  11  22  48  67 105 147 185 237 292 359 421
#     4  12  25  42  71 105 144 187 232 290 358 427
#     4  12  26  42  74 104 144 189 237 288 361 434
#     4  11  27  45  75 103 145 189 244 292 363 429
#     4  12  26  49  75 103 144 192 245 297 359 426
#     4  11  23  44  71 105 149 186 228 302 355 425
#     4  11  26  47  73 105 141 189 241 303 352 422
#
# _framework density 22.350142000000002
#
# number of rings (size 3 to 8) (size 9 to 14) (size 15 to 20)
#    0.000    0.500    3.750    3.750    7.000    3.000 
#    0.000    0.000    0.000    0.000    0.000    0.000 
#    0.000    0.000    0.000    0.000    0.000    0.000 
#
# Total GULP energy -198482.081151 kJ/mol
# GULP energy per Si atom -12405.130072 kJ/mol
# Density = 2.229927 g / cm^3
# Si number density = 22.350142 Si / 1000 Ang^3
#
#
#
# Elastic Constant Matrix: (Units=GPa)
#
#
# Indices 1 2 3 4 5 6 
#
# 1 92.1342 26.9823 38.5450 0.0000 -16.1080 0.0000
# 2 26.9823 92.8666 20.1805 0.0000 -5.0075 0.0000
# 3 38.5450 20.1805 88.5260 0.0000 -25.8814 0.0000
# 4 0.0000 0.0000 0.0000 25.4784 0.0000 1.5043
# 5 -16.1080 -5.0075 -25.8814 0.0000 37.3773 0.0000
# 6 0.0000 0.0000 0.0000 1.5043 0.0000 35.4781
#
#
#
# Elastic Compliance Matrix: (Units=1/GPa)
#
#
# Indices 1 2 3 4 5 6 
#
# 1 0.014134 -0.002938 -0.004788 0.000000 0.002382 0.000000
# 2 -0.002938 0.011943 -0.001687 0.000000 -0.000834 0.000000
# 3 -0.004788 -0.001687 0.016420 0.000000 0.009081 0.000000
# 4 0.000000 0.000000 0.000000 0.039348 0.000000 -0.001668
# 5 0.002382 -0.000834 0.009081 0.000000 0.033957 0.000000
# 6 0.000000 0.000000 0.000000 -0.001668 0.000000 0.028257
#
#
# Mechanical properties :
#
#
# Convention : Reuss Voigt Hill
#
# Bulk Modulus (GPa) = 42.24515 49.43803 45.84159
# Shear Modulus (GPa) = 29.27836 32.18802 30.73319
#
# Velocity S-wave (km/s) = 3.62330 3.79908 3.71223
# Velocity P-wave (km/s) = 6.03713 6.43520 6.23934
#
# Compressibility (1/GPa) = 0.02367136
#
# Stress axis : x y z
#
# Youngs Moduli (GPa) = 70.75383 83.72842 60.90063
#
# Poissons Ratio (x) = 0.24596 0.29158
# Poissons Ratio (y) = 0.20785 0.10277
# Poissons Ratio (z) = 0.33875 0.14129
#
# Static dielectric constant tensor:
#      x y z
#    x 3.981890 0.000000 -0.063260 
#    y 0.000000 3.909440 0.000000 
#    z -0.063260 0.000000 4.167330 
# 
# 
# High freq. dielectric constant tensor:
#      x y z
#    x 1.878690 0.000000 -0.003070 
#    y 0.000000 1.882040 0.000000 
#    z -0.003070 0.000000 1.892570 
# 
# From -- ./inp_files/11973.got.cif
#   From: 2010.03.12/outbox.cif.g09.slc.cpg/sg4_6_cif.got.tgz:11973.got - 2010.03.31 09:31:35.
