data_PCOD8047674
_publ_section_title
;
Structure prediction by ZEFSAII (Michael W. Deem and Ramdas Pophale) SiO2 
 PCOD8047674
Probable space group: P 21
;
_chemical_formula_sum "Si O2"
_cell_formula_units_Z 16
_cell_length_a 18.387159
_cell_length_b 8.590970
_cell_length_c 9.771786
_cell_angle_alpha 90.000000
_cell_angle_beta 150.369385
_cell_angle_gamma 90.000000
_cell_volume 763.158703
_symmetry_space_group_name_H-M "P 21"
_symmetry_group_IT_number 4
_symmetry_cell_setting 'monoclinic'
loop_
_space_group_symop_operation_xyz
x,y,z
-x,1/2+y,-z
loop_
_atom_site_type_symbol
_atom_site_label
_atom_site_fract_x
_atom_site_fract_y
_atom_site_fract_z
Si Si1 0.875305 0.096450 0.338210
Si Si2 0.156704 0.022347 0.361976
Si Si3 0.845980 0.456906 0.331789
Si Si4 0.544598 0.401173 0.713585
Si Si5 0.872077 0.185034 0.809401
Si Si6 0.314119 0.648585 0.230680
Si Si7 0.565654 0.717537 0.212713
Si Si8 0.700473 0.012350 0.305453
O O1 0.879757 0.274204 0.393315
O O2 0.805087 0.993989 0.344780
O O3 0.777641 0.072317 0.043050
O O4 0.040909 0.038707 0.586480
O O5 0.317892 0.078631 0.581384
O O6 0.136965 0.032172 0.492197
O O7 0.132444 0.847395 0.275199
O O8 0.041322 0.138196 0.103608
O O9 0.680697 0.488384 0.009118
O O10 0.430967 0.526714 0.475828
O O11 0.601826 0.303294 0.678564
O O12 0.463539 0.286463 0.685729
O O13 0.796864 0.199710 0.833156
O O14 0.793706 0.051694 0.592529
O O15 0.621051 0.848018 0.197686
O O16 0.415059 0.650992 0.905762
#
# Coordination Sequence:
#
# PCOD8047674 Si02
#       8
#     2   2   2   2   2   2   2   2
#     4  11  25  45  72  99 142 180 238 284 346 421
#     4  12  27  45  72 103 141 184 234 291 353 412
#     4  11  24  49  66 104 139 185 232 287 347 418
#     4  11  25  46  67 104 141 183 230 289 347 416
#     4  12  25  45  70 104 140 182 235 291 344 414
#     4  11  25  45  70 101 142 179 235 287 349 411
#     4  12  25  45  72 101 144 182 233 289 352 417
#     4  12  24  46  71 104 139 189 233 288 350 415
#
# _framework density 20.965494
#
# number of rings (size 3 to 8) (size 9 to 14) (size 15 to 20)
#    0.000    0.500    6.250    2.250    3.500    4.000 
#    0.000    0.000    0.000    0.000    0.000    0.000 
#    0.000    0.000    0.000    0.000    0.000    0.000 
#
# Total GULP energy -198535.763955 kJ/mol
# GULP energy per Si atom -12408.485247 kJ/mol
# Density = 2.091778 g / cm^3
# Si number density = 20.965494 Si / 1000 Ang^3
#
#
#
# Elastic Constant Matrix: (Units=GPa)
#
#
# Indices 1 2 3 4 5 6 
#
# 1 114.5287 5.4788 40.1485 0.0000 7.3717 0.0000
# 2 5.4788 57.9214 34.0227 0.0000 3.2851 0.0000
# 3 40.1485 34.0227 104.1599 0.0000 1.9966 0.0000
# 4 0.0000 0.0000 0.0000 45.6323 0.0000 2.2456
# 5 7.3717 3.2851 1.9966 0.0000 31.7333 0.0000
# 6 0.0000 0.0000 0.0000 2.2456 0.0000 21.7581
#
#
#
# Elastic Compliance Matrix: (Units=1/GPa)
#
#
# Indices 1 2 3 4 5 6 
#
# 1 0.010391 0.001825 -0.004557 0.000000 -0.002316 0.000000
# 2 0.001825 0.021785 -0.007777 0.000000 -0.002190 0.000000
# 3 -0.004557 -0.007777 0.013878 0.000000 0.000991 0.000000
# 4 0.000000 0.000000 0.000000 0.022026 0.000000 -0.002273
# 5 -0.002316 -0.002190 0.000991 0.000000 0.032215 0.000000
# 6 0.000000 0.000000 0.000000 -0.002273 0.000000 0.046195
#
#
# Mechanical properties :
#
#
# Convention : Reuss Voigt Hill
#
# Bulk Modulus (GPa) = 39.94271 48.43441 44.18856
# Shear Modulus (GPa) = 28.43289 32.95540 30.69415
#
# Velocity S-wave (km/s) = 3.68662 3.96900 3.83042
# Velocity P-wave (km/s) = 6.10038 6.64501 6.37851
#
# Compressibility (1/GPa) = 0.02503586
#
# Stress axis : x y z
#
# Youngs Moduli (GPa) = 96.24065 45.90384 72.05421
#
# Poissons Ratio (x) = -0.08378 0.32834
# Poissons Ratio (y) = -0.17566 0.56038
# Poissons Ratio (z) = 0.43855 0.35701
#
# Static dielectric constant tensor:
#      x y z
#    x 4.040020 0.000000 0.050350 
#    y 0.000000 3.778370 0.000000 
#    z 0.050350 0.000000 4.003290 
# 
# 
# High freq. dielectric constant tensor:
#      x y z
#    x 1.838960 0.000000 0.005310 
#    y 0.000000 1.819790 0.000000 
#    z 0.005310 0.000000 1.831830 
# 
# From -- ./inp_files/5386.got.cif
#   From: 2010.03.12/outbox.cif.g09.slc.cpg/sg4_3_cif.got.tgz:5386.got - 2010.03.31 09:31:35.
