data_PCOD8047067
_publ_section_title
;
Structure prediction by ZEFSAII (Michael W. Deem and Ramdas Pophale) SiO2 
 PCOD8047067
Probable space group: P 21
;
_chemical_formula_sum "Si O2"
_cell_formula_units_Z 16
_cell_length_a 18.653514
_cell_length_b 7.915138
_cell_length_c 12.246370
_cell_angle_alpha 90.000000
_cell_angle_beta 157.926220
_cell_angle_gamma 90.000000
_cell_volume 679.490761
_symmetry_space_group_name_H-M "P 21"
_symmetry_group_IT_number 4
_symmetry_cell_setting 'monoclinic'
loop_
_space_group_symop_operation_xyz
x,y,z
-x,1/2+y,-z
loop_
_atom_site_type_symbol
_atom_site_label
_atom_site_fract_x
_atom_site_fract_y
_atom_site_fract_z
Si Si1 0.083564 0.802230 0.671815
Si Si2 0.722359 0.963359 0.107944
Si Si3 0.001885 0.735489 0.160238
Si Si4 0.346215 0.365877 0.219784
Si Si5 0.744721 0.250500 0.865054
Si Si6 0.399518 0.190009 0.757739
Si Si7 0.735210 0.410160 0.293347
Si Si8 0.065949 0.363978 0.166559
O O1 0.125340 0.605980 0.711851
O O2 0.162692 0.907807 0.679791
O O3 0.856586 0.838576 0.369279
O O4 0.188412 0.851725 0.932272
O O5 0.645182 0.850825 0.898853
O O6 0.540081 0.045479 0.908544
O O7 0.157361 0.798426 0.465256
O O8 0.070902 0.555138 0.215120
O O9 0.799202 0.726801 0.936783
O O10 0.973992 0.862773 0.019104
O O11 0.550227 0.338742 0.558620
O O12 0.274610 0.552406 0.145351
O O13 0.895117 0.265036 0.981314
O O14 0.265362 0.268635 0.474237
O O15 0.273071 0.102237 0.673941
O O16 0.520311 0.340440 0.980768
#
# Coordination Sequence:
#
# PCOD8047067 Si02
#       8
#     2   2   2   2   2   2   2   2
#     4  10  24  43  70  99 141 188 235 297 359 418
#     4  10  24  44  70 104 142 186 241 297 354 431
#     4  12  26  48  74 102 145 191 245 303 369 436
#     4  11  24  46  71 108 142 191 246 299 359 432
#     4  11  26  44  71 107 145 191 244 298 362 433
#     4  11  26  45  71 105 149 188 248 294 367 443
#     4  11  24  45  68 107 141 194 239 305 362 437
#     4  12  28  47  73 104 145 195 240 305 368 436
#
# _framework density 23.547046999999999
#
# number of rings (size 3 to 8) (size 9 to 14) (size 15 to 20)
#    0.000    1.000    1.250    3.750   15.750    1.000 
#    2.250    0.000    0.000    0.000    0.000    0.000 
#    0.000    0.000    0.000    0.000    0.000    0.000 
#
# Total GULP energy -198396.152934 kJ/mol
# GULP energy per Si atom -12399.759558 kJ/mol
# Density = 2.349345 g / cm^3
# Si number density = 23.547047 Si / 1000 Ang^3
#
#
#
# Elastic Constant Matrix: (Units=GPa)
#
#
# Indices 1 2 3 4 5 6 
#
# 1 82.9979 32.4106 61.4098 0.0000 -16.1951 0.0000
# 2 32.4106 72.6221 79.9084 0.0000 -2.2704 0.0000
# 3 61.4098 79.9084 302.8965 0.0000 -34.6404 0.0000
# 4 0.0000 0.0000 0.0000 158.2690 0.0000 -18.8248
# 5 -16.1951 -2.2704 -34.6404 0.0000 35.3231 0.0000
# 6 0.0000 0.0000 0.0000 -18.8248 0.0000 43.2412
#
#
#
# Elastic Compliance Matrix: (Units=1/GPa)
#
#
# Indices 1 2 3 4 5 6 
#
# 1 0.016331 -0.005946 -0.001047 0.000000 0.006079 0.000000
# 2 -0.005946 0.022150 -0.005392 0.000000 -0.006590 0.000000
# 3 -0.001047 -0.005392 0.005453 0.000000 0.004521 0.000000
# 4 0.000000 0.000000 0.000000 0.006663 0.000000 0.002901
# 5 0.006079 -0.006590 0.004521 0.000000 0.035107 0.000000
# 6 0.000000 0.000000 0.000000 0.002901 0.000000 0.024389
#
#
# Mechanical properties :
#
#
# Convention : Reuss Voigt Hill
#
# Bulk Modulus (GPa) = 52.17935 89.55268 70.86602
# Shear Modulus (GPa) = 35.39751 66.35249 50.87500
#
# Velocity S-wave (km/s) = 3.88141 5.31412 4.65323
# Velocity P-wave (km/s) = 6.50345 8.70443 7.68316
#
# Compressibility (1/GPa) = 0.01916467
#
# Stress axis : x y z
#
# Youngs Moduli (GPa) = 61.23172 45.14617 183.37804
#
# Poissons Ratio (x) = 0.26845 0.19203
# Poissons Ratio (y) = 0.36410 0.98871
# Poissons Ratio (z) = 0.06412 0.24341
#
# Static dielectric constant tensor:
#      x y z
#    x 3.213910 0.000000 -0.102040 
#    y 0.000000 4.119470 0.000000 
#    z -0.102040 0.000000 4.440080 
# 
# 
# High freq. dielectric constant tensor:
#      x y z
#    x 1.938520 0.000000 -0.004740 
#    y 0.000000 1.931140 0.000000 
#    z -0.004740 0.000000 1.947620 
# 
# From -- ./inp_files/12937.got.cif
#   From: 2010.03.12/outbox.cif.g09.slc.cpg/sg4_7_cif.got.tgz:12937.got - 2010.03.31 09:31:35.
