data_PCOD8047686
_publ_section_title
;
Structure prediction by ZEFSAII (Michael W. Deem and Ramdas Pophale) SiO2 
 PCOD8047686
Probable space group: P 21
;
_chemical_formula_sum "Si O2"
_cell_formula_units_Z 10
_cell_length_a 5.051876
_cell_length_b 14.294007
_cell_length_c 5.073237
_cell_angle_alpha 90.000000
_cell_angle_beta 94.024235
_cell_angle_gamma 90.000000
_cell_volume 365.443069
_symmetry_space_group_name_H-M "P 21"
_symmetry_group_IT_number 4
_symmetry_cell_setting 'monoclinic'
loop_
_space_group_symop_operation_xyz
x,y,z
-x,1/2+y,-z
loop_
_atom_site_type_symbol
_atom_site_label
_atom_site_fract_x
_atom_site_fract_y
_atom_site_fract_z
Si Si1 0.622462 0.204610 0.039276
Si Si2 0.672261 0.468861 0.496004
Si Si3 0.586711 0.788033 0.459769
Si Si4 0.193018 0.514563 0.778804
Si Si5 0.005354 0.868426 0.859680
O O1 0.493007 0.217754 0.313827
O O2 0.871656 0.273941 0.015297
O O3 0.726268 0.098509 0.020076
O O4 0.394545 0.224320 0.802075
O O5 0.646818 0.363572 0.614725
O O6 0.386427 0.515523 0.534367
O O7 0.894239 0.530758 0.657027
O O8 0.765607 0.447035 0.199191
O O9 0.850197 0.844060 0.573900
O O10 0.199749 0.416054 0.945266
#
# Coordination Sequence:
#
# PCOD8047686 Si02
#       5
#     2   2   2   2   2
#     4  11  28  47  77 123 159 210 270 332 395 478
#     4  11  25  48  77 108 154 209 262 323 401 466
#     4  11  24  50  77 111 159 212 263 326 402 470
#     4  12  27  50  78 120 160 208 273 330 393 481
#     4  11  26  51  83 108 168 213 262 329 409 473
#
# _framework density 27.364045999999998
#
# number of rings (size 3 to 8) (size 9 to 14) (size 15 to 20)
#    0.000    0.800    4.000    1.200    8.400    0.000 
#    0.000    2.000    0.000    0.000    0.000    0.000 
#    0.000    0.000    0.000    0.000    0.000    0.000 
#
# Total GULP energy -123890.345809 kJ/mol
# GULP energy per Si atom -12389.034581 kJ/mol
# Density = 2.730176 g / cm^3
# Si number density = 27.364046 Si / 1000 Ang^3
#
#
#
# Elastic Constant Matrix: (Units=GPa)
#
#
# Indices 1 2 3 4 5 6 
#
# 1 139.7852 25.7103 22.6853 0.0000 -11.4592 0.0000
# 2 25.7103 93.3140 22.0564 0.0000 -5.0655 0.0000
# 3 22.6853 22.0564 61.2164 0.0000 -1.3035 0.0000
# 4 0.0000 0.0000 0.0000 36.5640 0.0000 -1.4629
# 5 -11.4592 -5.0655 -1.3035 0.0000 33.6525 0.0000
# 6 0.0000 0.0000 0.0000 -1.4629 0.0000 23.1865
#
#
#
# Elastic Compliance Matrix: (Units=1/GPa)
#
#
# Indices 1 2 3 4 5 6 
#
# 1 0.008015 -0.001517 -0.002372 0.000000 0.002409 0.000000
# 2 -0.001517 0.012088 -0.003769 0.000000 0.001157 0.000000
# 3 -0.002372 -0.003769 0.018559 0.000000 -0.000656 0.000000
# 4 0.000000 0.000000 0.000000 0.027419 0.000000 0.001730
# 5 0.002409 0.001157 -0.000656 0.000000 0.030685 0.000000
# 6 0.000000 0.000000 0.000000 0.001730 0.000000 0.043238
#
#
# Mechanical properties :
#
#
# Convention : Reuss Voigt Hill
#
# Bulk Modulus (GPa) = 42.83380 48.35775 45.59578
# Shear Modulus (GPa) = 30.65594 33.60483 32.13039
#
# Velocity S-wave (km/s) = 3.35072 3.50818 3.43035
# Velocity P-wave (km/s) = 5.53688 5.84124 5.69110
#
# Compressibility (1/GPa) = 0.02334605
#
# Stress axis : x y z
#
# Youngs Moduli (GPa) = 124.76077 82.72655 53.88359
#
# Poissons Ratio (x) = 0.12549 0.12784
# Poissons Ratio (y) = 0.18925 0.20306
# Poissons Ratio (z) = 0.29599 0.31176
#
# Static dielectric constant tensor:
#      x y z
#    x 4.899310 0.000000 -0.113410 
#    y 0.000000 4.741050 0.000000 
#    z -0.113410 0.000000 4.794020 
# 
# 
# High freq. dielectric constant tensor:
#      x y z
#    x 2.101090 0.000000 -0.006500 
#    y 0.000000 2.086000 0.000000 
#    z -0.006500 0.000000 2.097870 
# 
# From -- ./inp_files/294.got.cif
#   From: 2010.03.12/outbox.cif.g09.slc.cpg/sg4_1_cif.got.tgz:294.got - 2010.03.31 09:31:35.
