data_PCOD8047063
_publ_section_title
;
Structure prediction by ZEFSAII (Michael W. Deem and Ramdas Pophale) SiO2 
 PCOD8047063
Probable space group: P 21
;
_chemical_formula_sum "Si O2"
_cell_formula_units_Z 14
_cell_length_a 12.893558
_cell_length_b 9.075386
_cell_length_c 9.100336
_cell_angle_alpha 90.000000
_cell_angle_beta 142.534271
_cell_angle_gamma 90.000000
_cell_volume 647.744436
_symmetry_space_group_name_H-M "P 21"
_symmetry_group_IT_number 4
_symmetry_cell_setting 'monoclinic'
loop_
_space_group_symop_operation_xyz
x,y,z
-x,1/2+y,-z
loop_
_atom_site_type_symbol
_atom_site_label
_atom_site_fract_x
_atom_site_fract_y
_atom_site_fract_z
Si Si1 0.863030 0.413390 0.939768
Si Si2 0.941956 0.190685 0.265252
Si Si3 0.307860 0.106415 0.792560
Si Si4 0.670549 0.185266 0.531334
Si Si5 0.665266 0.256170 0.195415
Si Si6 0.705118 0.683083 0.888294
Si Si7 0.167415 0.471739 0.095445
O O1 0.798453 0.289629 0.758871
O O2 0.716918 0.528262 0.817871
O O3 0.941934 0.343442 0.176108
O O4 0.003468 0.504276 0.010340
O O5 0.826540 0.207409 0.279963
O O6 0.140360 0.149179 0.511266
O O7 0.843721 0.064725 0.065516
O O8 0.347162 0.933320 0.817400
O O9 0.480193 0.192805 0.933892
O O10 0.255571 0.154248 0.897359
O O11 0.712235 0.184334 0.405435
O O12 0.482325 0.248773 0.339925
O O13 0.680684 0.025243 0.623669
O O14 0.825715 0.802155 0.946171
#
# Coordination Sequence:
#
# PCOD8047063 Si02
#       7
#     2   2   2   2   2   2   2
#     4  11  23  45  66 100 132 181 234 276 350 409
#     4  11  26  45  72  99 143 183 226 292 348 420
#     4  11  27  44  72 107 138 190 229 295 349 418
#     4  10  24  43  66  98 133 180 225 291 339 409
#     4  11  26  47  71 105 141 182 243 282 355 420
#     4  11  23  43  68  98 138 177 232 285 343 415
#     4  11  25  43  67 101 133 183 229 283 350 411
#
# _framework density 21.613462999999999
#
# number of rings (size 3 to 8) (size 9 to 14) (size 15 to 20)
#    0.000    1.143    1.429    3.429   10.000    2.286 
#   10.286    0.000    0.000    0.000    0.000    0.000 
#    0.000    0.000    0.000    0.000    0.000    0.000 
#
# Total GULP energy -173532.480138 kJ/mol
# GULP energy per Si atom -12395.177153 kJ/mol
# Density = 2.156427 g / cm^3
# Si number density = 21.613463 Si / 1000 Ang^3
#
#
#
# Elastic Constant Matrix: (Units=GPa)
#
#
# Indices 1 2 3 4 5 6 
#
# 1 103.7058 35.4355 41.4072 0.0000 -0.7196 0.0000
# 2 35.4355 123.1623 41.1427 0.0000 -5.5887 0.0000
# 3 41.4072 41.1427 118.6120 0.0000 -2.3429 0.0000
# 4 0.0000 0.0000 0.0000 25.8821 0.0000 2.1224
# 5 -0.7196 -5.5887 -2.3429 0.0000 30.9680 0.0000
# 6 0.0000 0.0000 0.0000 2.1224 0.0000 41.8209
#
#
#
# Elastic Compliance Matrix: (Units=1/GPa)
#
#
# Indices 1 2 3 4 5 6 
#
# 1 0.011746 -0.002290 -0.003314 0.000000 -0.000391 0.000000
# 2 -0.002290 0.009693 -0.002533 0.000000 0.001504 0.000000
# 3 -0.003314 -0.002533 0.010471 0.000000 0.000258 0.000000
# 4 0.000000 0.000000 0.000000 0.038798 0.000000 -0.001969
# 5 -0.000391 0.001504 0.000258 0.000000 0.032573 0.000000
# 6 0.000000 0.000000 0.000000 -0.001969 0.000000 0.024011
#
#
# Mechanical properties :
#
#
# Convention : Reuss Voigt Hill
#
# Bulk Modulus (GPa) = 63.95456 64.60565 64.28010
# Shear Modulus (GPa) = 33.60715 34.90053 34.25384
#
# Velocity S-wave (km/s) = 3.94752 4.02277 3.98532
# Velocity P-wave (km/s) = 7.10152 7.17866 7.14020
#
# Compressibility (1/GPa) = 0.01563610
#
# Stress axis : x y z
#
# Youngs Moduli (GPa) = 85.13857 103.17100 95.49892
#
# Poissons Ratio (x) = 0.23628 0.31645
# Poissons Ratio (y) = 0.19498 0.24189
# Poissons Ratio (z) = 0.28212 0.26132
#
# Static dielectric constant tensor:
#      x y z
#    x 3.931510 0.000000 -0.104080 
#    y 0.000000 3.921600 0.000000 
#    z -0.104080 0.000000 3.947200 
# 
# 
# High freq. dielectric constant tensor:
#      x y z
#    x 1.862300 0.000000 0.000020 
#    y 0.000000 1.854490 0.000000 
#    z 0.000020 0.000000 1.851050 
# 
# From -- ./inp_files/5551.got.cif
#   From: 2010.03.12/outbox.cif.g09.slc.cpg/sg4_3_cif.got.tgz:5551.got - 2010.03.31 09:31:35.
