data_PCOD8047460
_publ_section_title
;
Structure prediction by ZEFSAII (Michael W. Deem and Ramdas Pophale) SiO2 
 PCOD8047460
Probable space group: P 21
;
_chemical_formula_sum "Si O2"
_cell_formula_units_Z 14
_cell_length_a 18.426471
_cell_length_b 5.172821
_cell_length_c 9.715924
_cell_angle_alpha 90.000000
_cell_angle_beta 141.026468
_cell_angle_gamma 90.000000
_cell_volume 582.475502
_symmetry_space_group_name_H-M "P 21"
_symmetry_group_IT_number 4
_symmetry_cell_setting 'monoclinic'
loop_
_space_group_symop_operation_xyz
x,y,z
-x,1/2+y,-z
loop_
_atom_site_type_symbol
_atom_site_label
_atom_site_fract_x
_atom_site_fract_y
_atom_site_fract_z
Si Si1 0.714478 0.007610 0.329408
Si Si2 0.065708 0.968846 0.543750
Si Si3 0.934210 0.223106 0.738545
Si Si4 0.637651 0.525077 0.363964
Si Si5 0.611819 0.951212 0.891351
Si Si6 0.165065 0.979496 0.147294
Si Si7 0.716608 0.439880 0.952872
O O1 0.851886 0.981386 0.568749
O O2 0.681656 0.294623 0.331828
O O3 0.628783 0.790642 0.265545
O O4 0.702132 0.975430 0.149189
O O5 0.075600 0.948546 0.391576
O O6 0.195165 0.944478 0.790212
O O7 0.987159 0.741772 0.490696
O O8 0.895561 0.284265 0.837085
O O9 0.069772 0.173747 0.948460
O O10 0.518321 0.424915 0.249019
O O11 0.727478 0.607097 0.615319
O O12 0.648426 0.712707 0.847554
O O13 0.619890 0.219540 0.822226
O O14 0.216849 0.854165 0.086789
#
# Coordination Sequence:
#
# PCOD8047460 Si02
#       7
#     2   2   2   2   2   2   2
#     4  11  23  43  72 106 138 181 243 292 354 417
#     4  12  26  46  74 105 143 189 236 297 353 421
#     4  11  25  44  74 103 149 186 233 289 364 425
#     4  11  25  45  70 103 143 185 238 294 349 426
#     4  12  25  45  74 100 141 189 239 296 352 402
#     4  11  27  44  69 107 143 190 229 287 359 432
#     4  12  27  45  71 106 141 184 240 291 351 423
#
# _framework density 24.035346000000001
#
# number of rings (size 3 to 8) (size 9 to 14) (size 15 to 20)
#    0.000    0.571    2.857    4.286    4.000    3.429 
#    0.000    0.000    0.000    0.000    0.000    0.000 
#    0.000    0.000    0.000    0.000    0.000    0.000 
#
# Total GULP energy -173528.003135 kJ/mol
# GULP energy per Si atom -12394.857367 kJ/mol
# Density = 2.398064 g / cm^3
# Si number density = 24.035346 Si / 1000 Ang^3
#
#
#
# Elastic Constant Matrix: (Units=GPa)
#
#
# Indices 1 2 3 4 5 6 
#
# 1 125.4737 35.4317 31.5556 0.0000 -13.5702 0.0000
# 2 35.4317 104.3817 12.7813 0.0000 2.6696 0.0000
# 3 31.5556 12.7813 67.6595 0.0000 2.2293 0.0000
# 4 0.0000 0.0000 0.0000 21.5337 0.0000 5.3794
# 5 -13.5702 2.6696 2.2293 0.0000 35.0555 0.0000
# 6 0.0000 0.0000 0.0000 5.3794 0.0000 43.1701
#
#
#
# Elastic Compliance Matrix: (Units=1/GPa)
#
#
# Indices 1 2 3 4 5 6 
#
# 1 0.010463 -0.003125 -0.004440 0.000000 0.004571 0.000000
# 2 -0.003125 0.010754 -0.000508 0.000000 -0.001996 0.000000
# 3 -0.004440 -0.000508 0.017038 0.000000 -0.002764 0.000000
# 4 0.000000 0.000000 0.000000 0.047931 0.000000 -0.005973
# 5 0.004571 -0.001996 -0.002764 0.000000 0.030623 0.000000
# 6 0.000000 0.000000 0.000000 -0.005973 0.000000 0.023908
#
#
# Mechanical properties :
#
#
# Convention : Reuss Voigt Hill
#
# Bulk Modulus (GPa) = 45.23167 50.78355 48.00761
# Shear Modulus (GPa) = 30.44432 34.46830 32.45631
#
# Velocity S-wave (km/s) = 3.56286 3.79102 3.67871
# Velocity P-wave (km/s) = 5.98205 6.35114 6.16936
#
# Compressibility (1/GPa) = 0.02210840
#
# Stress axis : x y z
#
# Youngs Moduli (GPa) = 95.57290 92.98651 58.69291
#
# Poissons Ratio (x) = 0.29057 0.26061
# Poissons Ratio (y) = 0.29865 0.02984
# Poissons Ratio (z) = 0.42436 0.04727
#
# Static dielectric constant tensor:
#      x y z
#    x 4.434670 0.000000 0.016850 
#    y 0.000000 4.225330 0.000000 
#    z 0.016850 0.000000 4.613080 
# 
# 
# High freq. dielectric constant tensor:
#      x y z
#    x 1.971430 0.000000 0.003380 
#    y 0.000000 1.940690 0.000000 
#    z 0.003380 0.000000 1.957980 
# 
# From -- ./inp_files/7139.got.cif
#   From: 2010.03.12/outbox.cif.g09.slc.cpg/sg4_4_cif.got.tgz:7139.got - 2010.03.31 09:31:35.
