data_PCOD8047639
_publ_section_title
;
Structure prediction by ZEFSAII (Michael W. Deem and Ramdas Pophale) SiO2 
 PCOD8047639
Probable space group: P 21
;
_chemical_formula_sum "Si O2"
_cell_formula_units_Z 8
_cell_length_a 5.009633
_cell_length_b 7.989605
_cell_length_c 7.273760
_cell_angle_alpha 90.000000
_cell_angle_beta 112.139507
_cell_angle_gamma 90.000000
_cell_volume 269.666696
_symmetry_space_group_name_H-M "P 21"
_symmetry_group_IT_number 4
_symmetry_cell_setting 'monoclinic'
loop_
_space_group_symop_operation_xyz
x,y,z
-x,1/2+y,-z
loop_
_atom_site_type_symbol
_atom_site_label
_atom_site_fract_x
_atom_site_fract_y
_atom_site_fract_z
Si Si1 0.839096 0.866600 0.719618
Si Si2 0.204283 0.050733 0.071356
Si Si3 0.769529 0.508036 0.481103
Si Si4 0.742006 0.814147 0.231863
O O1 0.811792 0.664671 0.744381
O O2 0.555851 0.952276 0.562739
O O3 0.119475 0.914396 0.673256
O O4 0.908165 0.953657 0.938196
O O5 0.453817 0.918755 0.166933
O O6 0.288893 0.183840 0.938550
O O7 0.777910 0.709556 0.436539
O O8 0.977056 0.437390 0.703474
#
# Coordination Sequence:
#
# PCOD8047639 Si02
#       4
#     2   2   2   2
#     4  11  25  45  71 106 147 191 241 298 363 431
#     4  11  24  46  75 109 148 194 243 301 364 434
#     4  11  26  46  71 107 146 192 241 299 362 432
#     4  11  25  47  75 108 147 191 243 300 363 431
#
# _framework density 29.666250000000002
#
# number of rings (size 3 to 8) (size 9 to 14) (size 15 to 20)
#    0.000    1.000    0.000    6.000    0.000   14.000 
#    0.000    0.000    0.000    0.000    0.000    0.000 
#    0.000    0.000    0.000    0.000    0.000    0.000 
#
# Total GULP energy -99289.530314 kJ/mol
# GULP energy per Si atom -12411.191289 kJ/mol
# Density = 2.959873 g / cm^3
# Si number density = 29.666250 Si / 1000 Ang^3
#
#
#
# Elastic Constant Matrix: (Units=GPa)
#
#
# Indices 1 2 3 4 5 6 
#
# 1 99.0170 60.1144 46.0815 0.0000 18.3184 0.0000
# 2 60.1144 242.9206 69.7088 0.0000 3.7340 0.0000
# 3 46.0815 69.7088 172.8455 0.0000 8.2199 0.0000
# 4 0.0000 0.0000 0.0000 64.3965 0.0000 8.4291
# 5 18.3184 3.7340 8.2199 0.0000 44.3919 0.0000
# 6 0.0000 0.0000 0.0000 8.4291 0.0000 66.6477
#
#
#
# Elastic Compliance Matrix: (Units=1/GPa)
#
#
# Indices 1 2 3 4 5 6 
#
# 1 0.013727 -0.002644 -0.002355 0.000000 -0.005006 0.000000
# 2 -0.002644 0.005165 -0.001422 0.000000 0.000920 0.000000
# 3 -0.002355 -0.001422 0.006997 0.000000 -0.000204 0.000000
# 4 0.000000 0.000000 0.000000 0.015790 0.000000 -0.001997
# 5 -0.005006 0.000920 -0.000204 0.000000 0.024553 0.000000
# 6 0.000000 0.000000 0.000000 -0.001997 0.000000 0.015257
#
#
# Mechanical properties :
#
#
# Convention : Reuss Voigt Hill
#
# Bulk Modulus (GPa) = 76.65252 96.28806 86.47029
# Shear Modulus (GPa) = 50.66964 57.67912 54.17438
#
# Velocity S-wave (km/s) = 4.13727 4.41417 4.27796
# Velocity P-wave (km/s) = 6.97976 7.64901 7.32204
#
# Compressibility (1/GPa) = 0.01304589
#
# Stress axis : x y z
#
# Youngs Moduli (GPa) = 72.85070 193.62037 142.92813
#
# Poissons Ratio (x) = 0.51195 0.33662
# Poissons Ratio (y) = 0.19262 0.20321
# Poissons Ratio (z) = 0.17158 0.27528
#
# Static dielectric constant tensor:
#      x y z
#    x 5.203410 0.000000 -0.829170 
#    y 0.000000 6.437010 0.000000 
#    z -0.829170 0.000000 6.603730 
# 
# 
# High freq. dielectric constant tensor:
#      x y z
#    x 2.211080 0.000000 -0.051770 
#    y 0.000000 2.269120 0.000000 
#    z -0.051770 0.000000 2.282500 
# 
# From -- ./inp_files/891.got.cif
#   From: 2010.03.12/outbox.cif.g09.slc.cpg/sg4_1_cif.got.tgz:891.got - 2010.03.31 09:31:35.
