data_PCOD8047730
_publ_section_title
;
Structure prediction by ZEFSAII (Michael W. Deem and Ramdas Pophale) SiO2 
 PCOD8047730
Probable space group: P 21
;
_chemical_formula_sum "Si O2"
_cell_formula_units_Z 14
_cell_length_a 8.585120
_cell_length_b 4.896040
_cell_length_c 23.472487
_cell_angle_alpha 90.000000
_cell_angle_beta 30.102043
_cell_angle_gamma 90.000000
_cell_volume 494.831551
_symmetry_space_group_name_H-M "P 21"
_symmetry_group_IT_number 4
_symmetry_cell_setting 'monoclinic'
loop_
_space_group_symop_operation_xyz
x,y,z
-x,1/2+y,-z
loop_
_atom_site_type_symbol
_atom_site_label
_atom_site_fract_x
_atom_site_fract_y
_atom_site_fract_z
Si Si1 0.337076 0.851000 0.076369
Si Si2 0.841726 0.339538 0.074911
Si Si3 0.099330 0.570001 0.593709
Si Si4 0.803633 0.466475 0.212538
Si Si5 0.111032 0.436868 0.432634
Si Si6 0.740796 0.186487 0.774115
Si Si7 0.701404 0.332802 0.363785
O O1 0.368056 0.850329 0.135021
O O2 0.011685 0.734801 0.156122
O O3 0.613218 0.659486 0.962395
O O4 0.891268 0.312989 0.126913
O O5 0.505513 0.451801 0.163501
O O6 0.886695 0.036871 0.035464
O O7 0.343402 0.433212 0.472670
O O8 0.788618 0.390395 0.704490
O O9 0.272766 0.582387 0.600503
O O10 0.999922 0.858613 0.596761
O O11 0.449954 0.571123 0.321365
O O12 0.826676 0.261563 0.260483
O O13 0.119856 0.153742 0.465766
O O14 0.076847 0.061486 0.679886
#
# Coordination Sequence:
#
# PCOD8047730 Si02
#       7
#     2   2   2   2   2   2   2
#     4  11  26  50  76 112 149 195 265 326 378 444
#     4  12  29  52  77 113 153 201 262 323 388 449
#     4  12  26  46  76 110 162 199 253 306 385 461
#     4  11  27  49  80 113 153 205 254 318 384 458
#     4  12  30  49  78 116 158 202 253 307 380 468
#     4  11  27  46  78 108 149 206 250 316 388 450
#     4  11  25  46  75 114 150 204 251 310 377 464
#
# _framework density 28.292456000000001
#
# number of rings (size 3 to 8) (size 9 to 14) (size 15 to 20)
#    0.000    0.571    2.857    2.571   14.000    1.143 
#    2.571    0.000    0.000    0.000    0.000    0.000 
#    0.000    0.000    0.000    0.000    0.000    0.000 
#
# Total GULP energy -173628.631607 kJ/mol
# GULP energy per Si atom -12402.045115 kJ/mol
# Density = 2.822806 g / cm^3
# Si number density = 28.292456 Si / 1000 Ang^3
#
#
#
# Elastic Constant Matrix: (Units=GPa)
#
#
# Indices 1 2 3 4 5 6 
#
# 1 137.1098 9.4624 41.3812 0.0000 31.2180 0.0000
# 2 9.4624 61.2429 1.5027 0.0000 15.2633 0.0000
# 3 41.3812 1.5027 142.9824 0.0000 20.4197 0.0000
# 4 0.0000 0.0000 0.0000 21.4693 0.0000 13.5669
# 5 31.2180 15.2633 20.4197 0.0000 63.0143 0.0000
# 6 0.0000 0.0000 0.0000 13.5669 0.0000 46.9654
#
#
#
# Elastic Compliance Matrix: (Units=1/GPa)
#
#
# Indices 1 2 3 4 5 6 
#
# 1 0.008745 -0.000409 -0.002015 0.000000 -0.003580 0.000000
# 2 -0.000409 0.017423 0.000534 0.000000 -0.004190 0.000000
# 3 -0.002015 0.000534 0.007809 0.000000 -0.001661 0.000000
# 4 0.000000 0.000000 0.000000 0.056979 0.000000 -0.016460
# 5 -0.003580 -0.004190 -0.001661 0.000000 0.019196 0.000000
# 6 0.000000 0.000000 0.000000 -0.016460 0.000000 0.026047
#
#
# Mechanical properties :
#
#
# Convention : Reuss Voigt Hill
#
# Bulk Modulus (GPa) = 33.11829 49.55862 41.33846
# Shear Modulus (GPa) = 33.32306 45.55571 39.43939
#
# Velocity S-wave (km/s) = 3.43564 4.01705 3.73767
# Velocity P-wave (km/s) = 5.24112 6.25061 5.76799
#
# Compressibility (1/GPa) = 0.03019479
#
# Stress axis : x y z
#
# Youngs Moduli (GPa) = 114.34981 57.39571 128.06092
#
# Poissons Ratio (x) = 0.02350 0.25809
# Poissons Ratio (y) = 0.04682 -0.06836
# Poissons Ratio (z) = 0.23046 -0.03064
#
# Static dielectric constant tensor:
#      x y z
#    x 5.481580 0.000000 0.313330 
#    y 0.000000 4.607840 0.000000 
#    z 0.313330 0.000000 5.497890 
# 
# 
# High freq. dielectric constant tensor:
#      x y z
#    x 2.162080 0.000000 0.009830 
#    y 0.000000 2.118710 0.000000 
#    z 0.009830 0.000000 2.171100 
# 
# From -- ./inp_files/16028.got.cif
#   From: 2010.03.12/outbox.cif.g09.slc.cpg/sg4_9_cif.got.tgz:16028.got - 2010.03.31 09:31:35.
