data_PCOD8047200
_publ_section_title
;
Structure prediction by ZEFSAII (Michael W. Deem and Ramdas Pophale) SiO2 
 PCOD8047200
Probable space group: P 21
;
_chemical_formula_sum "Si O2"
_cell_formula_units_Z 14
_cell_length_a 8.975524
_cell_length_b 13.152936
_cell_length_c 8.977118
_cell_angle_alpha 90.000000
_cell_angle_beta 40.137443
_cell_angle_gamma 90.000000
_cell_volume 683.164830
_symmetry_space_group_name_H-M "P 21"
_symmetry_group_IT_number 4
_symmetry_cell_setting 'monoclinic'
loop_
_space_group_symop_operation_xyz
x,y,z
-x,1/2+y,-z
loop_
_atom_site_type_symbol
_atom_site_label
_atom_site_fract_x
_atom_site_fract_y
_atom_site_fract_z
Si Si1 0.156349 0.005600 0.368644
Si Si2 0.826008 0.220567 0.993655
Si Si3 0.160788 0.361755 0.557488
Si Si4 0.631621 0.719075 0.843005
Si Si5 0.006611 0.504226 0.174076
Si Si6 0.557112 0.862974 0.160623
Si Si7 0.612046 0.362197 0.388283
O O1 0.240944 0.112273 0.240553
O O2 0.371338 0.929303 0.213123
O O3 0.975100 0.962024 0.388416
O O4 0.033802 0.021314 0.620302
O O5 0.014571 0.297105 0.785888
O O6 0.942010 0.112450 0.940938
O O7 0.620257 0.203476 0.034172
O O8 0.731559 0.265036 0.220707
O O9 0.212481 0.294934 0.372715
O O10 0.394333 0.398850 0.457988
O O11 0.612629 0.762954 0.023486
O O12 0.779778 0.459300 0.268629
O O13 0.215435 0.428260 0.984632
O O14 0.458057 0.825595 0.393778
#
# Coordination Sequence:
#
# PCOD8047200 Si02
#       7
#     2   2   2   2   2   2   2
#     4  11  22  39  73 101 127 179 227 277 335 393
#     4  11  22  43  72  93 134 181 221 274 341 400
#     4  11  22  43  68  98 138 170 224 279 332 401
#     4  11  22  39  73 101 127 179 227 277 335 393
#     4  11  22  43  72  93 134 181 221 274 341 400
#     4  11  22  43  68  98 138 170 224 279 332 401
#     4  10  26  42  68  98 134 182 214 276 342 402
#
# _framework density 20.492861000000001
#
# number of rings (size 3 to 8) (size 9 to 14) (size 15 to 20)
#    0.000    1.143    5.714    0.857    0.000    0.000 
#    0.000    8.571    6.286    0.000    0.000    0.000 
#    0.000    0.000    0.000    0.000    0.000    0.000 
#
# Total GULP energy -173699.716338 kJ/mol
# GULP energy per Si atom -12407.122596 kJ/mol
# Density = 2.044622 g / cm^3
# Si number density = 20.492861 Si / 1000 Ang^3
#
#
#
# Elastic Constant Matrix: (Units=GPa)
#
#
# Indices 1 2 3 4 5 6 
#
# 1 118.6086 86.7314 75.1180 0.0000 4.4609 0.0000
# 2 86.7314 153.7627 80.3704 0.0000 4.7608 0.0000
# 3 75.1180 80.3704 133.3435 0.0000 -7.3886 0.0000
# 4 0.0000 0.0000 0.0000 38.0091 0.0000 -5.7809
# 5 4.4609 4.7608 -7.3886 0.0000 22.9944 0.0000
# 6 0.0000 0.0000 0.0000 -5.7809 0.0000 24.4440
#
#
#
# Elastic Compliance Matrix: (Units=1/GPa)
#
#
# Indices 1 2 3 4 5 6 
#
# 1 0.016999 -0.006350 -0.005965 0.000000 -0.003900 0.000000
# 2 -0.006350 0.012218 -0.003929 0.000000 -0.002560 0.000000
# 3 -0.005965 -0.003929 0.013579 0.000000 0.006334 0.000000
# 4 0.000000 0.000000 0.000000 0.027291 0.000000 0.006454
# 5 -0.003900 -0.002560 0.006334 0.000000 0.046811 0.000000
# 6 0.000000 0.000000 0.000000 0.006454 0.000000 0.042436
#
#
# Mechanical properties :
#
#
# Convention : Reuss Voigt Hill
#
# Bulk Modulus (GPa) = 97.01029 98.90604 97.95816
# Shear Modulus (GPa) = 25.60724 27.98918 26.79821
#
# Velocity S-wave (km/s) = 3.53876 3.69968 3.62012
# Velocity P-wave (km/s) = 8.00865 8.16203 8.08570
#
# Compressibility (1/GPa) = 0.01030819
#
# Stress axis : x y z
#
# Youngs Moduli (GPa) = 58.82802 81.84585 73.64367
#
# Poissons Ratio (x) = 0.51970 0.43928
# Poissons Ratio (y) = 0.37354 0.28935
# Poissons Ratio (z) = 0.35091 0.32158
#
# Static dielectric constant tensor:
#      x y z
#    x 3.653850 0.000000 -0.163850 
#    y 0.000000 3.711920 0.000000 
#    z -0.163850 0.000000 4.043520 
# 
# 
# High freq. dielectric constant tensor:
#      x y z
#    x 1.796940 0.000000 -0.010780 
#    y 0.000000 1.795280 0.000000 
#    z -0.010780 0.000000 1.822770 
# 
# From -- ./inp_files/1108.got.cif
#   From: 2010.03.12/outbox.cif.g09.slc.cpg/sg4_1_cif.got.tgz:1108.got - 2010.03.31 09:31:35.
