data_PCOD8047443
_publ_section_title
;
Structure prediction by ZEFSAII (Michael W. Deem and Ramdas Pophale) SiO2 
 PCOD8047443
Probable space group: P 21
;
_chemical_formula_sum "Si O2"
_cell_formula_units_Z 16
_cell_length_a 8.803236
_cell_length_b 8.993181
_cell_length_c 11.523683
_cell_angle_alpha 90.000000
_cell_angle_beta 129.698599
_cell_angle_gamma 90.000000
_cell_volume 701.952506
_symmetry_space_group_name_H-M "P 21"
_symmetry_group_IT_number 4
_symmetry_cell_setting 'monoclinic'
loop_
_space_group_symop_operation_xyz
x,y,z
-x,1/2+y,-z
loop_
_atom_site_type_symbol
_atom_site_label
_atom_site_fract_x
_atom_site_fract_y
_atom_site_fract_z
Si Si1 0.935099 0.780560 0.937255
Si Si2 0.184374 0.983815 0.203925
Si Si3 0.960777 0.966123 0.722681
Si Si4 0.904793 0.250679 0.401306
Si Si5 0.294160 0.165495 0.965828
Si Si6 0.018925 0.965058 0.358510
Si Si7 0.401199 0.407476 0.856197
Si Si8 0.374406 0.534666 0.620418
O O1 0.972314 0.614276 0.905811
O O2 0.885589 0.886636 0.803751
O O3 0.755542 0.765591 0.944190
O O4 0.134781 0.843556 0.096490
O O5 0.399603 0.056904 0.301977
O O6 0.173404 0.935979 0.332202
O O7 0.764147 0.013149 0.557792
O O8 0.102549 0.860988 0.712752
O O9 0.082214 0.116105 0.809801
O O10 0.977798 0.329124 0.552283
O O11 0.060380 0.118593 0.447498
O O12 0.692552 0.174665 0.329605
O O13 0.431321 0.254325 0.940756
O O14 0.407495 0.012605 0.046360
O O15 0.802555 0.975922 0.191377
O O16 0.360607 0.387786 0.697168
#
# Coordination Sequence:
#
# PCOD8047443 Si02
#       8
#     2   2   2   2   2   2   2   2
#     4  12  25  47  72 106 149 201 235 303 368 439
#     4  12  26  48  75 103 151 191 244 298 372 441
#     4  12  25  45  78 107 151 196 241 304 379 431
#     4  11  23  42  76 102 145 183 244 303 369 426
#     4  12  27  47  76 111 151 197 249 305 371 446
#     4  11  24  44  73 101 144 192 231 308 362 433
#     4  11  24  45  75 107 145 191 246 306 364 440
#     4  11  26  46  73 111 144 187 250 309 357 448
#
# _framework density 22.793562999999999
#
# number of rings (size 3 to 8) (size 9 to 14) (size 15 to 20)
#    0.000    0.500    7.500    0.750    3.500    2.000 
#    0.000    0.000    2.750    0.000    0.000    0.000 
#    0.000    0.000    0.000    0.000    0.000    0.000 
#
# Total GULP energy -198209.426279 kJ/mol
# GULP energy per Si atom -12388.089142 kJ/mol
# Density = 2.274168 g / cm^3
# Si number density = 22.793563 Si / 1000 Ang^3
#
#
#
# Elastic Constant Matrix: (Units=GPa)
#
#
# Indices 1 2 3 4 5 6 
#
# 1 110.9390 35.5786 67.1012 0.0000 -10.5276 0.0000
# 2 35.5786 79.3530 50.2712 0.0000 -9.3749 0.0000
# 3 67.1012 50.2712 118.8968 0.0000 -15.4303 0.0000
# 4 0.0000 0.0000 0.0000 34.9203 0.0000 -6.7580
# 5 -10.5276 -9.3749 -15.4303 0.0000 42.3279 0.0000
# 6 0.0000 0.0000 0.0000 -6.7580 0.0000 42.8164
#
#
#
# Elastic Compliance Matrix: (Units=1/GPa)
#
#
# Indices 1 2 3 4 5 6 
#
# 1 0.013865 -0.001695 -0.007043 0.000000 0.000506 0.000000
# 2 -0.001695 0.017480 -0.006283 0.000000 0.001159 0.000000
# 3 -0.007043 -0.006283 0.015361 0.000000 0.002456 0.000000
# 4 0.000000 0.000000 0.000000 0.029539 0.000000 0.004662
# 5 0.000506 0.001159 0.002456 0.000000 0.024903 0.000000
# 6 0.000000 0.000000 0.000000 0.004662 0.000000 0.024091
#
#
# Mechanical properties :
#
#
# Convention : Reuss Voigt Hill
#
# Bulk Modulus (GPa) = 60.01328 68.34342 64.17835
# Shear Modulus (GPa) = 31.08749 34.42878 32.75813
#
# Velocity S-wave (km/s) = 3.69707 3.89068 3.79511
# Velocity P-wave (km/s) = 6.67912 7.08745 6.88631
#
# Compressibility (1/GPa) = 0.01666298
#
# Stress axis : x y z
#
# Youngs Moduli (GPa) = 72.12193 57.20954 65.10062
#
# Poissons Ratio (x) = 0.09699 0.45849
# Poissons Ratio (y) = 0.12227 0.40906
# Poissons Ratio (z) = 0.50794 0.35947
#
# Static dielectric constant tensor:
#      x y z
#    x 4.254110 0.000000 -0.229050 
#    y 0.000000 4.217390 0.000000 
#    z -0.229050 0.000000 4.201070 
# 
# 
# High freq. dielectric constant tensor:
#      x y z
#    x 1.898470 0.000000 -0.024170 
#    y 0.000000 1.891520 0.000000 
#    z -0.024170 0.000000 1.898760 
# 
# From -- ./inp_files/11085.got.cif
#   From: 2010.03.12/outbox.cif.g09.slc.cpg/sg4_6_cif.got.tgz:11085.got - 2010.03.31 09:31:35.
