data_PCOD8047086
_publ_section_title
;
Structure prediction by ZEFSAII (Michael W. Deem and Ramdas Pophale) SiO2 
 PCOD8047086
Probable space group: P 21
;
_chemical_formula_sum "Si O2"
_cell_formula_units_Z 16
_cell_length_a 9.068669
_cell_length_b 7.916899
_cell_length_c 17.787585
_cell_angle_alpha 90.000000
_cell_angle_beta 31.011498
_cell_angle_gamma 90.000000
_cell_volume 657.960761
_symmetry_space_group_name_H-M "P 21"
_symmetry_group_IT_number 4
_symmetry_cell_setting 'monoclinic'
loop_
_space_group_symop_operation_xyz
x,y,z
-x,1/2+y,-z
loop_
_atom_site_type_symbol
_atom_site_label
_atom_site_fract_x
_atom_site_fract_y
_atom_site_fract_z
Si Si1 0.048241 0.800740 0.073188
Si Si2 0.010553 0.304326 0.609727
Si Si3 0.222411 0.644788 0.846898
Si Si4 0.685271 0.428663 0.896303
Si Si5 0.481391 0.924641 0.535844
Si Si6 0.845932 0.508933 0.546127
Si Si7 0.918508 0.792965 0.841181
Si Si8 0.514643 0.255260 0.607784
O O1 0.241799 0.815920 0.062710
O O2 0.750914 0.704177 0.223238
O O3 0.220410 0.704415 0.933864
O O4 0.969305 0.979933 0.073318
O O5 0.801162 0.336422 0.770915
O O6 0.995016 0.464833 0.559844
O O7 0.335446 0.287465 0.497426
O O8 0.944036 0.124782 0.597283
O O9 0.552560 0.611387 0.684612
O O10 0.077685 0.775992 0.852053
O O11 0.808112 0.617196 0.853326
O O12 0.341840 0.425520 0.036672
O O13 0.577479 0.913929 0.406172
O O14 0.144504 0.885332 0.687547
O O15 0.589456 0.105181 0.518265
O O16 0.786427 0.322934 0.535913
#
# Coordination Sequence:
#
# PCOD8047086 Si02
#       8
#     2   2   2   2   2   2   2   2
#     4  10  24  44  70 104 145 191 240 296 370 436
#     4  12  25  47  74 102 152 192 245 316 366 447
#     4  10  24  46  70 105 148 188 245 300 369 449
#     4  11  27  47  72 109 146 193 254 311 366 444
#     4  12  24  46  75 105 146 194 244 303 378 440
#     4  11  26  47  70 111 144 191 253 305 372 446
#     4  11  27  47  73 110 147 196 247 310 372 444
#     4  11  25  42  76 104 140 193 244 301 371 448
#
# _framework density 24.31756
#
# number of rings (size 3 to 8) (size 9 to 14) (size 15 to 20)
#    0.000    1.000    2.500    2.250   10.500    0.000 
#    4.500    0.000    0.000    0.000    0.000    0.000 
#    0.000    0.000    0.000    0.000    0.000    0.000 
#
# Total GULP energy -198372.819800 kJ/mol
# GULP energy per Si atom -12398.301238 kJ/mol
# Density = 2.426221 g / cm^3
# Si number density = 24.317560 Si / 1000 Ang^3
#
#
#
# Elastic Constant Matrix: (Units=GPa)
#
#
# Indices 1 2 3 4 5 6 
#
# 1 101.8754 -4.5606 37.5306 0.0000 9.3501 0.0000
# 2 -4.5606 36.0987 23.7471 0.0000 11.7902 0.0000
# 3 37.5306 23.7471 110.6617 0.0000 2.5443 0.0000
# 4 0.0000 0.0000 0.0000 33.0062 0.0000 4.9297
# 5 9.3501 11.7902 2.5443 0.0000 45.4627 0.0000
# 6 0.0000 0.0000 0.0000 4.9297 0.0000 45.4464
#
#
#
# Elastic Compliance Matrix: (Units=1/GPa)
#
#
# Indices 1 2 3 4 5 6 
#
# 1 0.012518 0.006528 -0.005555 0.000000 -0.003957 0.000000
# 2 0.006528 0.038843 -0.010300 0.000000 -0.010840 0.000000
# 3 -0.005555 -0.010300 0.013060 0.000000 0.003083 0.000000
# 4 0.000000 0.000000 0.000000 0.030796 0.000000 -0.003341
# 5 -0.003957 -0.010840 0.003083 0.000000 0.025448 0.000000
# 6 0.000000 0.000000 0.000000 -0.003341 0.000000 0.022366
#
#
# Mechanical properties :
#
#
# Convention : Reuss Voigt Hill
#
# Bulk Modulus (GPa) = 21.85018 40.23000 31.04009
# Shear Modulus (GPa) = 28.25793 37.57764 32.91778
#
# Velocity S-wave (km/s) = 3.41257 3.93528 3.68321
# Velocity P-wave (km/s) = 4.95301 6.10148 5.55700
#
# Compressibility (1/GPa) = 0.04576622
#
# Stress axis : x y z
#
# Youngs Moduli (GPa) = 79.88584 25.74483 76.56925
#
# Poissons Ratio (x) = -0.16807 0.42537
# Poissons Ratio (y) = -0.52151 0.78867
# Poissons Ratio (z) = 0.44379 0.26518
#
# Static dielectric constant tensor:
#      x y z
#    x 4.630460 0.000000 0.043400 
#    y 0.000000 4.252160 0.000000 
#    z 0.043400 0.000000 4.105840 
# 
# 
# High freq. dielectric constant tensor:
#      x y z
#    x 1.983150 0.000000 0.006890 
#    y 0.000000 1.963060 0.000000 
#    z 0.006890 0.000000 1.954460 
# 
# From -- ./inp_files/14964.got.cif
#   From: 2010.03.12/outbox.cif.g09.slc.cpg/sg4_8_cif.got.tgz:14964.got - 2010.03.31 09:31:35.
