data_PCOD8047309
_publ_section_title
;
Structure prediction by ZEFSAII (Michael W. Deem and Ramdas Pophale) SiO2 
 PCOD8047309
Probable space group: P 21
;
_chemical_formula_sum "Si O2"
_cell_formula_units_Z 16
_cell_length_a 6.580220
_cell_length_b 13.320268
_cell_length_c 9.551076
_cell_angle_alpha 90.000000
_cell_angle_beta 55.047462
_cell_angle_gamma 90.000000
_cell_volume 686.154441
_symmetry_space_group_name_H-M "P 21"
_symmetry_group_IT_number 4
_symmetry_cell_setting 'monoclinic'
loop_
_space_group_symop_operation_xyz
x,y,z
-x,1/2+y,-z
loop_
_atom_site_type_symbol
_atom_site_label
_atom_site_fract_x
_atom_site_fract_y
_atom_site_fract_z
Si Si1 0.121688 0.136940 0.803578
Si Si2 0.184855 0.808363 0.153004
Si Si3 0.011893 0.040410 0.554235
Si Si4 0.026135 0.319258 0.452856
Si Si5 0.378611 0.191622 0.122025
Si Si6 0.444148 0.572160 0.716647
Si Si7 0.920738 0.520899 0.912473
Si Si8 0.653725 0.177081 0.517046
O O1 0.015600 0.100935 0.696051
O O2 0.409156 0.165366 0.705364
O O3 0.970478 0.239728 0.895721
O O4 0.092279 0.042303 0.917614
O O5 0.030209 0.805527 0.359211
O O6 0.220373 0.921532 0.081398
O O7 0.467478 0.763375 0.045759
O O8 0.292264 0.015820 0.392348
O O9 0.864227 0.101228 0.494177
O O10 0.888872 0.931347 0.618968
O O11 0.767787 0.288953 0.478870
O O12 0.244164 0.248978 0.304663
O O13 0.581908 0.120085 0.118092
O O14 0.178555 0.123479 0.119961
O O15 0.429578 0.660387 0.608437
O O16 0.213573 0.500173 0.769316
#
# Coordination Sequence:
#
# PCOD8047309 Si02
#       8
#     2   2   2   2   2   2   2   2
#     4  11  26  46  70 103 153 184 243 307 357 435
#     4  12  27  47  74 109 143 197 246 295 365 440
#     4  11  25  45  71 107 140 191 238 303 360 435
#     4  12  24  46  76 102 144 194 239 291 376 422
#     4  12  26  49  72 105 152 186 238 308 354 434
#     4  11  21  46  69  97 146 181 233 300 357 416
#     4  12  27  47  72 106 147 191 241 304 364 428
#     4  11  22  44  70 101 141 188 234 296 363 422
#
# _framework density 23.318365
#
# number of rings (size 3 to 8) (size 9 to 14) (size 15 to 20)
#    0.000    0.500    5.000    3.000    3.500    2.000 
#    6.750    0.000    0.000    0.000    0.000    0.000 
#    0.000    0.000    0.000    0.000    0.000    0.000 
#
# Total GULP energy -198251.635000 kJ/mol
# GULP energy per Si atom -12390.727188 kJ/mol
# Density = 2.326529 g / cm^3
# Si number density = 23.318365 Si / 1000 Ang^3
#
#
#
# Elastic Constant Matrix: (Units=GPa)
#
#
# Indices 1 2 3 4 5 6 
#
# 1 100.0709 22.1707 18.0265 0.0000 -12.4727 0.0000
# 2 22.1707 108.2815 21.0074 0.0000 -6.1225 0.0000
# 3 18.0265 21.0074 80.1797 0.0000 -11.3423 0.0000
# 4 0.0000 0.0000 0.0000 31.4671 0.0000 -1.2779
# 5 -12.4727 -6.1225 -11.3423 0.0000 37.2795 0.0000
# 6 0.0000 0.0000 0.0000 -1.2779 0.0000 28.5071
#
#
#
# Elastic Compliance Matrix: (Units=1/GPa)
#
#
# Indices 1 2 3 4 5 6 
#
# 1 0.011040 -0.001785 -0.001602 0.000000 0.002913 0.000000
# 2 -0.001785 0.010045 -0.002175 0.000000 0.000391 0.000000
# 3 -0.001602 -0.002175 0.013873 0.000000 0.003327 0.000000
# 4 0.000000 0.000000 0.000000 0.031837 0.000000 0.001427
# 5 0.002913 0.000391 0.003327 0.000000 0.028876 0.000000
# 6 0.000000 0.000000 0.000000 0.001427 0.000000 0.035143
#
#
# Mechanical properties :
#
#
# Convention : Reuss Voigt Hill
#
# Bulk Modulus (GPa) = 41.95904 45.66015 43.80960
# Shear Modulus (GPa) = 33.35943 34.60588 33.98265
#
# Velocity S-wave (km/s) = 3.78644 3.85653 3.82165
# Velocity P-wave (km/s) = 6.09502 6.28125 6.18884
#
# Compressibility (1/GPa) = 0.02383276
#
# Stress axis : x y z
#
# Youngs Moduli (GPa) = 90.57902 99.55460 72.08315
#
# Poissons Ratio (x) = 0.17769 0.11550
# Poissons Ratio (y) = 0.16167 0.15680
# Poissons Ratio (z) = 0.14514 0.21655
#
# Static dielectric constant tensor:
#      x y z
#    x 4.209820 0.000000 -0.145200 
#    y 0.000000 4.089250 0.000000 
#    z -0.145200 0.000000 4.280200 
# 
# 
# High freq. dielectric constant tensor:
#      x y z
#    x 1.930430 0.000000 -0.007260 
#    y 0.000000 1.907290 0.000000 
#    z -0.007260 0.000000 1.926400 
# 
# From -- ./inp_files/4787.got.cif
#   From: 2010.03.12/outbox.cif.g09.slc.cpg/sg4_3_cif.got.tgz:4787.got - 2010.03.31 09:31:35.
