data_PCOD8047371
_publ_section_title
;
Structure prediction by ZEFSAII (Michael W. Deem and Ramdas Pophale) SiO2 
 PCOD8047371
Probable space group: P 21
;
_chemical_formula_sum "Si O2"
_cell_formula_units_Z 14
_cell_length_a 16.257663
_cell_length_b 5.151826
_cell_length_c 23.130478
_cell_angle_alpha 90.000000
_cell_angle_beta 162.572410
_cell_angle_gamma 90.000000
_cell_volume 580.231248
_symmetry_space_group_name_H-M "P 21"
_symmetry_group_IT_number 4
_symmetry_cell_setting 'monoclinic'
loop_
_space_group_symop_operation_xyz
x,y,z
-x,1/2+y,-z
loop_
_atom_site_type_symbol
_atom_site_label
_atom_site_fract_x
_atom_site_fract_y
_atom_site_fract_z
Si Si1 0.400732 0.589040 0.224889
Si Si2 0.393308 0.055134 0.896200
Si Si3 0.380844 0.723090 0.784136
Si Si4 0.891505 0.292813 0.864684
Si Si5 0.063502 0.870545 0.454877
Si Si6 0.662050 0.626923 0.620599
Si Si7 0.153784 0.903239 0.957803
O O1 0.326875 0.752789 0.231269
O O2 0.718692 0.508999 0.440957
O O3 0.357691 0.742552 0.135888
O O4 0.202189 0.338235 0.094914
O O5 0.471956 0.978526 0.882089
O O6 0.430340 0.803062 0.962643
O O7 0.071211 0.138287 0.673573
O O8 0.224458 0.777296 0.619752
O O9 0.183480 0.559517 0.693347
O O10 0.664964 0.577769 0.962573
O O11 0.765669 0.556730 0.754358
O O12 0.923212 0.063649 0.839701
O O13 0.557896 0.359520 0.522184
O O14 0.947469 0.722627 0.780764
#
# Coordination Sequence:
#
# PCOD8047371 Si02
#       7
#     2   2   2   2   2   2   2
#     4  11  24  42  76 119 153 197 258 330 390 453
#     4  12  28  53  79 114 170 206 253 334 408 477
#     4  12  25  47  84 119 155 206 270 329 394 477
#     4  11  22  44  74 110 160 199 248 328 392 443
#     4  12  25  46  84 120 152 210 274 322 389 490
#     4  11  24  47  74 106 155 207 266 308 374 482
#     4  11  24  43  79 114 155 201 255 331 391 452
#
# _framework density 24.128312999999999
#
# number of rings (size 3 to 8) (size 9 to 14) (size 15 to 20)
#    0.000    0.571    7.143    0.857    0.000    0.000 
#    0.000    5.714    0.000    0.000    0.000    0.000 
#    0.000    0.000    0.000    0.000    0.000    0.000 
#
# Total GULP energy -173441.529854 kJ/mol
# GULP energy per Si atom -12388.680704 kJ/mol
# Density = 2.407340 g / cm^3
# Si number density = 24.128313 Si / 1000 Ang^3
#
#
#
# Elastic Constant Matrix: (Units=GPa)
#
#
# Indices 1 2 3 4 5 6 
#
# 1 82.4618 35.2198 54.6930 0.0000 20.5006 0.0000
# 2 35.2198 137.1263 71.5174 0.0000 3.6463 0.0000
# 3 54.6930 71.5174 132.7789 0.0000 -3.2790 0.0000
# 4 0.0000 0.0000 0.0000 38.9402 0.0000 2.9214
# 5 20.5006 3.6463 -3.2790 0.0000 35.2878 0.0000
# 6 0.0000 0.0000 0.0000 2.9214 0.0000 41.4881
#
#
#
# Elastic Compliance Matrix: (Units=1/GPa)
#
#
# Indices 1 2 3 4 5 6 
#
# 1 0.021593 -0.000530 -0.008937 0.000000 -0.013320 0.000000
# 2 -0.000530 0.010241 -0.005328 0.000000 -0.001245 0.000000
# 3 -0.008937 -0.005328 0.014257 0.000000 0.007068 0.000000
# 4 0.000000 0.000000 0.000000 0.025817 0.000000 -0.001818
# 5 -0.013320 -0.001245 0.007068 0.000000 0.036862 0.000000
# 6 0.000000 0.000000 0.000000 -0.001818 0.000000 0.024231
#
#
# Mechanical properties :
#
#
# Convention : Reuss Voigt Hill
#
# Bulk Modulus (GPa) = 60.61175 75.02526 67.81851
# Shear Modulus (GPa) = 29.74557 35.87235 32.80896
#
# Velocity S-wave (km/s) = 3.51495 3.86000 3.69151
# Velocity P-wave (km/s) = 6.45355 7.14338 6.80721
#
# Compressibility (1/GPa) = 0.01649845
#
# Stress axis : x y z
#
# Youngs Moduli (GPa) = 46.31212 97.64903 70.14022
#
# Poissons Ratio (x) = 0.05179 0.62688
# Poissons Ratio (y) = 0.02456 0.37372
# Poissons Ratio (z) = 0.41391 0.52029
#
# Static dielectric constant tensor:
#      x y z
#    x 4.103800 0.000000 -0.153230 
#    y 0.000000 4.738700 0.000000 
#    z -0.153230 0.000000 4.661960 
# 
# 
# High freq. dielectric constant tensor:
#      x y z
#    x 1.924010 0.000000 -0.003180 
#    y 0.000000 1.977970 0.000000 
#    z -0.003180 0.000000 1.970650 
# 
# From -- ./inp_files/15770.got.cif
#   From: 2010.03.12/outbox.cif.g09.slc.cpg/sg4_8_cif.got.tgz:15770.got - 2010.03.31 09:31:35.
