data_PCOD8047475
_publ_section_title
;
Structure prediction by ZEFSAII (Michael W. Deem and Ramdas Pophale) SiO2 
 PCOD8047475
Probable space group: P 21
;
_chemical_formula_sum "Si O2"
_cell_formula_units_Z 14
_cell_length_a 9.246840
_cell_length_b 5.210849
_cell_length_c 16.509930
_cell_angle_alpha 90.000000
_cell_angle_beta 135.224992
_cell_angle_gamma 90.000000
_cell_volume 560.299121
_symmetry_space_group_name_H-M "P 21"
_symmetry_group_IT_number 4
_symmetry_cell_setting 'monoclinic'
loop_
_space_group_symop_operation_xyz
x,y,z
-x,1/2+y,-z
loop_
_atom_site_type_symbol
_atom_site_label
_atom_site_fract_x
_atom_site_fract_y
_atom_site_fract_z
Si Si1 0.251903 0.050120 0.268784
Si Si2 0.615891 0.703601 0.359097
Si Si3 0.258902 0.426958 0.133806
Si Si4 0.129566 0.175212 0.389030
Si Si5 0.127312 0.185747 0.690667
Si Si6 0.382511 0.983900 0.933598
Si Si7 0.927915 0.705587 0.083599
O O1 0.177884 0.211388 0.162651
O O2 0.259414 0.206277 0.356673
O O3 0.475064 0.935990 0.335229
O O4 0.064078 0.849759 0.205133
O O5 0.482210 0.499915 0.255439
O O6 0.717221 0.580160 0.479170
O O7 0.795680 0.775810 0.367738
O O8 0.087922 0.647303 0.074942
O O9 0.259476 0.352426 0.038560
O O10 0.035062 0.450497 0.377054
O O11 0.964440 0.949231 0.310247
O O12 0.321322 0.087859 0.820694
O O13 0.177439 0.975349 0.908282
O O14 0.536033 0.193901 0.034163
#
# Coordination Sequence:
#
# PCOD8047475 Si02
#       7
#     2   2   2   2   2   2   2
#     4  11  26  45  74 105 145 191 246 304 364 439
#     4  11  29  45  75 109 140 195 252 304 360 434
#     4  11  24  42  72 100 148 180 244 297 371 430
#     4  12  28  50  77 104 154 194 246 302 371 436
#     4  12  27  51  74 109 148 198 242 301 374 439
#     4  12  27  43  74 104 146 185 241 294 361 436
#     4  11  23  44  68 105 139 193 229 302 369 438
#
# _framework density 24.986653
#
# number of rings (size 3 to 8) (size 9 to 14) (size 15 to 20)
#    0.000    0.571    2.857    3.429   12.000    0.000 
#    0.000    0.000    0.000    0.000    0.000    0.000 
#    0.000    0.000    0.000    0.000    0.000    0.000 
#
# Total GULP energy -173484.728911 kJ/mol
# GULP energy per Si atom -12391.766351 kJ/mol
# Density = 2.492978 g / cm^3
# Si number density = 24.986653 Si / 1000 Ang^3
#
#
#
# Elastic Constant Matrix: (Units=GPa)
#
#
# Indices 1 2 3 4 5 6 
#
# 1 121.0401 22.3648 27.6632 0.0000 -17.4403 0.0000
# 2 22.3648 70.1827 -2.6060 0.0000 8.4575 0.0000
# 3 27.6632 -2.6060 107.1884 0.0000 -13.0698 0.0000
# 4 0.0000 0.0000 0.0000 31.0195 0.0000 1.3947
# 5 -17.4403 8.4575 -13.0698 0.0000 38.7977 0.0000
# 6 0.0000 0.0000 0.0000 1.3947 0.0000 32.3002
#
#
#
# Elastic Compliance Matrix: (Units=1/GPa)
#
#
# Indices 1 2 3 4 5 6 
#
# 1 0.010142 -0.003876 -0.002141 0.000000 0.004683 0.000000
# 2 -0.003876 0.016114 0.000783 0.000000 -0.004991 0.000000
# 3 -0.002141 0.000783 0.010181 0.000000 0.002297 0.000000
# 4 0.000000 0.000000 0.000000 0.032301 0.000000 -0.001395
# 5 0.004683 -0.004991 0.002297 0.000000 0.029741 0.000000
# 6 0.000000 0.000000 0.000000 -0.001395 0.000000 0.031020
#
#
# Mechanical properties :
#
#
# Convention : Reuss Voigt Hill
#
# Bulk Modulus (GPa) = 38.50431 43.69501 41.09966
# Shear Modulus (GPa) = 33.64262 37.15609 35.39936
#
# Velocity S-wave (km/s) = 3.67335 3.86040 3.76803
# Velocity P-wave (km/s) = 5.78227 6.11519 5.95106
#
# Compressibility (1/GPa) = 0.02597112
#
# Stress axis : x y z
#
# Youngs Moduli (GPa) = 98.60215 62.05750 98.22305
#
# Poissons Ratio (x) = 0.24051 0.21026
# Poissons Ratio (y) = 0.38214 -0.07695
# Poissons Ratio (z) = 0.21107 -0.04862
#
# Static dielectric constant tensor:
#      x y z
#    x 4.512280 0.000000 -0.028500 
#    y 0.000000 4.312070 0.000000 
#    z -0.028500 0.000000 4.477340 
# 
# 
# High freq. dielectric constant tensor:
#      x y z
#    x 2.009810 0.000000 -0.007600 
#    y 0.000000 1.974110 0.000000 
#    z -0.007600 0.000000 2.007190 
# 
# From -- ./inp_files/7057.got.cif
#   From: 2010.03.12/outbox.cif.g09.slc.cpg/sg4_4_cif.got.tgz:7057.got - 2010.03.31 09:31:35.
