data_PCOD8047949
_publ_section_title
;
Structure prediction by ZEFSAII (Michael W. Deem and Ramdas Pophale) SiO2 
 PCOD8047949
Probable space group: P 21
;
_chemical_formula_sum "Si O2"
_cell_formula_units_Z 16
_cell_length_a 9.604166
_cell_length_b 9.617541
_cell_length_c 12.677535
_cell_angle_alpha 90.000000
_cell_angle_beta 146.007750
_cell_angle_gamma 90.000000
_cell_volume 654.686024
_symmetry_space_group_name_H-M "P 21"
_symmetry_group_IT_number 4
_symmetry_cell_setting 'monoclinic'
loop_
_space_group_symop_operation_xyz
x,y,z
-x,1/2+y,-z
loop_
_atom_site_type_symbol
_atom_site_label
_atom_site_fract_x
_atom_site_fract_y
_atom_site_fract_z
Si Si1 0.569049 0.786160 0.980561
Si Si2 0.815510 0.323205 0.434635
Si Si3 0.893832 0.021088 0.084773
Si Si4 0.025407 0.619603 0.300446
Si Si5 0.700152 0.314415 0.977317
Si Si6 0.865745 0.987005 0.829084
Si Si7 0.682500 0.560095 0.489269
Si Si8 0.742156 0.854127 0.437112
O O1 0.405756 0.758270 0.774180
O O2 0.381107 0.839817 0.952767
O O3 0.725446 0.650176 0.118973
O O4 0.770206 0.901517 0.076450
O O5 0.817307 0.239569 0.545242
O O6 0.788127 0.485563 0.449352
O O7 0.074120 0.299140 0.538040
O O8 0.149336 0.053898 0.302232
O O9 0.700027 0.149343 0.956082
O O10 0.967987 0.985353 0.011794
O O11 0.081859 0.624063 0.209844
O O12 0.117315 0.474051 0.409536
O O13 0.511706 0.399340 0.782470
O O14 0.983178 0.366548 0.138262
O O15 0.568376 0.973380 0.643160
O O16 0.656836 0.724232 0.454524
#
# Coordination Sequence:
#
# PCOD8047949 Si02
#       8
#     2   2   2   2   2   2   2   2
#     4  12  27  51  82 118 165 213 282 342 406 497
#     4  12  25  49  83 115 162 215 272 342 413 483
#     4  12  27  52  82 111 168 215 274 341 421 489
#     4  12  29  47  76 122 157 216 277 336 413 494
#     4  12  28  51  83 119 161 221 279 345 417 502
#     4  12  30  49  79 115 160 211 271 338 421 490
#     4  12  26  52  79 113 162 213 269 341 407 500
#     4  12  26  51  80 119 163 212 280 341 412 485
#
# _framework density 24.439195999999999
#
# number of rings (size 3 to 8) (size 9 to 14) (size 15 to 20)
#    0.000    0.000    5.000    3.000    8.750    2.000 
#    0.000    0.000    0.000    0.000    0.000    0.000 
#    0.000    0.000    0.000    0.000    0.000    0.000 
#
# Total GULP energy -198307.937095 kJ/mol
# GULP energy per Si atom -12394.246068 kJ/mol
# Density = 2.438357 g / cm^3
# Si number density = 24.439196 Si / 1000 Ang^3
#
#
#
# Elastic Constant Matrix: (Units=GPa)
#
#
# Indices 1 2 3 4 5 6 
#
# 1 126.9669 37.3687 34.0625 0.0000 -8.5590 0.0000
# 2 37.3687 97.8129 42.5673 0.0000 0.5622 0.0000
# 3 34.0625 42.5673 142.3187 0.0000 4.7019 0.0000
# 4 0.0000 0.0000 0.0000 46.3565 0.0000 -0.4142
# 5 -8.5590 0.5622 4.7019 0.0000 41.2710 0.0000
# 6 0.0000 0.0000 0.0000 -0.4142 0.0000 41.8015
#
#
#
# Elastic Compliance Matrix: (Units=1/GPa)
#
#
# Indices 1 2 3 4 5 6 
#
# 1 0.009261 -0.002938 -0.001408 0.000000 0.002121 0.000000
# 2 -0.002938 0.012688 -0.003078 0.000000 -0.000431 0.000000
# 3 -0.001408 -0.003078 0.008324 0.000000 -0.001198 0.000000
# 4 0.000000 0.000000 0.000000 0.021574 0.000000 0.000214
# 5 0.002121 -0.000431 -0.001198 0.000000 0.024812 0.000000
# 6 0.000000 0.000000 0.000000 0.000214 0.000000 0.023925
#
#
# Mechanical properties :
#
#
# Convention : Reuss Voigt Hill
#
# Bulk Modulus (GPa) = 64.82480 66.12174 65.47327
# Shear Modulus (GPa) = 41.46893 42.75913 42.11403
#
# Velocity S-wave (km/s) = 4.12372 4.18738 4.15567
# Velocity P-wave (km/s) = 7.01826 7.10585 7.06219
#
# Compressibility (1/GPa) = 0.01542619
#
# Stress axis : x y z
#
# Youngs Moduli (GPa) = 107.97487 78.81638 120.14092
#
# Poissons Ratio (x) = 0.23154 0.16916
# Poissons Ratio (y) = 0.31720 0.36974
# Poissons Ratio (z) = 0.15203 0.24256
#
# Static dielectric constant tensor:
#      x y z
#    x 4.487630 0.000000 -0.101140 
#    y 0.000000 4.285390 0.000000 
#    z -0.101140 0.000000 4.659980 
# 
# 
# High freq. dielectric constant tensor:
#      x y z
#    x 1.971050 0.000000 -0.009150 
#    y 0.000000 1.958420 0.000000 
#    z -0.009150 0.000000 1.998780 
# 
# From -- ./inp_files/11106.got.cif
#   From: 2010.03.12/outbox.cif.g09.slc.cpg/sg4_6_cif.got.tgz:11106.got - 2010.03.31 09:31:35.
