data_PCOD8047593
_publ_section_title
;
Structure prediction by ZEFSAII (Michael W. Deem and Ramdas Pophale) SiO2 
 PCOD8047593
Probable space group: P 21
;
_chemical_formula_sum "Si O2"
_cell_formula_units_Z 14
_cell_length_a 11.341806
_cell_length_b 10.316623
_cell_length_c 5.149045
_cell_angle_alpha 90.000000
_cell_angle_beta 83.847533
_cell_angle_gamma 90.000000
_cell_volume 599.015126
_symmetry_space_group_name_H-M "P 21"
_symmetry_group_IT_number 4
_symmetry_cell_setting 'monoclinic'
loop_
_space_group_symop_operation_xyz
x,y,z
-x,1/2+y,-z
loop_
_atom_site_type_symbol
_atom_site_label
_atom_site_fract_x
_atom_site_fract_y
_atom_site_fract_z
Si Si1 0.876740 0.897320 0.316685
Si Si2 0.795444 0.172278 0.177026
Si Si3 0.666217 0.522701 0.865210
Si Si4 0.857620 0.319165 0.660689
Si Si5 0.460647 0.652464 0.604586
Si Si6 0.526066 0.922891 0.738603
Si Si7 0.248341 0.300202 0.143226
O O1 0.795910 0.826861 0.552546
O O2 0.012594 0.877794 0.353106
O O3 0.853739 0.048751 0.299545
O O4 0.849031 0.844550 0.037599
O O5 0.832884 0.282251 0.370251
O O6 0.653321 0.158784 0.182142
O O7 0.844000 0.203877 0.876930
O O8 0.761983 0.429702 0.722189
O O9 0.564468 0.562806 0.690169
O O10 0.734703 0.650917 0.935753
O O11 0.603699 0.445479 0.112608
O O12 0.508102 0.800041 0.539502
O O13 0.424739 0.563693 0.366959
O O14 0.625572 0.874811 0.921491
#
# Coordination Sequence:
#
# PCOD8047593 Si02
#       7
#     2   2   2   2   2   2   2
#     4  12  27  51  73 105 147 196 246 303 355 440
#     4  12  26  49  75 108 141 198 242 302 363 439
#     4  11  27  44  74 108 147 191 238 311 367 441
#     4  12  29  47  76 107 149 188 250 298 367 429
#     4  11  24  44  73 105 151 187 247 301 378 432
#     4  11  24  44  73 109 147 194 241 313 370 447
#     4  11  27  47  76 106 146 194 246 298 372 428
#
# _framework density 23.371697000000001
#
# number of rings (size 3 to 8) (size 9 to 14) (size 15 to 20)
#    0.000    0.571    2.857    3.429   10.000    1.143 
#    0.000    0.000    0.000    0.000    0.000    0.000 
#    0.000    0.000    0.000    0.000    0.000    0.000 
#
# Total GULP energy -173515.918644 kJ/mol
# GULP energy per Si atom -12393.994189 kJ/mol
# Density = 2.331850 g / cm^3
# Si number density = 23.371697 Si / 1000 Ang^3
#
#
#
# Elastic Constant Matrix: (Units=GPa)
#
#
# Indices 1 2 3 4 5 6 
#
# 1 123.3362 55.0542 11.3095 0.0000 -10.5233 0.0000
# 2 55.0542 185.3861 26.0691 0.0000 -10.3112 0.0000
# 3 11.3095 26.0691 72.6391 0.0000 2.7492 0.0000
# 4 0.0000 0.0000 0.0000 29.9803 0.0000 -1.0930
# 5 -10.5233 -10.3112 2.7492 0.0000 33.6803 0.0000
# 6 0.0000 0.0000 0.0000 -1.0930 0.0000 37.5096
#
#
#
# Elastic Compliance Matrix: (Units=1/GPa)
#
#
# Indices 1 2 3 4 5 6 
#
# 1 0.009523 -0.002616 -0.000628 0.000000 0.002226 0.000000
# 2 -0.002616 0.006525 -0.001985 0.000000 0.001342 0.000000
# 3 -0.000628 -0.001985 0.014653 0.000000 -0.002000 0.000000
# 4 0.000000 0.000000 0.000000 0.033391 0.000000 0.000973
# 5 0.002226 0.001342 -0.002000 0.000000 0.030961 0.000000
# 6 0.000000 0.000000 0.000000 0.000973 0.000000 0.026688
#
#
# Mechanical properties :
#
#
# Convention : Reuss Voigt Hill
#
# Bulk Modulus (GPa) = 49.40200 62.91410 56.15805
# Shear Modulus (GPa) = 35.98522 39.49595 37.74058
#
# Velocity S-wave (km/s) = 3.92815 4.11531 4.02282
# Velocity P-wave (km/s) = 6.46198 7.03977 6.75705
#
# Compressibility (1/GPa) = 0.02024209
#
# Stress axis : x y z
#
# Youngs Moduli (GPa) = 105.00745 153.26084 68.24712
#
# Poissons Ratio (x) = 0.40092 0.04287
# Poissons Ratio (y) = 0.27470 0.13548
# Poissons Ratio (z) = 0.06596 0.30425
#
# Static dielectric constant tensor:
#      x y z
#    x 4.337690 0.000000 -0.089730 
#    y 0.000000 4.424770 0.000000 
#    z -0.089730 0.000000 4.123370 
# 
# 
# High freq. dielectric constant tensor:
#      x y z
#    x 1.937710 0.000000 0.002280 
#    y 0.000000 1.945300 0.000000 
#    z 0.002280 0.000000 1.906020 
# 
# From -- ./inp_files/2461.got.cif
#   From: 2010.03.12/outbox.cif.g09.slc.cpg/sg4_2_cif.got.tgz:2461.got - 2010.03.31 09:31:35.
