data_PCOD8047037
_publ_section_title
;
Structure prediction by ZEFSAII (Michael W. Deem and Ramdas Pophale) SiO2 
 PCOD8047037
Probable space group: P 21
;
_chemical_formula_sum "Si O2"
_cell_formula_units_Z 16
_cell_length_a 11.985479
_cell_length_b 11.709854
_cell_length_c 9.368579
_cell_angle_alpha 90.000000
_cell_angle_beta 145.809476
_cell_angle_gamma 90.000000
_cell_volume 738.882928
_symmetry_space_group_name_H-M "P 21"
_symmetry_group_IT_number 4
_symmetry_cell_setting 'monoclinic'
loop_
_space_group_symop_operation_xyz
x,y,z
-x,1/2+y,-z
loop_
_atom_site_type_symbol
_atom_site_label
_atom_site_fract_x
_atom_site_fract_y
_atom_site_fract_z
Si Si1 0.044566 0.137480 0.964251
Si Si2 0.090745 0.099029 0.468911
Si Si3 0.132287 0.910859 0.892348
Si Si4 0.705527 0.934058 0.362606
Si Si5 0.140299 0.673080 0.507676
Si Si6 0.338506 0.229327 0.506245
Si Si7 0.336623 0.895392 0.825514
Si Si8 0.776560 0.164022 0.926251
O O1 0.208048 0.206403 0.227745
O O2 0.976741 0.214968 0.757858
O O3 0.850166 0.110613 0.854931
O O4 0.129603 0.016521 0.998722
O O5 0.234230 0.187702 0.541661
O O6 0.035159 0.134749 0.570427
O O7 0.213827 0.980859 0.595835
O O8 0.881375 0.091192 0.163211
O O9 0.306914 0.922086 0.962416
O O10 0.936277 0.900515 0.584571
O O11 0.150938 0.795468 0.002002
O O12 0.630662 0.864808 0.427469
O O13 0.711076 0.071672 0.385912
O O14 0.577560 0.906582 0.082342
O O15 0.278846 0.767846 0.723787
O O16 0.541252 0.159546 0.697335
#
# Coordination Sequence:
#
# PCOD8047037 Si02
#       8
#     2   2   2   2   2   2   2   2
#     4  10  24  41  67  99 141 175 233 279 349 415
#     4  11  23  41  69 100 138 177 229 292 347 411
#     4  11  21  43  67  97 133 185 217 289 348 405
#     4  11  22  40  71  94 137 181 226 281 351 404
#     4  11  24  45  68 106 139 182 232 297 351 412
#     4  11  23  45  71 100 132 197 230 283 349 430
#     4  12  24  40  71 105 140 176 235 291 353 418
#     4  11  23  45  70  95 138 183 234 278 354 419
#
# _framework density 21.654309000000001
#
# number of rings (size 3 to 8) (size 9 to 14) (size 15 to 20)
#    0.000    1.000    7.500    0.000    3.500    4.000 
#    0.000    0.000    0.000    0.000    0.000    0.000 
#    0.000    0.000    0.000    0.000    0.000    0.000 
#
# Total GULP energy -198240.363638 kJ/mol
# GULP energy per Si atom -12390.022727 kJ/mol
# Density = 2.160502 g / cm^3
# Si number density = 21.654309 Si / 1000 Ang^3
#
#
#
# Elastic Constant Matrix: (Units=GPa)
#
#
# Indices 1 2 3 4 5 6 
#
# 1 94.8471 26.6131 55.4058 0.0000 -13.3580 0.0000
# 2 26.6131 104.5606 41.5688 0.0000 -6.4614 0.0000
# 3 55.4058 41.5688 149.3798 0.0000 5.6361 0.0000
# 4 0.0000 0.0000 0.0000 39.0205 0.0000 -4.1246
# 5 -13.3580 -6.4614 5.6361 0.0000 34.3243 0.0000
# 6 0.0000 0.0000 0.0000 -4.1246 0.0000 35.8502
#
#
#
# Elastic Compliance Matrix: (Units=1/GPa)
#
#
# Indices 1 2 3 4 5 6 
#
# 1 0.014998 -0.001244 -0.005462 0.000000 0.006500 0.000000
# 2 -0.001244 0.011080 -0.002699 0.000000 0.002045 0.000000
# 3 -0.005462 -0.002699 0.009630 0.000000 -0.004215 0.000000
# 4 0.000000 0.000000 0.000000 0.025943 0.000000 0.002985
# 5 0.006500 0.002045 -0.004215 0.000000 0.032740 0.000000
# 6 0.000000 0.000000 0.000000 0.002985 0.000000 0.028237
#
#
# Mechanical properties :
#
#
# Convention : Reuss Voigt Hill
#
# Bulk Modulus (GPa) = 59.17782 66.21809 62.69795
# Shear Modulus (GPa) = 33.99688 36.85234 35.42461
#
# Velocity S-wave (km/s) = 3.96660 4.12982 4.04903
# Velocity P-wave (km/s) = 6.95459 7.30661 7.13277
#
# Compressibility (1/GPa) = 0.01689822
#
# Stress axis : x y z
#
# Youngs Moduli (GPa) = 66.67339 90.25388 103.83914
#
# Poissons Ratio (x) = 0.11231 0.56717
# Poissons Ratio (y) = 0.08297 0.28025
# Poissons Ratio (z) = 0.36417 0.24358
#
# Static dielectric constant tensor:
#      x y z
#    x 3.862660 0.000000 0.112750 
#    y 0.000000 3.942790 0.000000 
#    z 0.112750 0.000000 4.036120 
# 
# 
# High freq. dielectric constant tensor:
#      x y z
#    x 1.835130 0.000000 0.012110 
#    y 0.000000 1.841290 0.000000 
#    z 0.012110 0.000000 1.861570 
# 
# From -- ./inp_files/8482.got.cif
#   From: 2010.03.12/outbox.cif.g09.slc.cpg/sg4_5_cif.got.tgz:8482.got - 2010.03.31 09:31:35.
