data_PCOD8047707
_publ_section_title
;
Structure prediction by ZEFSAII (Michael W. Deem and Ramdas Pophale) SiO2 
 PCOD8047707
Probable space group: P 21
;
_chemical_formula_sum "Si O2"
_cell_formula_units_Z 16
_cell_length_a 12.798737
_cell_length_b 8.839611
_cell_length_c 6.208757
_cell_angle_alpha 90.000000
_cell_angle_beta 95.080592
_cell_angle_gamma 90.000000
_cell_volume 699.673265
_symmetry_space_group_name_H-M "P 21"
_symmetry_group_IT_number 4
_symmetry_cell_setting 'monoclinic'
loop_
_space_group_symop_operation_xyz
x,y,z
-x,1/2+y,-z
loop_
_atom_site_type_symbol
_atom_site_label
_atom_site_fract_x
_atom_site_fract_y
_atom_site_fract_z
Si Si1 0.892300 0.432080 0.043846
Si Si2 0.011716 0.649020 0.742344
Si Si3 0.236817 0.546868 0.652807
Si Si4 0.607058 0.978673 0.959707
Si Si5 0.669378 0.790239 0.575151
Si Si6 0.173411 0.066831 0.557163
Si Si7 0.750364 0.303820 0.673831
Si Si8 0.475451 0.778471 0.254386
O O1 0.815141 0.313808 0.908932
O O2 0.957119 0.547111 0.912083
O O3 0.972977 0.323622 0.186313
O O4 0.823656 0.545335 0.184390
O O5 0.118446 0.566639 0.701010
O O6 0.934437 0.651717 0.522814
O O7 0.258167 0.375916 0.586634
O O8 0.263589 0.640438 0.440360
O O9 0.314022 0.573816 0.871366
O O10 0.542554 0.104693 0.817748
O O11 0.671457 0.865954 0.811654
O O12 0.525827 0.875274 0.072959
O O13 0.726996 0.629312 0.562032
O O14 0.549344 0.777747 0.477677
O O15 0.177919 0.893406 0.481568
O O16 0.632503 0.360756 0.699286
#
# Coordination Sequence:
#
# PCOD8047707 Si02
#       8
#     2   2   2   2   2   2   2   2
#     4  11  27  45  70 107 137 190 234 296 352 422
#     4  11  27  43  73  99 143 183 237 288 363 416
#     4  11  25  45  71 104 136 189 240 288 350 428
#     4  11  27  45  70 107 137 190 234 296 352 422
#     4  11  28  43  70 104 143 182 236 295 348 425
#     4  11  28  43  70 104 143 182 236 295 348 425
#     4  11  25  45  71 104 136 189 240 288 350 428
#     4  11  27  43  73  99 143 183 237 288 363 416
#
# _framework density 22.867816999999999
#
# number of rings (size 3 to 8) (size 9 to 14) (size 15 to 20)
#    0.000    1.000    2.500    0.750   14.000    2.000 
#    0.000    0.000    0.000    0.000    0.000    0.000 
#    0.000    0.000    0.000    0.000    0.000    0.000 
#
# Total GULP energy -198299.332625 kJ/mol
# GULP energy per Si atom -12393.708289 kJ/mol
# Density = 2.281577 g / cm^3
# Si number density = 22.867817 Si / 1000 Ang^3
#
#
#
# Elastic Constant Matrix: (Units=GPa)
#
#
# Indices 1 2 3 4 5 6 
#
# 1 130.1588 27.5240 50.7462 0.0000 -6.9493 0.0000
# 2 27.5240 63.4870 34.6924 0.0000 -0.3850 0.0000
# 3 50.7462 34.6924 130.1531 0.0000 1.2793 0.0000
# 4 0.0000 0.0000 0.0000 37.1160 0.0000 -9.8608
# 5 -6.9493 -0.3850 1.2793 0.0000 35.8103 0.0000
# 6 0.0000 0.0000 0.0000 -9.8608 0.0000 43.0951
#
#
#
# Elastic Compliance Matrix: (Units=1/GPa)
#
#
# Indices 1 2 3 4 5 6 
#
# 1 0.009498 -0.002425 -0.003076 0.000000 0.001927 0.000000
# 2 -0.002425 0.019061 -0.004134 0.000000 -0.000118 0.000000
# 3 -0.003076 -0.004134 0.009994 0.000000 -0.000998 0.000000
# 4 0.000000 0.000000 0.000000 0.028686 0.000000 0.006564
# 5 0.001927 -0.000118 -0.000998 0.000000 0.028333 0.000000
# 6 0.000000 0.000000 0.000000 0.006564 0.000000 0.024706
#
#
# Mechanical properties :
#
#
# Convention : Reuss Voigt Hill
#
# Bulk Modulus (GPa) = 51.85860 61.08046 56.46953
# Shear Modulus (GPa) = 34.25209 37.26003 35.75606
#
# Velocity S-wave (km/s) = 3.87438 4.04092 3.95852
# Velocity P-wave (km/s) = 6.53767 6.96708 6.75579
#
# Compressibility (1/GPa) = 0.01928320
#
# Stress axis : x y z
#
# Youngs Moduli (GPa) = 105.28763 52.46314 100.05847
#
# Poissons Ratio (x) = 0.12724 0.30774
# Poissons Ratio (y) = 0.25535 0.41364
# Poissons Ratio (z) = 0.32383 0.21688
#
# Static dielectric constant tensor:
#      x y z
#    x 4.133960 0.000000 0.035680 
#    y 0.000000 4.059800 0.000000 
#    z 0.035680 0.000000 4.257330 
# 
# 
# High freq. dielectric constant tensor:
#      x y z
#    x 1.909610 0.000000 -0.010310 
#    y 0.000000 1.907520 0.000000 
#    z -0.010310 0.000000 1.909130 
# 
# From -- ./inp_files/2620.got.cif
#   From: 2010.03.12/outbox.cif.g09.slc.cpg/sg4_2_cif.got.tgz:2620.got - 2010.03.31 09:31:35.
