data_PCOD8047864
_publ_section_title
;
Structure prediction by ZEFSAII (Michael W. Deem and Ramdas Pophale) SiO2 
 PCOD8047864
Probable space group: P 21
;
_chemical_formula_sum "Si O2"
_cell_formula_units_Z 14
_cell_length_a 11.556037
_cell_length_b 4.766713
_cell_length_c 18.941347
_cell_angle_alpha 90.000000
_cell_angle_beta 150.428399
_cell_angle_gamma 90.000000
_cell_volume 514.914926
_symmetry_space_group_name_H-M "P 21"
_symmetry_group_IT_number 4
_symmetry_cell_setting 'monoclinic'
loop_
_space_group_symop_operation_xyz
x,y,z
-x,1/2+y,-z
loop_
_atom_site_type_symbol
_atom_site_label
_atom_site_fract_x
_atom_site_fract_y
_atom_site_fract_z
Si Si1 0.319032 0.308970 0.524721
Si Si2 0.927538 0.497930 0.416002
Si Si3 0.618797 0.943459 0.098953
Si Si4 0.572464 0.797747 0.711746
Si Si5 0.979581 0.051437 0.848165
Si Si6 0.478784 0.173762 0.160812
Si Si7 0.917399 0.538768 0.723445
O O1 0.503453 0.568922 0.615383
O O2 0.293270 0.171399 0.433675
O O3 0.075418 0.436100 0.423741
O O4 0.399679 0.064354 0.621558
O O5 0.655181 0.440175 0.250494
O O6 0.971596 0.814526 0.464695
O O7 0.581709 0.924537 0.165014
O O8 0.892403 0.897719 0.228215
O O9 0.542052 0.253280 0.035290
O O10 0.546481 0.610506 0.769180
O O11 0.831388 0.924531 0.835093
O O12 0.824337 0.284114 0.723953
O O13 0.045496 0.786798 0.834799
O O14 0.211380 0.225405 0.993699
#
# Coordination Sequence:
#
# PCOD8047864 Si02
#       7
#     2   2   2   2   2   2   2
#     4  12  25  48  77 112 151 206 264 325 390 459
#     4  12  24  44  73 114 157 194 250 322 399 465
#     4  12  24  44  73 114 157 194 250 322 399 465
#     4  12  29  49  74 111 158 210 264 316 386 477
#     4  12  29  49  74 111 158 210 264 316 386 477
#     4  12  26  48  82 116 162 202 260 330 404 470
#     4  12  25  48  77 112 151 206 264 325 390 459
#
# _framework density 27.188956000000001
#
# number of rings (size 3 to 8) (size 9 to 14) (size 15 to 20)
#    0.000    0.000    7.143    1.714    0.000    9.143 
#    0.000    0.000    0.000    0.000    0.000    0.000 
#    0.000    0.000    0.000    0.000    0.000    0.000 
#
# Total GULP energy -173515.548082 kJ/mol
# GULP energy per Si atom -12393.967720 kJ/mol
# Density = 2.712707 g / cm^3
# Si number density = 27.188956 Si / 1000 Ang^3
#
#
#
# Elastic Constant Matrix: (Units=GPa)
#
#
# Indices 1 2 3 4 5 6 
#
# 1 101.3106 24.4251 32.2214 0.0000 4.0115 0.0000
# 2 24.4251 105.6871 27.6432 0.0000 -6.7484 0.0000
# 3 32.2214 27.6432 94.7687 0.0000 2.4089 0.0000
# 4 0.0000 0.0000 0.0000 31.8172 0.0000 -7.0493
# 5 4.0115 -6.7484 2.4089 0.0000 37.6933 0.0000
# 6 0.0000 0.0000 0.0000 -7.0493 0.0000 28.7686
#
#
#
# Elastic Compliance Matrix: (Units=1/GPa)
#
#
# Indices 1 2 3 4 5 6 
#
# 1 0.011424 -0.001861 -0.003308 0.000000 -0.001338 0.000000
# 2 -0.001861 0.010704 -0.002547 0.000000 0.002277 0.000000
# 3 -0.003308 -0.002547 0.012442 0.000000 -0.000899 0.000000
# 4 0.000000 0.000000 0.000000 0.033234 0.000000 0.008143
# 5 -0.001338 0.002277 -0.000899 0.000000 0.027137 0.000000
# 6 0.000000 0.000000 0.000000 0.008143 0.000000 0.036755
#
#
# Mechanical properties :
#
#
# Convention : Reuss Voigt Hill
#
# Bulk Modulus (GPa) = 52.24869 52.26066 52.25467
# Shear Modulus (GPa) = 32.57170 34.15425 33.36297
#
# Velocity S-wave (km/s) = 3.46493 3.54811 3.50677
# Velocity P-wave (km/s) = 5.93854 6.00404 5.97138
#
# Compressibility (1/GPa) = 0.01913923
#
# Stress axis : x y z
#
# Youngs Moduli (GPa) = 87.53430 93.42670 80.36976
#
# Poissons Ratio (x) = 0.17382 0.26582
# Poissons Ratio (y) = 0.16286 0.20474
# Poissons Ratio (z) = 0.28952 0.23800
#
# Static dielectric constant tensor:
#      x y z
#    x 4.921650 0.000000 -0.066390 
#    y 0.000000 4.759230 0.000000 
#    z -0.066390 0.000000 4.761500 
# 
# 
# High freq. dielectric constant tensor:
#      x y z
#    x 2.101200 0.000000 0.004430 
#    y 0.000000 2.093480 0.000000 
#    z 0.004430 0.000000 2.083400 
# 
# From -- ./inp_files/15089.got.cif
#   From: 2010.03.12/outbox.cif.g09.slc.cpg/sg4_8_cif.got.tgz:15089.got - 2010.03.31 09:31:35.
