data_PCOD8047218
_publ_section_title
;
Structure prediction by ZEFSAII (Michael W. Deem and Ramdas Pophale) SiO2 
 PCOD8047218
Probable space group: P 21
;
_chemical_formula_sum "Si O2"
_cell_formula_units_Z 16
_cell_length_a 8.881374
_cell_length_b 10.575562
_cell_length_c 11.338882
_cell_angle_alpha 90.000000
_cell_angle_beta 139.759878
_cell_angle_gamma 90.000000
_cell_volume 687.988612
_symmetry_space_group_name_H-M "P 21"
_symmetry_group_IT_number 4
_symmetry_cell_setting 'monoclinic'
loop_
_space_group_symop_operation_xyz
x,y,z
-x,1/2+y,-z
loop_
_atom_site_type_symbol
_atom_site_label
_atom_site_fract_x
_atom_site_fract_y
_atom_site_fract_z
Si Si1 0.033525 0.198840 0.055474
Si Si2 0.782431 0.802602 0.063015
Si Si3 0.736287 0.349738 0.283343
Si Si4 0.406264 0.440828 0.536134
Si Si5 0.114252 0.205052 0.379209
Si Si6 0.217461 0.926141 0.433799
Si Si7 0.926411 0.549682 0.245511
Si Si8 0.810932 0.452663 0.936132
O O1 0.110837 0.210631 0.235394
O O2 0.984732 0.050626 0.991756
O O3 0.222910 0.245591 0.072387
O O4 0.832292 0.304279 0.913324
O O5 0.831836 0.691258 0.186858
O O6 0.987234 0.903206 0.214696
O O7 0.526221 0.859760 0.924649
O O8 0.758876 0.334355 0.438544
O O9 0.858536 0.483907 0.327163
O O10 0.867551 0.233972 0.295785
O O11 0.295670 0.313467 0.524644
O O12 0.550192 0.409261 0.504221
O O13 0.572503 0.501826 0.734834
O O14 0.205760 0.544576 0.390169
O O15 0.204036 0.069340 0.473668
O O16 0.803108 0.463025 0.071708
#
# Coordination Sequence:
#
# PCOD8047218 Si02
#       8
#     2   2   2   2   2   2   2   2
#     4  11  20  46  70 106 136 180 246 298 353 418
#     4  11  26  45  73 103 142 188 238 298 358 422
#     4  11  27  47  66 103 148 188 235 289 355 443
#     4  11  23  44  74 103 135 182 237 305 351 417
#     4  11  25  48  70 105 142 188 242 291 363 436
#     4  12  27  45  73 109 141 189 240 295 363 433
#     4  10  26  47  69 103 139 185 241 289 357 431
#     4  11  22  42  73 102 137 180 239 301 356 410
#
# _framework density 23.256198999999999
#
# number of rings (size 3 to 8) (size 9 to 14) (size 15 to 20)
#    0.000    1.000    5.000    0.750    5.250    4.000 
#    4.500    0.000    0.000    0.000    0.000    0.000 
#    0.000    0.000    0.000    0.000    0.000    0.000 
#
# Total GULP energy -198254.798547 kJ/mol
# GULP energy per Si atom -12390.924909 kJ/mol
# Density = 2.320327 g / cm^3
# Si number density = 23.256199 Si / 1000 Ang^3
#
#
#
# Elastic Constant Matrix: (Units=GPa)
#
#
# Indices 1 2 3 4 5 6 
#
# 1 94.1767 5.8808 45.6663 0.0000 13.4126 0.0000
# 2 5.8808 83.9402 17.9227 0.0000 9.1712 0.0000
# 3 45.6663 17.9227 116.4034 0.0000 5.7653 0.0000
# 4 0.0000 0.0000 0.0000 29.7113 0.0000 -2.1823
# 5 13.4126 9.1712 5.7653 0.0000 38.2974 0.0000
# 6 0.0000 0.0000 0.0000 -2.1823 0.0000 26.6301
#
#
#
# Elastic Compliance Matrix: (Units=1/GPa)
#
#
# Indices 1 2 3 4 5 6 
#
# 1 0.013731 0.000619 -0.005276 0.000000 -0.004163 0.000000
# 2 0.000619 0.012626 -0.002042 0.000000 -0.002933 0.000000
# 3 -0.005276 -0.002042 0.010941 0.000000 0.000690 0.000000
# 4 0.000000 0.000000 0.000000 0.033861 0.000000 0.002775
# 5 -0.004163 -0.002933 0.000690 0.000000 0.028168 0.000000
# 6 0.000000 0.000000 0.000000 0.002775 0.000000 0.037779
#
#
# Mechanical properties :
#
#
# Convention : Reuss Voigt Hill
#
# Bulk Modulus (GPa) = 41.83880 48.16221 45.00051
# Shear Modulus (GPa) = 31.55178 33.93114 32.74146
#
# Velocity S-wave (km/s) = 3.68734 3.82385 3.75622
# Velocity P-wave (km/s) = 6.01316 6.34430 6.18095
#
# Compressibility (1/GPa) = 0.02390126
#
# Stress axis : x y z
#
# Youngs Moduli (GPa) = 72.82863 79.19991 91.40067
#
# Poissons Ratio (x) = -0.04905 0.48223
# Poissons Ratio (y) = -0.04511 0.18662
# Poissons Ratio (z) = 0.38424 0.16171
#
# Static dielectric constant tensor:
#      x y z
#    x 4.100400 0.000000 -0.074600 
#    y 0.000000 4.427430 0.000000 
#    z -0.074600 0.000000 3.939700 
# 
# 
# High freq. dielectric constant tensor:
#      x y z
#    x 1.913490 0.000000 -0.014680 
#    y 0.000000 1.922660 0.000000 
#    z -0.014680 0.000000 1.908720 
# 
# From -- ./inp_files/11302.got.cif
#   From: 2010.03.12/outbox.cif.g09.slc.cpg/sg4_6_cif.got.tgz:11302.got - 2010.03.31 09:31:35.
