data_PCOD8047577
_publ_section_title
;
Structure prediction by ZEFSAII (Michael W. Deem and Ramdas Pophale) SiO2 
 PCOD8047577
Probable space group: P 21
;
_chemical_formula_sum "Si O2"
_cell_formula_units_Z 12
_cell_length_a 7.127316
_cell_length_b 8.983348
_cell_length_c 14.236115
_cell_angle_alpha 90.000000
_cell_angle_beta 141.302438
_cell_angle_gamma 90.000000
_cell_volume 569.877169
_symmetry_space_group_name_H-M "P 21"
_symmetry_group_IT_number 4
_symmetry_cell_setting 'monoclinic'
loop_
_space_group_symop_operation_xyz
x,y,z
-x,1/2+y,-z
loop_
_atom_site_type_symbol
_atom_site_label
_atom_site_fract_x
_atom_site_fract_y
_atom_site_fract_z
Si Si1 0.814117 0.154600 0.017902
Si Si2 0.895262 0.260167 0.384496
Si Si3 0.128653 0.060590 0.323548
Si Si4 0.834050 0.751300 0.195495
Si Si5 0.804189 0.065925 0.527626
Si Si6 0.744105 0.812826 0.949108
O O1 0.945994 0.150627 0.173754
O O2 0.032545 0.250660 0.040305
O O3 0.500986 0.241334 0.895568
O O4 0.772923 0.990141 0.960831
O O5 0.829215 0.197285 0.461697
O O6 0.591619 0.266123 0.206299
O O7 0.129833 0.157371 0.419040
O O8 0.042235 0.420730 0.455858
O O9 0.462624 0.029167 0.418402
O O10 0.970530 0.905309 0.284997
O O11 0.029333 0.614680 0.311739
O O12 0.836366 0.740436 0.084082
#
# Coordination Sequence:
#
# PCOD8047577 Si02
#       6
#     2   2   2   2   2   2
#     4  11  24  43  72 103 132 177 230 278 339 401
#     4  12  25  46  70  99 141 179 222 285 340 404
#     4  11  25  44  70  99 139 181 222 283 338 405
#     4  11  25  45  69 104 135 176 230 282 333 406
#     4  12  26  46  69 105 135 180 229 277 348 401
#     4  11  25  44  72 100 136 179 225 281 340 403
#
# _framework density 21.057168999999998
#
# number of rings (size 3 to 8) (size 9 to 14) (size 15 to 20)
#    0.000    0.667    5.000    2.000    2.333    5.333 
#    3.000    0.000    0.000    0.000    0.000    0.000 
#    0.000    0.000    0.000    0.000    0.000    0.000 
#
# Total GULP energy -148892.900462 kJ/mol
# GULP energy per Si atom -12407.741705 kJ/mol
# Density = 2.100924 g / cm^3
# Si number density = 21.057169 Si / 1000 Ang^3
#
#
#
# Elastic Constant Matrix: (Units=GPa)
#
#
# Indices 1 2 3 4 5 6 
#
# 1 95.1212 57.3111 28.5507 0.0000 21.2521 0.0000
# 2 57.3111 96.5959 42.6626 0.0000 14.8099 0.0000
# 3 28.5507 42.6626 103.0885 0.0000 20.3859 0.0000
# 4 0.0000 0.0000 0.0000 8.6032 0.0000 4.0572
# 5 21.2521 14.8099 20.3859 0.0000 34.0050 0.0000
# 6 0.0000 0.0000 0.0000 4.0572 0.0000 46.8494
#
#
#
# Elastic Compliance Matrix: (Units=1/GPa)
#
#
# Indices 1 2 3 4 5 6 
#
# 1 0.017806 -0.009680 0.000501 0.000000 -0.007213 0.000000
# 2 -0.009680 0.018151 -0.005064 0.000000 0.001180 0.000000
# 3 0.000501 -0.005064 0.012801 0.000000 -0.005781 0.000000
# 4 0.000000 0.000000 0.000000 0.121184 0.000000 -0.010495
# 5 -0.007213 0.001180 -0.005781 0.000000 0.036867 0.000000
# 6 0.000000 0.000000 0.000000 -0.010495 0.000000 0.022254
#
#
# Mechanical properties :
#
#
# Convention : Reuss Voigt Hill
#
# Bulk Modulus (GPa) = 49.33038 61.31716 55.32377
# Shear Modulus (GPa) = 18.91731 28.97693 23.94712
#
# Velocity S-wave (km/s) = 3.00055 3.71362 3.37596
# Velocity P-wave (km/s) = 5.95669 6.89714 6.44409
#
# Compressibility (1/GPa) = 0.02027149
#
# Stress axis : x y z
#
# Youngs Moduli (GPa) = 56.15979 55.09220 78.11976
#
# Poissons Ratio (x) = 0.53329 -0.03913
# Poissons Ratio (y) = 0.54363 0.39563
# Poissons Ratio (z) = -0.02813 0.27901
#
# Static dielectric constant tensor:
#      x y z
#    x 3.772840 0.000000 -0.072510 
#    y 0.000000 3.847940 0.000000 
#    z -0.072510 0.000000 4.238180 
# 
# 
# High freq. dielectric constant tensor:
#      x y z
#    x 1.835250 0.000000 0.003390 
#    y 0.000000 1.832220 0.000000 
#    z 0.003390 0.000000 1.836350 
# 
# From -- ./inp_files/1008.got.cif
#   From: 2010.03.12/outbox.cif.g09.slc.cpg/sg4_1_cif.got.tgz:1008.got - 2010.03.31 09:31:35.
