data_PCOD8047109
_publ_section_title
;
Structure prediction by ZEFSAII (Michael W. Deem and Ramdas Pophale) SiO2 
 PCOD8047109
Probable space group: P 21
;
_chemical_formula_sum "Si O2"
_cell_formula_units_Z 14
_cell_length_a 11.084050
_cell_length_b 8.632170
_cell_length_c 5.907434
_cell_angle_alpha 90.000000
_cell_angle_beta 94.324764
_cell_angle_gamma 90.000000
_cell_volume 563.610376
_symmetry_space_group_name_H-M "P 21"
_symmetry_group_IT_number 4
_symmetry_cell_setting 'monoclinic'
loop_
_space_group_symop_operation_xyz
x,y,z
-x,1/2+y,-z
loop_
_atom_site_type_symbol
_atom_site_label
_atom_site_fract_x
_atom_site_fract_y
_atom_site_fract_z
Si Si1 0.286026 0.527450 0.149147
Si Si2 0.521787 0.981089 0.183420
Si Si3 0.897626 0.467308 0.470493
Si Si4 0.496789 0.184342 0.560619
Si Si5 0.316487 0.016247 0.837816
Si Si6 0.953184 0.187116 0.802649
Si Si7 0.164167 0.211804 0.164378
O O1 0.382710 0.602766 0.329674
O O2 0.177783 0.652131 0.106948
O O3 0.231556 0.369788 0.245785
O O4 0.346424 0.489911 0.913158
O O5 0.506182 0.868078 0.397560
O O6 0.491638 0.150045 0.289396
O O7 0.422478 0.924000 0.984694
O O8 0.779853 0.408766 0.309669
O O9 0.948403 0.325608 0.620281
O O10 0.859230 0.612955 0.616231
O O11 0.999038 0.530489 0.311446
O O12 0.376433 0.128041 0.664483
O O13 0.248223 0.119166 0.007961
O O14 0.037521 0.246205 0.018753
#
# Coordination Sequence:
#
# PCOD8047109 Si02
#       7
#     2   2   2   2   2   2   2
#     4  11  26  46  70 108 148 187 242 304 364 438
#     4  11  26  49  71 109 144 191 245 303 368 437
#     4  11  25  47  76 105 150 192 245 295 368 427
#     4  11  26  44  75 104 145 188 245 298 373 428
#     4  10  24  45  73 102 144 191 238 299 362 432
#     4  11  26  47  71 114 140 198 242 303 357 437
#     4  11  23  46  76 100 149 191 243 298 362 427
#
# _framework density 24.839853999999999
#
# number of rings (size 3 to 8) (size 9 to 14) (size 15 to 20)
#    0.000    1.143    1.429    2.571    8.000    4.571 
#    2.571    0.000    0.000    0.000    0.000    0.000 
#    0.000    0.000    0.000    0.000    0.000    0.000 
#
# Total GULP energy -173579.390593 kJ/mol
# GULP energy per Si atom -12398.527900 kJ/mol
# Density = 2.478332 g / cm^3
# Si number density = 24.839854 Si / 1000 Ang^3
#
#
#
# Elastic Constant Matrix: (Units=GPa)
#
#
# Indices 1 2 3 4 5 6 
#
# 1 140.4088 25.4689 49.6796 0.0000 6.4287 0.0000
# 2 25.4689 77.3321 27.5715 0.0000 3.8280 0.0000
# 3 49.6796 27.5715 92.0883 0.0000 2.7496 0.0000
# 4 0.0000 0.0000 0.0000 36.8209 0.0000 1.8170
# 5 6.4287 3.8280 2.7496 0.0000 34.9639 0.0000
# 6 0.0000 0.0000 0.0000 1.8170 0.0000 30.9163
#
#
#
# Elastic Compliance Matrix: (Units=1/GPa)
#
#
# Indices 1 2 3 4 5 6 
#
# 1 0.008976 -0.001326 -0.004411 0.000000 -0.001158 0.000000
# 2 -0.001326 0.014727 -0.003661 0.000000 -0.001081 0.000000
# 3 -0.004411 -0.003661 0.014332 0.000000 0.000085 0.000000
# 4 0.000000 0.000000 0.000000 0.027238 0.000000 -0.001601
# 5 -0.001158 -0.001081 0.000085 0.000000 0.028926 0.000000
# 6 0.000000 0.000000 0.000000 -0.001601 0.000000 0.032440
#
#
# Mechanical properties :
#
#
# Convention : Reuss Voigt Hill
#
# Bulk Modulus (GPa) = 51.97943 57.25214 54.61578
# Shear Modulus (GPa) = 32.92756 34.34748 33.63752
#
# Velocity S-wave (km/s) = 3.64482 3.72258 3.68390
# Velocity P-wave (km/s) = 6.21966 6.44789 6.33481
#
# Compressibility (1/GPa) = 0.01923838
#
# Stress axis : x y z
#
# Youngs Moduli (GPa) = 111.40405 67.90246 69.77187
#
# Poissons Ratio (x) = 0.09006 0.30775
# Poissons Ratio (y) = 0.14776 0.25547
# Poissons Ratio (z) = 0.49138 0.24862
#
# Static dielectric constant tensor:
#      x y z
#    x 4.837080 0.000000 0.067910 
#    y 0.000000 4.228330 0.000000 
#    z 0.067910 0.000000 4.616690 
# 
# 
# High freq. dielectric constant tensor:
#      x y z
#    x 2.011290 0.000000 -0.003300 
#    y 0.000000 1.977730 0.000000 
#    z -0.003300 0.000000 1.991310 
# 
# From -- ./inp_files/2438.got.cif
#   From: 2010.03.12/outbox.cif.g09.slc.cpg/sg4_2_cif.got.tgz:2438.got - 2010.03.31 09:31:35.
