data_PCOD8047434
_publ_section_title
;
Structure prediction by ZEFSAII (Michael W. Deem and Ramdas Pophale) SiO2 
 PCOD8047434
Probable space group: P 21
;
_chemical_formula_sum "Si O2"
_cell_formula_units_Z 12
_cell_length_a 28.072297
_cell_length_b 4.898290
_cell_length_c 21.282337
_cell_angle_alpha 90.000000
_cell_angle_beta 169.261468
_cell_angle_gamma 90.000000
_cell_volume 545.278610
_symmetry_space_group_name_H-M "P 21"
_symmetry_group_IT_number 4
_symmetry_cell_setting 'monoclinic'
loop_
_space_group_symop_operation_xyz
x,y,z
-x,1/2+y,-z
loop_
_atom_site_type_symbol
_atom_site_label
_atom_site_fract_x
_atom_site_fract_y
_atom_site_fract_z
Si Si1 0.826527 0.211580 0.771593
Si Si2 0.546347 0.887130 0.601294
Si Si3 0.335103 0.540975 0.571999
Si Si4 0.832488 0.419034 0.286695
Si Si5 0.484523 0.176839 0.938781
Si Si6 0.887374 0.556707 0.650425
O O1 0.625040 0.297941 0.562690
O O2 0.674445 0.112438 0.513452
O O3 0.003688 0.465081 0.981121
O O4 0.593545 0.635441 0.615404
O O5 0.818796 0.984726 0.979970
O O6 0.275510 0.799097 0.538138
O O7 0.132367 0.299082 0.323645
O O8 0.619399 0.438652 0.956181
O O9 0.052998 0.214907 0.548872
O O10 0.718618 0.297922 0.202902
O O11 0.227719 0.158586 0.564551
O O12 0.431392 0.380365 0.927695
#
# Coordination Sequence:
#
# PCOD8047434 Si02
#       6
#     2   2   2   2   2   2
#     4  12  25  43  68  97 130 169 213 264 319 380
#     4  12  25  43  68  97 130 169 213 264 319 380
#     4  11  23  43  67  94 129 172 215 263 319 378
#     4  11  23  42  67  95 129 169 214 265 320 378
#     4  11  23  42  67  95 129 169 214 265 320 378
#     4  11  23  43  67  94 129 172 215 263 319 378
#
# _framework density 22.007097000000002
#
# number of rings (size 3 to 8) (size 9 to 14) (size 15 to 20)
#    0.000    0.667    0.000   11.000    0.000    1.333 
#    0.000   10.000    0.000    2.000    0.000    0.000 
#    0.000    0.000    0.000    0.000    0.000    0.000 
#
# Total GULP energy -148907.711678 kJ/mol
# GULP energy per Si atom -12408.975973 kJ/mol
# Density = 2.195701 g / cm^3
# Si number density = 22.007097 Si / 1000 Ang^3
#
#
#
# Elastic Constant Matrix: (Units=GPa)
#
#
# Indices 1 2 3 4 5 6 
#
# 1 113.7648 39.4203 67.3015 0.0000 -6.0934 0.0000
# 2 39.4203 134.2213 40.4263 0.0000 -1.2602 0.0000
# 3 67.3015 40.4263 122.3153 0.0000 -3.6778 0.0000
# 4 0.0000 0.0000 0.0000 46.4441 0.0000 4.0872
# 5 -6.0934 -1.2602 -3.6778 0.0000 22.9859 0.0000
# 6 0.0000 0.0000 0.0000 4.0872 0.0000 49.9387
#
#
#
# Elastic Compliance Matrix: (Units=1/GPa)
#
#
# Indices 1 2 3 4 5 6 
#
# 1 0.013592 -0.001931 -0.006768 0.000000 0.002414 0.000000
# 2 -0.001931 0.008548 -0.001773 0.000000 -0.000327 0.000000
# 3 -0.006768 -0.001773 0.012489 0.000000 0.000107 0.000000
# 4 0.000000 0.000000 0.000000 0.021687 0.000000 -0.001775
# 5 0.002414 -0.000327 0.000107 0.000000 0.044144 0.000000
# 6 0.000000 0.000000 0.000000 -0.001775 0.000000 0.020170
#
#
# Mechanical properties :
#
#
# Convention : Reuss Voigt Hill
#
# Bulk Modulus (GPa) = 73.06741 73.84417 73.45579
# Shear Modulus (GPa) = 34.21462 38.75064 36.48263
#
# Velocity S-wave (km/s) = 3.94726 4.20077 4.07598
# Velocity P-wave (km/s) = 7.35175 7.56017 7.45669
#
# Compressibility (1/GPa) = 0.01368599
#
# Stress axis : x y z
#
# Youngs Moduli (GPa) = 73.57055 116.98206 80.07208
#
# Poissons Ratio (x) = 0.22587 0.54194
# Poissons Ratio (y) = 0.14205 0.14194
# Poissons Ratio (z) = 0.49794 0.20738
#
# Static dielectric constant tensor:
#      x y z
#    x 3.777370 0.000000 -0.088540 
#    y 0.000000 4.473910 0.000000 
#    z -0.088540 0.000000 3.854740 
# 
# 
# High freq. dielectric constant tensor:
#      x y z
#    x 1.861290 0.000000 -0.007160 
#    y 0.000000 1.895590 0.000000 
#    z -0.007160 0.000000 1.867430 
# 
# From -- ./inp_files/15960.got.cif
#   From: 2010.03.12/outbox.cif.g09.slc.cpg/sg4_8_cif.got.tgz:15960.got - 2010.03.31 09:31:35.
