data_PCOD8047331
_publ_section_title
;
Structure prediction by ZEFSAII (Michael W. Deem and Ramdas Pophale) SiO2 
 PCOD8047331
Probable space group: P 21
;
_chemical_formula_sum "Si O2"
_cell_formula_units_Z 14
_cell_length_a 9.710446
_cell_length_b 6.613279
_cell_length_c 15.164452
_cell_angle_alpha 90.000000
_cell_angle_beta 39.737344
_cell_angle_gamma 90.000000
_cell_volume 622.538902
_symmetry_space_group_name_H-M "P 21"
_symmetry_group_IT_number 4
_symmetry_cell_setting 'monoclinic'
loop_
_space_group_symop_operation_xyz
x,y,z
-x,1/2+y,-z
loop_
_atom_site_type_symbol
_atom_site_label
_atom_site_fract_x
_atom_site_fract_y
_atom_site_fract_z
Si Si1 0.229818 0.105330 0.973122
Si Si2 0.763286 0.565459 0.615481
Si Si3 0.901343 0.842688 0.234688
Si Si4 0.845790 0.917340 0.459271
Si Si5 0.215165 0.487527 0.089005
Si Si6 0.527723 0.710684 0.311061
Si Si7 0.566183 0.800912 0.866460
O O1 0.285635 0.109589 0.841749
O O2 0.428951 0.004880 0.925832
O O3 0.200824 0.337193 0.014100
O O4 0.016257 0.977524 0.102400
O O5 0.814233 0.679200 0.498153
O O6 0.614903 0.371147 0.673095
O O7 0.643786 0.733843 0.732527
O O8 0.979757 0.504263 0.559048
O O9 0.924306 0.943355 0.319853
O O10 0.651099 0.820111 0.331067
O O11 0.001955 0.620239 0.192268
O O12 0.622799 0.036329 0.577050
O O13 0.231129 0.355538 0.170954
O O14 0.428850 0.622727 0.977658
#
# Coordination Sequence:
#
# PCOD8047331 Si02
#       7
#     2   2   2   2   2   2   2
#     4  11  24  45  72 106 145 187 241 298 363 428
#     4  12  26  45  76 104 141 191 251 296 362 431
#     4  11  31  46  74 108 146 196 240 298 372 438
#     4  12  28  50  72 106 146 194 246 299 361 433
#     4  11  23  41  71 105 150 180 241 300 368 422
#     4  12  28  50  74 105 149 192 241 303 367 435
#     4  11  22  39  69 112 137 188 236 302 359 423
#
# _framework density 22.488553
#
# number of rings (size 3 to 8) (size 9 to 14) (size 15 to 20)
#    0.000    0.571    5.714    0.857   10.000    2.286 
#    0.000    0.000    0.000    0.000    0.000    0.000 
#    0.000    0.000    0.000    0.000    0.000    0.000 
#
# Total GULP energy -173641.642627 kJ/mol
# GULP energy per Si atom -12402.974473 kJ/mol
# Density = 2.243737 g / cm^3
# Si number density = 22.488553 Si / 1000 Ang^3
#
#
#
# Elastic Constant Matrix: (Units=GPa)
#
#
# Indices 1 2 3 4 5 6 
#
# 1 94.0506 27.2408 29.6034 0.0000 -11.6082 0.0000
# 2 27.2408 106.5545 39.7634 0.0000 -5.0505 0.0000
# 3 29.6034 39.7634 104.6533 0.0000 2.8707 0.0000
# 4 0.0000 0.0000 0.0000 39.5022 0.0000 -0.1693
# 5 -11.6082 -5.0505 2.8707 0.0000 28.2897 0.0000
# 6 0.0000 0.0000 0.0000 -0.1693 0.0000 24.4423
#
#
#
# Elastic Compliance Matrix: (Units=1/GPa)
#
#
# Indices 1 2 3 4 5 6 
#
# 1 0.012780 -0.001885 -0.003042 0.000000 0.005216 0.000000
# 2 -0.001885 0.011376 -0.003834 0.000000 0.001647 0.000000
# 3 -0.003042 -0.003834 0.011959 0.000000 -0.003146 0.000000
# 4 0.000000 0.000000 0.000000 0.025316 0.000000 0.000175
# 5 0.005216 0.001647 -0.003146 0.000000 0.038102 0.000000
# 6 0.000000 0.000000 0.000000 0.000175 0.000000 0.040914
#
#
# Mechanical properties :
#
#
# Convention : Reuss Voigt Hill
#
# Bulk Modulus (GPa) = 53.78535 55.38597 54.58566
# Shear Modulus (GPa) = 30.45706 32.35689 31.40697
#
# Velocity S-wave (km/s) = 3.68412 3.79729 3.74113
# Velocity P-wave (km/s) = 6.48581 6.62630 6.55643
#
# Compressibility (1/GPa) = 0.01859242
#
# Stress axis : x y z
#
# Youngs Moduli (GPa) = 78.24871 87.90754 83.61918
#
# Poissons Ratio (x) = 0.16568 0.25437
# Poissons Ratio (y) = 0.14748 0.32061
# Poissons Ratio (z) = 0.23803 0.33706
#
# Static dielectric constant tensor:
#      x y z
#    x 3.838150 0.000000 0.061570 
#    y 0.000000 4.116970 0.000000 
#    z 0.061570 0.000000 4.087610 
# 
# 
# High freq. dielectric constant tensor:
#      x y z
#    x 1.879700 0.000000 0.003200 
#    y 0.000000 1.896620 0.000000 
#    z 0.003200 0.000000 1.884630 
# 
# From -- ./inp_files/7385.got.cif
#   From: 2010.03.12/outbox.cif.g09.slc.cpg/sg4_4_cif.got.tgz:7385.got - 2010.03.31 09:31:35.
