data_PCOD8047265
_publ_section_title
;
Structure prediction by ZEFSAII (Michael W. Deem and Ramdas Pophale) SiO2 
 PCOD8047265
Probable space group: P 21
;
_chemical_formula_sum "Si O2"
_cell_formula_units_Z 16
_cell_length_a 7.777296
_cell_length_b 18.943742
_cell_length_c 7.549496
_cell_angle_alpha 90.000000
_cell_angle_beta 143.504653
_cell_angle_gamma 90.000000
_cell_volume 661.534179
_symmetry_space_group_name_H-M "P 21"
_symmetry_group_IT_number 4
_symmetry_cell_setting 'monoclinic'
loop_
_space_group_symop_operation_xyz
x,y,z
-x,1/2+y,-z
loop_
_atom_site_type_symbol
_atom_site_label
_atom_site_fract_x
_atom_site_fract_y
_atom_site_fract_z
Si Si1 0.404919 0.335050 0.100135
Si Si2 0.500317 0.899227 0.269073
Si Si3 0.097168 0.917701 0.654188
Si Si4 0.845587 0.529804 0.602050
Si Si5 0.718943 0.970125 0.780414
Si Si6 0.877929 0.243777 0.616411
Si Si7 0.297203 0.745923 0.148805
Si Si8 0.896179 0.685158 0.543615
O O1 0.644038 0.359541 0.154768
O O2 0.377657 0.395798 0.220028
O O3 0.084314 0.313229 0.770181
O O4 0.546390 0.264546 0.300683
O O5 0.220343 0.940286 0.952360
O O6 0.386432 0.826969 0.264198
O O7 0.674707 0.956034 0.535953
O O8 0.779890 0.881312 0.374433
O O9 0.081358 0.982572 0.507695
O O10 0.971985 0.494029 0.887022
O O11 0.972036 0.607196 0.676369
O O12 0.501103 0.531621 0.339833
O O13 0.856020 0.214289 0.800180
O O14 0.004647 0.187411 0.580653
O O15 0.557972 0.699183 0.289255
O O16 0.061472 0.743723 0.797129
#
# Coordination Sequence:
#
# PCOD8047265 Si02
#       8
#     2   2   2   2   2   2   2   2
#     4  11  21  40  67  98 134 169 214 281 362 408
#     4  12  23  41  68 111 138 164 232 303 359 421
#     4  11  23  40  69 102 137 181 227 285 356 422
#     4  11  25  47  65  94 135 193 236 272 347 429
#     4  11  23  41  70  96 139 176 217 292 357 408
#     4  12  24  43  69 104 137 181 226 288 349 417
#     4  12  26  44  73 109 137 182 234 295 354 422
#     4  12  27  48  69  96 143 192 238 284 340 419
#
# _framework density 24.186202999999999
#
# number of rings (size 3 to 8) (size 9 to 14) (size 15 to 20)
#    0.000    0.500    1.250    9.750    1.750    0.000 
#    6.750    0.000    0.000    0.000    0.000    0.000 
#    0.000    0.000    0.000    0.000    0.000    0.000 
#
# Total GULP energy -198282.657848 kJ/mol
# GULP energy per Si atom -12392.666116 kJ/mol
# Density = 2.413115 g / cm^3
# Si number density = 24.186203 Si / 1000 Ang^3
#
#
#
# Elastic Constant Matrix: (Units=GPa)
#
#
# Indices 1 2 3 4 5 6 
#
# 1 82.0690 11.0158 5.6020 0.0000 -5.8305 0.0000
# 2 11.0158 56.3120 17.3350 0.0000 -5.2347 0.0000
# 3 5.6020 17.3350 126.2313 0.0000 3.6460 0.0000
# 4 0.0000 0.0000 0.0000 25.4208 0.0000 -3.9085
# 5 -5.8305 -5.2347 3.6460 0.0000 40.8558 0.0000
# 6 0.0000 0.0000 0.0000 -3.9085 0.0000 14.2252
#
#
#
# Elastic Compliance Matrix: (Units=1/GPa)
#
#
# Indices 1 2 3 4 5 6 
#
# 1 0.012614 -0.002233 -0.000298 0.000000 0.001541 0.000000
# 2 -0.002233 0.019219 -0.002609 0.000000 0.002377 0.000000
# 3 -0.000298 -0.002609 0.008326 0.000000 -0.001120 0.000000
# 4 0.000000 0.000000 0.000000 0.041073 0.000000 0.011285
# 5 0.001541 0.002377 -0.001120 0.000000 0.025101 0.000000
# 6 0.000000 0.000000 0.000000 0.011285 0.000000 0.073399
#
#
# Mechanical properties :
#
#
# Convention : Reuss Voigt Hill
#
# Bulk Modulus (GPa) = 33.46663 36.94643 35.20653
# Shear Modulus (GPa) = 25.00374 31.47766 28.24070
#
# Velocity S-wave (km/s) = 3.21877 3.61151 3.42078
# Velocity P-wave (km/s) = 5.26128 5.71836 5.49457
#
# Compressibility (1/GPa) = 0.02988051
#
# Stress axis : x y z
#
# Youngs Moduli (GPa) = 79.27486 52.03185 120.10884
#
# Poissons Ratio (x) = 0.11617 0.03576
# Poissons Ratio (y) = 0.17700 0.31335
# Poissons Ratio (z) = 0.02360 0.13574
#
# Static dielectric constant tensor:
#      x y z
#    x 4.542320 0.000000 0.036630 
#    y 0.000000 3.747030 0.000000 
#    z 0.036630 0.000000 4.754090 
# 
# 
# High freq. dielectric constant tensor:
#      x y z
#    x 1.973140 0.000000 0.001890 
#    y 0.000000 1.909390 0.000000 
#    z 0.001890 0.000000 1.992120 
# 
# From -- ./inp_files/6982.got.cif
#   From: 2010.03.12/outbox.cif.g09.slc.cpg/sg4_4_cif.got.tgz:6982.got - 2010.03.31 09:31:35.
