data_PCOD8047228
_publ_section_title
;
Structure prediction by ZEFSAII (Michael W. Deem and Ramdas Pophale) SiO2 
 PCOD8047228
Probable space group: P 21
;
_chemical_formula_sum "Si O2"
_cell_formula_units_Z 12
_cell_length_a 8.722792
_cell_length_b 12.355716
_cell_length_c 8.151836
_cell_angle_alpha 90.000000
_cell_angle_beta 35.012228
_cell_angle_gamma 90.000000
_cell_volume 504.083532
_symmetry_space_group_name_H-M "P 21"
_symmetry_group_IT_number 4
_symmetry_cell_setting 'monoclinic'
loop_
_space_group_symop_operation_xyz
x,y,z
-x,1/2+y,-z
loop_
_atom_site_type_symbol
_atom_site_label
_atom_site_fract_x
_atom_site_fract_y
_atom_site_fract_z
Si Si1 0.560619 0.118750 0.619950
Si Si2 0.865661 0.314801 0.256683
Si Si3 0.676050 0.511457 0.891433
Si Si4 0.893141 0.010316 0.759972
Si Si5 0.829814 0.694558 0.292515
Si Si6 0.536428 0.885890 0.651975
O O1 0.764216 0.217868 0.464592
O O2 0.355147 0.114743 0.956317
O O3 0.411616 0.127113 0.575490
O O4 0.706188 0.999489 0.487522
O O5 0.029090 0.399414 0.220502
O O6 0.617859 0.372270 0.384674
O O7 0.051283 0.265527 0.956216
O O8 0.662975 0.401752 0.016170
O O9 0.423667 0.510530 0.988447
O O10 0.949320 0.518765 0.550902
O O11 0.957324 0.114719 0.814021
O O12 0.720107 0.780714 0.523501
#
# Coordination Sequence:
#
# PCOD8047228 Si02
#       6
#     2   2   2   2   2   2
#     4   9  23  46  67  97 136 183 225 284 341 402
#     4  11  25  41  75  95 137 183 235 280 330 416
#     4  10  27  45  70 100 150 171 224 287 347 407
#     4  12  27  45  70 108 134 183 228 281 345 409
#     4  11  25  41  75  95 137 183 235 280 330 416
#     4   9  23  46  67  97 136 183 225 284 341 402
#
# _framework density 23.805578000000001
#
# number of rings (size 3 to 8) (size 9 to 14) (size 15 to 20)
#    1.000    0.667    1.667    0.000   16.333    2.667 
#    0.000    0.000    0.000    0.000    0.000    0.000 
#    0.000    0.000    0.000    0.000    0.000    0.000 
#
# Total GULP energy -148688.200942 kJ/mol
# GULP energy per Si atom -12390.683412 kJ/mol
# Density = 2.375140 g / cm^3
# Si number density = 23.805578 Si / 1000 Ang^3
#
#
#
# Elastic Constant Matrix: (Units=GPa)
#
#
# Indices 1 2 3 4 5 6 
#
# 1 65.6607 22.8559 -13.0639 0.0000 8.0826 0.0000
# 2 22.8559 106.0536 -4.2353 0.0000 0.1443 0.0000
# 3 -13.0639 -4.2353 51.4059 0.0000 12.2843 0.0000
# 4 0.0000 0.0000 0.0000 38.4634 0.0000 20.6015
# 5 8.0826 0.1443 12.2843 0.0000 25.6244 0.0000
# 6 0.0000 0.0000 0.0000 20.6015 0.0000 22.3542
#
#
#
# Elastic Compliance Matrix: (Units=1/GPa)
#
#
# Indices 1 2 3 4 5 6 
#
# 1 0.019030 -0.003820 0.006720 0.000000 -0.009203 0.000000
# 2 -0.003820 0.010233 -0.000454 0.000000 0.001365 0.000000
# 3 0.006720 -0.000454 0.024428 0.000000 -0.013828 0.000000
# 4 0.000000 0.000000 0.000000 0.051342 0.000000 -0.047316
# 5 -0.009203 0.001365 -0.013828 0.000000 0.048550 0.000000
# 6 0.000000 0.000000 0.000000 -0.047316 0.000000 0.088341
#
#
# Mechanical properties :
#
#
# Convention : Reuss Voigt Hill
#
# Bulk Modulus (GPa) = 17.06995 26.02593 21.54794
# Shear Modulus (GPa) = 19.48881 31.79262 25.64072
#
# Velocity S-wave (km/s) = 2.86434 3.65843 3.28546
# Velocity P-wave (km/s) = 4.25739 5.36674 4.84393
#
# Compressibility (1/GPa) = 0.05858247
#
# Stress axis : x y z
#
# Youngs Moduli (GPa) = 52.54994 97.72773 40.93671
#
# Poissons Ratio (x) = 0.37334 -0.27511
# Poissons Ratio (y) = 0.20075 0.01858
# Poissons Ratio (z) = -0.35316 0.04437
#
# Static dielectric constant tensor:
#      x y z
#    x 4.331520 0.000000 0.108040 
#    y 0.000000 4.436720 0.000000 
#    z 0.108040 0.000000 4.019890 
# 
# 
# High freq. dielectric constant tensor:
#      x y z
#    x 1.939480 0.000000 0.003680 
#    y 0.000000 1.949770 0.000000 
#    z 0.003680 0.000000 1.924850 
# 
# From -- ./inp_files/1207.got.cif
#   From: 2010.03.12/outbox.cif.g09.slc.cpg/sg4_1_cif.got.tgz:1207.got - 2010.03.31 09:31:35.
