data_PCOD8047055
_publ_section_title
;
Structure prediction by ZEFSAII (Michael W. Deem and Ramdas Pophale) SiO2 
 PCOD8047055
Probable space group: P 21
;
_chemical_formula_sum "Si O2"
_cell_formula_units_Z 16
_cell_length_a 15.468121
_cell_length_b 9.552365
_cell_length_c 10.797973
_cell_angle_alpha 90.000000
_cell_angle_beta 22.669449
_cell_angle_gamma 90.000000
_cell_volume 614.919518
_symmetry_space_group_name_H-M "P 21"
_symmetry_group_IT_number 4
_symmetry_cell_setting 'monoclinic'
loop_
_space_group_symop_operation_xyz
x,y,z
-x,1/2+y,-z
loop_
_atom_site_type_symbol
_atom_site_label
_atom_site_fract_x
_atom_site_fract_y
_atom_site_fract_z
Si Si1 0.673409 0.834750 0.967986
Si Si2 0.632507 0.108567 0.178773
Si Si3 0.960373 0.689455 0.764489
Si Si4 0.774292 0.044302 0.249414
Si Si5 0.693471 0.984379 0.618882
Si Si6 0.906979 0.731004 0.414702
Si Si7 0.712559 0.429883 0.672661
Si Si8 0.159107 0.229497 0.806969
O O1 0.808738 0.815217 0.662080
O O2 0.739762 0.700198 0.966737
O O3 0.410156 0.844597 0.277256
O O4 0.712208 0.982995 0.984947
O O5 0.604163 0.054707 0.358798
O O6 0.407889 0.186617 0.432166
O O7 0.827928 0.224733 0.914737
O O8 0.151890 0.571441 0.486516
O O9 0.070978 0.838827 0.582025
O O10 0.879170 0.656329 0.009411
O O11 0.653995 0.067744 0.541847
O O12 0.884904 0.891521 0.104701
O O13 0.969953 0.160500 0.966727
O O14 0.828281 0.837816 0.407327
O O15 0.451288 0.950506 0.994019
O O16 0.796852 0.583388 0.526338
#
# Coordination Sequence:
#
# PCOD8047055 Si02
#       8
#     2   2   2   2   2   2   2   2
#     4  11  26  44  77 104 148 196 245 311 369 442
#     4  12  27  47  75 110 150 201 248 306 383 438
#     4  11  24  48  72 111 149 191 252 299 376 444
#     4  11  25  49  74 108 151 195 247 308 364 456
#     4  10  24  42  73 111 147 198 242 307 368 445
#     4  11  25  47  73 109 147 192 254 307 372 446
#     4  11  24  47  73 107 146 198 241 307 383 433
#     4  11  27  46  75 106 150 201 245 303 373 446
#
# _framework density 26.019666000000001
#
# number of rings (size 3 to 8) (size 9 to 14) (size 15 to 20)
#    0.000    1.000    2.500    2.250    8.750    7.000 
#    0.000    1.250    0.000    0.000    0.000    0.000 
#    0.000    0.000    0.000    0.000    0.000    0.000 
#
# Total GULP energy -198311.352965 kJ/mol
# GULP energy per Si atom -12394.459560 kJ/mol
# Density = 2.596044 g / cm^3
# Si number density = 26.019666 Si / 1000 Ang^3
#
#
#
# Elastic Constant Matrix: (Units=GPa)
#
#
# Indices 1 2 3 4 5 6 
#
# 1 93.5108 14.6518 6.6927 0.0000 -10.2603 0.0000
# 2 14.6518 120.4007 20.8986 0.0000 -9.3838 0.0000
# 3 6.6927 20.8986 85.4826 0.0000 -14.7918 0.0000
# 4 0.0000 0.0000 0.0000 35.2462 0.0000 0.8330
# 5 -10.2603 -9.3838 -14.7918 0.0000 25.6411 0.0000
# 6 0.0000 0.0000 0.0000 0.8330 0.0000 41.5965
#
#
#
# Elastic Compliance Matrix: (Units=1/GPa)
#
#
# Indices 1 2 3 4 5 6 
#
# 1 0.011314 -0.001067 0.000101 0.000000 0.004195 0.000000
# 2 -0.001067 0.008884 -0.001777 0.000000 0.001799 0.000000
# 3 0.000101 -0.001777 0.013352 0.000000 0.007093 0.000000
# 4 0.000000 0.000000 0.000000 0.028385 0.000000 -0.000568
# 5 0.004195 0.001799 0.007093 0.000000 0.045428 0.000000
# 6 0.000000 0.000000 0.000000 -0.000568 0.000000 0.024052
#
#
# Mechanical properties :
#
#
# Convention : Reuss Voigt Hill
#
# Bulk Modulus (GPa) = 35.63340 42.65336 39.14338
# Shear Modulus (GPa) = 34.18624 37.64018 35.91321
#
# Velocity S-wave (km/s) = 3.62866 3.80755 3.71918
# Velocity P-wave (km/s) = 5.59292 5.97982 5.78960
#
# Compressibility (1/GPa) = 0.02806356
#
# Stress axis : x y z
#
# Youngs Moduli (GPa) = 88.38399 112.55978 74.89442
#
# Poissons Ratio (x) = 0.12015 -0.00757
# Poissons Ratio (y) = 0.09434 0.13310
# Poissons Ratio (z) = -0.00893 0.20003
#
# Static dielectric constant tensor:
#      x y z
#    x 5.038980 0.000000 0.112290 
#    y 0.000000 4.777710 0.000000 
#    z 0.112290 0.000000 4.566580 
# 
# 
# High freq. dielectric constant tensor:
#      x y z
#    x 2.060110 0.000000 0.009020 
#    y 0.000000 2.046730 0.000000 
#    z 0.009020 0.000000 2.041190 
# 
# From -- ./inp_files/12906.got.cif
#   From: 2010.03.12/outbox.cif.g09.slc.cpg/sg4_7_cif.got.tgz:12906.got - 2010.03.31 09:31:35.
