data_PCOD8047214
_publ_section_title
;
Structure prediction by ZEFSAII (Michael W. Deem and Ramdas Pophale) SiO2 
 PCOD8047214
Probable space group: P 21
;
_chemical_formula_sum "Si O2"
_cell_formula_units_Z 14
_cell_length_a 11.911255
_cell_length_b 9.022093
_cell_length_c 12.028354
_cell_angle_alpha 90.000000
_cell_angle_beta 153.812149
_cell_angle_gamma 90.000000
_cell_volume 570.453555
_symmetry_space_group_name_H-M "P 21"
_symmetry_group_IT_number 4
_symmetry_cell_setting 'monoclinic'
loop_
_space_group_symop_operation_xyz
x,y,z
-x,1/2+y,-z
loop_
_atom_site_type_symbol
_atom_site_label
_atom_site_fract_x
_atom_site_fract_y
_atom_site_fract_z
Si Si1 0.054935 0.915320 0.222398
Si Si2 0.403580 0.149783 0.966661
Si Si3 0.178912 0.417809 0.209549
Si Si4 0.855241 0.198854 0.513631
Si Si5 0.683594 0.129225 0.994960
Si Si6 0.089170 0.927547 0.805799
Si Si7 0.526658 0.657230 0.428062
O O1 0.200584 0.789969 0.422749
O O2 0.943928 0.845398 0.010349
O O3 0.232432 0.051036 0.347882
O O4 0.823310 0.976177 0.092003
O O5 0.636779 0.239915 0.230969
O O6 0.486259 0.096234 0.918316
O O7 0.139706 0.243674 0.721514
O O8 0.351318 0.009422 0.002179
O O9 0.288205 0.580328 0.277122
O O10 0.408006 0.312158 0.454637
O O11 0.955487 0.433584 0.101306
O O12 0.858657 0.020555 0.542409
O O13 0.532010 0.189885 0.753051
O O14 0.889257 0.256373 0.213115
#
# Coordination Sequence:
#
# PCOD8047214 Si02
#       7
#     2   2   2   2   2   2   2
#     4  11  27  45  72 105 152 185 251 306 374 442
#     4  10  27  45  78 106 152 192 246 305 370 444
#     4  11  27  46  70 110 142 201 243 311 373 444
#     4  10  27  44  73 110 142 202 238 304 366 444
#     4  11  26  47  70 111 140 198 246 309 372 438
#     4  10  26  45  73 103 150 191 255 295 376 440
#     4  11  28  44  76 101 150 193 247 312 369 448
#
# _framework density 24.541876999999999
#
# number of rings (size 3 to 8) (size 9 to 14) (size 15 to 20)
#    0.857    0.571    1.429    0.000   16.000    1.143 
#    0.000    0.000    0.000    0.000    0.000    0.000 
#    0.000    0.000    0.000    0.000    0.000    0.000 
#
# Total GULP energy -173527.351805 kJ/mol
# GULP energy per Si atom -12394.810843 kJ/mol
# Density = 2.448602 g / cm^3
# Si number density = 24.541877 Si / 1000 Ang^3
#
#
#
# Elastic Constant Matrix: (Units=GPa)
#
#
# Indices 1 2 3 4 5 6 
#
# 1 173.8654 32.9991 29.0133 0.0000 -0.6852 0.0000
# 2 32.9991 63.2012 14.8408 0.0000 -6.3281 0.0000
# 3 29.0133 14.8408 112.0571 0.0000 -7.6032 0.0000
# 4 0.0000 0.0000 0.0000 28.0542 0.0000 4.6898
# 5 -0.6852 -6.3281 -7.6032 0.0000 31.5740 0.0000
# 6 0.0000 0.0000 0.0000 4.6898 0.0000 26.5299
#
#
#
# Elastic Compliance Matrix: (Units=1/GPa)
#
#
# Indices 1 2 3 4 5 6 
#
# 1 0.006579 -0.003204 -0.001335 0.000000 -0.000821 0.000000
# 2 -0.003204 0.018137 -0.001353 0.000000 0.003240 0.000000
# 3 -0.001335 -0.001353 0.009585 0.000000 0.002008 0.000000
# 4 0.000000 0.000000 0.000000 0.036731 0.000000 -0.006493
# 5 -0.000821 0.003240 0.002008 0.000000 0.032787 0.000000
# 6 0.000000 0.000000 0.000000 -0.006493 0.000000 0.038841
#
#
# Mechanical properties :
#
#
# Convention : Reuss Voigt Hill
#
# Bulk Modulus (GPa) = 44.40763 55.86999 50.13881
# Shear Modulus (GPa) = 30.87388 35.38299 33.12844
#
# Velocity S-wave (km/s) = 3.55069 3.80114 3.67805
# Velocity P-wave (km/s) = 5.91133 6.48687 6.20577
#
# Compressibility (1/GPa) = 0.02251865
#
# Stress axis : x y z
#
# Youngs Moduli (GPa) = 151.99473 55.13479 104.32934
#
# Poissons Ratio (x) = 0.17665 0.13926
# Poissons Ratio (y) = 0.48698 0.14113
# Poissons Ratio (z) = 0.20288 0.07458
#
# Static dielectric constant tensor:
#      x y z
#    x 4.442370 0.000000 0.081290 
#    y 0.000000 4.185140 0.000000 
#    z 0.081290 0.000000 4.132870 
# 
# 
# High freq. dielectric constant tensor:
#      x y z
#    x 1.986220 0.000000 0.005100 
#    y 0.000000 1.961750 0.000000 
#    z 0.005100 0.000000 1.961070 
# 
# From -- ./inp_files/12068.got.cif
#   From: 2010.03.12/outbox.cif.g09.slc.cpg/sg4_7_cif.got.tgz:12068.got - 2010.03.31 09:31:35.
