data_PCOD8047258
_publ_section_title
;
Structure prediction by ZEFSAII (Michael W. Deem and Ramdas Pophale) SiO2 
 PCOD8047258
Probable space group: P 21
;
_chemical_formula_sum "Si O2"
_cell_formula_units_Z 16
_cell_length_a 7.868738
_cell_length_b 12.059229
_cell_length_c 10.628188
_cell_angle_alpha 90.000000
_cell_angle_beta 50.043807
_cell_angle_gamma 90.000000
_cell_volume 773.065389
_symmetry_space_group_name_H-M "P 21"
_symmetry_group_IT_number 4
_symmetry_cell_setting 'monoclinic'
loop_
_space_group_symop_operation_xyz
x,y,z
-x,1/2+y,-z
loop_
_atom_site_type_symbol
_atom_site_label
_atom_site_fract_x
_atom_site_fract_y
_atom_site_fract_z
Si Si1 0.142756 0.508740 0.802301
Si Si2 0.655105 0.277223 0.787594
Si Si3 0.500386 0.194726 0.384173
Si Si4 0.029873 0.094676 0.603446
Si Si5 0.655102 0.777225 0.287598
Si Si6 0.142750 0.008738 0.302303
Si Si7 0.029875 0.594679 0.103446
Si Si8 0.500390 0.694725 0.884176
O O1 0.281398 0.619115 0.704601
O O2 0.296312 0.404942 0.762843
O O3 0.000001 0.475595 0.750000
O O4 0.976635 0.526776 0.001417
O O5 0.500006 0.230576 0.749993
O O6 0.703696 0.404939 0.737156
O O7 0.880142 0.205469 0.684176
O O8 0.522551 0.272727 0.983432
O O9 0.290297 0.115504 0.471452
O O10 0.477440 0.272730 0.516566
O O11 0.499999 0.262089 0.249998
O O12 0.000003 0.027236 0.749999
O O13 0.976628 0.026772 0.501421
O O14 0.880142 0.705473 0.184176
O O15 0.281397 0.119112 0.204602
O O16 0.290297 0.615508 0.971462
#
# Coordination Sequence:
#
# PCOD8047258 Si02
#       8
#     2   2   2   2   2   2   2   2
#     4  11  21  37  58  83 112 147 183 225 274 326
#     4  11  21  37  58  83 112 147 183 225 274 326
#     4   9  19  37  57  81 111 143 182 229 273 324
#     4   9  19  37  57  81 111 143 182 229 273 324
#     4  11  21  37  58  83 112 147 183 225 274 326
#     4  11  21  37  58  83 112 147 183 225 274 326
#     4   9  19  37  57  81 111 143 182 229 273 324
#     4   9  19  37  57  81 111 143 182 229 273 324
#
# _framework density 20.696825
#
# number of rings (size 3 to 8) (size 9 to 14) (size 15 to 20)
#    0.000    2.000    0.000    6.000    0.000    0.000 
#    0.000   25.000    0.000    0.000    0.000    0.000 
#    0.000    0.000    0.000    0.000    0.000    0.000 
#
# Total GULP energy -198244.728196 kJ/mol
# GULP energy per Si atom -12390.295512 kJ/mol
# Density = 2.064972 g / cm^3
# Si number density = 20.696825 Si / 1000 Ang^3
#
#
#
# Elastic Constant Matrix: (Units=GPa)
#
#
# Indices 1 2 3 4 5 6 
#
# 1 97.8300 3.8595 43.1836 0.0000 24.0154 0.0000
# 2 3.8595 66.6914 39.5271 0.0000 12.8567 0.0000
# 3 43.1836 39.5271 168.2555 0.0000 48.1751 0.0000
# 4 0.0000 0.0000 0.0000 24.2166 0.0000 -0.3526
# 5 24.0154 12.8567 48.1751 0.0000 49.5555 0.0000
# 6 0.0000 0.0000 0.0000 -0.3526 0.0000 19.4247
#
#
#
# Elastic Compliance Matrix: (Units=1/GPa)
#
#
# Indices 1 2 3 4 5 6 
#
# 1 0.012173 0.001441 -0.002310 0.000000 -0.004028 0.000000
# 2 0.001441 0.017611 -0.004155 0.000000 -0.001227 0.000000
# 3 -0.002310 -0.004155 0.009538 0.000000 -0.007075 0.000000
# 4 0.000000 0.000000 0.000000 0.041305 0.000000 0.000750
# 5 -0.004028 -0.001227 -0.007075 0.000000 0.029328 0.000000
# 6 0.000000 0.000000 0.000000 0.000750 0.000000 0.051495
#
#
# Mechanical properties :
#
#
# Convention : Reuss Voigt Hill
#
# Bulk Modulus (GPa) = 34.16057 56.21303 45.18680
# Shear Modulus (GPa) = 27.58541 35.05313 31.31927
#
# Velocity S-wave (km/s) = 3.65476 4.11986 3.89426
# Velocity P-wave (km/s) = 5.86095 7.06047 6.48849
#
# Compressibility (1/GPa) = 0.02927352
#
# Stress axis : x y z
#
# Youngs Moduli (GPa) = 82.14757 56.78400 104.84339
#
# Poissons Ratio (x) = -0.08182 0.24214
# Poissons Ratio (y) = -0.11836 0.43568
# Poissons Ratio (z) = 0.18972 0.23597
#
# Static dielectric constant tensor:
#      x y z
#    x 3.827370 0.000000 0.454080 
#    y 0.000000 3.136090 0.000000 
#    z 0.454080 0.000000 4.549380 
# 
# 
# High freq. dielectric constant tensor:
#      x y z
#    x 1.824050 0.000000 0.020520 
#    y 0.000000 1.758710 0.000000 
#    z 0.020520 0.000000 1.833790 
# 
# From -- ./inp_files/5926.got.cif
#   From: 2010.03.12/outbox.cif.g09.slc.cpg/sg4_3_cif.got.tgz:5926.got - 2010.03.31 09:31:35.
