data_PCOD8047220
_publ_section_title
;
Structure prediction by ZEFSAII (Michael W. Deem and Ramdas Pophale) SiO2 
 PCOD8047220
Probable space group: P 21
;
_chemical_formula_sum "Si O2"
_cell_formula_units_Z 16
_cell_length_a 19.967327
_cell_length_b 5.576342
_cell_length_c 9.491139
_cell_angle_alpha 90.000000
_cell_angle_beta 38.225622
_cell_angle_gamma 90.000000
_cell_volume 653.897576
_symmetry_space_group_name_H-M "P 21"
_symmetry_group_IT_number 4
_symmetry_cell_setting 'monoclinic'
loop_
_space_group_symop_operation_xyz
x,y,z
-x,1/2+y,-z
loop_
_atom_site_type_symbol
_atom_site_label
_atom_site_fract_x
_atom_site_fract_y
_atom_site_fract_z
Si Si1 0.435787 0.907050 0.961804
Si Si2 0.333494 0.241373 0.333449
Si Si3 0.916910 0.454159 0.474375
Si Si4 0.750692 0.083860 0.747620
Si Si5 0.476856 0.586357 0.456567
Si Si6 0.248499 0.418075 0.749205
Si Si7 0.144768 0.292827 0.195281
Si Si8 0.971646 0.127986 0.969500
O O1 0.552949 0.874412 0.834106
O O2 0.446881 0.085705 0.809355
O O3 0.372493 0.669816 0.015839
O O4 0.359234 0.990447 0.217486
O O5 0.253502 0.372472 0.358093
O O6 0.274628 0.226107 0.581838
O O7 0.833204 0.272465 0.539349
O O8 0.844703 0.568696 0.718199
O O9 0.018392 0.319197 0.373838
O O10 0.958921 0.645145 0.289566
O O11 0.802834 0.019049 0.812010
O O12 0.499617 0.836449 0.497999
O O13 0.351908 0.579671 0.616645
O O14 0.155108 0.604121 0.857988
O O15 0.210519 0.252375 0.942218
O O16 0.008488 0.877782 0.983506
#
# Coordination Sequence:
#
# PCOD8047220 Si02
#       8
#     2   2   2   2   2   2   2   2
#     4  11  25  43  73 105 141 188 241 297 356 431
#     4  11  24  47  70 101 143 185 243 294 358 431
#     4  11  25  43  73 105 141 188 241 297 356 431
#     4  12  24  42  74  98 140 192 234 294 360 424
#     4  11  27  48  74 109 149 191 242 301 361 434
#     4  10  26  48  70 108 148 192 240 306 362 422
#     4  11  24  47  70 101 143 185 243 294 358 431
#     4  11  27  48  74 109 149 191 242 301 361 434
#
# _framework density 24.468662999999999
#
# number of rings (size 3 to 8) (size 9 to 14) (size 15 to 20)
#    0.000    1.000    2.500    2.250   10.500    1.000 
#    0.000    0.000    0.000    0.000    0.000    0.000 
#    0.000    0.000    0.000    0.000    0.000    0.000 
#
# Total GULP energy -198315.573884 kJ/mol
# GULP energy per Si atom -12394.723368 kJ/mol
# Density = 2.441297 g / cm^3
# Si number density = 24.468663 Si / 1000 Ang^3
#
#
#
# Elastic Constant Matrix: (Units=GPa)
#
#
# Indices 1 2 3 4 5 6 
#
# 1 120.1114 21.8787 43.7492 0.0000 -3.9311 0.0000
# 2 21.8787 77.0976 25.2300 0.0000 6.6381 0.0000
# 3 43.7492 25.2300 149.6269 0.0000 13.9075 0.0000
# 4 0.0000 0.0000 0.0000 29.5722 0.0000 2.0249
# 5 -3.9311 6.6381 13.9075 0.0000 38.0506 0.0000
# 6 0.0000 0.0000 0.0000 2.0249 0.0000 29.9819
#
#
#
# Elastic Compliance Matrix: (Units=1/GPa)
#
#
# Indices 1 2 3 4 5 6 
#
# 1 0.009777 -0.002086 -0.002727 0.000000 0.002371 0.000000
# 2 -0.002086 0.014268 -0.001599 0.000000 -0.002120 0.000000
# 3 -0.002727 -0.001599 0.008023 0.000000 -0.002935 0.000000
# 4 0.000000 0.000000 0.000000 0.033973 0.000000 -0.002294
# 5 0.002371 -0.002120 -0.002935 0.000000 0.027968 0.000000
# 6 0.000000 0.000000 0.000000 -0.002294 0.000000 0.033508
#
#
# Mechanical properties :
#
#
# Convention : Reuss Voigt Hill
#
# Bulk Modulus (GPa) = 51.96485 58.72796 55.34641
# Shear Modulus (GPa) = 34.07010 36.58614 35.32812
#
# Velocity S-wave (km/s) = 3.73553 3.87101 3.80387
# Velocity P-wave (km/s) = 6.31577 6.63574 6.47773
#
# Compressibility (1/GPa) = 0.01924378
#
# Stress axis : x y z
#
# Youngs Moduli (GPa) = 102.28600 70.08524 124.63985
#
# Poissons Ratio (x) = 0.14620 0.33991
# Poissons Ratio (y) = 0.21337 0.19929
# Poissons Ratio (z) = 0.27895 0.11206
#
# Static dielectric constant tensor:
#      x y z
#    x 4.869210 0.000000 0.040570 
#    y 0.000000 3.986650 0.000000 
#    z 0.040570 0.000000 4.692240 
# 
# 
# High freq. dielectric constant tensor:
#      x y z
#    x 2.000660 0.000000 -0.007420 
#    y 0.000000 1.942580 0.000000 
#    z -0.007420 0.000000 1.985970 
# 
# From -- ./inp_files/9767.got.cif
#   From: 2010.03.12/outbox.cif.g09.slc.cpg/sg4_5_cif.got.tgz:9767.got - 2010.03.31 09:31:35.
