data_PCOD8047183
_publ_section_title
;
Structure prediction by ZEFSAII (Michael W. Deem and Ramdas Pophale) SiO2 
 PCOD8047183
Probable space group: P 21
;
_chemical_formula_sum "Si O2"
_cell_formula_units_Z 12
_cell_length_a 7.468439
_cell_length_b 4.963610
_cell_length_c 15.453962
_cell_angle_alpha 90.000000
_cell_angle_beta 131.396264
_cell_angle_gamma 90.000000
_cell_volume 429.751962
_symmetry_space_group_name_H-M "P 21"
_symmetry_group_IT_number 4
_symmetry_cell_setting 'monoclinic'
loop_
_space_group_symop_operation_xyz
x,y,z
-x,1/2+y,-z
loop_
_atom_site_type_symbol
_atom_site_label
_atom_site_fract_x
_atom_site_fract_y
_atom_site_fract_z
Si Si1 0.348272 0.917730 0.431618
Si Si2 0.603065 0.762277 0.745132
Si Si3 0.562947 0.533602 0.147414
Si Si4 0.127460 0.642834 0.512394
Si Si5 0.721162 0.548280 0.955159
Si Si6 0.951447 0.148500 0.789999
O O1 0.576410 0.713886 0.511832
O O2 0.210886 0.908637 0.292309
O O3 0.136561 0.793146 0.423154
O O4 0.758207 0.584153 0.863098
O O5 0.458911 0.993966 0.755200
O O6 0.402806 0.590179 0.629663
O O7 0.768095 0.898450 0.724793
O O8 0.488019 0.251449 0.078520
O O9 0.828119 0.610072 0.204330
O O10 0.368770 0.751119 0.052533
O O11 0.992616 0.849918 0.533594
O O12 0.962524 0.638559 0.082022
#
# Coordination Sequence:
#
# PCOD8047183 Si02
#       6
#     2   2   2   2   2   2
#     4  12  28  49  72 109 145 192 249 302 366 438
#     4  10  27  48  75 112 143 192 245 305 357 452
#     4  10  25  48  71 112 144 194 239 299 368 439
#     4  12  27  50  77 104 150 195 244 309 367 433
#     4  10  26  47  74 109 150 188 246 297 374 428
#     4  12  25  50  77 106 152 195 241 310 362 442
#
# _framework density 27.923082000000001
#
# number of rings (size 3 to 8) (size 9 to 14) (size 15 to 20)
#    1.000    0.000    1.667    3.000    7.000    2.667 
#    3.000    0.000    0.000    0.000    0.000    0.000 
#    0.000    0.000    0.000    0.000    0.000    0.000 
#
# Total GULP energy -148677.224415 kJ/mol
# GULP energy per Si atom -12389.768701 kJ/mol
# Density = 2.785953 g / cm^3
# Si number density = 27.923082 Si / 1000 Ang^3
#
#
#
# Elastic Constant Matrix: (Units=GPa)
#
#
# Indices 1 2 3 4 5 6 
#
# 1 55.3600 -20.6056 -2.5869 0.0000 18.2214 0.0000
# 2 -20.6056 77.3190 2.8393 0.0000 15.1634 0.0000
# 3 -2.5869 2.8393 179.8810 0.0000 -4.4059 0.0000
# 4 0.0000 0.0000 0.0000 38.5038 0.0000 9.6371
# 5 18.2214 15.1634 -4.4059 0.0000 50.7868 0.0000
# 6 0.0000 0.0000 0.0000 9.6371 0.0000 14.1115
#
#
#
# Elastic Compliance Matrix: (Units=1/GPa)
#
#
# Indices 1 2 3 4 5 6 
#
# 1 0.025315 0.009062 -0.000068 0.000000 -0.011794 0.000000
# 2 0.009062 0.017000 -0.000343 0.000000 -0.008357 0.000000
# 3 -0.000068 -0.000343 0.005579 0.000000 0.000611 0.000000
# 4 0.000000 0.000000 0.000000 0.031326 0.000000 -0.021393
# 5 -0.011794 -0.008357 0.000611 0.000000 0.026470 0.000000
# 6 0.000000 0.000000 0.000000 -0.021393 0.000000 0.085474
#
#
# Mechanical properties :
#
#
# Convention : Reuss Voigt Hill
#
# Bulk Modulus (GPa) = 15.33806 30.20595 22.77201
# Shear Modulus (GPa) = 25.56327 42.87464 34.21895
#
# Velocity S-wave (km/s) = 3.02899 3.92274 3.50447
# Velocity P-wave (km/s) = 4.21164 5.59984 4.95460
#
# Compressibility (1/GPa) = 0.06519728
#
# Stress axis : x y z
#
# Youngs Moduli (GPa) = 39.50152 58.82360 179.25583
#
# Poissons Ratio (x) = -0.53307 0.01216
# Poissons Ratio (y) = -0.35797 0.06143
# Poissons Ratio (z) = 0.00268 0.02016
#
# Static dielectric constant tensor:
#      x y z
#    x 5.043540 0.000000 -0.204030 
#    y 0.000000 4.826660 0.000000 
#    z -0.204030 0.000000 5.058300 
# 
# 
# High freq. dielectric constant tensor:
#      x y z
#    x 2.134580 0.000000 -0.003780 
#    y 0.000000 2.124790 0.000000 
#    z -0.003780 0.000000 2.132700 
# 
# From -- ./inp_files/14770.got.cif
#   From: 2010.03.12/outbox.cif.g09.slc.cpg/sg4_8_cif.got.tgz:14770.got - 2010.03.31 09:31:35.
