data_PCOD8047842
_publ_section_title
;
Structure prediction by ZEFSAII (Michael W. Deem and Ramdas Pophale) SiO2 
 PCOD8047842
Probable space group: P 21
;
_chemical_formula_sum "Si O2"
_cell_formula_units_Z 16
_cell_length_a 9.371250
_cell_length_b 6.857364
_cell_length_c 11.390584
_cell_angle_alpha 90.000000
_cell_angle_beta 101.039788
_cell_angle_gamma 90.000000
_cell_volume 718.436789
_symmetry_space_group_name_H-M "P 21"
_symmetry_group_IT_number 4
_symmetry_cell_setting 'monoclinic'
loop_
_space_group_symop_operation_xyz
x,y,z
-x,1/2+y,-z
loop_
_atom_site_type_symbol
_atom_site_label
_atom_site_fract_x
_atom_site_fract_y
_atom_site_fract_z
Si Si1 0.330480 0.950620 0.408243
Si Si2 0.150479 0.682740 0.855387
Si Si3 0.417925 0.202035 0.633223
Si Si4 0.864296 0.919894 0.367246
Si Si5 0.896893 0.129406 0.600027
Si Si6 0.172966 0.282147 0.236197
Si Si7 0.677330 0.891737 0.973627
Si Si8 0.366513 0.033902 0.875594
O O1 0.442425 0.842551 0.339297
O O2 0.229249 0.784186 0.447851
O O3 0.424129 0.053063 0.525093
O O4 0.231974 0.102652 0.321511
O O5 0.180315 0.565538 0.741609
O O6 0.211322 0.564880 0.976677
O O7 0.236851 0.881616 0.856951
O O8 0.979748 0.721914 0.846574
O O9 0.278547 0.336670 0.594430
O O10 0.411895 0.080496 0.750773
O O11 0.962507 0.745630 0.329935
O O12 0.947445 0.031649 0.485499
O O13 0.846267 0.973153 0.687644
O O14 0.289663 0.325150 0.153448
O O15 0.700531 0.718999 0.069339
O O16 0.510608 0.957515 0.963000
#
# Coordination Sequence:
#
# PCOD8047842 Si02
#       8
#     2   2   2   2   2   2   2   2
#     4  12  27  48  72 112 154 189 240 299 375 444
#     4  12  27  49  74 108 145 192 247 300 365 433
#     4  12  26  45  76 108 145 194 236 297 367 435
#     4  12  23  44  76 105 144 188 242 293 366 435
#     4  12  24  48  71 110 149 190 238 304 371 435
#     4  12  29  47  75 110 149 197 237 305 372 434
#     4  12  29  48  75 105 143 195 246 303 357 428
#     4  12  27  51  75 106 141 193 250 301 357 430
#
# _framework density 22.270574
#
# number of rings (size 3 to 8) (size 9 to 14) (size 15 to 20)
#    0.000    0.000    5.000    4.500    7.000    1.000 
#    0.000    0.000    0.000    0.000    0.000    0.000 
#    0.000    0.000    0.000    0.000    0.000    0.000 
#
# Total GULP energy -198525.557161 kJ/mol
# GULP energy per Si atom -12407.847323 kJ/mol
# Density = 2.221989 g / cm^3
# Si number density = 22.270574 Si / 1000 Ang^3
#
#
#
# Elastic Constant Matrix: (Units=GPa)
#
#
# Indices 1 2 3 4 5 6 
#
# 1 109.8450 50.4992 12.1481 0.0000 6.3663 0.0000
# 2 50.4992 124.9725 29.6400 0.0000 8.1086 0.0000
# 3 12.1481 29.6400 80.8489 0.0000 2.4351 0.0000
# 4 0.0000 0.0000 0.0000 29.3085 0.0000 5.2552
# 5 6.3663 8.1086 2.4351 0.0000 34.4864 0.0000
# 6 0.0000 0.0000 0.0000 5.2552 0.0000 51.1837
#
#
#
# Elastic Compliance Matrix: (Units=1/GPa)
#
#
# Indices 1 2 3 4 5 6 
#
# 1 0.011216 -0.004462 -0.000019 0.000000 -0.001020 0.000000
# 2 -0.004462 0.010656 -0.003192 0.000000 -0.001457 0.000000
# 3 -0.000019 -0.003192 0.013548 0.000000 -0.000203 0.000000
# 4 0.000000 0.000000 0.000000 0.034760 0.000000 -0.003569
# 5 -0.001020 -0.001457 -0.000203 0.000000 0.029542 0.000000
# 6 0.000000 0.000000 0.000000 -0.003569 0.000000 0.019904
#
#
# Mechanical properties :
#
#
# Convention : Reuss Voigt Hill
#
# Bulk Modulus (GPa) = 49.81420 55.58233 52.69827
# Shear Modulus (GPa) = 35.29494 37.88766 36.59130
#
# Velocity S-wave (km/s) = 3.98530 4.12909 4.05783
# Velocity P-wave (km/s) = 6.60251 6.90973 6.75787
#
# Compressibility (1/GPa) = 0.02007460
#
# Stress axis : x y z
#
# Youngs Moduli (GPa) = 89.15782 93.84160 73.81125
#
# Poissons Ratio (x) = 0.41868 0.00140
# Poissons Ratio (y) = 0.39778 0.23564
# Poissons Ratio (z) = 0.00169 0.29958
#
# Static dielectric constant tensor:
#      x y z
#    x 4.101760 0.000000 0.096150 
#    y 0.000000 4.327340 0.000000 
#    z 0.096150 0.000000 3.872420 
# 
# 
# High freq. dielectric constant tensor:
#      x y z
#    x 1.888230 0.000000 0.006140 
#    y 0.000000 1.898590 0.000000 
#    z 0.006140 0.000000 1.873840 
# 
# From -- ./inp_files/7369.got.cif
#   From: 2010.03.12/outbox.cif.g09.slc.cpg/sg4_4_cif.got.tgz:7369.got - 2010.03.31 09:31:35.
