data_PCOD8047696
_publ_section_title
;
Structure prediction by ZEFSAII (Michael W. Deem and Ramdas Pophale) SiO2 
 PCOD8047696
Probable space group: P 21
;
_chemical_formula_sum "Si O2"
_cell_formula_units_Z 16
_cell_length_a 9.880652
_cell_length_b 8.507759
_cell_length_c 8.175809
_cell_angle_alpha 90.000000
_cell_angle_beta 100.404701
_cell_angle_gamma 90.000000
_cell_volume 675.975416
_symmetry_space_group_name_H-M "P 21"
_symmetry_group_IT_number 4
_symmetry_cell_setting 'monoclinic'
loop_
_space_group_symop_operation_xyz
x,y,z
-x,1/2+y,-z
loop_
_atom_site_type_symbol
_atom_site_label
_atom_site_fract_x
_atom_site_fract_y
_atom_site_fract_z
Si Si1 0.658401 0.517030 0.909186
Si Si2 0.157744 0.469435 0.912747
Si Si3 0.560962 0.833716 0.985565
Si Si4 0.422637 0.855429 0.616325
Si Si5 0.891474 0.878160 0.462177
Si Si6 0.156918 0.709155 0.418370
Si Si7 0.894556 0.295652 0.958228
Si Si8 0.334916 0.166439 0.443994
O O1 0.619764 0.657899 0.026774
O O2 0.797254 0.434794 0.005445
O O3 0.685726 0.583316 0.735094
O O4 0.529004 0.394745 0.879750
O O5 0.170911 0.424523 0.726344
O O6 0.051026 0.354912 0.981868
O O7 0.308929 0.446985 0.023746
O O8 0.109123 0.649300 0.918681
O O9 0.453634 0.831266 0.813131
O O10 0.301236 0.737750 0.538354
O O11 0.556911 0.808587 0.540821
O O12 0.386689 0.036293 0.581635
O O13 0.808750 0.734747 0.524614
O O14 0.048257 0.824179 0.480697
O O15 0.887495 0.028109 0.579451
O O16 0.168114 0.746487 0.229651
#
# Coordination Sequence:
#
# PCOD8047696 Si02
#       8
#     2   2   2   2   2   2   2   2
#     4  11  25  46  71 105 142 189 237 295 361 426
#     4  11  27  46  73 106 147 186 243 296 366 433
#     4  11  27  44  69 107 143 190 233 296 362 429
#     4  11  25  43  72 105 141 192 232 298 354 434
#     4  11  27  46  75 104 142 189 242 306 356 433
#     4  11  25  46  72 105 141 189 242 296 364 427
#     4  11  25  48  74 105 143 191 238 302 359 434
#     4  11  25  45  72 105 145 186 241 293 360 432
#
# _framework density 23.669501
#
# number of rings (size 3 to 8) (size 9 to 14) (size 15 to 20)
#    0.000    1.000    1.250    3.000   15.750    1.000 
#    0.000    0.000    0.000    0.000    0.000    0.000 
#    0.000    0.000    0.000    0.000    0.000    0.000 
#
# Total GULP energy -198501.814069 kJ/mol
# GULP energy per Si atom -12406.363379 kJ/mol
# Density = 2.361563 g / cm^3
# Si number density = 23.669501 Si / 1000 Ang^3
#
#
#
# Elastic Constant Matrix: (Units=GPa)
#
#
# Indices 1 2 3 4 5 6 
#
# 1 98.0401 5.8134 33.2998 0.0000 -9.9613 0.0000
# 2 5.8134 106.5015 28.3609 0.0000 -19.1317 0.0000
# 3 33.2998 28.3609 62.0205 0.0000 -4.3593 0.0000
# 4 0.0000 0.0000 0.0000 39.0292 0.0000 -6.3228
# 5 -9.9613 -19.1317 -4.3593 0.0000 34.7058 0.0000
# 6 0.0000 0.0000 0.0000 -6.3228 0.0000 58.1353
#
#
#
# Elastic Compliance Matrix: (Units=1/GPa)
#
#
# Indices 1 2 3 4 5 6 
#
# 1 0.013086 0.002034 -0.007681 0.000000 0.003912 0.000000
# 2 0.002034 0.012082 -0.006162 0.000000 0.006470 0.000000
# 3 -0.007681 -0.006162 0.022874 0.000000 -0.002728 0.000000
# 4 0.000000 0.000000 0.000000 0.026081 0.000000 0.002837
# 5 0.003912 0.006470 -0.002728 0.000000 0.033160 0.000000
# 6 0.000000 0.000000 0.000000 0.002837 0.000000 0.017510
#
#
# Mechanical properties :
#
#
# Convention : Reuss Voigt Hill
#
# Bulk Modulus (GPa) = 40.94514 44.61225 42.77870
# Shear Modulus (GPa) = 31.93826 39.64657 35.79241
#
# Velocity S-wave (km/s) = 3.67732 4.09712 3.89289
# Velocity P-wave (km/s) = 5.94698 6.42424 6.19021
#
# Compressibility (1/GPa) = 0.02442292
#
# Stress axis : x y z
#
# Youngs Moduli (GPa) = 76.41923 82.76992 43.71813
#
# Poissons Ratio (x) = -0.16835 0.33580
# Poissons Ratio (y) = -0.15543 0.26939
# Poissons Ratio (z) = 0.58698 0.51003
#
# Static dielectric constant tensor:
#      x y z
#    x 4.417190 0.000000 -0.113510 
#    y 0.000000 4.535690 0.000000 
#    z -0.113510 0.000000 3.958750 
# 
# 
# High freq. dielectric constant tensor:
#      x y z
#    x 1.954260 0.000000 -0.006020 
#    y 0.000000 1.951650 0.000000 
#    z -0.006020 0.000000 1.918730 
# 
# From -- ./inp_files/5754.got.cif
#   From: 2010.03.12/outbox.cif.g09.slc.cpg/sg4_3_cif.got.tgz:5754.got - 2010.03.31 09:31:35.
