data_PCOD8047727
_publ_section_title
;
Structure prediction by ZEFSAII (Michael W. Deem and Ramdas Pophale) SiO2 
 PCOD8047727
Probable space group: P 21
;
_chemical_formula_sum "Si O2"
_cell_formula_units_Z 14
_cell_length_a 7.666411
_cell_length_b 5.538695
_cell_length_c 17.001018
_cell_angle_alpha 90.000000
_cell_angle_beta 132.117307
_cell_angle_gamma 90.000000
_cell_volume 535.482978
_symmetry_space_group_name_H-M "P 21"
_symmetry_group_IT_number 4
_symmetry_cell_setting 'monoclinic'
loop_
_space_group_symop_operation_xyz
x,y,z
-x,1/2+y,-z
loop_
_atom_site_type_symbol
_atom_site_label
_atom_site_fract_x
_atom_site_fract_y
_atom_site_fract_z
Si Si1 0.886056 0.679420 0.765278
Si Si2 0.506850 0.785991 0.347141
Si Si3 0.665344 0.891046 0.135954
Si Si4 0.813437 0.795900 0.577674
Si Si5 0.730841 0.727842 0.985680
Si Si6 0.783175 0.022815 0.859604
Si Si7 0.919224 0.786263 0.361060
O O1 0.706313 0.466265 0.727030
O O2 0.780751 0.843917 0.661561
O O3 0.147804 0.603649 0.821134
O O4 0.924529 0.805235 0.860840
O O5 0.562647 0.753440 0.457119
O O6 0.420750 0.563172 0.267335
O O7 0.758774 0.856722 0.386966
O O8 0.761507 0.726090 0.236041
O O9 0.413300 0.995149 0.089542
O O10 0.636877 0.747571 0.046134
O O11 0.936815 0.533637 0.607411
O O12 0.935915 0.038467 0.578953
O O13 0.666137 0.950978 0.907914
O O14 0.014774 0.723277 0.067245
#
# Coordination Sequence:
#
# PCOD8047727 Si02
#       7
#     2   2   2   2   2   2   2
#     4  11  26  47  73 112 151 200 258 320 387 468
#     4  12  28  46  78 111 155 201 257 325 385 470
#     4  11  25  46  75 109 149 204 256 319 382 467
#     4  11  28  49  81 111 160 200 261 313 407 456
#     4  12  26  46  75 105 156 200 260 318 392 449
#     4  12  28  46  73 111 150 199 257 321 380 466
#     4  11  27  50  77 115 151 206 259 324 383 476
#
# _framework density 26.14462
#
# number of rings (size 3 to 8) (size 9 to 14) (size 15 to 20)
#    0.000    0.571    1.429    4.286   16.000    0.000 
#    0.000    0.000    0.000    0.000    0.000    0.000 
#    0.000    0.000    0.000    0.000    0.000    0.000 
#
# Total GULP energy -173458.440830 kJ/mol
# GULP energy per Si atom -12389.888631 kJ/mol
# Density = 2.608511 g / cm^3
# Si number density = 26.144620 Si / 1000 Ang^3
#
#
#
# Elastic Constant Matrix: (Units=GPa)
#
#
# Indices 1 2 3 4 5 6 
#
# 1 64.8839 -1.7484 7.6319 0.0000 -4.3758 0.0000
# 2 -1.7484 82.9031 33.5523 0.0000 9.5486 0.0000
# 3 7.6319 33.5523 147.6162 0.0000 -3.4757 0.0000
# 4 0.0000 0.0000 0.0000 41.8847 0.0000 -3.3624
# 5 -4.3758 9.5486 -3.4757 0.0000 40.2036 0.0000
# 6 0.0000 0.0000 0.0000 -3.3624 0.0000 30.3340
#
#
#
# Elastic Compliance Matrix: (Units=1/GPa)
#
#
# Indices 1 2 3 4 5 6 
#
# 1 0.015632 0.000517 -0.000890 0.000000 0.001502 0.000000
# 2 0.000517 0.013789 -0.003243 0.000000 -0.003499 0.000000
# 3 -0.000890 -0.003243 0.007589 0.000000 0.001329 0.000000
# 4 0.000000 0.000000 0.000000 0.024089 0.000000 0.002670
# 5 0.001502 -0.003499 0.001329 0.000000 0.025983 0.000000
# 6 0.000000 0.000000 0.000000 0.002670 0.000000 0.033262
#
#
# Mechanical properties :
#
#
# Convention : Reuss Voigt Hill
#
# Bulk Modulus (GPa) = 33.58338 41.58608 37.58473
# Shear Modulus (GPa) = 36.36290 39.54896 37.95593
#
# Velocity S-wave (km/s) = 3.73344 3.89356 3.81434
# Velocity P-wave (km/s) = 5.60873 6.01280 5.81428
#
# Compressibility (1/GPa) = 0.02977664
#
# Stress axis : x y z
#
# Youngs Moduli (GPa) = 63.97104 72.52273 131.77273
#
# Poissons Ratio (x) = -0.03750 0.11733
# Poissons Ratio (y) = -0.03308 0.42737
# Poissons Ratio (z) = 0.05696 0.23521
#
# Static dielectric constant tensor:
#      x y z
#    x 4.659600 0.000000 -0.344270 
#    y 0.000000 4.403850 0.000000 
#    z -0.344270 0.000000 5.446150 
# 
# 
# High freq. dielectric constant tensor:
#      x y z
#    x 2.044700 0.000000 -0.011730 
#    y 0.000000 2.029200 0.000000 
#    z -0.011730 0.000000 2.077490 
# 
# From -- ./inp_files/9345.got.cif
#   From: 2010.03.12/outbox.cif.g09.slc.cpg/sg4_5_cif.got.tgz:9345.got - 2010.03.31 09:31:35.
