data_PCOD8047073
_publ_section_title
;
Structure prediction by ZEFSAII (Michael W. Deem and Ramdas Pophale) SiO2 
 PCOD8047073
Probable space group: P 21
;
_chemical_formula_sum "Si O2"
_cell_formula_units_Z 12
_cell_length_a 9.761640
_cell_length_b 8.792941
_cell_length_c 7.927371
_cell_angle_alpha 90.000000
_cell_angle_beta 46.578038
_cell_angle_gamma 90.000000
_cell_volume 494.207010
_symmetry_space_group_name_H-M "P 21"
_symmetry_group_IT_number 4
_symmetry_cell_setting 'monoclinic'
loop_
_space_group_symop_operation_xyz
x,y,z
-x,1/2+y,-z
loop_
_atom_site_type_symbol
_atom_site_label
_atom_site_fract_x
_atom_site_fract_y
_atom_site_fract_z
Si Si1 0.711904 0.696730 0.220780
Si Si2 0.096310 0.088064 0.264837
Si Si3 0.926908 0.266027 0.889674
Si Si4 0.397054 0.263015 0.174302
Si Si5 0.255865 0.590706 0.229342
Si Si6 0.410911 0.858159 0.642735
O O1 0.533792 0.812771 0.373998
O O2 0.612461 0.537290 0.341611
O O3 0.856410 0.748494 0.244647
O O4 0.827857 0.696491 0.949212
O O5 0.230413 0.134250 0.310486
O O6 0.878845 0.121612 0.494905
O O7 0.112843 0.912039 0.197380
O O8 0.863142 0.118172 0.840657
O O9 0.797184 0.282390 0.167928
O O10 0.319257 0.417674 0.161866
O O11 0.469078 0.293997 0.300650
O O12 0.564701 0.202075 0.911164
#
# Coordination Sequence:
#
# PCOD8047073 Si02
#       6
#     2   2   2   2   2   2
#     4  11  24  44  68  98 135 176 219 270 334 395
#     4  11  24  43  69  96 129 175 223 275 328 387
#     4  10  24  44  66  97 135 176 220 271 332 395
#     4  11  24  43  69  99 133 174 225 275 328 389
#     4  11  22  42  68  97 132 173 222 276 329 390
#     4  10  24  44  66  95 134 176 221 273 327 392
#
# _framework density 24.281321999999999
#
# number of rings (size 3 to 8) (size 9 to 14) (size 15 to 20)
#    0.000    1.333    0.000    6.000    0.000   10.667 
#    0.000   15.000    0.000    0.000    0.000    0.000 
#    0.000    0.000    0.000    0.000    0.000    0.000 
#
# Total GULP energy -148733.770951 kJ/mol
# GULP energy per Si atom -12394.480913 kJ/mol
# Density = 2.422606 g / cm^3
# Si number density = 24.281322 Si / 1000 Ang^3
#
#
#
# Elastic Constant Matrix: (Units=GPa)
#
#
# Indices 1 2 3 4 5 6 
#
# 1 67.3907 45.7251 24.8253 0.0000 -24.2117 0.0000
# 2 45.7251 92.9813 56.4281 0.0000 -17.1205 0.0000
# 3 24.8253 56.4281 157.2787 0.0000 -49.5760 0.0000
# 4 0.0000 0.0000 0.0000 32.2104 0.0000 -4.7964
# 5 -24.2117 -17.1205 -49.5760 0.0000 37.3194 0.0000
# 6 0.0000 0.0000 0.0000 -4.7964 0.0000 43.7764
#
#
#
# Elastic Compliance Matrix: (Units=1/GPa)
#
#
# Indices 1 2 3 4 5 6 
#
# 1 0.031310 -0.016070 0.008434 0.000000 0.024145 0.000000
# 2 -0.016070 0.022000 -0.009396 0.000000 -0.012815 0.000000
# 3 0.008434 -0.009396 0.015078 0.000000 0.021191 0.000000
# 4 0.000000 0.000000 0.000000 0.031561 0.000000 0.003458
# 5 0.024145 -0.012815 0.021191 0.000000 0.064732 0.000000
# 6 0.000000 0.000000 0.000000 0.003458 0.000000 0.023222
#
#
# Mechanical properties :
#
#
# Convention : Reuss Voigt Hill
#
# Bulk Modulus (GPa) = 29.13387 63.51197 46.32292
# Shear Modulus (GPa) = 21.42169 35.37272 28.39721
#
# Velocity S-wave (km/s) = 2.97346 3.82093 3.42352
# Velocity P-wave (km/s) = 4.87987 6.75866 5.89460
#
# Compressibility (1/GPa) = 0.03432431
#
# Stress axis : x y z
#
# Youngs Moduli (GPa) = 31.93836 45.45389 66.32380
#
# Poissons Ratio (x) = 0.73045 -0.55940
# Poissons Ratio (y) = 0.51326 0.62319
# Poissons Ratio (z) = -0.26938 0.42709
#
# Static dielectric constant tensor:
#      x y z
#    x 4.311790 0.000000 -0.356400 
#    y 0.000000 4.255980 0.000000 
#    z -0.356400 0.000000 4.738920 
# 
# 
# High freq. dielectric constant tensor:
#      x y z
#    x 1.951560 0.000000 -0.026050 
#    y 0.000000 1.957980 0.000000 
#    z -0.026050 0.000000 1.984280 
# 
# From -- ./inp_files/7902.got.cif
#   From: 2010.03.12/outbox.cif.g09.slc.cpg/sg4_4_cif.got.tgz:7902.got - 2010.03.31 09:31:35.
