data_PCOD8047479
_publ_section_title
;
Structure prediction by ZEFSAII (Michael W. Deem and Ramdas Pophale) SiO2 
 PCOD8047479
Probable space group: P 21
;
_chemical_formula_sum "Si O2"
_cell_formula_units_Z 12
_cell_length_a 13.775364
_cell_length_b 7.330797
_cell_length_c 9.033732
_cell_angle_alpha 90.000000
_cell_angle_beta 38.711253
_cell_angle_gamma 90.000000
_cell_volume 570.527424
_symmetry_space_group_name_H-M "P 21"
_symmetry_group_IT_number 4
_symmetry_cell_setting 'monoclinic'
loop_
_space_group_symop_operation_xyz
x,y,z
-x,1/2+y,-z
loop_
_atom_site_type_symbol
_atom_site_label
_atom_site_fract_x
_atom_site_fract_y
_atom_site_fract_z
Si Si1 0.517190 0.129330 0.370846
Si Si2 0.493994 0.019656 0.718258
Si Si3 0.210094 0.439337 0.445851
Si Si4 0.164578 0.111945 0.709975
Si Si5 0.719022 0.838474 0.969189
Si Si6 0.987935 0.251449 0.193741
O O1 0.577663 0.322582 0.237594
O O2 0.331054 0.122692 0.589779
O O3 0.567463 0.109192 0.482332
O O4 0.586893 0.971775 0.187382
O O5 0.626723 0.005144 0.682571
O O6 0.354532 0.136962 0.953509
O O7 0.152729 0.253757 0.589654
O O8 0.083364 0.597304 0.616165
O O9 0.225798 0.405323 0.254564
O O10 0.138394 0.909442 0.679876
O O11 0.031601 0.160553 0.985835
O O12 0.862968 0.842084 0.908465
#
# Coordination Sequence:
#
# PCOD8047479 Si02
#       6
#     2   2   2   2   2   2
#     4  11  23  44  71 104 127 179 231 277 327 397
#     4  11  23  44  73  98 134 176 228 276 331 397
#     4  11  28  44  66 104 139 177 222 279 344 395
#     4  11  24  45  72 100 134 177 230 275 333 403
#     4  12  27  44  68 103 139 176 225 279 340 396
#     4  12  25  45  72  99 135 183 222 278 335 408
#
# _framework density 21.033169999999998
#
# number of rings (size 3 to 8) (size 9 to 14) (size 15 to 20)
#    0.000    0.667    5.000    2.000    7.000    2.667 
#    0.000    0.000    0.000    0.000    0.000    0.000 
#    0.000    0.000    0.000    0.000    0.000    0.000 
#
# Total GULP energy -148900.537898 kJ/mol
# GULP energy per Si atom -12408.378158 kJ/mol
# Density = 2.098530 g / cm^3
# Si number density = 21.033170 Si / 1000 Ang^3
#
#
#
# Elastic Constant Matrix: (Units=GPa)
#
#
# Indices 1 2 3 4 5 6 
#
# 1 48.7277 13.7481 18.7440 0.0000 12.1183 0.0000
# 2 13.7481 117.4304 42.0383 0.0000 1.5649 0.0000
# 3 18.7440 42.0383 83.2569 0.0000 26.3700 0.0000
# 4 0.0000 0.0000 0.0000 49.8742 0.0000 1.3529
# 5 12.1183 1.5649 26.3700 0.0000 27.3956 0.0000
# 6 0.0000 0.0000 0.0000 1.3529 0.0000 28.2037
#
#
#
# Elastic Compliance Matrix: (Units=1/GPa)
#
#
# Indices 1 2 3 4 5 6 
#
# 1 0.023944 -0.002180 -0.001402 0.000000 -0.009117 0.000000
# 2 -0.002180 0.011440 -0.007745 0.000000 0.007766 0.000000
# 3 -0.001402 -0.007745 0.022875 0.000000 -0.020956 0.000000
# 4 0.000000 0.000000 0.000000 0.020077 0.000000 -0.000963
# 5 -0.009117 0.007766 -0.020956 0.000000 0.060263 0.000000
# 6 0.000000 0.000000 0.000000 -0.000963 0.000000 0.035502
#
#
# Mechanical properties :
#
#
# Convention : Reuss Voigt Hill
#
# Bulk Modulus (GPa) = 28.08670 44.27508 36.18089
# Shear Modulus (GPa) = 23.96658 32.75369 28.36013
#
# Velocity S-wave (km/s) = 3.37926 3.95047 3.67598
# Velocity P-wave (km/s) = 5.34868 6.47334 5.93770
#
# Compressibility (1/GPa) = 0.03560404
#
# Stress axis : x y z
#
# Youngs Moduli (GPa) = 41.76408 87.41159 43.71602
#
# Poissons Ratio (x) = 0.19053 0.06131
# Poissons Ratio (y) = 0.09103 0.33860
# Poissons Ratio (z) = 0.05857 0.67704
#
# Static dielectric constant tensor:
#      x y z
#    x 3.681790 0.000000 -0.007260 
#    y 0.000000 4.100680 0.000000 
#    z -0.007260 0.000000 3.734670 
# 
# 
# High freq. dielectric constant tensor:
#      x y z
#    x 1.824050 0.000000 0.001600 
#    y 0.000000 1.844400 0.000000 
#    z 0.001600 0.000000 1.818900 
# 
# From -- ./inp_files/7452.got.cif
#   From: 2010.03.12/outbox.cif.g09.slc.cpg/sg4_4_cif.got.tgz:7452.got - 2010.03.31 09:31:35.
