data_PCOD8047761
_publ_section_title
;
Structure prediction by ZEFSAII (Michael W. Deem and Ramdas Pophale) SiO2 
 PCOD8047761
Probable space group: P 21
;
_chemical_formula_sum "Si O2"
_cell_formula_units_Z 16
_cell_length_a 9.131096
_cell_length_b 13.080089
_cell_length_c 5.251746
_cell_angle_alpha 90.000000
_cell_angle_beta 77.802217
_cell_angle_gamma 90.000000
_cell_volume 613.084521
_symmetry_space_group_name_H-M "P 21"
_symmetry_group_IT_number 4
_symmetry_cell_setting 'monoclinic'
loop_
_space_group_symop_operation_xyz
x,y,z
-x,1/2+y,-z
loop_
_atom_site_type_symbol
_atom_site_label
_atom_site_fract_x
_atom_site_fract_y
_atom_site_fract_z
Si Si1 0.750318 0.009060 0.460398
Si Si2 0.484568 0.897153 0.847222
Si Si3 0.340238 0.713343 0.628362
Si Si4 0.978292 0.301540 0.286881
Si Si5 0.142255 0.297498 0.717658
Si Si6 0.961537 0.535261 0.390842
Si Si7 0.422758 0.239837 0.835916
Si Si8 0.769126 0.560632 0.970711
O O1 0.693155 0.095289 0.277008
O O2 0.866587 0.071515 0.607057
O O3 0.602783 0.960582 0.641209
O O4 0.852201 0.921630 0.292705
O O5 0.448147 0.780134 0.766202
O O6 0.330997 0.959246 0.938661
O O7 0.568044 0.858783 0.071117
O O8 0.193352 0.778262 0.656264
O O9 0.416620 0.702039 0.321362
O O10 0.992048 0.421005 0.292693
O O11 0.053426 0.249172 0.509822
O O12 0.064671 0.260324 0.007860
O O13 0.309444 0.253342 0.638723
O O14 0.876115 0.586999 0.179432
O O15 0.862940 0.541288 0.683170
O O16 0.346950 0.153327 0.042598
#
# Coordination Sequence:
#
# PCOD8047761 Si02
#       8
#     2   2   2   2   2   2   2   2
#     4  11  26  50  78 111 158 205 271 322 401 465
#     4  12  27  52  74 113 161 206 260 331 393 477
#     4  12  27  48  76 117 152 211 262 324 390 480
#     4  11  25  49  78 109 151 199 254 318 382 454
#     4  11  26  49  77 107 154 203 255 323 385 457
#     4  11  25  49  76 108 152 200 257 322 387 452
#     4  12  28  46  78 110 155 206 261 315 404 465
#     4  12  28  49  79 113 151 204 258 323 390 466
#
# _framework density 26.097542000000001
#
# number of rings (size 3 to 8) (size 9 to 14) (size 15 to 20)
#    0.000    0.500    3.750    3.750    7.000    1.000 
#    6.750    0.000    0.000    0.000    0.000    0.000 
#    0.000    0.000    0.000    0.000    0.000    0.000 
#
# Total GULP energy -198236.006466 kJ/mol
# GULP energy per Si atom -12389.750404 kJ/mol
# Density = 2.603814 g / cm^3
# Si number density = 26.097542 Si / 1000 Ang^3
#
#
#
# Elastic Constant Matrix: (Units=GPa)
#
#
# Indices 1 2 3 4 5 6 
#
# 1 126.0565 26.2230 53.1567 0.0000 -16.7990 0.0000
# 2 26.2230 66.3465 11.2810 0.0000 -5.9042 0.0000
# 3 53.1567 11.2810 133.6454 0.0000 -2.9843 0.0000
# 4 0.0000 0.0000 0.0000 28.3878 0.0000 -2.3298
# 5 -16.7990 -5.9042 -2.9843 0.0000 34.1686 0.0000
# 6 0.0000 0.0000 0.0000 -2.3298 0.0000 55.9669
#
#
#
# Elastic Compliance Matrix: (Units=1/GPa)
#
#
# Indices 1 2 3 4 5 6 
#
# 1 0.010860 -0.003226 -0.003948 0.000000 0.004437 0.000000
# 2 -0.003226 0.016473 -0.000079 0.000000 0.001253 0.000000
# 3 -0.003948 -0.000079 0.009034 0.000000 -0.001166 0.000000
# 4 0.000000 0.000000 0.000000 0.035347 0.000000 0.001471
# 5 0.004437 0.001253 -0.001166 0.000000 0.031563 0.000000
# 6 0.000000 0.000000 0.000000 0.001471 0.000000 0.017929
#
#
# Mechanical properties :
#
#
# Convention : Reuss Voigt Hill
#
# Bulk Modulus (GPa) = 45.74785 56.37441 51.06113
# Shear Modulus (GPa) = 34.96523 39.39719 37.18121
#
# Velocity S-wave (km/s) = 3.66429 3.88959 3.77862
# Velocity P-wave (km/s) = 5.95569 6.46685 6.21653
#
# Compressibility (1/GPa) = 0.02185895
#
# Stress axis : x y z
#
# Youngs Moduli (GPa) = 92.07811 60.70705 110.69875
#
# Poissons Ratio (x) = 0.19586 0.43706
# Poissons Ratio (y) = 0.29707 0.00877
# Poissons Ratio (z) = 0.36355 0.00481
#
# Static dielectric constant tensor:
#      x y z
#    x 5.237790 0.000000 0.154220 
#    y 0.000000 5.097880 0.000000 
#    z 0.154220 0.000000 4.518440 
# 
# 
# High freq. dielectric constant tensor:
#      x y z
#    x 2.069470 0.000000 -0.008220 
#    y 0.000000 2.071720 0.000000 
#    z -0.008220 0.000000 2.020880 
# 
# From -- ./inp_files/1925.got.cif
#   From: 2010.03.12/outbox.cif.g09.slc.cpg/sg4_1_cif.got.tgz:1925.got - 2010.03.31 09:31:35.
