data_PCOD8047990
_publ_section_title
;
Structure prediction by ZEFSAII (Michael W. Deem and Ramdas Pophale) SiO2 
 PCOD8047990
Probable space group: P 21
;
_chemical_formula_sum "Si O2"
_cell_formula_units_Z 16
_cell_length_a 8.352814
_cell_length_b 9.379423
_cell_length_c 16.637066
_cell_angle_alpha 90.000000
_cell_angle_beta 147.953243
_cell_angle_gamma 90.000000
_cell_volume 691.611241
_symmetry_space_group_name_H-M "P 21"
_symmetry_group_IT_number 4
_symmetry_cell_setting 'monoclinic'
loop_
_space_group_symop_operation_xyz
x,y,z
-x,1/2+y,-z
loop_
_atom_site_type_symbol
_atom_site_label
_atom_site_fract_x
_atom_site_fract_y
_atom_site_fract_z
Si Si1 0.897489 0.779530 0.138245
Si Si2 0.428844 0.072084 0.740455
Si Si3 0.644146 0.292576 0.208414
Si Si4 0.444090 0.973805 0.386068
Si Si5 0.419844 0.354832 0.831121
Si Si6 0.785653 0.769150 0.651125
Si Si7 0.040394 0.484041 0.143354
Si Si8 0.170452 0.558793 0.601477
O O1 0.725914 0.811563 0.147146
O O2 0.139454 0.902590 0.222813
O O3 0.041778 0.621387 0.203149
O O4 0.680082 0.777936 0.969355
O O5 0.516372 0.214698 0.824202
O O6 0.176994 0.099339 0.564738
O O7 0.293722 0.957955 0.745728
O O8 0.735269 0.010186 0.834645
O O9 0.658735 0.201874 0.297040
O O10 0.896277 0.234022 0.254954
O O11 0.577150 0.864154 0.506370
O O12 0.385046 0.122518 0.404779
O O13 0.670342 0.995676 0.409001
O O14 0.175356 0.441905 0.674800
O O15 0.707831 0.455401 0.966835
O O16 0.846533 0.846582 0.760928
#
# Coordination Sequence:
#
# PCOD8047990 Si02
#       8
#     2   2   2   2   2   2   2   2
#     4  12  28  49  77 109 146 200 250 313 368 445
#     4  12  29  46  78 107 155 198 244 311 378 446
#     4  12  26  49  77 105 154 195 249 305 374 441
#     4  12  29  48  80 111 154 195 252 306 378 445
#     4  12  28  49  77 109 154 194 250 312 378 444
#     4  12  27  50  76 112 147 201 249 307 368 449
#     4  12  28  49  76 112 148 199 252 306 377 446
#     4  12  27  52  73 115 148 200 246 314 375 448
#
# _framework density 23.134384000000001
#
# number of rings (size 3 to 8) (size 9 to 14) (size 15 to 20)
#    0.000    0.000    3.750    4.500   12.250    0.000 
#    0.000    0.000    0.000    0.000    0.000    0.000 
#    0.000    0.000    0.000    0.000    0.000    0.000 
#
# Total GULP energy -198544.292442 kJ/mol
# GULP energy per Si atom -12409.018278 kJ/mol
# Density = 2.308173 g / cm^3
# Si number density = 23.134384 Si / 1000 Ang^3
#
#
#
# Elastic Constant Matrix: (Units=GPa)
#
#
# Indices 1 2 3 4 5 6 
#
# 1 94.7527 31.5728 28.6428 0.0000 8.5119 0.0000
# 2 31.5728 142.8215 29.5465 0.0000 -8.1165 0.0000
# 3 28.6428 29.5465 86.3623 0.0000 0.5872 0.0000
# 4 0.0000 0.0000 0.0000 49.2666 0.0000 -8.4615
# 5 8.5119 -8.1165 0.5872 0.0000 32.6605 0.0000
# 6 0.0000 0.0000 0.0000 -8.4615 0.0000 43.9432
#
#
#
# Elastic Compliance Matrix: (Units=1/GPa)
#
#
# Indices 1 2 3 4 5 6 
#
# 1 0.012696 -0.002323 -0.003390 0.000000 -0.003825 0.000000
# 2 -0.002323 0.008082 -0.002013 0.000000 0.002650 0.000000
# 3 -0.003390 -0.002013 0.013391 0.000000 0.000143 0.000000
# 4 0.000000 0.000000 0.000000 0.020992 0.000000 0.004042
# 5 -0.003825 0.002650 0.000143 0.000000 0.032271 0.000000
# 6 0.000000 0.000000 0.000000 0.004042 0.000000 0.023535
#
#
# Mechanical properties :
#
#
# Convention : Reuss Voigt Hill
#
# Bulk Modulus (GPa) = 53.42373 55.94008 54.68190
# Shear Modulus (GPa) = 37.69089 40.78569 39.23829
#
# Velocity S-wave (km/s) = 4.04073 4.20335 4.12284
# Velocity P-wave (km/s) = 6.70171 6.91307 6.80821
#
# Compressibility (1/GPa) = 0.01871827
#
# Stress axis : x y z
#
# Youngs Moduli (GPa) = 78.76396 123.72842 74.67627
#
# Poissons Ratio (x) = 0.28739 0.25316
# Poissons Ratio (y) = 0.18295 0.15031
# Poissons Ratio (z) = 0.26702 0.24904
#
# Static dielectric constant tensor:
#      x y z
#    x 4.040640 0.000000 0.002940 
#    y 0.000000 4.476420 0.000000 
#    z 0.002940 0.000000 4.326200 
# 
# 
# High freq. dielectric constant tensor:
#      x y z
#    x 1.915140 0.000000 -0.002100 
#    y 0.000000 1.934840 0.000000 
#    z -0.002100 0.000000 1.926250 
# 
# From -- ./inp_files/5401.got.cif
#   From: 2010.03.12/outbox.cif.g09.slc.cpg/sg4_3_cif.got.tgz:5401.got - 2010.03.31 09:31:35.
