data_PCOD8047363
_publ_section_title
;
Structure prediction by ZEFSAII (Michael W. Deem and Ramdas Pophale) SiO2 
 PCOD8047363
Probable space group: P 21
;
_chemical_formula_sum "Si O2"
_cell_formula_units_Z 8
_cell_length_a 5.021020
_cell_length_b 8.938792
_cell_length_c 7.084764
_cell_angle_alpha 90.000000
_cell_angle_beta 112.172523
_cell_angle_gamma 90.000000
_cell_volume 294.463448
_symmetry_space_group_name_H-M "P 21"
_symmetry_group_IT_number 4
_symmetry_cell_setting 'monoclinic'
loop_
_space_group_symop_operation_xyz
x,y,z
-x,1/2+y,-z
loop_
_atom_site_type_symbol
_atom_site_label
_atom_site_fract_x
_atom_site_fract_y
_atom_site_fract_z
Si Si1 0.831925 0.300900 0.445898
Si Si2 0.384192 0.123396 0.632398
Si Si3 0.259038 0.579781 0.910237
Si Si4 0.373435 0.962686 0.279507
O O1 0.822722 0.476983 0.390899
O O2 0.712275 0.214198 0.233025
O O3 0.651019 0.303022 0.606572
O O4 0.163745 0.263844 0.577670
O O5 0.520906 0.088283 0.458489
O O6 0.620224 0.136015 0.859622
O O7 0.450074 0.446428 0.867198
O O8 0.942333 0.520126 0.859778
#
# Coordination Sequence:
#
# PCOD8047363 Si02
#       4
#     2   2   2   2
#     4   9  22  44  66 101 133 168 220 278 315 394
#     4   9  22  44  67  98 134 171 219 270 327 389
#     4  11  22  44  67  97 128 180 210 266 334 385
#     4   9  24  42  62  98 131 167 219 266 316 388
#
# _framework density 27.168056
#
# number of rings (size 3 to 8) (size 9 to 14) (size 15 to 20)
#    1.500    1.000    0.000    0.000    3.500    8.000 
#    9.000    0.000    0.000    0.000    0.000    0.000 
#    0.000    0.000    0.000    0.000    0.000    0.000 
#
# Total GULP energy -99128.670578 kJ/mol
# GULP energy per Si atom -12391.083822 kJ/mol
# Density = 2.710622 g / cm^3
# Si number density = 27.168056 Si / 1000 Ang^3
#
#
#
# Elastic Constant Matrix: (Units=GPa)
#
#
# Indices 1 2 3 4 5 6 
#
# 1 99.4552 16.1131 68.1416 0.0000 -6.4073 0.0000
# 2 16.1131 106.3790 45.0604 0.0000 7.1272 0.0000
# 3 68.1416 45.0604 218.3893 0.0000 26.1888 0.0000
# 4 0.0000 0.0000 0.0000 44.0646 0.0000 2.6927
# 5 -6.4073 7.1272 26.1888 0.0000 27.9822 0.0000
# 6 0.0000 0.0000 0.0000 2.6927 0.0000 32.0726
#
#
#
# Elastic Compliance Matrix: (Units=1/GPa)
#
#
# Indices 1 2 3 4 5 6 
#
# 1 0.014380 -0.000455 -0.005409 0.000000 0.008471 0.000000
# 2 -0.000455 0.010328 -0.001871 0.000000 -0.000983 0.000000
# 3 -0.005409 -0.001871 0.007597 0.000000 -0.007872 0.000000
# 4 0.000000 0.000000 0.000000 0.022811 0.000000 -0.001915
# 5 0.008471 -0.000983 -0.007872 0.000000 0.045294 0.000000
# 6 0.000000 0.000000 0.000000 -0.001915 0.000000 0.031340
#
#
# Mechanical properties :
#
#
# Convention : Reuss Voigt Hill
#
# Bulk Modulus (GPa) = 59.39916 75.87262 67.63589
# Shear Modulus (GPa) = 32.71603 40.48445 36.60024
#
# Velocity S-wave (km/s) = 3.47394 3.86443 3.67438
# Velocity P-wave (km/s) = 6.16458 6.92095 6.55369
#
# Compressibility (1/GPa) = 0.01683525
#
# Stress axis : x y z
#
# Youngs Moduli (GPa) = 69.54122 96.82715 131.63672
#
# Poissons Ratio (x) = 0.04401 0.71200
# Poissons Ratio (y) = 0.03161 0.24631
# Poissons Ratio (z) = 0.37614 0.18118
#
# Static dielectric constant tensor:
#      x y z
#    x 4.778160 0.000000 -0.262960 
#    y 0.000000 5.404720 0.000000 
#    z -0.262960 0.000000 4.879210 
# 
# 
# High freq. dielectric constant tensor:
#      x y z
#    x 2.104980 0.000000 -0.006800 
#    y 0.000000 2.135000 0.000000 
#    z -0.006800 0.000000 2.098990 
# 
# From -- ./inp_files/165.got.cif
#   From: 2010.03.12/outbox.cif.g09.slc.cpg/sg4_1_cif.got.tgz:165.got - 2010.03.31 09:31:35.
