data_PCOD8047619
_publ_section_title
;
Structure prediction by ZEFSAII (Michael W. Deem and Ramdas Pophale) SiO2 
 PCOD8047619
Probable space group: P 21
;
_chemical_formula_sum "Si O2"
_cell_formula_units_Z 16
_cell_length_a 17.069537
_cell_length_b 8.813896
_cell_length_c 8.231127
_cell_angle_alpha 90.000000
_cell_angle_beta 146.500305
_cell_angle_gamma 90.000000
_cell_volume 683.494415
_symmetry_space_group_name_H-M "P 21"
_symmetry_group_IT_number 4
_symmetry_cell_setting 'monoclinic'
loop_
_space_group_symop_operation_xyz
x,y,z
-x,1/2+y,-z
loop_
_atom_site_type_symbol
_atom_site_label
_atom_site_fract_x
_atom_site_fract_y
_atom_site_fract_z
Si Si1 0.857975 0.625000 0.131170
Si Si2 0.434042 0.273662 0.888508
Si Si3 0.118783 0.565144 0.075854
Si Si4 0.127155 0.460340 0.724698
Si Si5 0.583552 0.156341 0.449957
Si Si6 0.136888 0.237740 0.224467
Si Si7 0.574181 0.450885 0.612744
Si Si8 0.406569 0.557297 0.025842
O O1 0.860776 0.777305 0.246550
O O2 0.982147 0.508620 0.389551
O O3 0.871299 0.663872 0.965810
O O4 0.715219 0.533002 0.919190
O O5 0.287122 0.204395 0.568361
O O6 0.561950 0.227857 0.985429
O O7 0.461185 0.208503 0.115917
O O8 0.424748 0.455131 0.892316
O O9 0.263901 0.652891 0.375283
O O10 0.105213 0.416078 0.161405
O O11 0.134003 0.528977 0.913912
O O12 0.984102 0.670474 0.869704
O O13 0.252142 0.534394 0.834006
O O14 0.588562 0.269690 0.616705
O O15 0.547115 0.990238 0.462858
O O16 0.532212 0.515678 0.365117
#
# Coordination Sequence:
#
# PCOD8047619 Si02
#       8
#     2   2   2   2   2   2   2   2
#     4  11  26  47  73 105 144 188 238 299 361 430
#     4  11  25  44  73 106 142 184 236 293 360 423
#     4  11  27  48  71 105 144 190 240 296 362 430
#     4  11  27  48  72 107 140 192 240 295 359 433
#     4  11  26  44  74 107 142 189 241 298 363 428
#     4  11  27  47  71 102 148 185 239 300 362 426
#     4  11  24  45  73 103 144 188 239 301 360 420
#     4  11  24  47  71 101 146 182 237 294 355 422
#
# _framework density 23.409116000000001
#
# number of rings (size 3 to 8) (size 9 to 14) (size 15 to 20)
#    0.000    1.000    2.500    2.250   12.250    1.000 
#    2.250    0.000    0.000    0.000    0.000    0.000 
#    0.000    0.000    0.000    0.000    0.000    0.000 
#
# Total GULP energy -198429.451159 kJ/mol
# GULP energy per Si atom -12401.840697 kJ/mol
# Density = 2.335584 g / cm^3
# Si number density = 23.409116 Si / 1000 Ang^3
#
#
#
# Elastic Constant Matrix: (Units=GPa)
#
#
# Indices 1 2 3 4 5 6 
#
# 1 87.8689 33.1406 34.3516 0.0000 28.1249 0.0000
# 2 33.1406 80.5612 40.2578 0.0000 11.4995 0.0000
# 3 34.3516 40.2578 155.2761 0.0000 17.2693 0.0000
# 4 0.0000 0.0000 0.0000 32.1021 0.0000 4.1603
# 5 28.1249 11.4995 17.2693 0.0000 37.5516 0.0000
# 6 0.0000 0.0000 0.0000 4.1603 0.0000 42.0206
#
#
#
# Elastic Compliance Matrix: (Units=1/GPa)
#
#
# Indices 1 2 3 4 5 6 
#
# 1 0.017185 -0.004861 -0.001344 0.000000 -0.010764 0.000000
# 2 -0.004861 0.015923 -0.003073 0.000000 0.000178 0.000000
# 3 -0.001344 -0.003073 0.007712 0.000000 -0.001599 0.000000
# 4 0.000000 0.000000 0.000000 0.031555 0.000000 -0.003124
# 5 -0.010764 0.000178 -0.001599 0.000000 0.035373 0.000000
# 6 0.000000 0.000000 0.000000 -0.003124 0.000000 0.024107
#
#
# Mechanical properties :
#
#
# Convention : Reuss Voigt Hill
#
# Bulk Modulus (GPa) = 44.91647 59.91181 52.41414
# Shear Modulus (GPa) = 31.67921 36.73194 34.20558
#
# Velocity S-wave (km/s) = 3.68269 3.96552 3.82672
# Velocity P-wave (km/s) = 6.10837 6.82760 6.47797
#
# Compressibility (1/GPa) = 0.02226355
#
# Stress axis : x y z
#
# Youngs Moduli (GPa) = 58.19058 62.80351 129.66850
#
# Poissons Ratio (x) = 0.30529 0.17432
# Poissons Ratio (y) = 0.28287 0.39841
# Poissons Ratio (z) = 0.07823 0.19297
#
# Static dielectric constant tensor:
#      x y z
#    x 4.046710 0.000000 -0.080900 
#    y 0.000000 4.343330 0.000000 
#    z -0.080900 0.000000 4.338850 
# 
# 
# High freq. dielectric constant tensor:
#      x y z
#    x 1.927800 0.000000 -0.006140 
#    y 0.000000 1.923970 0.000000 
#    z -0.006140 0.000000 1.939040 
# 
# From -- ./inp_files/9678.got.cif
#   From: 2010.03.12/outbox.cif.g09.slc.cpg/sg4_5_cif.got.tgz:9678.got - 2010.03.31 09:31:35.
