data_PCOD8047106
_publ_section_title
;
Structure prediction by ZEFSAII (Michael W. Deem and Ramdas Pophale) SiO2 
 PCOD8047106
Probable space group: P 21
;
_chemical_formula_sum "Si O2"
_cell_formula_units_Z 14
_cell_length_a 5.699790
_cell_length_b 8.630039
_cell_length_c 12.232036
_cell_angle_alpha 90.000000
_cell_angle_beta 89.480022
_cell_angle_gamma 90.000000
_cell_volume 601.661856
_symmetry_space_group_name_H-M "P 21"
_symmetry_group_IT_number 4
_symmetry_cell_setting 'monoclinic'
loop_
_space_group_symop_operation_xyz
x,y,z
-x,1/2+y,-z
loop_
_atom_site_type_symbol
_atom_site_label
_atom_site_fract_x
_atom_site_fract_y
_atom_site_fract_z
Si Si1 0.880383 0.971330 0.403332
Si Si2 0.838909 0.359484 0.790273
Si Si3 0.495152 0.607301 0.736149
Si Si4 0.182231 0.367637 0.982934
Si Si5 0.477519 0.615361 0.097707
Si Si6 0.177162 0.857273 0.823828
Si Si7 0.879389 0.792851 0.623495
O O1 0.838454 0.905217 0.522773
O O2 0.062207 0.863109 0.334230
O O3 0.630493 0.983844 0.343490
O O4 0.976803 0.144180 0.415722
O O5 0.672895 0.508978 0.810581
O O6 0.693156 0.203670 0.815649
O O7 0.065098 0.383313 0.865312
O O8 0.312536 0.694877 0.814201
O O9 0.625898 0.741194 0.667569
O O10 0.312604 0.524197 0.015044
O O11 0.980864 0.329339 0.069840
O O12 0.374202 0.231806 0.977961
O O13 0.649729 0.503358 0.164854
O O14 0.017093 0.886368 0.717786
#
# Coordination Sequence:
#
# PCOD8047106 Si02
#       7
#     2   2   2   2   2   2   2
#     4  10  24  45  69  99 136 177 224 277 331 394
#     4  11  26  46  69 101 136 176 223 277 334 397
#     4  10  24  45  71 100 136 178 223 275 334 396
#     4  12  28  46  68 100 136 178 224 276 332 398
#     4  12  28  45  69 100 136 178 223 275 334 400
#     4  11  26  46  69 101 136 176 223 277 334 397
#     4  10  24  45  69  99 136 177 224 277 331 394
#
# _framework density 23.268882999999999
#
# number of rings (size 3 to 8) (size 9 to 14) (size 15 to 20)
#    0.000    1.143    0.000    3.429    0.000   30.857 
#    0.000    2.857    0.000    0.000    0.000    0.000 
#    0.000    0.000    0.000    0.000    0.000    0.000 
#
# Total GULP energy -173672.722480 kJ/mol
# GULP energy per Si atom -12405.194463 kJ/mol
# Density = 2.321592 g / cm^3
# Si number density = 23.268883 Si / 1000 Ang^3
#
#
#
# Elastic Constant Matrix: (Units=GPa)
#
#
# Indices 1 2 3 4 5 6 
#
# 1 92.9683 3.8969 12.1251 0.0000 5.8993 0.0000
# 2 3.8969 44.0110 21.3547 0.0000 6.3865 0.0000
# 3 12.1251 21.3547 79.1935 0.0000 5.8210 0.0000
# 4 0.0000 0.0000 0.0000 54.9497 0.0000 2.3655
# 5 5.8993 6.3865 5.8210 0.0000 18.1267 0.0000
# 6 0.0000 0.0000 0.0000 2.3655 0.0000 47.2360
#
#
#
# Elastic Compliance Matrix: (Units=1/GPa)
#
#
# Indices 1 2 3 4 5 6 
#
# 1 0.011151 0.000222 -0.001531 0.000000 -0.003216 0.000000
# 2 0.000222 0.027074 -0.006788 0.000000 -0.007431 0.000000
# 3 -0.001531 -0.006788 0.014830 0.000000 -0.001872 0.000000
# 4 0.000000 0.000000 0.000000 0.018238 0.000000 -0.000913
# 5 -0.003216 -0.007431 -0.001872 0.000000 0.059433 0.000000
# 6 0.000000 0.000000 0.000000 -0.000913 0.000000 0.021216
#
#
# Mechanical properties :
#
#
# Convention : Reuss Voigt Hill
#
# Bulk Modulus (GPa) = 27.12938 32.32516 29.72727
# Shear Modulus (GPa) = 27.71272 35.98223 31.84748
#
# Velocity S-wave (km/s) = 3.45480 3.93665 3.70357
# Velocity P-wave (km/s) = 5.25343 5.88091 5.57601
#
# Compressibility (1/GPa) = 0.03686041
#
# Stress axis : x y z
#
# Youngs Moduli (GPa) = 89.68010 36.93568 67.43183
#
# Poissons Ratio (x) = -0.00820 0.10322
# Poissons Ratio (y) = -0.01991 0.45775
# Poissons Ratio (z) = 0.13728 0.25073
#
# Static dielectric constant tensor:
#      x y z
#    x 4.690500 0.000000 0.051160 
#    y 0.000000 4.183210 0.000000 
#    z 0.051160 0.000000 4.054450 
# 
# 
# High freq. dielectric constant tensor:
#      x y z
#    x 1.943660 0.000000 -0.000760 
#    y 0.000000 1.921870 0.000000 
#    z -0.000760 0.000000 1.914000 
# 
# From -- ./inp_files/10261.got.cif
#   From: 2010.03.12/outbox.cif.g09.slc.cpg/sg4_6_cif.got.tgz:10261.got - 2010.03.31 09:31:35.
