data_PCOD8047807
_publ_section_title
;
Structure prediction by ZEFSAII (Michael W. Deem and Ramdas Pophale) SiO2 
 PCOD8047807
Probable space group: P 21
;
_chemical_formula_sum "Si O2"
_cell_formula_units_Z 16
_cell_length_a 9.916493
_cell_length_b 8.949120
_cell_length_c 10.231088
_cell_angle_alpha 90.000000
_cell_angle_beta 43.660805
_cell_angle_gamma 90.000000
_cell_volume 626.835082
_symmetry_space_group_name_H-M "P 21"
_symmetry_group_IT_number 4
_symmetry_cell_setting 'monoclinic'
loop_
_space_group_symop_operation_xyz
x,y,z
-x,1/2+y,-z
loop_
_atom_site_type_symbol
_atom_site_label
_atom_site_fract_x
_atom_site_fract_y
_atom_site_fract_z
Si Si1 0.797908 0.220950 0.815057
Si Si2 0.506094 0.574386 0.670214
Si Si3 0.798415 0.058465 0.321263
Si Si4 0.205746 0.396935 0.180666
Si Si5 0.777233 0.313276 0.538909
Si Si6 0.194665 0.235161 0.690416
Si Si7 0.493326 0.881342 0.827074
Si Si8 0.226569 0.146428 0.959403
O O1 0.830379 0.228989 0.636100
O O2 0.991013 0.222488 0.763374
O O3 0.711170 0.059030 0.921725
O O4 0.656069 0.358019 0.946785
O O5 0.291306 0.559249 0.761037
O O6 0.592469 0.427150 0.683663
O O7 0.662658 0.599777 0.444264
O O8 0.486646 0.728227 0.756835
O O9 0.719447 0.188040 0.471751
O O10 0.032892 0.059879 0.143002
O O11 0.726863 0.895352 0.422060
O O12 0.287661 0.385826 0.270838
O O13 0.284490 0.269351 0.028067
O O14 0.970498 0.399393 0.354125
O O15 0.177433 0.232987 0.859936
O O16 0.410694 0.031772 0.814305
#
# Coordination Sequence:
#
# PCOD8047807 Si02
#       8
#     2   2   2   2   2   2   2   2
#     4  12  27  47  77 107 150 200 250 310 381 443
#     4  12  28  47  77 111 149 199 251 311 385 451
#     4  11  27  48  75 108 150 200 249 313 374 454
#     4  11  27  48  75 108 150 200 249 313 374 454
#     4  11  28  49  76 111 153 195 256 312 375 453
#     4  12  27  47  77 107 150 200 250 310 381 443
#     4  12  28  47  77 111 149 199 251 311 385 451
#     4  11  28  49  76 111 153 195 256 312 375 453
#
# _framework density 25.525054999999998
#
# number of rings (size 3 to 8) (size 9 to 14) (size 15 to 20)
#    0.000    0.500    2.500    3.000   14.000    2.000 
#    0.000    0.000    0.000    0.000    0.000    0.000 
#    0.000    0.000    0.000    0.000    0.000    0.000 
#
# Total GULP energy -198270.951064 kJ/mol
# GULP energy per Si atom -12391.934441 kJ/mol
# Density = 2.546696 g / cm^3
# Si number density = 25.525055 Si / 1000 Ang^3
#
#
#
# Elastic Constant Matrix: (Units=GPa)
#
#
# Indices 1 2 3 4 5 6 
#
# 1 153.6797 43.7028 18.0156 0.0000 14.6899 0.0000
# 2 43.7028 155.5241 23.4555 0.0000 10.0139 0.0000
# 3 18.0156 23.4555 30.0201 0.0000 5.7863 0.0000
# 4 0.0000 0.0000 0.0000 55.0374 0.0000 -1.5153
# 5 14.6899 10.0139 5.7863 0.0000 36.4366 0.0000
# 6 0.0000 0.0000 0.0000 -1.5153 0.0000 47.4730
#
#
#
# Elastic Compliance Matrix: (Units=1/GPa)
#
#
# Indices 1 2 3 4 5 6 
#
# 1 0.007485 -0.001531 -0.002884 0.000000 -0.002139 0.000000
# 2 -0.001531 0.007647 -0.004921 0.000000 -0.000703 0.000000
# 3 -0.002884 -0.004921 0.039614 0.000000 -0.003776 0.000000
# 4 0.000000 0.000000 0.000000 0.018185 0.000000 0.000580
# 5 -0.002139 -0.000703 -0.003776 0.000000 0.029100 0.000000
# 6 0.000000 0.000000 0.000000 0.000580 0.000000 0.021083
#
#
# Mechanical properties :
#
#
# Convention : Reuss Voigt Hill
#
# Bulk Modulus (GPa) = 27.71921 56.61905 42.16913
# Shear Modulus (GPa) = 32.50740 44.72607 38.61674
#
# Velocity S-wave (km/s) = 3.57255 4.19052 3.89382
# Velocity P-wave (km/s) = 5.28211 6.75602 6.06401
#
# Compressibility (1/GPa) = 0.03607606
#
# Stress axis : x y z
#
# Youngs Moduli (GPa) = 133.60381 130.76283 25.24341
#
# Poissons Ratio (x) = 0.20015 0.07279
# Poissons Ratio (y) = 0.20450 0.12422
# Poissons Ratio (z) = 0.38525 0.64349
#
# Static dielectric constant tensor:
#      x y z
#    x 4.817020 0.000000 -0.182990 
#    y 0.000000 7.437060 0.000000 
#    z -0.182990 0.000000 4.653550 
# 
# 
# High freq. dielectric constant tensor:
#      x y z
#    x 2.035100 0.000000 -0.001710 
#    y 0.000000 2.037540 0.000000 
#    z -0.001710 0.000000 2.011230 
# 
# From -- ./inp_files/5788.got.cif
#   From: 2010.03.12/outbox.cif.g09.slc.cpg/sg4_3_cif.got.tgz:5788.got - 2010.03.31 09:31:35.
