data_PCOD8047648
_publ_section_title
;
Structure prediction by ZEFSAII (Michael W. Deem and Ramdas Pophale) SiO2 
 PCOD8047648
Probable space group: P 21
;
_chemical_formula_sum "Si O2"
_cell_formula_units_Z 16
_cell_length_a 6.849172
_cell_length_b 5.270945
_cell_length_c 19.277935
_cell_angle_alpha 90.000000
_cell_angle_beta 101.810953
_cell_angle_gamma 90.000000
_cell_volume 681.229704
_symmetry_space_group_name_H-M "P 21"
_symmetry_group_IT_number 4
_symmetry_cell_setting 'monoclinic'
loop_
_space_group_symop_operation_xyz
x,y,z
-x,1/2+y,-z
loop_
_atom_site_type_symbol
_atom_site_label
_atom_site_fract_x
_atom_site_fract_y
_atom_site_fract_z
Si Si1 0.158596 0.423530 0.119529
Si Si2 0.952640 0.182305 0.636270
Si Si3 0.371922 0.350706 0.991661
Si Si4 0.801588 0.183153 0.364152
Si Si5 0.376464 0.709590 0.499817
Si Si6 0.156099 0.561920 0.855945
Si Si7 0.817299 0.303548 0.770086
Si Si8 0.507163 0.167430 0.224318
O O1 0.242606 0.423471 0.049030
O O2 0.122670 0.699631 0.148698
O O3 0.318221 0.335396 0.189943
O O4 0.948766 0.276332 0.104357
O O5 0.794822 0.269386 0.567731
O O6 0.844077 0.136636 0.702779
O O7 0.108900 0.413514 0.653671
O O8 0.041530 0.912526 0.620428
O O9 0.467253 0.074667 0.008005
O O10 0.227454 0.340922 0.914201
O O11 0.712726 0.135183 0.432953
O O12 0.630328 0.275184 0.298269
O O13 0.499995 0.467976 0.482253
O O14 0.356688 0.657431 0.833719
O O15 0.000936 0.504372 0.782102
O O16 0.589928 0.401381 0.757298
#
# Coordination Sequence:
#
# PCOD8047648 Si02
#       8
#     2   2   2   2   2   2   2   2
#     4  11  27  43  73 102 140 188 239 294 354 431
#     4  12  26  46  72 107 144 188 244 287 358 424
#     4  12  28  47  73 102 143 188 237 297 361 426
#     4  12  26  45  75 103 146 191 235 297 354 422
#     4  12  26  46  72 106 147 190 241 294 353 421
#     4  11  25  47  69 103 141 186 238 293 360 419
#     4  11  26  43  74 103 142 188 239 294 352 430
#     4  11  24  47  70 104 143 185 239 290 360 419
#
# _framework density 23.486937999999999
#
# number of rings (size 3 to 8) (size 9 to 14) (size 15 to 20)
#    0.000    0.500    2.500    4.500   10.500    2.000 
#    0.000    0.000    0.000    0.000    0.000    0.000 
#    0.000    0.000    0.000    0.000    0.000    0.000 
#
# Total GULP energy -198316.843931 kJ/mol
# GULP energy per Si atom -12394.802746 kJ/mol
# Density = 2.343348 g / cm^3
# Si number density = 23.486938 Si / 1000 Ang^3
#
#
#
# Elastic Constant Matrix: (Units=GPa)
#
#
# Indices 1 2 3 4 5 6 
#
# 1 105.7946 12.9741 34.6015 0.0000 -0.7650 0.0000
# 2 12.9741 71.3650 -9.2293 0.0000 -0.6643 0.0000
# 3 34.6015 -9.2293 123.8233 0.0000 -6.9507 0.0000
# 4 0.0000 0.0000 0.0000 33.2436 0.0000 0.9737
# 5 -0.7650 -0.6643 -6.9507 0.0000 46.8744 0.0000
# 6 0.0000 0.0000 0.0000 0.9737 0.0000 22.4841
#
#
#
# Elastic Compliance Matrix: (Units=1/GPa)
#
#
# Indices 1 2 3 4 5 6 
#
# 1 0.010792 -0.002381 -0.003212 0.000000 -0.000334 0.000000
# 2 -0.002381 0.014680 0.001784 0.000000 0.000434 0.000000
# 3 -0.003212 0.001784 0.009181 0.000000 0.001334 0.000000
# 4 0.000000 0.000000 0.000000 0.030119 0.000000 -0.001304
# 5 -0.000334 0.000434 0.001334 0.000000 0.021532 0.000000
# 6 0.000000 0.000000 0.000000 -0.001304 0.000000 0.044532
#
#
# Mechanical properties :
#
#
# Convention : Reuss Voigt Hill
#
# Bulk Modulus (GPa) = 36.98751 41.96396 39.47574
# Shear Modulus (GPa) = 33.90586 38.02953 35.96769
#
# Velocity S-wave (km/s) = 3.80360 4.02827 3.91755
# Velocity P-wave (km/s) = 5.92218 6.28821 6.10794
#
# Compressibility (1/GPa) = 0.02703615
#
# Stress axis : x y z
#
# Youngs Moduli (GPa) = 92.65841 68.11999 108.91526
#
# Poissons Ratio (x) = 0.16216 0.34984
# Poissons Ratio (y) = 0.22058 -0.19428
# Poissons Ratio (z) = 0.29762 -0.12151
#
# Static dielectric constant tensor:
#      x y z
#    x 4.362450 0.000000 0.013070 
#    y 0.000000 4.108020 0.000000 
#    z 0.013070 0.000000 4.212040 
# 
# 
# High freq. dielectric constant tensor:
#      x y z
#    x 1.947410 0.000000 -0.000230 
#    y 0.000000 1.920540 0.000000 
#    z -0.000230 0.000000 1.946780 
# 
# From -- ./inp_files/3958.got.cif
#   From: 2010.03.12/outbox.cif.g09.slc.cpg/sg4_2_cif.got.tgz:3958.got - 2010.03.31 09:31:35.
