data_PCOD8047771
_publ_section_title
;
Structure prediction by ZEFSAII (Michael W. Deem and Ramdas Pophale) SiO2 
 PCOD8047771
Probable space group: P 21
;
_chemical_formula_sum "Si O2"
_cell_formula_units_Z 12
_cell_length_a 4.965550
_cell_length_b 11.593415
_cell_length_c 8.654805
_cell_angle_alpha 90.000000
_cell_angle_beta 76.841790
_cell_angle_gamma 90.000000
_cell_volume 485.155945
_symmetry_space_group_name_H-M "P 21"
_symmetry_group_IT_number 4
_symmetry_cell_setting 'monoclinic'
loop_
_space_group_symop_operation_xyz
x,y,z
-x,1/2+y,-z
loop_
_atom_site_type_symbol
_atom_site_label
_atom_site_fract_x
_atom_site_fract_y
_atom_site_fract_z
Si Si1 0.093009 0.342730 0.825124
Si Si2 0.168415 0.048645 0.972489
Si Si3 0.349083 0.499347 0.541575
Si Si4 0.933955 0.455126 0.338993
Si Si5 0.427676 0.727750 0.048772
Si Si6 0.801056 0.211674 0.229196
O O1 0.875177 0.238557 0.827636
O O2 0.210317 0.394494 0.653099
O O3 0.349707 0.311211 0.899389
O O4 0.878311 0.429432 0.936014
O O5 0.486966 0.092395 0.940120
O O6 0.083932 0.037286 0.806075
O O7 0.005333 0.150274 0.081569
O O8 0.674141 0.478017 0.485541
O O9 0.311874 0.622677 0.629138
O O10 0.209755 0.494238 0.392019
O O11 0.942555 0.319355 0.295476
O O12 0.433112 0.756263 0.861791
#
# Coordination Sequence:
#
# PCOD8047771 Si02
#       6
#     2   2   2   2   2   2
#     4  11  26  46  75 107 147 199 249 314 373 454
#     4  11  26  45  80 106 146 194 263 310 368 446
#     4  11  30  48  74 107 162 192 246 306 395 447
#     4  12  28  49  75 111 151 201 245 314 384 451
#     4  12  24  44  79 108 140 195 261 308 368 437
#     4  11  28  50  77 109 152 199 256 320 364 459
#
# _framework density 24.734314999999999
#
# number of rings (size 3 to 8) (size 9 to 14) (size 15 to 20)
#    0.000    0.667    3.333    1.000   16.333    4.000 
#    0.000    0.000    0.000    0.000    0.000    0.000 
#    0.000    0.000    0.000    0.000    0.000    0.000 
#
# Total GULP energy -148742.331441 kJ/mol
# GULP energy per Si atom -12395.194287 kJ/mol
# Density = 2.467802 g / cm^3
# Si number density = 24.734315 Si / 1000 Ang^3
#
#
#
# Elastic Constant Matrix: (Units=GPa)
#
#
# Indices 1 2 3 4 5 6 
#
# 1 94.7377 20.8860 9.8188 0.0000 8.9945 0.0000
# 2 20.8860 85.8411 30.5232 0.0000 -4.4552 0.0000
# 3 9.8188 30.5232 96.5259 0.0000 5.0678 0.0000
# 4 0.0000 0.0000 0.0000 52.6497 0.0000 7.5117
# 5 8.9945 -4.4552 5.0678 0.0000 42.2343 0.0000
# 6 0.0000 0.0000 0.0000 7.5117 0.0000 40.1843
#
#
#
# Elastic Compliance Matrix: (Units=1/GPa)
#
#
# Indices 1 2 3 4 5 6 
#
# 1 0.011464 -0.002893 -0.000108 0.000000 -0.002734 0.000000
# 2 -0.002893 0.014008 -0.004272 0.000000 0.002606 0.000000
# 3 -0.000108 -0.004272 0.011819 0.000000 -0.001846 0.000000
# 4 0.000000 0.000000 0.000000 0.019514 0.000000 -0.003648
# 5 -0.002734 0.002606 -0.001846 0.000000 0.024756 0.000000
# 6 0.000000 0.000000 0.000000 -0.003648 0.000000 0.025567
#
#
# Mechanical properties :
#
#
# Convention : Reuss Voigt Hill
#
# Bulk Modulus (GPa) = 43.96605 44.39564 44.18084
# Shear Modulus (GPa) = 38.68342 41.40545 40.04443
#
# Velocity S-wave (km/s) = 3.95898 4.09590 4.02802
# Velocity P-wave (km/s) = 6.22189 6.35268 6.28763
#
# Compressibility (1/GPa) = 0.02274482
#
# Stress axis : x y z
#
# Youngs Moduli (GPa) = 87.23017 71.38987 84.61179
#
# Poissons Ratio (x) = 0.20652 0.00912
# Poissons Ratio (y) = 0.25234 0.36146
# Poissons Ratio (z) = 0.00941 0.30498
#
# Static dielectric constant tensor:
#      x y z
#    x 4.617030 0.000000 0.029500 
#    y 0.000000 4.763920 0.000000 
#    z 0.029500 0.000000 4.446630 
# 
# 
# High freq. dielectric constant tensor:
#      x y z
#    x 1.991900 0.000000 0.000610 
#    y 0.000000 1.999240 0.000000 
#    z 0.000610 0.000000 1.984250 
# 
# From -- ./inp_files/4523.got.cif
#   From: 2010.03.12/outbox.cif.g09.slc.cpg/sg4_3_cif.got.tgz:4523.got - 2010.03.31 09:31:35.
