data_PCOD8047777
_publ_section_title
;
Structure prediction by ZEFSAII (Michael W. Deem and Ramdas Pophale) SiO2 
 PCOD8047777
Probable space group: P 21
;
_chemical_formula_sum "Si O2"
_cell_formula_units_Z 12
_cell_length_a 12.355588
_cell_length_b 5.072233
_cell_length_c 7.283317
_cell_angle_alpha 90.000000
_cell_angle_beta 99.777336
_cell_angle_gamma 90.000000
_cell_volume 449.818697
_symmetry_space_group_name_H-M "P 21"
_symmetry_group_IT_number 4
_symmetry_cell_setting 'monoclinic'
loop_
_space_group_symop_operation_xyz
x,y,z
-x,1/2+y,-z
loop_
_atom_site_type_symbol
_atom_site_label
_atom_site_fract_x
_atom_site_fract_y
_atom_site_fract_z
Si Si1 0.527718 0.505360 0.892701
Si Si2 0.920463 0.529539 0.745063
Si Si3 0.144797 0.724781 0.935882
Si Si4 0.343285 0.534009 0.562312
Si Si5 0.214110 0.033562 0.632797
Si Si6 0.721533 0.842626 0.834040
O O1 0.462994 0.481682 0.682021
O O2 0.652861 0.591581 0.886597
O O3 0.529670 0.222072 0.991925
O O4 0.891485 0.468860 0.525518
O O5 0.839431 0.760833 0.787492
O O6 0.048719 0.592665 0.789333
O O7 0.899454 0.281998 0.872619
O O8 0.180840 0.987179 0.835385
O O9 0.251677 0.536665 0.987786
O O10 0.309324 0.832831 0.596978
O O11 0.255931 0.331393 0.626965
O O12 0.348726 0.493059 0.343834
#
# Coordination Sequence:
#
# PCOD8047777 Si02
#       6
#     2   2   2   2   2   2
#     4  12  29  48  76 113 149 198 262 315 385 455
#     4  11  26  46  74 114 152 204 255 307 383 458
#     4  12  25  47  79 109 158 204 253 312 382 453
#     4  11  26  51  74 110 152 201 258 313 385 453
#     4  11  27  47  77 112 157 200 254 315 377 452
#     4  11  27  49  76 106 156 203 252 320 382 451
#
# _framework density 26.677416000000001
#
# number of rings (size 3 to 8) (size 9 to 14) (size 15 to 20)
#    0.000    0.667    3.333    2.000    9.333    8.000 
#    0.000    0.000    0.000    0.000    0.000    0.000 
#    0.000    0.000    0.000    0.000    0.000    0.000 
#
# Total GULP energy -148856.849491 kJ/mol
# GULP energy per Si atom -12404.737458 kJ/mol
# Density = 2.661670 g / cm^3
# Si number density = 26.677416 Si / 1000 Ang^3
#
#
#
# Elastic Constant Matrix: (Units=GPa)
#
#
# Indices 1 2 3 4 5 6 
#
# 1 73.3345 -3.1071 40.7987 0.0000 17.3336 0.0000
# 2 -3.1071 51.1781 6.4655 0.0000 9.7586 0.0000
# 3 40.7987 6.4655 154.1643 0.0000 36.5309 0.0000
# 4 0.0000 0.0000 0.0000 46.5586 0.0000 3.0213
# 5 17.3336 9.7586 36.5309 0.0000 48.2246 0.0000
# 6 0.0000 0.0000 0.0000 3.0213 0.0000 36.9186
#
#
#
# Elastic Compliance Matrix: (Units=1/GPa)
#
#
# Indices 1 2 3 4 5 6 
#
# 1 0.016607 0.002164 -0.003617 0.000000 -0.003667 0.000000
# 2 0.002164 0.020609 -0.000322 0.000000 -0.004704 0.000000
# 3 -0.003617 -0.000322 0.008694 0.000000 -0.005221 0.000000
# 4 0.000000 0.000000 0.000000 0.021593 0.000000 -0.001767
# 5 -0.003667 -0.004704 -0.005221 0.000000 0.026961 0.000000
# 6 0.000000 0.000000 0.000000 -0.001767 0.000000 0.027231
#
#
# Mechanical properties :
#
#
# Convention : Reuss Voigt Hill
#
# Bulk Modulus (GPa) = 23.60690 40.77680 32.19185
# Shear Modulus (GPa) = 35.87703 41.97499 38.92601
#
# Velocity S-wave (km/s) = 3.67119 3.97095 3.82401
# Velocity P-wave (km/s) = 5.18058 6.02851 5.62056
#
# Compressibility (1/GPa) = 0.04236049
#
# Stress axis : x y z
#
# Youngs Moduli (GPa) = 60.21647 48.52321 115.01670
#
# Poissons Ratio (x) = -0.10502 0.41597
# Poissons Ratio (y) = -0.13033 0.03709
# Poissons Ratio (z) = 0.21778 0.01565
#
# Static dielectric constant tensor:
#      x y z
#    x 4.412740 0.000000 0.250140 
#    y 0.000000 4.655120 0.000000 
#    z 0.250140 0.000000 5.310900 
# 
# 
# High freq. dielectric constant tensor:
#      x y z
#    x 2.054640 0.000000 0.018290 
#    y 0.000000 2.070150 0.000000 
#    z 0.018290 0.000000 2.097720 
# 
# From -- ./inp_files/7231.got.cif
#   From: 2010.03.12/outbox.cif.g09.slc.cpg/sg4_4_cif.got.tgz:7231.got - 2010.03.31 09:31:35.
