data_PCOD8047429
_publ_section_title
;
Structure prediction by ZEFSAII (Michael W. Deem and Ramdas Pophale) SiO2 
 PCOD8047429
Probable space group: P 21
;
_chemical_formula_sum "Si O2"
_cell_formula_units_Z 16
_cell_length_a 9.856693
_cell_length_b 8.546395
_cell_length_c 8.448187
_cell_angle_alpha 90.000000
_cell_angle_beta 98.325683
_cell_angle_gamma 90.000000
_cell_volume 704.168158
_symmetry_space_group_name_H-M "P 21"
_symmetry_group_IT_number 4
_symmetry_cell_setting 'monoclinic'
loop_
_space_group_symop_operation_xyz
x,y,z
-x,1/2+y,-z
loop_
_atom_site_type_symbol
_atom_site_label
_atom_site_fract_x
_atom_site_fract_y
_atom_site_fract_z
Si Si1 0.598664 0.853300 0.033738
Si Si2 0.851152 0.146044 0.442612
Si Si3 0.364394 0.188573 0.628246
Si Si4 0.893254 0.493781 0.371394
Si Si5 0.117474 0.914973 0.992437
Si Si6 0.433156 0.507038 0.518024
Si Si7 0.384383 0.051772 0.147794
Si Si8 0.146070 0.563853 0.918309
O O1 0.637022 0.758477 0.197601
O O2 0.453252 0.940226 0.026034
O O3 0.708261 0.988339 0.018569
O O4 0.593541 0.734242 0.887271
O O5 0.879615 0.329428 0.457667
O O6 0.695896 0.117905 0.471024
O O7 0.876028 0.080064 0.272090
O O8 0.954363 0.059440 0.578685
O O9 0.217764 0.110310 0.570292
O O10 0.383926 0.326801 0.500862
O O11 0.489365 0.063455 0.628709
O O12 0.863823 0.478363 0.181126
O O13 0.140704 0.729622 0.005705
O O14 0.224518 0.006093 0.123339
O O15 0.967251 0.947450 0.032736
O O16 0.547397 0.521039 0.673189
#
# Coordination Sequence:
#
# PCOD8047429 Si02
#       8
#     2   2   2   2   2   2   2   2
#     4  11  23  44  69  96 139 178 218 282 332 398
#     4  11  24  46  68  98 136 175 230 272 337 391
#     4  11  23  45  67  99 135 176 223 271 338 386
#     4  11  25  44  71  97 133 182 221 282 328 399
#     4  11  25  44  68 106 133 175 226 270 341 397
#     4  11  25  44  66 101 134 178 223 278 330 403
#     4  11  23  41  70  99 135 176 220 276 336 398
#     4  11  24  46  69  98 139 174 225 279 328 404
#
# _framework density 22.721845999999999
#
# number of rings (size 3 to 8) (size 9 to 14) (size 15 to 20)
#    0.000    1.000    3.750    3.000    3.500    1.000 
#    9.000    0.000    0.000    0.000    0.000    0.000 
#    0.000    0.000    0.000    0.000    0.000    0.000 
#
# Total GULP energy -198506.794008 kJ/mol
# GULP energy per Si atom -12406.674626 kJ/mol
# Density = 2.267013 g / cm^3
# Si number density = 22.721846 Si / 1000 Ang^3
#
#
#
# Elastic Constant Matrix: (Units=GPa)
#
#
# Indices 1 2 3 4 5 6 
#
# 1 81.6281 9.5321 17.8194 0.0000 -0.1823 0.0000
# 2 9.5321 97.0263 18.4593 0.0000 3.1810 0.0000
# 3 17.8194 18.4593 24.4541 0.0000 2.5330 0.0000
# 4 0.0000 0.0000 0.0000 28.3537 0.0000 -5.2151
# 5 -0.1823 3.1810 2.5330 0.0000 36.0613 0.0000
# 6 0.0000 0.0000 0.0000 -5.2151 0.0000 56.9767
#
#
#
# Elastic Compliance Matrix: (Units=1/GPa)
#
#
# Indices 1 2 3 4 5 6 
#
# 1 0.014631 0.000678 -0.011256 0.000000 0.000805 0.000000
# 2 0.000678 0.012073 -0.009567 0.000000 -0.000390 0.000000
# 3 -0.011256 -0.009567 0.056647 0.000000 -0.003192 0.000000
# 4 0.000000 0.000000 0.000000 0.035873 0.000000 0.003283
# 5 0.000805 -0.000390 -0.003192 0.000000 0.027993 0.000000
# 6 0.000000 0.000000 0.000000 0.003283 0.000000 0.017852
#
#
# Mechanical properties :
#
#
# Convention : Reuss Voigt Hill
#
# Bulk Modulus (GPa) = 23.22314 32.74779 27.98546
# Shear Modulus (GPa) = 22.75713 34.76486 28.76100
#
# Velocity S-wave (km/s) = 3.16817 3.91579 3.56165
# Velocity P-wave (km/s) = 4.86064 5.90663 5.40898
#
# Compressibility (1/GPa) = 0.04306051
#
# Stress axis : x y z
#
# Youngs Moduli (GPa) = 68.35024 82.83135 17.65312
#
# Poissons Ratio (x) = -0.05614 0.19870
# Poissons Ratio (y) = -0.04632 0.16888
# Poissons Ratio (z) = 0.76935 0.79242
#
# Static dielectric constant tensor:
#      x y z
#    x 4.107560 0.000000 -0.121910 
#    y 0.000000 4.464710 0.000000 
#    z -0.121910 0.000000 3.815360 
# 
# 
# High freq. dielectric constant tensor:
#      x y z
#    x 1.907860 0.000000 -0.004620 
#    y 0.000000 1.915690 0.000000 
#    z -0.004620 0.000000 1.876570 
# 
# From -- ./inp_files/5584.got.cif
#   From: 2010.03.12/outbox.cif.g09.slc.cpg/sg4_3_cif.got.tgz:5584.got - 2010.03.31 09:31:35.
