data_PCOD8047869
_publ_section_title
;
Structure prediction by ZEFSAII (Michael W. Deem and Ramdas Pophale) SiO2 
 PCOD8047869
Probable space group: P 21
;
_chemical_formula_sum "Si O2"
_cell_formula_units_Z 8
_cell_length_a 12.458842
_cell_length_b 4.815891
_cell_length_c 6.359342
_cell_angle_alpha 90.000000
_cell_angle_beta 121.024365
_cell_angle_gamma 90.000000
_cell_volume 326.979919
_symmetry_space_group_name_H-M "P 21"
_symmetry_group_IT_number 4
_symmetry_cell_setting 'monoclinic'
loop_
_space_group_symop_operation_xyz
x,y,z
-x,1/2+y,-z
loop_
_atom_site_type_symbol
_atom_site_label
_atom_site_fract_x
_atom_site_fract_y
_atom_site_fract_z
Si Si1 0.080683 0.613460 0.069521
Si Si2 0.252929 0.839798 0.607612
Si Si3 0.501283 0.887296 0.639338
Si Si4 0.249712 0.331845 0.887222
O O1 0.164152 0.783808 0.319748
O O2 0.152767 0.466542 0.951532
O O3 0.008733 0.358385 0.112493
O O4 0.386194 0.968558 0.673328
O O5 0.282868 0.548317 0.741321
O O6 0.193011 0.057021 0.715536
O O7 0.448895 0.667009 0.418246
O O8 0.620311 0.746446 0.871558
#
# Coordination Sequence:
#
# PCOD8047869 Si02
#       4
#     2   2   2   2
#     4  12  28  50  76 106 152 204 254 308 366 434
#     4  12  26  47  77 112 146 195 247 307 378 446
#     4  12  24  44  78 110 152 190 236 310 388 444
#     4  12  26  47  77 112 146 195 247 307 378 446
#
# _framework density 24.466331
#
# number of rings (size 3 to 8) (size 9 to 14) (size 15 to 20)
#    0.000    0.000    2.500    7.500    3.500    4.000 
#    0.000    0.000    0.000    0.000    0.000    0.000 
#    0.000    0.000    0.000    0.000    0.000    0.000 
#
# Total GULP energy -99216.073278 kJ/mol
# GULP energy per Si atom -12402.009160 kJ/mol
# Density = 2.441064 g / cm^3
# Si number density = 24.466331 Si / 1000 Ang^3
#
#
#
# Elastic Constant Matrix: (Units=GPa)
#
#
# Indices 1 2 3 4 5 6 
#
# 1 110.8403 29.6846 41.1347 0.0000 8.4852 0.0000
# 2 29.6846 131.1465 20.1782 0.0000 2.7180 0.0000
# 3 41.1347 20.1782 52.4979 0.0000 -5.2211 0.0000
# 4 0.0000 0.0000 0.0000 54.0569 0.0000 -12.0503
# 5 8.4852 2.7180 -5.2211 0.0000 22.4578 0.0000
# 6 0.0000 0.0000 0.0000 -12.0503 0.0000 50.2117
#
#
#
# Elastic Compliance Matrix: (Units=1/GPa)
#
#
# Indices 1 2 3 4 5 6 
#
# 1 0.014208 -0.001296 -0.011417 0.000000 -0.007866 0.000000
# 2 -0.001296 0.008290 -0.002274 0.000000 -0.001042 0.000000
# 3 -0.011417 -0.002274 0.030019 0.000000 0.011568 0.000000
# 4 0.000000 0.000000 0.000000 0.019545 0.000000 0.004690
# 5 -0.007866 -0.001042 0.011568 0.000000 0.050315 0.000000
# 6 0.000000 0.000000 0.000000 0.004690 0.000000 0.021041
#
#
# Mechanical properties :
#
#
# Convention : Reuss Voigt Hill
#
# Bulk Modulus (GPa) = 44.36175 52.94219 48.65197
# Shear Modulus (GPa) = 27.63844 38.91109 33.27476
#
# Velocity S-wave (km/s) = 3.36468 3.99230 3.69185
# Velocity P-wave (km/s) = 5.76765 6.55264 6.17264
#
# Compressibility (1/GPa) = 0.02254194
#
# Stress axis : x y z
#
# Youngs Moduli (GPa) = 70.38122 120.62713 33.31262
#
# Poissons Ratio (x) = 0.15638 0.38033
# Poissons Ratio (y) = 0.09124 0.07576
# Poissons Ratio (z) = 0.80354 0.27433
#
# Static dielectric constant tensor:
#      x y z
#    x 4.316230 0.000000 -0.002410 
#    y 0.000000 4.578210 0.000000 
#    z -0.002410 0.000000 4.377480 
# 
# 
# High freq. dielectric constant tensor:
#      x y z
#    x 1.972590 0.000000 -0.002830 
#    y 0.000000 1.994530 0.000000 
#    z -0.002830 0.000000 1.970550 
# 
# From -- ./inp_files/880.got.cif
#   From: 2010.03.12/outbox.cif.g09.slc.cpg/sg4_1_cif.got.tgz:880.got - 2010.03.31 09:31:35.
