data_PCOD8047635
_publ_section_title
;
Structure prediction by ZEFSAII (Michael W. Deem and Ramdas Pophale) SiO2 
 PCOD8047635
Probable space group: P 21
;
_chemical_formula_sum "Si O2"
_cell_formula_units_Z 16
_cell_length_a 6.653346
_cell_length_b 10.291081
_cell_length_c 15.332507
_cell_angle_alpha 90.000000
_cell_angle_beta 138.179013
_cell_angle_gamma 90.000000
_cell_volume 700.024826
_symmetry_space_group_name_H-M "P 21"
_symmetry_group_IT_number 4
_symmetry_cell_setting 'monoclinic'
loop_
_space_group_symop_operation_xyz
x,y,z
-x,1/2+y,-z
loop_
_atom_site_type_symbol
_atom_site_label
_atom_site_fract_x
_atom_site_fract_y
_atom_site_fract_z
Si Si1 0.272612 0.782560 0.183157
Si Si2 0.353016 0.348333 0.266938
Si Si3 0.265290 0.062175 0.680180
Si Si4 0.446343 0.457721 0.862304
Si Si5 0.610723 0.154187 0.481203
Si Si6 0.752277 0.399920 0.643759
Si Si7 0.741781 0.438853 0.139169
Si Si8 0.346883 0.229567 0.087138
O O1 0.499160 0.667347 0.276581
O O2 0.353360 0.846575 0.116801
O O3 0.294891 0.888112 0.267721
O O4 0.935850 0.722586 0.070615
O O5 0.657168 0.433267 0.351014
O O6 0.429040 0.218464 0.343686
O O7 0.228300 0.308561 0.132211
O O8 0.094154 0.432252 0.229999
O O9 0.932266 0.108156 0.548976
O O10 0.298065 0.041397 0.795204
O O11 0.531624 0.591158 0.841969
O O12 0.100652 0.422069 0.734841
O O13 0.530572 0.481148 0.990660
O O14 0.641116 0.263917 0.565791
O O15 0.433098 0.023630 0.454386
O O16 0.630815 0.297369 0.132891
#
# Coordination Sequence:
#
# PCOD8047635 Si02
#       8
#     2   2   2   2   2   2   2   2
#     4  12  26  47  73 111 146 192 247 316 385 447
#     4  11  25  48  72 105 148 194 243 308 377 450
#     4  11  28  44  73 106 144 198 250 302 380 446
#     4  12  25  44  77 107 148 190 249 312 386 454
#     4  12  28  50  77 105 154 207 256 310 373 458
#     4  12  29  51  74 113 153 204 260 315 379 455
#     4  11  24  46  71 108 144 188 239 307 384 449
#     4  11  25  42  75 109 143 187 244 316 380 453
#
# _framework density 22.856332999999999
#
# number of rings (size 3 to 8) (size 9 to 14) (size 15 to 20)
#    0.000    0.500    3.750    3.000   10.500    3.000 
#    0.000    0.000    0.000    0.000    0.000    0.000 
#    0.000    0.000    0.000    0.000    0.000    0.000 
#
# Total GULP energy -198456.160548 kJ/mol
# GULP energy per Si atom -12403.510034 kJ/mol
# Density = 2.280431 g / cm^3
# Si number density = 22.856333 Si / 1000 Ang^3
#
#
#
# Elastic Constant Matrix: (Units=GPa)
#
#
# Indices 1 2 3 4 5 6 
#
# 1 100.0293 34.2467 35.0830 0.0000 14.3886 0.0000
# 2 34.2467 116.4966 31.6957 0.0000 16.4172 0.0000
# 3 35.0830 31.6957 102.0266 0.0000 19.4659 0.0000
# 4 0.0000 0.0000 0.0000 43.4936 0.0000 2.2217
# 5 14.3886 16.4172 19.4659 0.0000 23.1692 0.0000
# 6 0.0000 0.0000 0.0000 2.2217 0.0000 39.4854
#
#
#
# Elastic Compliance Matrix: (Units=1/GPa)
#
#
# Indices 1 2 3 4 5 6 
#
# 1 0.012306 -0.002342 -0.002814 0.000000 -0.003619 0.000000
# 2 -0.002342 0.010335 -0.001531 0.000000 -0.004582 0.000000
# 3 -0.002814 -0.001531 0.012747 0.000000 -0.007878 0.000000
# 4 0.000000 0.000000 0.000000 0.023058 0.000000 -0.001297
# 5 -0.003619 -0.004582 -0.007878 0.000000 0.055274 0.000000
# 6 0.000000 0.000000 0.000000 -0.001297 0.000000 0.025399
#
#
# Mechanical properties :
#
#
# Convention : Reuss Voigt Hill
#
# Bulk Modulus (GPa) = 45.42334 57.84482 51.63408
# Shear Modulus (GPa) = 31.28298 35.73143 33.50721
#
# Velocity S-wave (km/s) = 3.70358 3.95816 3.83298
# Velocity P-wave (km/s) = 6.18104 6.80090 6.49837
#
# Compressibility (1/GPa) = 0.02201511
#
# Stress axis : x y z
#
# Youngs Moduli (GPa) = 81.25896 96.76088 78.44677
#
# Poissons Ratio (x) = 0.22663 0.22071
# Poissons Ratio (y) = 0.19032 0.12010
# Poissons Ratio (z) = 0.22863 0.14814
#
# Static dielectric constant tensor:
#      x y z
#    x 4.099040 0.000000 0.052540 
#    y 0.000000 4.156840 0.000000 
#    z 0.052540 0.000000 3.986280 
# 
# 
# High freq. dielectric constant tensor:
#      x y z
#    x 1.908480 0.000000 0.005270 
#    y 0.000000 1.910310 0.000000 
#    z 0.005270 0.000000 1.900750 
# 
# From -- ./inp_files/13430.got.cif
#   From: 2010.03.12/outbox.cif.g09.slc.cpg/sg4_7_cif.got.tgz:13430.got - 2010.03.31 09:31:35.
