data_PCOD8047642
_publ_section_title
;
Structure prediction by ZEFSAII (Michael W. Deem and Ramdas Pophale) SiO2 
 PCOD8047642
Probable space group: P 21
;
_chemical_formula_sum "Si O2"
_cell_formula_units_Z 14
_cell_length_a 10.633480
_cell_length_b 4.884720
_cell_length_c 9.493503
_cell_angle_alpha 90.000000
_cell_angle_beta 102.924140
_cell_angle_gamma 90.000000
_cell_volume 480.615605
_symmetry_space_group_name_H-M "P 21"
_symmetry_group_IT_number 4
_symmetry_cell_setting 'monoclinic'
loop_
_space_group_symop_operation_xyz
x,y,z
-x,1/2+y,-z
loop_
_atom_site_type_symbol
_atom_site_label
_atom_site_fract_x
_atom_site_fract_y
_atom_site_fract_z
Si Si1 0.484395 0.646370 0.183620
Si Si2 0.734843 0.500343 0.820419
Si Si3 0.557001 0.280572 0.441963
Si Si4 0.184406 0.071328 0.452151
Si Si5 0.301787 0.394033 0.931442
Si Si6 0.912201 0.846728 0.313857
Si Si7 0.965541 0.094504 0.905332
O O1 0.406613 0.876253 0.253487
O O2 0.501445 0.362284 0.273042
O O3 0.625292 0.743810 0.177448
O O4 0.396616 0.619654 0.020229
O O5 0.778821 0.684766 0.695101
O O6 0.824182 0.229966 0.862002
O O7 0.738785 0.675634 0.961601
O O8 0.527966 0.966650 0.470795
O O9 0.711715 0.331402 0.488926
O O10 0.186517 0.278535 0.583496
O O11 0.034404 0.990918 0.412094
O O12 0.173870 0.521221 0.822400
O O13 0.966658 0.592631 0.232256
O O14 0.045276 0.284083 0.039352
#
# Coordination Sequence:
#
# PCOD8047642 Si02
#       7
#     2   2   2   2   2   2   2
#     4  12  25  44  80 115 156 207 277 341 410 479
#     4  11  24  47  73 113 153 211 267 330 410 480
#     4  12  27  52  84 118 166 219 276 338 413 493
#     4  11  26  51  74 116 162 220 271 336 409 498
#     4  12  24  47  75 115 156 207 274 345 406 489
#     4  11  26  49  73 115 163 213 274 335 411 486
#     4  11  24  46  77 112 152 207 265 329 399 479
#
# _framework density 29.129307000000001
#
# number of rings (size 3 to 8) (size 9 to 14) (size 15 to 20)
#    0.000    0.571    5.714    1.714    0.000    3.429 
#    7.714    0.000    0.000    0.000    0.000    0.000 
#    0.000    0.000    0.000    0.000    0.000    0.000 
#
# Total GULP energy -173483.028141 kJ/mol
# GULP energy per Si atom -12391.644867 kJ/mol
# Density = 2.906301 g / cm^3
# Si number density = 29.129307 Si / 1000 Ang^3
#
#
#
# Elastic Constant Matrix: (Units=GPa)
#
#
# Indices 1 2 3 4 5 6 
#
# 1 137.4757 0.3827 57.2581 0.0000 5.0615 0.0000
# 2 0.3827 17.0741 -22.5782 0.0000 -4.3369 0.0000
# 3 57.2581 -22.5782 123.2785 0.0000 8.4594 0.0000
# 4 0.0000 0.0000 0.0000 32.4413 0.0000 5.7824
# 5 5.0615 -4.3369 8.4594 0.0000 81.3680 0.0000
# 6 0.0000 0.0000 0.0000 5.7824 0.0000 22.5081
#
#
#
# Elastic Compliance Matrix: (Units=1/GPa)
#
#
# Indices 1 2 3 4 5 6 
#
# 1 0.009843 -0.008360 -0.006073 0.000000 -0.000426 0.000000
# 2 -0.008360 0.084965 0.019235 0.000000 0.003049 0.000000
# 3 -0.006073 0.019235 0.014462 0.000000 -0.000101 0.000000
# 4 0.000000 0.000000 0.000000 0.032304 0.000000 -0.008299
# 5 -0.000426 0.003049 -0.000101 0.000000 0.012489 0.000000
# 6 0.000000 0.000000 0.000000 -0.008299 0.000000 0.046561
#
#
# Mechanical properties :
#
#
# Convention : Reuss Voigt Hill
#
# Bulk Modulus (GPa) = 8.41233 38.66153 23.53693
# Shear Modulus (GPa) = 21.67829 43.44784 32.56306
#
# Velocity S-wave (km/s) = 2.73098 3.86625 3.34710
# Velocity P-wave (km/s) = 3.58309 5.76470 4.79949
#
# Compressibility (1/GPa) = 0.11887317
#
# Stress axis : x y z
#
# Youngs Moduli (GPa) = 101.60008 11.76950 69.14544
#
# Poissons Ratio (x) = 0.09839 0.41994
# Poissons Ratio (y) = 0.84938 -1.33001
# Poissons Ratio (z) = 0.61705 -0.22639
#
# Static dielectric constant tensor:
#      x y z
#    x 5.867000 0.000000 0.062540 
#    y 0.000000 4.496380 0.000000 
#    z 0.062540 0.000000 5.733420 
# 
# 
# High freq. dielectric constant tensor:
#      x y z
#    x 2.220710 0.000000 0.008900 
#    y 0.000000 2.126150 0.000000 
#    z 0.008900 0.000000 2.218020 
# 
# From -- ./inp_files/7217.got.cif
#   From: 2010.03.12/outbox.cif.g09.slc.cpg/sg4_4_cif.got.tgz:7217.got - 2010.03.31 09:31:35.
