data_PCOD8047893
_publ_section_title
;
Structure prediction by ZEFSAII (Michael W. Deem and Ramdas Pophale) SiO2 
 PCOD8047893
Probable space group: P 21
;
_chemical_formula_sum "Si O2"
_cell_formula_units_Z 16
_cell_length_a 6.337930
_cell_length_b 8.397783
_cell_length_c 16.889343
_cell_angle_alpha 90.000000
_cell_angle_beta 48.097368
_cell_angle_gamma 90.000000
_cell_volume 669.054810
_symmetry_space_group_name_H-M "P 21"
_symmetry_group_IT_number 4
_symmetry_cell_setting 'monoclinic'
loop_
_space_group_symop_operation_xyz
x,y,z
-x,1/2+y,-z
loop_
_atom_site_type_symbol
_atom_site_label
_atom_site_fract_x
_atom_site_fract_y
_atom_site_fract_z
Si Si1 0.315125 0.947200 0.722011
Si Si2 0.269649 0.731128 0.363468
Si Si3 0.782317 0.523708 0.827810
Si Si4 0.792919 0.168023 0.797170
Si Si5 0.665082 0.758084 0.514746
Si Si6 0.756276 0.523727 0.009099
Si Si7 0.618273 0.956677 0.374595
Si Si8 0.702398 0.225790 0.116199
O O1 0.404049 0.836530 0.626926
O O2 0.277470 0.835195 0.809368
O O3 0.584163 0.063036 0.659072
O O4 0.028884 0.048204 0.775208
O O5 0.147798 0.728609 0.305733
O O6 0.482193 0.875767 0.330291
O O7 0.970480 0.765238 0.484442
O O8 0.759479 0.334777 0.850225
O O9 0.694144 0.586069 0.936255
O O10 0.588542 0.621473 0.813955
O O11 0.106860 0.556515 0.722155
O O12 0.488951 0.085492 0.871719
O O13 0.687353 0.817936 0.419022
O O14 0.595091 0.571744 0.526571
O O15 0.060543 0.592496 0.954440
O O16 0.751694 0.334818 0.026433
#
# Coordination Sequence:
#
# PCOD8047893 Si02
#       8
#     2   2   2   2   2   2   2   2
#     4  12  28  49  76 115 157 204 269 330 408 481
#     4  12  24  49  73 109 147 212 253 332 396 477
#     4  12  28  48  78 110 156 207 263 333 397 480
#     4  12  27  49  77 108 159 202 261 327 398 478
#     4  12  27  46  75 108 155 198 266 324 412 471
#     4  12  29  47  79 111 158 202 265 323 409 470
#     4  12  27  46  76 110 154 205 262 330 400 484
#     4  12  30  48  78 119 154 212 267 331 402 491
#
# _framework density 23.914332999999999
#
# number of rings (size 3 to 8) (size 9 to 14) (size 15 to 20)
#    0.000    0.000    3.750    4.500   14.000    3.000 
#    0.000    0.000    0.000    0.000    0.000    0.000 
#    0.000    0.000    0.000    0.000    0.000    0.000 
#
# Total GULP energy -198222.489258 kJ/mol
# GULP energy per Si atom -12388.905579 kJ/mol
# Density = 2.385990 g / cm^3
# Si number density = 23.914333 Si / 1000 Ang^3
#
#
#
# Elastic Constant Matrix: (Units=GPa)
#
#
# Indices 1 2 3 4 5 6 
#
# 1 128.8916 63.3679 62.2265 0.0000 -18.4403 0.0000
# 2 63.3679 114.4434 52.0182 0.0000 -25.7113 0.0000
# 3 62.2265 52.0182 93.6988 0.0000 -20.6007 0.0000
# 4 0.0000 0.0000 0.0000 45.5299 0.0000 -9.6093
# 5 -18.4403 -25.7113 -20.6007 0.0000 49.9639 0.0000
# 6 0.0000 0.0000 0.0000 -9.6093 0.0000 52.9692
#
#
#
# Elastic Compliance Matrix: (Units=1/GPa)
#
#
# Indices 1 2 3 4 5 6 
#
# 1 0.012844 -0.004329 -0.006130 0.000000 -0.000015 0.000000
# 2 -0.004329 0.013792 -0.003929 0.000000 0.003880 0.000000
# 3 -0.006130 -0.003929 0.017576 0.000000 0.002963 0.000000
# 4 0.000000 0.000000 0.000000 0.022838 0.000000 0.004143
# 5 -0.000015 0.003880 0.002963 0.000000 0.023227 0.000000
# 6 0.000000 0.000000 0.000000 0.004143 0.000000 0.019631
#
#
# Mechanical properties :
#
#
# Convention : Reuss Voigt Hill
#
# Bulk Modulus (GPa) = 64.78058 76.91766 70.84912
# Shear Modulus (GPa) = 34.76340 40.32069 37.54204
#
# Velocity S-wave (km/s) = 3.81683 4.11060 3.96644
# Velocity P-wave (km/s) = 6.82434 7.40021 7.11810
#
# Compressibility (1/GPa) = 0.01543672
#
# Stress axis : x y z
#
# Youngs Moduli (GPa) = 77.85763 72.50336 56.89548
#
# Poissons Ratio (x) = 0.31386 0.34876
# Poissons Ratio (y) = 0.33703 0.22355
# Poissons Ratio (z) = 0.47725 0.28488
#
# Static dielectric constant tensor:
#      x y z
#    x 4.326010 0.000000 -0.107020 
#    y 0.000000 4.572350 0.000000 
#    z -0.107020 0.000000 4.290380 
# 
# 
# High freq. dielectric constant tensor:
#      x y z
#    x 1.946780 0.000000 -0.012980 
#    y 0.000000 1.963800 0.000000 
#    z -0.012980 0.000000 1.959800 
# 
# From -- ./inp_files/2631.got.cif
#   From: 2010.03.12/outbox.cif.g09.slc.cpg/sg4_2_cif.got.tgz:2631.got - 2010.03.31 09:31:35.
