data_PCOD8047959
_publ_section_title
;
Structure prediction by ZEFSAII (Michael W. Deem and Ramdas Pophale) SiO2 
 PCOD8047959
Probable space group: P 21
;
_chemical_formula_sum "Si O2"
_cell_formula_units_Z 10
_cell_length_a 5.432405
_cell_length_b 7.015500
_cell_length_c 11.592794
_cell_angle_alpha 90.000000
_cell_angle_beta 74.643577
_cell_angle_gamma 90.000000
_cell_volume 426.039383
_symmetry_space_group_name_H-M "P 21"
_symmetry_group_IT_number 4
_symmetry_cell_setting 'monoclinic'
loop_
_space_group_symop_operation_xyz
x,y,z
-x,1/2+y,-z
loop_
_atom_site_type_symbol
_atom_site_label
_atom_site_fract_x
_atom_site_fract_y
_atom_site_fract_z
Si Si1 0.733448 0.948290 0.518242
Si Si2 0.811230 0.596604 0.648433
Si Si3 0.556226 0.771406 0.320957
Si Si4 0.311915 0.013937 0.900780
Si Si5 0.170578 0.278351 0.122627
O O1 0.661788 0.776761 0.612520
O O2 0.728993 0.900982 0.381937
O O3 0.552176 0.119065 0.575770
O O4 0.019867 0.031946 0.483703
O O5 0.645370 0.416939 0.710013
O O6 0.942556 0.679198 0.748121
O O7 0.702725 0.670814 0.198860
O O8 0.589505 0.912633 0.870295
O O9 0.068537 0.878390 0.910048
O O10 0.280361 0.116374 0.026308
#
# Coordination Sequence:
#
# PCOD8047959 Si02
#       5
#     2   2   2   2   2
#     4  12  26  44  72 110 150 196 246 302 378 442
#     4  12  27  45  74 108 153 196 249 307 372 446
#     4  12  27  45  74 108 153 196 249 307 372 446
#     4  12  29  51  79 109 150 197 255 312 377 443
#     4  12  29  51  79 109 150 197 255 312 377 443
#
# _framework density 23.472007000000001
#
# number of rings (size 3 to 8) (size 9 to 14) (size 15 to 20)
#    0.000    0.000    6.000    2.400   14.000    0.000 
#    0.000    0.000    0.000    0.000    0.000    0.000 
#    0.000    0.000    0.000    0.000    0.000    0.000 
#
# Total GULP energy -123909.441117 kJ/mol
# GULP energy per Si atom -12390.944112 kJ/mol
# Density = 2.341858 g / cm^3
# Si number density = 23.472007 Si / 1000 Ang^3
#
#
#
# Elastic Constant Matrix: (Units=GPa)
#
#
# Indices 1 2 3 4 5 6 
#
# 1 80.0131 21.3954 4.4228 0.0000 -2.7580 0.0000
# 2 21.3954 105.8691 35.5403 0.0000 -2.3206 0.0000
# 3 4.4228 35.5403 112.9689 0.0000 6.6368 0.0000
# 4 0.0000 0.0000 0.0000 56.0715 0.0000 7.6692
# 5 -2.7580 -2.3206 6.6368 0.0000 33.1246 0.0000
# 6 0.0000 0.0000 0.0000 7.6692 0.0000 34.4088
#
#
#
# Elastic Compliance Matrix: (Units=1/GPa)
#
#
# Indices 1 2 3 4 5 6 
#
# 1 0.013249 -0.002759 0.000299 0.000000 0.000850 0.000000
# 2 -0.002759 0.011202 -0.003490 0.000000 0.001254 0.000000
# 3 0.000299 -0.003490 0.010070 0.000000 -0.002237 0.000000
# 4 0.000000 0.000000 0.000000 0.018395 0.000000 -0.004100
# 5 0.000850 0.001254 -0.002237 0.000000 0.030796 0.000000
# 6 0.000000 0.000000 0.000000 -0.004100 0.000000 0.029976
#
#
# Mechanical properties :
#
#
# Convention : Reuss Voigt Hill
#
# Bulk Modulus (GPa) = 44.20688 46.84089 45.52389
# Shear Modulus (GPa) = 37.55795 40.55381 39.05588
#
# Velocity S-wave (km/s) = 4.00449 4.16113 4.08356
# Velocity P-wave (km/s) = 6.34476 6.56400 6.45531
#
# Compressibility (1/GPa) = 0.02262091
#
# Stress axis : x y z
#
# Youngs Moduli (GPa) = 75.48006 89.26703 99.30841
#
# Poissons Ratio (x) = 0.24632 -0.02974
# Poissons Ratio (y) = 0.20828 0.34658
# Poissons Ratio (z) = -0.02261 0.31154
#
# Static dielectric constant tensor:
#      x y z
#    x 4.010350 0.000000 0.056870 
#    y 0.000000 4.517080 0.000000 
#    z 0.056870 0.000000 4.245020 
# 
# 
# High freq. dielectric constant tensor:
#      x y z
#    x 1.916410 0.000000 0.007230 
#    y 0.000000 1.954240 0.000000 
#    z 0.007230 0.000000 1.940400 
# 
# From -- ./inp_files/873.got.cif
#   From: 2010.03.12/outbox.cif.g09.slc.cpg/sg4_1_cif.got.tgz:873.got - 2010.03.31 09:31:35.
