data_PCOD8047838
_publ_section_title
;
Structure prediction by ZEFSAII (Michael W. Deem and Ramdas Pophale) SiO2 
 PCOD8047838
Probable space group: P 21
;
_chemical_formula_sum "Si O2"
_cell_formula_units_Z 10
_cell_length_a 12.304786
_cell_length_b 5.012635
_cell_length_c 11.692347
_cell_angle_alpha 90.000000
_cell_angle_beta 140.971571
_cell_angle_gamma 90.000000
_cell_volume 454.129399
_symmetry_space_group_name_H-M "P 21"
_symmetry_group_IT_number 4
_symmetry_cell_setting 'monoclinic'
loop_
_space_group_symop_operation_xyz
x,y,z
-x,1/2+y,-z
loop_
_atom_site_type_symbol
_atom_site_label
_atom_site_fract_x
_atom_site_fract_y
_atom_site_fract_z
Si Si1 0.412953 0.067900 0.476715
Si Si2 0.888100 0.510981 0.377129
Si Si3 0.891284 0.495430 0.920874
Si Si4 0.466547 0.067514 0.783630
Si Si5 0.694365 0.550261 0.992165
O O1 0.538115 0.262630 0.508848
O O2 0.218719 0.112095 0.274499
O O3 0.421350 0.132623 0.616418
O O4 0.708261 0.490191 0.296416
O O5 0.989268 0.235225 0.470456
O O6 0.845810 0.566074 0.209843
O O7 0.776975 0.461698 0.940294
O O8 0.955034 0.203941 0.935166
O O9 0.550103 0.331186 0.909022
O O10 0.606104 0.835423 0.908260
#
# Coordination Sequence:
#
# PCOD8047838 Si02
#       5
#     2   2   2   2   2
#     4  12  23  44  67 101 132 172 224 264 326 400
#     4  12  28  46  69 102 131 171 223 284 332 380
#     4  12  26  41  67 101 139 171 213 277 331 386
#     4  12  24  46  72  95 133 180 220 271 322 405
#     4  12  25  47  69  97 133 180 224 262 333 401
#
# _framework density 22.020157000000001
#
# number of rings (size 3 to 8) (size 9 to 14) (size 15 to 20)
#    0.000    0.000    4.000    6.000    5.600    0.000 
#    0.000    0.000    0.000    0.000    0.000    0.000 
#    0.000    0.000    0.000    0.000    0.000    0.000 
#
# Total GULP energy -124089.103346 kJ/mol
# GULP energy per Si atom -12408.910335 kJ/mol
# Density = 2.197004 g / cm^3
# Si number density = 22.020157 Si / 1000 Ang^3
#
#
#
# Elastic Constant Matrix: (Units=GPa)
#
#
# Indices 1 2 3 4 5 6 
#
# 1 63.5172 11.8233 27.5715 0.0000 6.3382 0.0000
# 2 11.8233 83.1941 6.6137 0.0000 2.1493 0.0000
# 3 27.5715 6.6137 111.8614 0.0000 -12.6048 0.0000
# 4 0.0000 0.0000 0.0000 42.0049 0.0000 4.0459
# 5 6.3382 2.1493 -12.6048 0.0000 33.7151 0.0000
# 6 0.0000 0.0000 0.0000 4.0459 0.0000 29.2183
#
#
#
# Elastic Compliance Matrix: (Units=1/GPa)
#
#
# Indices 1 2 3 4 5 6 
#
# 1 0.018903 -0.002140 -0.005134 0.000000 -0.005337 0.000000
# 2 -0.002140 0.012357 -0.000257 0.000000 -0.000482 0.000000
# 3 -0.005134 -0.000257 0.010785 0.000000 0.005014 0.000000
# 4 0.000000 0.000000 0.000000 0.024129 0.000000 -0.003341
# 5 -0.005337 -0.000482 0.005014 0.000000 0.032569 0.000000
# 6 0.000000 0.000000 0.000000 -0.003341 0.000000 0.034688
#
#
# Mechanical properties :
#
#
# Convention : Reuss Voigt Hill
#
# Bulk Modulus (GPa) = 37.06159 38.95439 38.00799
# Shear Modulus (GPa) = 31.74836 35.15861 33.45349
#
# Velocity S-wave (km/s) = 3.80121 4.00015 3.90195
# Velocity P-wave (km/s) = 6.01106 6.25010 6.13174
#
# Compressibility (1/GPa) = 0.02698211
#
# Stress axis : x y z
#
# Youngs Moduli (GPa) = 52.90078 80.92462 92.71925
#
# Poissons Ratio (x) = 0.17322 0.47603
# Poissons Ratio (y) = 0.11323 0.02386
# Poissons Ratio (z) = 0.27160 0.02082
#
# Static dielectric constant tensor:
#      x y z
#    x 3.905400 0.000000 -0.117190 
#    y 0.000000 3.977470 0.000000 
#    z -0.117190 0.000000 4.322280 
# 
# 
# High freq. dielectric constant tensor:
#      x y z
#    x 1.862140 0.000000 -0.003940 
#    y 0.000000 1.881640 0.000000 
#    z -0.003940 0.000000 1.888190 
# 
# From -- ./inp_files/2288.got.cif
#   From: 2010.03.12/outbox.cif.g09.slc.cpg/sg4_2_cif.got.tgz:2288.got - 2010.03.31 09:31:35.
