data_PCOD8047190
_publ_section_title
;
Structure prediction by ZEFSAII (Michael W. Deem and Ramdas Pophale) SiO2 
 PCOD8047190
Probable space group: P 21
;
_chemical_formula_sum "Si O2"
_cell_formula_units_Z 16
_cell_length_a 5.685818
_cell_length_b 9.821696
_cell_length_c 12.507417
_cell_angle_alpha 90.000000
_cell_angle_beta 82.255301
_cell_angle_gamma 90.000000
_cell_volume 692.097721
_symmetry_space_group_name_H-M "P 21"
_symmetry_group_IT_number 4
_symmetry_cell_setting 'monoclinic'
loop_
_space_group_symop_operation_xyz
x,y,z
-x,1/2+y,-z
loop_
_atom_site_type_symbol
_atom_site_label
_atom_site_fract_x
_atom_site_fract_y
_atom_site_fract_z
Si Si1 0.966323 0.714150 0.835420
Si Si2 0.546472 0.124292 0.096941
Si Si3 0.053179 0.844387 0.416502
Si Si4 0.704057 0.815410 0.266611
Si Si5 0.674671 0.834600 0.025185
Si Si6 0.772752 0.822127 0.645865
Si Si7 0.433134 0.049161 0.386485
Si Si8 0.594085 0.100661 0.606878
O O1 0.726185 0.617200 0.837368
O O2 0.976294 0.799765 0.723442
O O3 0.224246 0.642147 0.835825
O O4 0.913360 0.813827 0.939423
O O5 0.594960 0.989706 0.026597
O O6 0.543602 0.248444 0.012071
O O7 0.184645 0.984049 0.441127
O O8 0.202456 0.709564 0.392030
O O9 0.940778 0.871201 0.307168
O O10 0.865787 0.815868 0.520332
O O11 0.733999 0.782777 0.140750
O O12 0.521431 0.942056 0.290937
O O13 0.639708 0.675951 0.334082
O O14 0.582725 0.698652 0.664781
O O15 0.642464 0.965917 0.675072
O O16 0.591623 0.056319 0.483004
#
# Coordination Sequence:
#
# PCOD8047190 Si02
#       8
#     2   2   2   2   2   2   2   2
#     4  10  27  43  72 105 139 183 234 288 352 411
#     4  10  25  49  71 106 135 186 234 294 350 415
#     4  11  24  42  64 101 133 182 228 277 353 419
#     4  11  24  44  70  97 136 186 219 287 349 416
#     4  10  26  47  73 100 142 179 243 288 355 419
#     4  12  23  42  68 100 137 179 226 293 342 418
#     4  11  23  42  65  98 140 174 234 276 349 416
#     4  11  24  43  63 103 138 179 228 285 344 416
#
# _framework density 23.118122
#
# number of rings (size 3 to 8) (size 9 to 14) (size 15 to 20)
#    0.750    0.500    2.500    2.250    5.250    4.000 
#    2.250    0.000    0.000    0.000    0.000    0.000 
#    0.000    0.000    0.000    0.000    0.000    0.000 
#
# Total GULP energy -198229.599328 kJ/mol
# GULP energy per Si atom -12389.349958 kJ/mol
# Density = 2.306550 g / cm^3
# Si number density = 23.118122 Si / 1000 Ang^3
#
#
#
# Elastic Constant Matrix: (Units=GPa)
#
#
# Indices 1 2 3 4 5 6 
#
# 1 101.6407 28.2029 22.2544 0.0000 19.4474 0.0000
# 2 28.2029 145.1542 7.5750 0.0000 7.2518 0.0000
# 3 22.2544 7.5750 95.8891 0.0000 24.8214 0.0000
# 4 0.0000 0.0000 0.0000 24.1258 0.0000 10.7767
# 5 19.4474 7.2518 24.8214 0.0000 28.6981 0.0000
# 6 0.0000 0.0000 0.0000 10.7767 0.0000 26.3893
#
#
#
# Elastic Compliance Matrix: (Units=1/GPa)
#
#
# Indices 1 2 3 4 5 6 
#
# 1 0.011861 -0.001920 -0.000832 0.000000 -0.006832 0.000000
# 2 -0.001920 0.007289 0.000013 0.000000 -0.000552 0.000000
# 3 -0.000832 0.000013 0.013498 0.000000 -0.011113 0.000000
# 4 0.000000 0.000000 0.000000 0.050697 0.000000 -0.020704
# 5 -0.006832 -0.000552 -0.011113 0.000000 0.049227 0.000000
# 6 0.000000 0.000000 0.000000 -0.020704 0.000000 0.046349
#
#
# Mechanical properties :
#
#
# Convention : Reuss Voigt Hill
#
# Bulk Modulus (GPa) = 36.80743 50.97207 43.88975
# Shear Modulus (GPa) = 25.84561 34.81943 30.33252
#
# Velocity S-wave (km/s) = 3.34725 3.88513 3.62618
# Velocity P-wave (km/s) = 5.55831 6.49785 6.04636
#
# Compressibility (1/GPa) = 0.02716843
#
# Stress axis : x y z
#
# Youngs Moduli (GPa) = 84.31131 137.19047 74.08676
#
# Poissons Ratio (x) = 0.26337 0.06167
# Poissons Ratio (y) = 0.16185 -0.00093
# Poissons Ratio (z) = 0.07018 -0.00172
#
# Static dielectric constant tensor:
#      x y z
#    x 4.128680 0.000000 0.077570 
#    y 0.000000 4.286000 0.000000 
#    z 0.077570 0.000000 4.058070 
# 
# 
# High freq. dielectric constant tensor:
#      x y z
#    x 1.901820 0.000000 0.013520 
#    y 0.000000 1.919390 0.000000 
#    z 0.013520 0.000000 1.915390 
# 
# From -- ./inp_files/13266.got.cif
#   From: 2010.03.12/outbox.cif.g09.slc.cpg/sg4_7_cif.got.tgz:13266.got - 2010.03.31 09:31:35.
