data_PCOD8047141
_publ_section_title
;
Structure prediction by ZEFSAII (Michael W. Deem and Ramdas Pophale) SiO2 
 PCOD8047141
Probable space group: P 21
;
_chemical_formula_sum "Si O2"
_cell_formula_units_Z 14
_cell_length_a 6.759841
_cell_length_b 9.867560
_cell_length_c 7.678854
_cell_angle_alpha 90.000000
_cell_angle_beta 81.895807
_cell_angle_gamma 90.000000
_cell_volume 507.088446
_symmetry_space_group_name_H-M "P 21"
_symmetry_group_IT_number 4
_symmetry_cell_setting 'monoclinic'
loop_
_space_group_symop_operation_xyz
x,y,z
-x,1/2+y,-z
loop_
_atom_site_type_symbol
_atom_site_label
_atom_site_fract_x
_atom_site_fract_y
_atom_site_fract_z
Si Si1 0.215897 0.883100 0.164873
Si Si2 0.197976 0.413597 0.666349
Si Si3 0.690523 0.639724 0.200327
Si Si4 0.934895 0.149876 0.053978
Si Si5 0.168340 0.275963 0.312370
Si Si6 0.390841 0.029276 0.428442
Si Si7 0.605780 0.991137 0.945780
O O1 0.130356 0.742146 0.104976
O O2 0.006644 0.978178 0.217548
O O3 0.307869 0.889992 0.350322
O O4 0.391375 0.930560 0.017873
O O5 0.293462 0.301642 0.783384
O O6 0.110522 0.334198 0.507995
O O7 0.367829 0.519687 0.583554
O O8 0.714701 0.552718 0.373563
O O9 0.464102 0.622360 0.157201
O O10 0.857728 0.584246 0.042897
O O11 0.745198 0.041723 0.091375
O O12 0.968399 0.231862 0.230121
O O13 0.329633 0.153770 0.308731
O O14 0.272289 0.389936 0.186150
#
# Coordination Sequence:
#
# PCOD8047141 Si02
#       7
#     2   2   2   2   2   2   2
#     4  11  28  45  79 113 152 204 260 312 389 451
#     4  10  24  53  75 112 157 198 256 320 381 464
#     4  10  24  48  76 113 151 198 255 319 389 445
#     4  11  28  50  74 112 161 197 260 327 375 460
#     4  11  27  49  81 113 149 208 255 311 400 446
#     4  11  24  46  77 113 150 200 258 317 384 459
#     4  12  27  49  76 112 150 201 256 322 380 459
#
# _framework density 27.608594
#
# number of rings (size 3 to 8) (size 9 to 14) (size 15 to 20)
#    0.000    1.143    1.429    1.714   14.000    0.000 
#    2.571    2.857    0.000    0.000    0.000    0.000 
#    0.000    0.000    0.000    0.000    0.000    0.000 
#
# Total GULP energy -173509.672895 kJ/mol
# GULP energy per Si atom -12393.548064 kJ/mol
# Density = 2.754576 g / cm^3
# Si number density = 27.608594 Si / 1000 Ang^3
#
#
#
# Elastic Constant Matrix: (Units=GPa)
#
#
# Indices 1 2 3 4 5 6 
#
# 1 166.0654 60.7597 45.7727 0.0000 7.0331 0.0000
# 2 60.7597 87.0942 32.3529 0.0000 -3.0843 0.0000
# 3 45.7727 32.3529 113.1537 0.0000 0.4827 0.0000
# 4 0.0000 0.0000 0.0000 40.4018 0.0000 0.6672
# 5 7.0331 -3.0843 0.4827 0.0000 47.0590 0.0000
# 6 0.0000 0.0000 0.0000 0.6672 0.0000 50.6172
#
#
#
# Elastic Compliance Matrix: (Units=1/GPa)
#
#
# Indices 1 2 3 4 5 6 
#
# 1 0.008569 -0.005314 -0.001940 0.000000 -0.001609 0.000000
# 2 -0.005314 0.016179 -0.002484 0.000000 0.001880 0.000000
# 3 -0.001940 -0.002484 0.010332 0.000000 0.000021 0.000000
# 4 0.000000 0.000000 0.000000 0.024757 0.000000 -0.000326
# 5 -0.001609 0.001880 0.000021 0.000000 0.021613 0.000000
# 6 0.000000 0.000000 0.000000 -0.000326 0.000000 0.019760
#
#
# Mechanical properties :
#
#
# Convention : Reuss Voigt Hill
#
# Bulk Modulus (GPa) = 64.08901 71.56486 67.82694
# Shear Modulus (GPa) = 39.71769 42.77747 41.24758
#
# Velocity S-wave (km/s) = 3.79700 3.94054 3.86944
# Velocity P-wave (km/s) = 6.51819 6.83238 6.67713
#
# Compressibility (1/GPa) = 0.01560330
#
# Stress axis : x y z
#
# Youngs Moduli (GPa) = 116.69990 61.80999 96.78257
#
# Poissons Ratio (x) = 0.32848 0.18776
# Poissons Ratio (y) = 0.62018 0.24041
# Poissons Ratio (z) = 0.22639 0.15354
#
# Static dielectric constant tensor:
#      x y z
#    x 5.465580 0.000000 0.292410 
#    y 0.000000 5.158000 0.000000 
#    z 0.292410 0.000000 5.296130 
# 
# 
# High freq. dielectric constant tensor:
#      x y z
#    x 2.141490 0.000000 0.017960 
#    y 0.000000 2.111840 0.000000 
#    z 0.017960 0.000000 2.131710 
# 
# From -- ./inp_files/4595.got.cif
#   From: 2010.03.12/outbox.cif.g09.slc.cpg/sg4_3_cif.got.tgz:4595.got - 2010.03.31 09:31:35.
