data_PCOD8047540
_publ_section_title
;
Structure prediction by ZEFSAII (Michael W. Deem and Ramdas Pophale) SiO2 
 PCOD8047540
Probable space group: P 21
;
_chemical_formula_sum "Si O2"
_cell_formula_units_Z 12
_cell_length_a 6.629994
_cell_length_b 8.108038
_cell_length_c 15.152760
_cell_angle_alpha 90.000000
_cell_angle_beta 40.983914
_cell_angle_gamma 90.000000
_cell_volume 534.223844
_symmetry_space_group_name_H-M "P 21"
_symmetry_group_IT_number 4
_symmetry_cell_setting 'monoclinic'
loop_
_space_group_symop_operation_xyz
x,y,z
-x,1/2+y,-z
loop_
_atom_site_type_symbol
_atom_site_label
_atom_site_fract_x
_atom_site_fract_y
_atom_site_fract_z
Si Si1 0.927143 0.355980 0.602330
Si Si2 0.114775 0.705893 0.566012
Si Si3 0.176936 0.389856 0.178491
Si Si4 0.241919 0.380403 0.831427
Si Si5 0.254065 0.141323 0.990396
Si Si6 0.818389 0.696271 0.318414
O O1 0.029219 0.267976 0.478530
O O2 0.590419 0.431183 0.697361
O O3 0.138233 0.508924 0.557934
O O4 0.953713 0.226483 0.674194
O O5 0.473963 0.748519 0.460197
O O6 0.888541 0.773989 0.715790
O O7 0.235443 0.268407 0.077687
O O8 0.873781 0.506319 0.269355
O O9 0.470029 0.510091 0.092132
O O10 0.078635 0.307941 0.798106
O O11 0.062208 0.542953 0.917432
O O12 0.270490 0.242665 0.896095
#
# Coordination Sequence:
#
# PCOD8047540 Si02
#       6
#     2   2   2   2   2   2
#     4  11  24  45  70 105 142 183 242 303 363 428
#     4  11  26  41  75 103 142 188 237 304 367 431
#     4  12  26  46  75 105 148 194 242 300 366 434
#     4  11  26  45  71 102 141 190 242 293 360 432
#     4  12  27  45  74 106 148 197 243 297 362 441
#     4  11  23  48  71 105 143 184 242 303 362 432
#
# _framework density 22.462494
#
# number of rings (size 3 to 8) (size 9 to 14) (size 15 to 20)
#    0.000    0.667    1.667    5.000    7.000    5.333 
#    0.000    0.000    0.000    0.000    0.000    0.000 
#    0.000    0.000    0.000    0.000    0.000    0.000 
#
# Total GULP energy -148766.684753 kJ/mol
# GULP energy per Si atom -12397.223729 kJ/mol
# Density = 2.241137 g / cm^3
# Si number density = 22.462494 Si / 1000 Ang^3
#
#
#
# Elastic Constant Matrix: (Units=GPa)
#
#
# Indices 1 2 3 4 5 6 
#
# 1 85.9954 11.7129 19.4959 0.0000 6.2670 0.0000
# 2 11.7129 92.6328 20.0882 0.0000 -8.4766 0.0000
# 3 19.4959 20.0882 79.4021 0.0000 6.7882 0.0000
# 4 0.0000 0.0000 0.0000 47.8344 0.0000 -0.5004
# 5 6.2670 -8.4766 6.7882 0.0000 21.5713 0.0000
# 6 0.0000 0.0000 0.0000 -0.5004 0.0000 50.9010
#
#
#
# Elastic Compliance Matrix: (Units=1/GPa)
#
#
# Indices 1 2 3 4 5 6 
#
# 1 0.012624 -0.001378 -0.002457 0.000000 -0.003436 0.000000
# 2 -0.001378 0.012257 -0.003297 0.000000 0.006254 0.000000
# 3 -0.002457 -0.003297 0.014471 0.000000 -0.005136 0.000000
# 4 0.000000 0.000000 0.000000 0.020908 0.000000 0.000206
# 5 -0.003436 0.006254 -0.005136 0.000000 0.051430 0.000000
# 6 0.000000 0.000000 0.000000 0.000206 0.000000 0.019648
#
#
# Mechanical properties :
#
#
# Convention : Reuss Voigt Hill
#
# Bulk Modulus (GPa) = 39.86182 40.06936 39.96559
# Shear Modulus (GPa) = 32.47523 37.84354 35.15939
#
# Velocity S-wave (km/s) = 3.80643 4.10902 3.96061
# Velocity P-wave (km/s) = 6.09123 6.35524 6.22463
#
# Compressibility (1/GPa) = 0.02508666
#
# Stress axis : x y z
#
# Youngs Moduli (GPa) = 79.21649 81.58681 69.10512
#
# Poissons Ratio (x) = 0.11240 0.16981
# Poissons Ratio (y) = 0.10914 0.22786
# Poissons Ratio (z) = 0.19466 0.26902
#
# Static dielectric constant tensor:
#      x y z
#    x 3.988430 0.000000 0.092040 
#    y 0.000000 4.112780 0.000000 
#    z 0.092040 0.000000 4.135000 
# 
# 
# High freq. dielectric constant tensor:
#      x y z
#    x 1.886920 0.000000 0.005200 
#    y 0.000000 1.896310 0.000000 
#    z 0.005200 0.000000 1.898260 
# 
# From -- ./inp_files/1032.got.cif
#   From: 2010.03.12/outbox.cif.g09.slc.cpg/sg4_1_cif.got.tgz:1032.got - 2010.03.31 09:31:35.
