data_PCOD8047246
_publ_section_title
;
Structure prediction by ZEFSAII (Michael W. Deem and Ramdas Pophale) SiO2 
 PCOD8047246
Probable space group: P 21
;
_chemical_formula_sum "Si O2"
_cell_formula_units_Z 14
_cell_length_a 8.807341
_cell_length_b 5.279795
_cell_length_c 15.543081
_cell_angle_alpha 90.000000
_cell_angle_beta 126.066128
_cell_angle_gamma 90.000000
_cell_volume 584.240974
_symmetry_space_group_name_H-M "P 21"
_symmetry_group_IT_number 4
_symmetry_cell_setting 'monoclinic'
loop_
_space_group_symop_operation_xyz
x,y,z
-x,1/2+y,-z
loop_
_atom_site_type_symbol
_atom_site_label
_atom_site_fract_x
_atom_site_fract_y
_atom_site_fract_z
Si Si1 0.879139 0.168440 0.963680
Si Si2 0.724303 0.397284 0.748931
Si Si3 0.918038 0.502569 0.512379
Si Si4 0.377850 0.635019 0.958221
Si Si5 0.435791 0.741572 0.599324
Si Si6 0.738783 0.016356 0.608729
Si Si7 0.977676 0.135538 0.263507
O O1 0.747506 0.214107 0.837334
O O2 0.749412 0.195355 0.002700
O O3 0.036491 0.387978 0.018545
O O4 0.549162 0.589803 0.711604
O O5 0.921111 0.533811 0.790329
O O6 0.667029 0.237675 0.646591
O O7 0.693143 0.477430 0.413149
O O8 0.973156 0.780412 0.500187
O O9 0.962187 0.477487 0.630568
O O10 0.245222 0.629494 0.828615
O O11 0.473934 0.362152 0.002321
O O12 0.596550 0.786186 0.581297
O O13 0.275174 0.576114 0.496957
O O14 0.951967 0.925681 0.699700
#
# Coordination Sequence:
#
# PCOD8047246 Si02
#       7
#     2   2   2   2   2   2   2
#     4  12  26  51  80 112 146 194 269 317 368 446
#     4  11  24  41  80 107 141 191 247 322 367 436
#     4  12  28  46  70 102 154 204 242 292 363 472
#     4  12  29  52  79 111 154 199 252 320 389 456
#     4  11  22  40  66 110 144 186 241 296 363 436
#     4  11  20  40  74 104 144 184 239 307 365 441
#     4  11  25  48  73 104 143 204 244 302 391 437
#
# _framework density 23.962716
#
# number of rings (size 3 to 8) (size 9 to 14) (size 15 to 20)
#    0.000    0.571    4.286    3.429    6.000    1.143 
#    2.571    0.000    0.000    0.000    0.000    0.000 
#    0.000    0.000    0.000    0.000    0.000    0.000 
#
# Total GULP energy -173500.639658 kJ/mol
# GULP energy per Si atom -12392.902833 kJ/mol
# Density = 2.390818 g / cm^3
# Si number density = 23.962716 Si / 1000 Ang^3
#
#
#
# Elastic Constant Matrix: (Units=GPa)
#
#
# Indices 1 2 3 4 5 6 
#
# 1 69.9750 13.4521 32.7435 0.0000 6.3159 0.0000
# 2 13.4521 83.8913 17.3647 0.0000 12.3436 0.0000
# 3 32.7435 17.3647 92.2742 0.0000 25.2084 0.0000
# 4 0.0000 0.0000 0.0000 36.5948 0.0000 5.6495
# 5 6.3159 12.3436 25.2084 0.0000 42.4147 0.0000
# 6 0.0000 0.0000 0.0000 5.6495 0.0000 38.5093
#
#
#
# Elastic Compliance Matrix: (Units=1/GPa)
#
#
# Indices 1 2 3 4 5 6 
#
# 1 0.017427 -0.001732 -0.006312 0.000000 0.001660 0.000000
# 2 -0.001732 0.012831 -0.001015 0.000000 -0.002873 0.000000
# 3 -0.006312 -0.001015 0.015437 0.000000 -0.007939 0.000000
# 4 0.000000 0.000000 0.000000 0.027960 0.000000 -0.004102
# 5 0.001660 -0.002873 -0.007939 0.000000 0.028884 0.000000
# 6 0.000000 0.000000 0.000000 -0.004102 0.000000 0.026570
#
#
# Mechanical properties :
#
#
# Convention : Reuss Voigt Hill
#
# Bulk Modulus (GPa) = 36.26208 41.47347 38.86778
# Shear Modulus (GPa) = 31.96544 35.67577 33.82060
#
# Velocity S-wave (km/s) = 3.65631 3.86269 3.76092
# Velocity P-wave (km/s) = 5.74373 6.10237 5.92576
#
# Compressibility (1/GPa) = 0.02757701
#
# Stress axis : x y z
#
# Youngs Moduli (GPa) = 57.38076 77.93765 64.77958
#
# Poissons Ratio (x) = 0.13501 0.40887
# Poissons Ratio (y) = 0.09940 0.06575
# Poissons Ratio (z) = 0.36217 0.07911
#
# Static dielectric constant tensor:
#      x y z
#    x 4.366640 0.000000 0.175580 
#    y 0.000000 4.429760 0.000000 
#    z 0.175580 0.000000 4.365280 
# 
# 
# High freq. dielectric constant tensor:
#      x y z
#    x 1.940870 0.000000 0.011350 
#    y 0.000000 1.962610 0.000000 
#    z 0.011350 0.000000 1.948110 
# 
# From -- ./inp_files/9344.got.cif
#   From: 2010.03.12/outbox.cif.g09.slc.cpg/sg4_5_cif.got.tgz:9344.got - 2010.03.31 09:31:35.
