data_PCOD8047977
_publ_section_title
;
Structure prediction by ZEFSAII (Michael W. Deem and Ramdas Pophale) SiO2 
 PCOD8047977
Probable space group: P 21
;
_chemical_formula_sum "Si O2"
_cell_formula_units_Z 16
_cell_length_a 8.322778
_cell_length_b 9.606850
_cell_length_c 9.289176
_cell_angle_alpha 90.000000
_cell_angle_beta 62.731335
_cell_angle_gamma 90.000000
_cell_volume 660.182110
_symmetry_space_group_name_H-M "P 21"
_symmetry_group_IT_number 4
_symmetry_cell_setting 'monoclinic'
loop_
_space_group_symop_operation_xyz
x,y,z
-x,1/2+y,-z
loop_
_atom_site_type_symbol
_atom_site_label
_atom_site_fract_x
_atom_site_fract_y
_atom_site_fract_z
Si Si1 0.517854 0.240990 0.790175
Si Si2 0.756666 0.882876 0.308628
Si Si3 0.032677 0.672626 0.098595
Si Si4 0.978487 0.437387 0.336435
Si Si5 0.640140 0.945804 0.662774
Si Si6 0.735915 0.501242 0.691313
Si Si7 0.541901 0.211795 0.099195
Si Si8 0.984985 0.140669 0.211301
O O1 0.368151 0.327773 0.767442
O O2 0.692283 0.340037 0.741356
O O3 0.572731 0.104269 0.678219
O O4 0.451263 0.201247 0.977689
O O5 0.651396 0.872781 0.502788
O O6 0.940963 0.791737 0.234183
O O7 0.808011 0.044306 0.263780
O O8 0.994325 0.522435 0.182666
O O9 0.245423 0.693404 0.997589
O O10 0.940136 0.675594 0.978666
O O11 0.164904 0.439872 0.345265
O O12 0.925143 0.279982 0.318874
O O13 0.825075 0.508955 0.496916
O O14 0.496658 0.862665 0.817773
O O15 0.552959 0.593119 0.764817
O O16 0.868056 0.557906 0.758498
#
# Coordination Sequence:
#
# PCOD8047977 Si02
#       8
#     2   2   2   2   2   2   2   2
#     4  12  28  49  79 114 157 205 263 327 384 470
#     4  12  28  49  76 114 157 204 261 320 395 462
#     4  12  28  50  79 117 157 203 257 329 395 464
#     4  12  27  51  79 114 153 208 265 317 397 471
#     4  12  27  51  78 113 153 207 266 319 390 470
#     4  12  26  47  81 110 155 209 254 322 388 467
#     4  12  26  48  79 115 155 204 261 321 396 463
#     4  12  26  47  79 115 153 200 261 325 387 469
#
# _framework density 24.235737
#
# number of rings (size 3 to 8) (size 9 to 14) (size 15 to 20)
#    0.000    0.000    3.750    5.250    1.750    6.000 
#    0.000    0.000    0.000    0.000    0.000    0.000 
#    0.000    0.000    0.000    0.000    0.000    0.000 
#
# Total GULP energy -198499.084821 kJ/mol
# GULP energy per Si atom -12406.192801 kJ/mol
# Density = 2.418058 g / cm^3
# Si number density = 24.235737 Si / 1000 Ang^3
#
#
#
# Elastic Constant Matrix: (Units=GPa)
#
#
# Indices 1 2 3 4 5 6 
#
# 1 105.6952 70.6435 62.1264 0.0000 -5.7846 0.0000
# 2 70.6435 169.1348 62.2703 0.0000 -18.3397 0.0000
# 3 62.1264 62.2703 133.6249 0.0000 -18.7059 0.0000
# 4 0.0000 0.0000 0.0000 48.7790 0.0000 -3.5665
# 5 -5.7846 -18.3397 -18.7059 0.0000 28.4542 0.0000
# 6 0.0000 0.0000 0.0000 -3.5665 0.0000 44.2780
#
#
#
# Elastic Compliance Matrix: (Units=1/GPa)
#
#
# Indices 1 2 3 4 5 6 
#
# 1 0.015853 -0.004967 -0.005565 0.000000 -0.003637 0.000000
# 2 -0.004967 0.008880 -0.001288 0.000000 0.003867 0.000000
# 3 -0.005565 -0.001288 0.011450 0.000000 0.005566 0.000000
# 4 0.000000 0.000000 0.000000 0.020622 0.000000 0.001661
# 5 -0.003637 0.003867 0.005566 0.000000 0.040557 0.000000
# 6 0.000000 0.000000 0.000000 0.001661 0.000000 0.022718
#
#
# Mechanical properties :
#
#
# Convention : Reuss Voigt Hill
#
# Bulk Modulus (GPa) = 79.71696 88.72613 84.22155
# Shear Modulus (GPa) = 33.80631 38.52989 36.16810
#
# Velocity S-wave (km/s) = 3.73888 3.99155 3.86728
# Velocity P-wave (km/s) = 7.18350 7.61133 7.40051
#
# Compressibility (1/GPa) = 0.01254438
#
# Stress axis : x y z
#
# Youngs Moduli (GPa) = 63.08003 112.60728 87.33410
#
# Poissons Ratio (x) = 0.55930 0.48602
# Poissons Ratio (y) = 0.31331 0.11246
# Poissons Ratio (z) = 0.35104 0.14501
#
# Static dielectric constant tensor:
#      x y z
#    x 4.225270 0.000000 0.027930 
#    y 0.000000 4.708030 0.000000 
#    z 0.027930 0.000000 4.671440 
# 
# 
# High freq. dielectric constant tensor:
#      x y z
#    x 1.959320 0.000000 0.000900 
#    y 0.000000 1.978100 0.000000 
#    z 0.000900 0.000000 1.976170 
# 
# From -- ./inp_files/5785.got.cif
#   From: 2010.03.12/outbox.cif.g09.slc.cpg/sg4_3_cif.got.tgz:5785.got - 2010.03.31 09:31:35.
