data_PCOD8047885
_publ_section_title
;
Structure prediction by ZEFSAII (Michael W. Deem and Ramdas Pophale) SiO2 
 PCOD8047885
Probable space group: P 21
;
_chemical_formula_sum "Si O2"
_cell_formula_units_Z 14
_cell_length_a 20.692596
_cell_length_b 5.983525
_cell_length_c 6.950607
_cell_angle_alpha 90.000000
_cell_angle_beta 134.146911
_cell_angle_gamma 90.000000
_cell_volume 617.519662
_symmetry_space_group_name_H-M "P 21"
_symmetry_group_IT_number 4
_symmetry_cell_setting 'monoclinic'
loop_
_space_group_symop_operation_xyz
x,y,z
-x,1/2+y,-z
loop_
_atom_site_type_symbol
_atom_site_label
_atom_site_fract_x
_atom_site_fract_y
_atom_site_fract_z
Si Si1 0.888927 0.694950 0.124721
Si Si2 0.684754 0.892513 0.192748
Si Si3 0.654089 0.222566 0.452795
Si Si4 0.510559 0.768510 0.628528
Si Si5 0.780404 0.077938 0.044824
Si Si6 0.796340 0.515573 0.579367
Si Si7 0.077628 0.868745 0.485069
O O1 0.922536 0.597318 0.396403
O O2 0.975536 0.816863 0.211372
O O3 0.801416 0.841841 0.990840
O O4 0.852659 0.522464 0.892910
O O5 0.773216 0.752240 0.435382
O O6 0.643483 0.000791 0.300753
O O7 0.722517 0.072978 0.120265
O O8 0.609451 0.748026 0.924959
O O9 0.557771 0.292924 0.335425
O O10 0.697868 0.406814 0.404250
O O11 0.721017 0.211195 0.770953
O O12 0.494620 0.519689 0.492018
O O13 0.878085 0.185539 0.282795
O O14 0.860754 0.375423 0.575112
#
# Coordination Sequence:
#
# PCOD8047885 Si02
#       7
#     2   2   2   2   2   2   2
#     4  12  26  44  71 105 146 192 245 311 373 443
#     4  12  28  48  77 109 150 195 252 309 383 458
#     4  12  28  48  77 109 150 195 252 309 383 458
#     4  12  32  52  80 116 160 202 256 322 388 466
#     4  12  24  48  72 102 144 196 242 296 382 450
#     4  12  28  44  76 108 148 194 252 308 376 460
#     4  12  26  44  71 105 146 192 245 311 373 443
#
# _framework density 22.671344000000001
#
# number of rings (size 3 to 8) (size 9 to 14) (size 15 to 20)
#    0.000    0.000    8.571    0.000   10.000    3.429 
#    0.000    0.000    0.000    0.000    0.000    0.000 
#    0.000    0.000    0.000    0.000    0.000    0.000 
#
# Total GULP energy -173471.234389 kJ/mol
# GULP energy per Si atom -12390.802456 kJ/mol
# Density = 2.261974 g / cm^3
# Si number density = 22.671344 Si / 1000 Ang^3
#
#
#
# Elastic Constant Matrix: (Units=GPa)
#
#
# Indices 1 2 3 4 5 6 
#
# 1 144.3814 27.1217 21.4564 0.0000 -4.9518 0.0000
# 2 27.1217 74.1920 7.5666 0.0000 -6.6085 0.0000
# 3 21.4564 7.5666 72.7000 0.0000 1.2716 0.0000
# 4 0.0000 0.0000 0.0000 30.8680 0.0000 0.4488
# 5 -4.9518 -6.6085 1.2716 0.0000 37.0846 0.0000
# 6 0.0000 0.0000 0.0000 0.4488 0.0000 35.7352
#
#
#
# Elastic Compliance Matrix: (Units=1/GPa)
#
#
# Indices 1 2 3 4 5 6 
#
# 1 0.007731 -0.002562 -0.002026 0.000000 0.000645 0.000000
# 2 -0.002562 0.014704 -0.000815 0.000000 0.002306 0.000000
# 3 -0.002026 -0.000815 0.014454 0.000000 -0.000911 0.000000
# 4 0.000000 0.000000 0.000000 0.032402 0.000000 -0.000407
# 5 0.000645 0.002306 -0.000911 0.000000 0.027494 0.000000
# 6 0.000000 0.000000 0.000000 -0.000407 0.000000 0.027989
#
#
# Mechanical properties :
#
#
# Convention : Reuss Voigt Hill
#
# Bulk Modulus (GPa) = 38.33965 44.84032 41.58999
# Shear Modulus (GPa) = 34.65677 36.41281 35.53479
#
# Velocity S-wave (km/s) = 3.91405 4.01199 3.96332
# Velocity P-wave (km/s) = 6.11344 6.42516 6.27124
#
# Compressibility (1/GPa) = 0.02608266
#
# Stress axis : x y z
#
# Youngs Moduli (GPa) = 129.35633 68.01083 69.18558
#
# Poissons Ratio (x) = 0.17424 0.14019
# Poissons Ratio (y) = 0.33140 0.05636
# Poissons Ratio (z) = 0.26210 0.05540
#
# Static dielectric constant tensor:
#      x y z
#    x 4.196040 0.000000 -0.015780 
#    y 0.000000 4.210720 0.000000 
#    z -0.015780 0.000000 4.023530 
# 
# 
# High freq. dielectric constant tensor:
#      x y z
#    x 1.908890 0.000000 -0.001080 
#    y 0.000000 1.886860 0.000000 
#    z -0.001080 0.000000 1.899520 
# 
# From -- ./inp_files/3297.got.cif
#   From: 2010.03.12/outbox.cif.g09.slc.cpg/sg4_2_cif.got.tgz:3297.got - 2010.03.31 09:31:35.
