data_PCOD8047872
_publ_section_title
;
Structure prediction by ZEFSAII (Michael W. Deem and Ramdas Pophale) SiO2 
 PCOD8047872
Probable space group: P 21
;
_chemical_formula_sum "Si O2"
_cell_formula_units_Z 16
_cell_length_a 11.173496
_cell_length_b 9.313520
_cell_length_c 6.788983
_cell_angle_alpha 90.000000
_cell_angle_beta 93.382037
_cell_angle_gamma 90.000000
_cell_volume 705.262207
_symmetry_space_group_name_H-M "P 21"
_symmetry_group_IT_number 4
_symmetry_cell_setting 'monoclinic'
loop_
_space_group_symop_operation_xyz
x,y,z
-x,1/2+y,-z
loop_
_atom_site_type_symbol
_atom_site_label
_atom_site_fract_x
_atom_site_fract_y
_atom_site_fract_z
Si Si1 0.080323 0.287290 0.425471
Si Si2 0.153103 0.768097 0.353385
Si Si3 0.265108 0.390648 0.766148
Si Si4 0.356042 0.101350 0.908484
Si Si5 0.521058 0.087233 0.288953
Si Si6 0.389537 0.879186 0.569640
Si Si7 0.877251 0.552892 0.863043
Si Si8 0.889135 0.008533 0.898374
O O1 0.168707 0.361857 0.587912
O O2 0.140719 0.145067 0.338438
O O3 0.051380 0.395979 0.245962
O O4 0.958844 0.236530 0.516383
O O5 0.262255 0.816448 0.497551
O O6 0.186156 0.625681 0.232942
O O7 0.119241 0.886973 0.190676
O O8 0.352961 0.253943 0.796559
O O9 0.343846 0.527405 0.710463
O O10 0.199870 0.424922 0.965284
O O11 0.376837 0.968949 0.766621
O O12 0.467120 0.101596 0.066868
O O13 0.228479 0.085235 0.998332
O O14 0.521576 0.244887 0.387037
O O15 0.438233 0.980063 0.403083
O O16 0.003827 0.590633 0.977985
#
# Coordination Sequence:
#
# PCOD8047872 Si02
#       8
#     2   2   2   2   2   2   2   2
#     4  12  25  48  73 108 149 193 240 299 377 435
#     4  12  25  44  76 107 147 190 238 301 366 441
#     4  12  27  47  75 106 145 197 242 302 367 434
#     4  12  26  49  73 103 142 194 246 300 363 431
#     4  12  29  47  75 105 144 194 246 308 357 432
#     4  12  28  49  75 107 145 192 248 303 366 432
#     4  12  24  45  73 106 146 191 239 296 368 436
#     4  12  26  45  70 112 150 187 241 303 368 441
#
# _framework density 22.686596999999999
#
# number of rings (size 3 to 8) (size 9 to 14) (size 15 to 20)
#    0.000    0.000    3.750    6.000    5.250    4.000 
#    0.000    0.000    0.000    0.000    0.000    0.000 
#    0.000    0.000    0.000    0.000    0.000    0.000 
#
# Total GULP energy -198540.024102 kJ/mol
# GULP energy per Si atom -12408.751506 kJ/mol
# Density = 2.263496 g / cm^3
# Si number density = 22.686597 Si / 1000 Ang^3
#
#
#
# Elastic Constant Matrix: (Units=GPa)
#
#
# Indices 1 2 3 4 5 6 
#
# 1 77.2461 12.8103 27.7614 0.0000 8.9180 0.0000
# 2 12.8103 121.7654 37.5472 0.0000 0.7870 0.0000
# 3 27.7614 37.5472 101.3795 0.0000 14.0475 0.0000
# 4 0.0000 0.0000 0.0000 55.2025 0.0000 -0.0394
# 5 8.9180 0.7870 14.0475 0.0000 33.0289 0.0000
# 6 0.0000 0.0000 0.0000 -0.0394 0.0000 32.5044
#
#
#
# Elastic Compliance Matrix: (Units=1/GPa)
#
#
# Indices 1 2 3 4 5 6 
#
# 1 0.014552 -0.000441 -0.003484 0.000000 -0.002437 0.000000
# 2 -0.000441 0.009339 -0.003532 0.000000 0.001399 0.000000
# 3 -0.003484 -0.003532 0.012735 0.000000 -0.004391 0.000000
# 4 0.000000 0.000000 0.000000 0.018115 0.000000 0.000022
# 5 -0.002437 0.001399 -0.004391 0.000000 0.032769 0.000000
# 6 0.000000 0.000000 0.000000 0.000022 0.000000 0.030765
#
#
# Mechanical properties :
#
#
# Convention : Reuss Voigt Hill
#
# Bulk Modulus (GPa) = 46.05712 50.73652 48.39682
# Shear Modulus (GPa) = 35.60606 38.96530 37.28568
#
# Velocity S-wave (km/s) = 3.96596 4.14883 4.05842
# Velocity P-wave (km/s) = 6.42785 6.73521 6.58332
#
# Compressibility (1/GPa) = 0.02171217
#
# Stress axis : x y z
#
# Youngs Moduli (GPa) = 68.71822 107.07859 78.52681
#
# Poissons Ratio (x) = 0.04721 0.27358
# Poissons Ratio (y) = 0.03030 0.27735
# Poissons Ratio (z) = 0.23941 0.37819
#
# Static dielectric constant tensor:
#      x y z
#    x 3.977230 0.000000 -0.019060 
#    y 0.000000 4.344820 0.000000 
#    z -0.019060 0.000000 4.211080 
# 
# 
# High freq. dielectric constant tensor:
#      x y z
#    x 1.890960 0.000000 0.001510 
#    y 0.000000 1.915700 0.000000 
#    z 0.001510 0.000000 1.910360 
# 
# From -- ./inp_files/2568.got.cif
#   From: 2010.03.12/outbox.cif.g09.slc.cpg/sg4_2_cif.got.tgz:2568.got - 2010.03.31 09:31:35.
