data_PCOD8047638
_publ_section_title
;
Structure prediction by ZEFSAII (Michael W. Deem and Ramdas Pophale) SiO2 
 PCOD8047638
Probable space group: P 21
;
_chemical_formula_sum "Si O2"
_cell_formula_units_Z 16
_cell_length_a 11.621835
_cell_length_b 9.286770
_cell_length_c 8.930740
_cell_angle_alpha 90.000000
_cell_angle_beta 42.923952
_cell_angle_gamma 90.000000
_cell_volume 656.434198
_symmetry_space_group_name_H-M "P 21"
_symmetry_group_IT_number 4
_symmetry_cell_setting 'monoclinic'
loop_
_space_group_symop_operation_xyz
x,y,z
-x,1/2+y,-z
loop_
_atom_site_type_symbol
_atom_site_label
_atom_site_fract_x
_atom_site_fract_y
_atom_site_fract_z
Si Si1 0.957676 0.578220 0.229555
Si Si2 0.319224 0.514309 0.433305
Si Si3 0.917994 0.147416 0.568579
Si Si4 0.419208 0.794426 0.801088
Si Si5 0.403105 0.019133 0.296724
Si Si6 0.879563 0.851436 0.137133
Si Si7 0.809834 0.442850 0.763507
Si Si8 0.516834 0.764759 0.381464
O O1 0.758781 0.575019 0.456078
O O2 0.992516 0.722522 0.099210
O O3 0.067596 0.587416 0.276533
O O4 0.012120 0.433903 0.091332
O O5 0.252764 0.595239 0.349507
O O6 0.414473 0.370944 0.289296
O O7 0.169133 0.468016 0.688910
O O8 0.462326 0.604875 0.385599
O O9 0.917013 0.321937 0.567814
O O10 0.072722 0.082547 0.322191
O O11 0.440113 0.629468 0.835255
O O12 0.411780 0.806708 0.629678
O O13 0.249120 0.868042 0.026610
O O14 0.354813 0.995756 0.169827
O O15 0.464412 0.867626 0.298114
O O16 0.716141 0.775483 0.219365
#
# Coordination Sequence:
#
# PCOD8047638 Si02
#       8
#     2   2   2   2   2   2   2   2
#     4  11  26  48  72 107 149 191 239 302 361 433
#     4  11  24  48  72 106 148 185 246 296 358 438
#     4  11  26  49  68 108 145 188 242 294 363 439
#     4  11  25  45  74 103 141 189 239 300 358 428
#     4  11  24  48  69 106 146 182 244 296 363 427
#     4  11  26  45  76 108 144 194 239 299 368 429
#     4  11  27  45  74 100 145 194 230 303 358 432
#     4  11  24  46  73 110 140 187 241 304 355 428
#
# _framework density 24.374110999999999
#
# number of rings (size 3 to 8) (size 9 to 14) (size 15 to 20)
#    0.000    1.000    3.750    2.250    8.750    1.000 
#    4.500    0.000    0.000    0.000    0.000    0.000 
#    0.000    0.000    0.000    0.000    0.000    0.000 
#
# Total GULP energy -198415.446858 kJ/mol
# GULP energy per Si atom -12400.965429 kJ/mol
# Density = 2.431863 g / cm^3
# Si number density = 24.374111 Si / 1000 Ang^3
#
#
#
# Elastic Constant Matrix: (Units=GPa)
#
#
# Indices 1 2 3 4 5 6 
#
# 1 94.9138 14.4818 9.6448 0.0000 10.9180 0.0000
# 2 14.4818 76.1291 18.5889 0.0000 2.9206 0.0000
# 3 9.6448 18.5889 79.3697 0.0000 -1.9760 0.0000
# 4 0.0000 0.0000 0.0000 43.6870 0.0000 -4.9985
# 5 10.9180 2.9206 -1.9760 0.0000 17.8537 0.0000
# 6 0.0000 0.0000 0.0000 -4.9985 0.0000 37.2204
#
#
#
# Elastic Compliance Matrix: (Units=1/GPa)
#
#
# Indices 1 2 3 4 5 6 
#
# 1 0.011721 -0.001665 -0.001209 0.000000 -0.007029 0.000000
# 2 -0.001665 0.014295 -0.003187 0.000000 -0.001673 0.000000
# 3 -0.001209 -0.003187 0.013561 0.000000 0.002762 0.000000
# 4 0.000000 0.000000 0.000000 0.023247 0.000000 0.003122
# 5 -0.007029 -0.001673 0.002762 0.000000 0.060889 0.000000
# 6 0.000000 0.000000 0.000000 0.003122 0.000000 0.027286
#
#
# Mechanical properties :
#
#
# Convention : Reuss Voigt Hill
#
# Bulk Modulus (GPa) = 36.42370 37.31594 36.86982
# Shear Modulus (GPa) = 29.02345 33.59871 31.31108
#
# Velocity S-wave (km/s) = 3.45447 3.71679 3.58803
# Velocity P-wave (km/s) = 5.55762 5.81053 5.68548
#
# Compressibility (1/GPa) = 0.02745465
#
# Stress axis : x y z
#
# Youngs Moduli (GPa) = 85.31415 69.95597 73.73829
#
# Poissons Ratio (x) = 0.11646 0.08918
# Poissons Ratio (y) = 0.14202 0.23502
# Poissons Ratio (z) = 0.10318 0.22297
#
# Static dielectric constant tensor:
#      x y z
#    x 4.387380 0.000000 0.040000 
#    y 0.000000 4.479640 0.000000 
#    z 0.040000 0.000000 4.159840 
# 
# 
# High freq. dielectric constant tensor:
#      x y z
#    x 1.974870 0.000000 0.002860 
#    y 0.000000 1.979880 0.000000 
#    z 0.002860 0.000000 1.947400 
# 
# From -- ./inp_files/8005.got.cif
#   From: 2010.03.12/outbox.cif.g09.slc.cpg/sg4_5_cif.got.tgz:8005.got - 2010.03.31 09:31:35.
