data_PCOD8047152
_publ_section_title
;
Structure prediction by ZEFSAII (Michael W. Deem and Ramdas Pophale) SiO2 
 PCOD8047152
Probable space group: P 21
;
_chemical_formula_sum "Si O2"
_cell_formula_units_Z 14
_cell_length_a 8.660396
_cell_length_b 11.931086
_cell_length_c 8.719608
_cell_angle_alpha 90.000000
_cell_angle_beta 135.614536
_cell_angle_gamma 90.000000
_cell_volume 630.218671
_symmetry_space_group_name_H-M "P 21"
_symmetry_group_IT_number 4
_symmetry_cell_setting 'monoclinic'
loop_
_space_group_symop_operation_xyz
x,y,z
-x,1/2+y,-z
loop_
_atom_site_type_symbol
_atom_site_label
_atom_site_fract_x
_atom_site_fract_y
_atom_site_fract_z
Si Si1 0.702189 0.542230 0.429947
Si Si2 0.843472 0.024408 0.401316
Si Si3 0.606783 0.766026 0.491881
Si Si4 0.045414 0.875180 0.798868
Si Si5 0.496035 0.381036 0.037374
Si Si6 0.299604 0.962994 0.231457
Si Si7 0.511048 0.685532 0.751111
O O1 0.566876 0.658315 0.355064
O O2 0.560394 0.470886 0.211621
O O3 0.725499 0.479307 0.607548
O O4 0.950945 0.562072 0.554229
O O5 0.726097 0.140649 0.362162
O O6 0.930245 0.971907 0.619927
O O7 0.690014 0.934577 0.202633
O O8 0.873766 0.772933 0.691825
O O9 0.503304 0.877582 0.343977
O O10 0.492527 0.748959 0.575931
O O11 0.284356 0.843648 0.899140
O O12 0.077897 0.913641 0.998925
O O13 0.399139 0.270313 0.053896
O O14 0.335734 0.076727 0.160052
#
# Coordination Sequence:
#
# PCOD8047152 Si02
#       7
#     2   2   2   2   2   2   2
#     4  10  25  42  69 103 132 179 232 275 348 399
#     4  11  24  46  67 101 142 176 228 282 333 414
#     4  11  23  44  70  99 138 175 229 286 339 406
#     4  11  23  44  67 100 138 177 226 276 347 402
#     4  11  23  44  71 100 135 182 224 280 341 404
#     4  11  23  47  66 105 134 178 225 285 336 407
#     4  11  23  45  70  98 139 175 222 284 338 394
#
# _framework density 22.214511000000002
#
# number of rings (size 3 to 8) (size 9 to 14) (size 15 to 20)
#    0.000    1.143    4.286    0.857    2.000    3.429 
#   10.286    0.000    0.000    0.000    0.000    0.000 
#    0.000    0.000    0.000    0.000    0.000    0.000 
#
# Total GULP energy -173542.163405 kJ/mol
# GULP energy per Si atom -12395.868815 kJ/mol
# Density = 2.216395 g / cm^3
# Si number density = 22.214511 Si / 1000 Ang^3
#
#
#
# Elastic Constant Matrix: (Units=GPa)
#
#
# Indices 1 2 3 4 5 6 
#
# 1 91.9445 32.5123 27.8116 0.0000 -3.4558 0.0000
# 2 32.5123 93.3840 20.8694 0.0000 -2.5651 0.0000
# 3 27.8116 20.8694 99.0562 0.0000 -5.4437 0.0000
# 4 0.0000 0.0000 0.0000 12.2451 0.0000 1.5469
# 5 -3.4558 -2.5651 -5.4437 0.0000 19.5361 0.0000
# 6 0.0000 0.0000 0.0000 1.5469 0.0000 34.3818
#
#
#
# Elastic Compliance Matrix: (Units=1/GPa)
#
#
# Indices 1 2 3 4 5 6 
#
# 1 0.013152 -0.003923 -0.002810 0.000000 0.001029 0.000000
# 2 -0.003923 0.012421 -0.001487 0.000000 0.000523 0.000000
# 3 -0.002810 -0.001487 0.011333 0.000000 0.002466 0.000000
# 4 0.000000 0.000000 0.000000 0.082132 0.000000 -0.003695
# 5 0.001029 0.000523 0.002466 0.000000 0.052125 0.000000
# 6 0.000000 0.000000 0.000000 -0.003695 0.000000 0.029251
#
#
# Mechanical properties :
#
#
# Convention : Reuss Voigt Hill
#
# Bulk Modulus (GPa) = 48.85852 49.64125 49.24988
# Shear Modulus (GPa) = 22.35392 26.77868 24.56630
#
# Velocity S-wave (km/s) = 3.17563 3.47574 3.32907
# Velocity P-wave (km/s) = 5.95717 6.20504 6.08237
#
# Compressibility (1/GPa) = 0.02046726
#
# Stress axis : x y z
#
# Youngs Moduli (GPa) = 76.03549 80.51001 88.23905
#
# Poissons Ratio (x) = 0.31582 0.24792
# Poissons Ratio (y) = 0.29827 0.13119
# Poissons Ratio (z) = 0.21363 0.11970
#
# Static dielectric constant tensor:
#      x y z
#    x 4.205730 0.000000 -0.129020 
#    y 0.000000 4.036180 0.000000 
#    z -0.129020 0.000000 3.967750 
# 
# 
# High freq. dielectric constant tensor:
#      x y z
#    x 1.886470 0.000000 -0.015450 
#    y 0.000000 1.878920 0.000000 
#    z -0.015450 0.000000 1.866270 
# 
# From -- ./inp_files/1107.got.cif
#   From: 2010.03.12/outbox.cif.g09.slc.cpg/sg4_1_cif.got.tgz:1107.got - 2010.03.31 09:31:35.
