data_PCOD8047439
_publ_section_title
;
Structure prediction by ZEFSAII (Michael W. Deem and Ramdas Pophale) SiO2 
 PCOD8047439
Probable space group: P 21
;
_chemical_formula_sum "Si O2"
_cell_formula_units_Z 16
_cell_length_a 11.956678
_cell_length_b 6.033506
_cell_length_c 18.931882
_cell_angle_alpha 90.000000
_cell_angle_beta 148.575160
_cell_angle_gamma 90.000000
_cell_volume 712.078924
_symmetry_space_group_name_H-M "P 21"
_symmetry_group_IT_number 4
_symmetry_cell_setting 'monoclinic'
loop_
_space_group_symop_operation_xyz
x,y,z
-x,1/2+y,-z
loop_
_atom_site_type_symbol
_atom_site_label
_atom_site_fract_x
_atom_site_fract_y
_atom_site_fract_z
Si Si1 0.458710 0.592690 0.204690
Si Si2 0.210895 0.323995 0.299967
Si Si3 0.389440 0.337222 0.931697
Si Si4 0.270041 0.716532 0.598762
Si Si5 0.424257 0.501836 0.544389
Si Si6 0.193196 0.382643 0.672635
Si Si7 0.224455 0.711859 0.210793
Si Si8 0.131267 0.480066 0.914198
O O1 0.520130 0.369639 0.279640
O O2 0.685534 0.707641 0.311850
O O3 0.296061 0.725496 0.167909
O O4 0.341120 0.568733 0.066769
O O5 0.234430 0.457121 0.386154
O O6 0.438086 0.209171 0.407685
O O7 0.158280 0.472137 0.203383
O O8 0.004655 0.169223 0.198411
O O9 0.286574 0.378402 0.800806
O O10 0.208441 0.311610 0.894702
O O11 0.497353 0.589530 0.006075
O O12 0.320839 0.538618 0.565542
O O13 0.230877 0.618211 0.655601
O O14 0.059422 0.844133 0.459852
O O15 0.580177 0.290581 0.634088
O O16 0.016932 0.866807 0.106384
#
# Coordination Sequence:
#
# PCOD8047439 Si02
#       8
#     2   2   2   2   2   2   2   2
#     4  12  25  50  70 104 151 188 250 321 379 462
#     4  11  24  43  69 105 145 195 243 302 394 455
#     4  12  29  54  79 110 155 209 256 318 391 463
#     4  12  26  44  74 109 139 199 254 320 391 455
#     4  11  23  42  70 104 145 187 242 314 379 463
#     4  12  27  46  78 105 149 199 263 317 389 464
#     4  11  25  42  72 105 143 189 243 307 390 457
#     4  11  29  45  72 110 145 200 251 313 389 465
#
# _framework density 22.469418000000001
#
# number of rings (size 3 to 8) (size 9 to 14) (size 15 to 20)
#    0.000    0.500    6.250    0.750    5.250    3.000 
#    0.000    0.000    0.000    0.000    0.000    0.000 
#    0.000    0.000    0.000    0.000    0.000    0.000 
#
# Total GULP energy -198294.367580 kJ/mol
# GULP energy per Si atom -12393.397974 kJ/mol
# Density = 2.241828 g / cm^3
# Si number density = 22.469418 Si / 1000 Ang^3
#
#
#
# Elastic Constant Matrix: (Units=GPa)
#
#
# Indices 1 2 3 4 5 6 
#
# 1 112.1273 14.0264 27.8429 0.0000 -6.4967 0.0000
# 2 14.0264 84.2109 28.6186 0.0000 1.0042 0.0000
# 3 27.8429 28.6186 105.9199 0.0000 -6.9921 0.0000
# 4 0.0000 0.0000 0.0000 23.2137 0.0000 -3.9353
# 5 -6.4967 1.0042 -6.9921 0.0000 40.6986 0.0000
# 6 0.0000 0.0000 0.0000 -3.9353 0.0000 37.6283
#
#
#
# Elastic Compliance Matrix: (Units=1/GPa)
#
#
# Indices 1 2 3 4 5 6 
#
# 1 0.009647 -0.000865 -0.002224 0.000000 0.001179 0.000000
# 2 -0.000865 0.013189 -0.003405 0.000000 -0.001049 0.000000
# 3 -0.002224 -0.003405 0.011053 0.000000 0.001628 0.000000
# 4 0.000000 0.000000 0.000000 0.043855 0.000000 0.004587
# 5 0.001179 -0.001049 0.001628 0.000000 0.025065 0.000000
# 6 0.000000 0.000000 0.000000 0.004587 0.000000 0.027055
#
#
# Mechanical properties :
#
#
# Convention : Reuss Voigt Hill
#
# Bulk Modulus (GPa) = 47.84682 49.24821 48.54752
# Shear Modulus (GPa) = 33.37311 35.75948 34.56629
#
# Velocity S-wave (km/s) = 3.85810 3.99366 3.92646
# Velocity P-wave (km/s) = 6.41771 6.57504 6.49685
#
# Compressibility (1/GPa) = 0.02090003
#
# Stress axis : x y z
#
# Youngs Moduli (GPa) = 103.65581 75.82186 90.47008
#
# Poissons Ratio (x) = 0.06558 0.20124
# Poissons Ratio (y) = 0.08966 0.30808
# Poissons Ratio (z) = 0.23057 0.25820
#
# Static dielectric constant tensor:
#      x y z
#    x 4.116310 0.000000 0.086560 
#    y 0.000000 4.269190 0.000000 
#    z 0.086560 0.000000 3.899410 
# 
# 
# High freq. dielectric constant tensor:
#      x y z
#    x 1.901660 0.000000 -0.001610 
#    y 0.000000 1.883110 0.000000 
#    z -0.001610 0.000000 1.883770 
# 
# From -- ./inp_files/7368.got.cif
#   From: 2010.03.12/outbox.cif.g09.slc.cpg/sg4_4_cif.got.tgz:7368.got - 2010.03.31 09:31:35.
