data_PCOD8047679
_publ_section_title
;
Structure prediction by ZEFSAII (Michael W. Deem and Ramdas Pophale) SiO2 
 PCOD8047679
Probable space group: P 21
;
_chemical_formula_sum "Si O2"
_cell_formula_units_Z 14
_cell_length_a 9.161000
_cell_length_b 13.767725
_cell_length_c 5.464665
_cell_angle_alpha 90.000000
_cell_angle_beta 57.888473
_cell_angle_gamma 90.000000
_cell_volume 583.794109
_symmetry_space_group_name_H-M "P 21"
_symmetry_group_IT_number 4
_symmetry_cell_setting 'monoclinic'
loop_
_space_group_symop_operation_xyz
x,y,z
-x,1/2+y,-z
loop_
_atom_site_type_symbol
_atom_site_label
_atom_site_fract_x
_atom_site_fract_y
_atom_site_fract_z
Si Si1 0.080547 0.818600 0.215816
Si Si2 0.589131 0.705108 0.280666
Si Si3 0.587151 0.378952 0.291701
Si Si4 0.044076 0.222308 0.174959
Si Si5 0.024057 0.526065 0.572434
Si Si6 0.697785 0.541845 0.522178
Si Si7 0.592805 0.035135 0.835364
O O1 0.044479 0.763453 0.501102
O O2 0.981959 0.920893 0.301265
O O3 0.288867 0.830920 0.023774
O O4 0.023608 0.765867 0.017956
O O5 0.485042 0.797847 0.463654
O O6 0.679286 0.648359 0.423912
O O7 0.460063 0.634509 0.253016
O O8 0.750288 0.739811 0.971082
O O9 0.713838 0.454872 0.314511
O O10 0.431568 0.440166 0.313399
O O11 0.000082 0.107464 0.196276
O O12 0.870250 0.541675 0.521588
O O13 0.206740 0.540764 0.271576
O O14 0.522907 0.520441 0.824859
#
# Coordination Sequence:
#
# PCOD8047679 Si02
#       7
#     2   2   2   2   2   2   2
#     4  12  27  47  76 115 151 205 257 317 392 466
#     4  11  25  48  73 108 154 198 257 323 382 471
#     4  11  25  48  73 108 154 198 257 323 382 471
#     4  12  27  47  76 115 151 205 257 317 392 466
#     4  12  25  50  76 109 157 200 258 324 393 460
#     4  11  24  49  74 107 153 199 260 318 393 457
#     4  11  25  45  74 108 140 207 248 320 390 457
#
# _framework density 23.981055000000001
#
# number of rings (size 3 to 8) (size 9 to 14) (size 15 to 20)
#    0.000    0.571    2.857    4.286    4.000    2.286 
#   10.286    0.000    0.000    0.000    0.000    0.000 
#    0.000    0.000    0.000    0.000    0.000    0.000 
#
# Total GULP energy -173627.174851 kJ/mol
# GULP energy per Si atom -12401.941061 kJ/mol
# Density = 2.392647 g / cm^3
# Si number density = 23.981055 Si / 1000 Ang^3
#
#
#
# Elastic Constant Matrix: (Units=GPa)
#
#
# Indices 1 2 3 4 5 6 
#
# 1 89.6073 12.7758 31.2260 0.0000 -10.4899 0.0000
# 2 12.7758 114.5196 6.5033 0.0000 15.0621 0.0000
# 3 31.2260 6.5033 97.4199 0.0000 -11.3034 0.0000
# 4 0.0000 0.0000 0.0000 42.8051 0.0000 -3.2313
# 5 -10.4899 15.0621 -11.3034 0.0000 56.7554 0.0000
# 6 0.0000 0.0000 0.0000 -3.2313 0.0000 14.4869
#
#
#
# Elastic Compliance Matrix: (Units=1/GPa)
#
#
# Indices 1 2 3 4 5 6 
#
# 1 0.012939 -0.001494 -0.003812 0.000000 0.002029 0.000000
# 2 -0.001494 0.009299 -0.000471 0.000000 -0.002838 0.000000
# 3 -0.003812 -0.000471 0.011722 0.000000 0.001755 0.000000
# 4 0.000000 0.000000 0.000000 0.023762 0.000000 0.005300
# 5 0.002029 -0.002838 0.001755 0.000000 0.019097 0.000000
# 6 0.000000 0.000000 0.000000 0.005300 0.000000 0.070210
#
#
# Mechanical properties :
#
#
# Convention : Reuss Voigt Hill
#
# Bulk Modulus (GPa) = 44.63277 44.72856 44.68067
# Shear Modulus (GPa) = 30.11128 39.54560 34.82844
#
# Velocity S-wave (km/s) = 3.54733 4.06524 3.81508
# Velocity P-wave (km/s) = 5.95232 6.38177 6.17078
#
# Compressibility (1/GPa) = 0.02240506
#
# Stress axis : x y z
#
# Youngs Moduli (GPa) = 77.28750 107.54126 85.31090
#
# Poissons Ratio (x) = 0.16064 0.32522
# Poissons Ratio (y) = 0.11545 0.04020
# Poissons Ratio (z) = 0.29463 0.05067
#
# Static dielectric constant tensor:
#      x y z
#    x 4.077340 0.000000 -0.133680 
#    y 0.000000 4.693560 0.000000 
#    z -0.133680 0.000000 4.516210 
# 
# 
# High freq. dielectric constant tensor:
#      x y z
#    x 1.940690 0.000000 -0.012930 
#    y 0.000000 1.970430 0.000000 
#    z -0.012930 0.000000 1.966110 
# 
# From -- ./inp_files/1474.got.cif
#   From: 2010.03.12/outbox.cif.g09.slc.cpg/sg4_1_cif.got.tgz:1474.got - 2010.03.31 09:31:35.
