data_PCOD8047798
_publ_section_title
;
Structure prediction by ZEFSAII (Michael W. Deem and Ramdas Pophale) SiO2 
 PCOD8047798
Probable space group: P 21
;
_chemical_formula_sum "Si O2"
_cell_formula_units_Z 14
_cell_length_a 8.194849
_cell_length_b 9.544065
_cell_length_c 7.229956
_cell_angle_alpha 90.000000
_cell_angle_beta 73.699277
_cell_angle_gamma 90.000000
_cell_volume 542.739632
_symmetry_space_group_name_H-M "P 21"
_symmetry_group_IT_number 4
_symmetry_cell_setting 'monoclinic'
loop_
_space_group_symop_operation_xyz
x,y,z
-x,1/2+y,-z
loop_
_atom_site_type_symbol
_atom_site_label
_atom_site_fract_x
_atom_site_fract_y
_atom_site_fract_z
Si Si1 0.184853 0.208320 0.613124
Si Si2 0.775313 0.625128 0.793790
Si Si3 0.359501 0.446914 0.771996
Si Si4 0.856918 0.207836 0.204700
Si Si5 0.360077 0.944440 0.604791
Si Si6 0.816979 0.296241 0.802929
Si Si7 0.540079 0.067661 0.883615
O O1 0.266938 0.208145 0.382201
O O2 0.293929 0.298075 0.722608
O O3 0.204790 0.052061 0.686213
O O4 0.988559 0.243699 0.653283
O O5 0.792693 0.457410 0.752952
O O6 0.944171 0.699750 0.818077
O O7 0.623154 0.650676 0.985075
O O8 0.211430 0.551686 0.759226
O O9 0.540087 0.477001 0.617257
O O10 0.382812 0.463198 0.985137
O O11 0.735969 0.295790 0.382533
O O12 0.830581 0.285527 0.018797
O O13 0.494864 0.963890 0.729421
O O14 0.666910 0.192583 0.780508
#
# Coordination Sequence:
#
# PCOD8047798 Si02
#       7
#     2   2   2   2   2   2   2
#     4  12  28  46  79 116 161 208 267 336 403 478
#     4  12  26  51  77 119 158 214 271 337 408 489
#     4  11  26  50  75 114 158 206 266 334 397 486
#     4  11  26  49  78 110 165 209 266 329 409 480
#     4  12  26  46  79 120 154 212 264 332 404 479
#     4  11  27  51  75 118 157 213 269 336 404 493
#     4  11  27  49  81 111 159 206 271 334 401 475
#
# _framework density 25.795058999999998
#
# number of rings (size 3 to 8) (size 9 to 14) (size 15 to 20)
#    0.000    0.571    4.286    1.714    8.000    0.000 
#    5.143    0.000    0.000    0.000    0.000    0.000 
#    0.000    0.000    0.000    0.000    0.000    0.000 
#
# Total GULP energy -173595.163933 kJ/mol
# GULP energy per Si atom -12399.654567 kJ/mol
# Density = 2.573635 g / cm^3
# Si number density = 25.795059 Si / 1000 Ang^3
#
#
#
# Elastic Constant Matrix: (Units=GPa)
#
#
# Indices 1 2 3 4 5 6 
#
# 1 140.0283 37.5079 13.9829 0.0000 -11.4993 0.0000
# 2 37.5079 86.1876 20.3719 0.0000 7.4322 0.0000
# 3 13.9829 20.3719 71.8152 0.0000 -14.0720 0.0000
# 4 0.0000 0.0000 0.0000 37.3079 0.0000 -2.2414
# 5 -11.4993 7.4322 -14.0720 0.0000 39.7240 0.0000
# 6 0.0000 0.0000 0.0000 -2.2414 0.0000 51.0608
#
#
#
# Elastic Compliance Matrix: (Units=1/GPa)
#
#
# Indices 1 2 3 4 5 6 
#
# 1 0.008465 -0.003991 0.000119 0.000000 0.003239 0.000000
# 2 -0.003991 0.014889 -0.004534 0.000000 -0.005547 0.000000
# 3 0.000119 -0.004534 0.016506 0.000000 0.006730 0.000000
# 4 0.000000 0.000000 0.000000 0.026875 0.000000 0.001180
# 5 0.003239 -0.005547 0.006730 0.000000 0.029533 0.000000
# 6 0.000000 0.000000 0.000000 0.001180 0.000000 0.019636
#
#
# Mechanical properties :
#
#
# Convention : Reuss Voigt Hill
#
# Bulk Modulus (GPa) = 43.38685 49.08406 46.23546
# Shear Modulus (GPa) = 35.61274 40.69642 38.15458
#
# Velocity S-wave (km/s) = 3.71968 3.97631 3.85014
# Velocity P-wave (km/s) = 5.94175 6.33650 6.14229
#
# Compressibility (1/GPa) = 0.02304846
#
# Stress axis : x y z
#
# Youngs Moduli (GPa) = 118.13895 67.16188 60.58317
#
# Poissons Ratio (x) = 0.26805 -0.00719
# Poissons Ratio (y) = 0.47150 0.27466
# Poissons Ratio (z) = -0.01403 0.30448
#
# Static dielectric constant tensor:
#      x y z
#    x 4.815560 0.000000 0.007620 
#    y 0.000000 4.510030 0.000000 
#    z 0.007620 0.000000 4.653010 
# 
# 
# High freq. dielectric constant tensor:
#      x y z
#    x 2.050460 0.000000 0.007000 
#    y 0.000000 2.032860 0.000000 
#    z 0.007000 0.000000 2.034090 
# 
# From -- ./inp_files/5242.got.cif
#   From: 2010.03.12/outbox.cif.g09.slc.cpg/sg4_3_cif.got.tgz:5242.got - 2010.03.31 09:31:35.
