data_PCOD8047365
_publ_section_title
;
Structure prediction by ZEFSAII (Michael W. Deem and Ramdas Pophale) SiO2 
 PCOD8047365
Probable space group: P 21
;
_chemical_formula_sum "Si O2"
_cell_formula_units_Z 12
_cell_length_a 13.664072
_cell_length_b 5.439271
_cell_length_c 15.563542
_cell_angle_alpha 90.000000
_cell_angle_beta 152.794666
_cell_angle_gamma 90.000000
_cell_volume 528.831351
_symmetry_space_group_name_H-M "P 21"
_symmetry_group_IT_number 4
_symmetry_cell_setting 'monoclinic'
loop_
_space_group_symop_operation_xyz
x,y,z
-x,1/2+y,-z
loop_
_atom_site_type_symbol
_atom_site_label
_atom_site_fract_x
_atom_site_fract_y
_atom_site_fract_z
Si Si1 0.522207 0.072270 0.885132
Si Si2 0.239603 0.354293 0.785351
Si Si3 0.402544 0.392124 0.458083
Si Si4 0.019305 0.026150 0.962657
Si Si5 0.803430 0.183256 0.402070
Si Si6 0.541042 0.405993 0.753640
O O1 0.457421 0.259376 0.910672
O O2 0.624296 0.180017 0.877503
O O3 0.297610 0.951930 0.682593
O O4 0.703261 0.902058 0.070108
O O5 0.165670 0.587316 0.670960
O O6 0.034468 0.174957 0.628418
O O7 0.459768 0.141703 0.451136
O O8 0.432591 0.318085 0.580697
O O9 0.158132 0.461003 0.246797
O O10 0.950864 0.282021 0.954357
O O11 0.250736 0.076031 0.100072
O O12 0.640728 0.028145 0.331660
#
# Coordination Sequence:
#
# PCOD8047365 Si02
#       6
#     2   2   2   2   2   2
#     4  11  24  42  70 100 144 178 243 290 348 437
#     4  11  22  44  69  96 138 198 221 288 368 409
#     4  12  25  49  78 104 147 194 238 299 374 436
#     4  12  25  49  78 104 147 194 238 299 374 436
#     4  11  24  42  70 100 144 178 243 290 348 437
#     4  11  28  44  69 110 138 182 247 294 352 433
#
# _framework density 22.691547
#
# number of rings (size 3 to 8) (size 9 to 14) (size 15 to 20)
#    0.000    0.667    6.667    0.000    4.667    2.667 
#    0.000    0.000    0.000    0.000    0.000    0.000 
#    0.000    0.000    0.000    0.000    0.000    0.000 
#
# Total GULP energy -148711.043259 kJ/mol
# GULP energy per Si atom -12392.586938 kJ/mol
# Density = 2.263990 g / cm^3
# Si number density = 22.691547 Si / 1000 Ang^3
#
#
#
# Elastic Constant Matrix: (Units=GPa)
#
#
# Indices 1 2 3 4 5 6 
#
# 1 92.7757 17.9105 38.6048 0.0000 -7.4762 0.0000
# 2 17.9105 83.2346 6.7285 0.0000 -8.2957 0.0000
# 3 38.6048 6.7285 137.1920 0.0000 -10.4297 0.0000
# 4 0.0000 0.0000 0.0000 40.5127 0.0000 -0.1387
# 5 -7.4762 -8.2957 -10.4297 0.0000 42.2388 0.0000
# 6 0.0000 0.0000 0.0000 -0.1387 0.0000 19.0055
#
#
#
# Elastic Compliance Matrix: (Units=1/GPa)
#
#
# Indices 1 2 3 4 5 6 
#
# 1 0.012724 -0.002369 -0.003392 0.000000 0.000949 0.000000
# 2 -0.002369 0.012720 0.000205 0.000000 0.002129 0.000000
# 3 -0.003392 0.000205 0.008348 0.000000 0.001501 0.000000
# 4 0.000000 0.000000 0.000000 0.024684 0.000000 0.000180
# 5 0.000949 0.002129 0.001501 0.000000 0.024632 0.000000
# 6 0.000000 0.000000 0.000000 0.000180 0.000000 0.052618
#
#
# Mechanical properties :
#
#
# Convention : Reuss Voigt Hill
#
# Bulk Modulus (GPa) = 44.09498 48.85441 46.47470
# Shear Modulus (GPa) = 32.38392 37.01529 34.69961
#
# Velocity S-wave (km/s) = 3.78184 4.04324 3.91472
# Velocity P-wave (km/s) = 6.20841 6.58586 6.39992
#
# Compressibility (1/GPa) = 0.02267832
#
# Stress axis : x y z
#
# Youngs Moduli (GPa) = 78.59148 78.61818 119.79444
#
# Poissons Ratio (x) = 0.18626 0.40635
# Poissons Ratio (y) = 0.18620 -0.02452
# Poissons Ratio (z) = 0.26659 -0.01609
#
# Static dielectric constant tensor:
#      x y z
#    x 4.057590 0.000000 0.001920 
#    y 0.000000 4.275860 0.000000 
#    z 0.001920 0.000000 4.310900 
# 
# 
# High freq. dielectric constant tensor:
#      x y z
#    x 1.879300 0.000000 0.001830 
#    y 0.000000 1.891370 0.000000 
#    z 0.001830 0.000000 1.915560 
# 
# From -- ./inp_files/14085.got.cif
#   From: 2010.03.12/outbox.cif.g09.slc.cpg/sg4_8_cif.got.tgz:14085.got - 2010.03.31 09:31:35.
