data_PCOD8047313
_publ_section_title
;
Structure prediction by ZEFSAII (Michael W. Deem and Ramdas Pophale) SiO2 
 PCOD8047313
Probable space group: P 21
;
_chemical_formula_sum "Si O2"
_cell_formula_units_Z 16
_cell_length_a 11.074976
_cell_length_b 9.921635
_cell_length_c 6.550474
_cell_angle_alpha 90.000000
_cell_angle_beta 93.839071
_cell_angle_gamma 90.000000
_cell_volume 718.163178
_symmetry_space_group_name_H-M "P 21"
_symmetry_group_IT_number 4
_symmetry_cell_setting 'monoclinic'
loop_
_space_group_symop_operation_xyz
x,y,z
-x,1/2+y,-z
loop_
_atom_site_type_symbol
_atom_site_label
_atom_site_fract_x
_atom_site_fract_y
_atom_site_fract_z
Si Si1 0.148262 0.380420 0.016740
Si Si2 0.442113 0.104407 0.088676
Si Si3 0.038076 0.928742 0.330475
Si Si4 0.096955 0.217822 0.407485
Si Si5 0.467729 0.349131 0.393483
Si Si6 0.689509 0.733366 0.280398
Si Si7 0.317902 0.869321 0.326019
Si Si8 0.659174 0.076740 0.851201
O O1 0.139430 0.266933 0.189642
O O2 0.204427 0.519106 0.109822
O O3 0.241668 0.338387 0.853673
O O4 0.016731 0.402068 0.900935
O O5 0.437274 0.243878 0.212279
O O6 0.379122 0.986224 0.202563
O O7 0.370763 0.118810 0.866113
O O8 0.580864 0.066521 0.051291
O O9 0.179153 0.900873 0.346695
O O10 0.976212 0.837806 0.495359
O O11 0.013141 0.085623 0.380392
O O12 0.214866 0.171491 0.548219
O O13 0.415913 0.306832 0.607478
O O14 0.612217 0.362579 0.447977
O O15 0.409413 0.492575 0.332550
O O16 0.329235 0.730535 0.208022
#
# Coordination Sequence:
#
# PCOD8047313 Si02
#       8
#     2   2   2   2   2   2   2   2
#     4  11  25  47  74 100 145 190 250 301 372 434
#     4  12  25  47  71 112 148 191 244 302 388 440
#     4  11  29  46  73 106 142 199 247 305 369 434
#     4  11  26  49  74 102 144 197 249 310 366 438
#     4  12  24  47  74 106 153 190 240 302 381 449
#     4  11  21  46  76 102 140 198 237 297 380 443
#     4  12  27  44  71 113 147 188 246 304 365 446
#     4  12  25  44  75 105 143 193 241 305 365 446
#
# _framework density 22.279059
#
# number of rings (size 3 to 8) (size 9 to 14) (size 15 to 20)
#    0.000    0.500    3.750    3.750    5.250    3.000 
#    0.000    0.000    0.000    0.000    0.000    0.000 
#    0.000    0.000    0.000    0.000    0.000    0.000 
#
# Total GULP energy -198445.622346 kJ/mol
# GULP energy per Si atom -12402.851397 kJ/mol
# Density = 2.222835 g / cm^3
# Si number density = 22.279059 Si / 1000 Ang^3
#
#
#
# Elastic Constant Matrix: (Units=GPa)
#
#
# Indices 1 2 3 4 5 6 
#
# 1 118.7990 51.2964 46.0248 0.0000 13.8420 0.0000
# 2 51.2964 95.1398 33.6184 0.0000 10.9360 0.0000
# 3 46.0248 33.6184 108.2916 0.0000 16.5909 0.0000
# 4 0.0000 0.0000 0.0000 18.0327 0.0000 -1.5792
# 5 13.8420 10.9360 16.5909 0.0000 37.4553 0.0000
# 6 0.0000 0.0000 0.0000 -1.5792 0.0000 36.3723
#
#
#
# Elastic Compliance Matrix: (Units=1/GPa)
#
#
# Indices 1 2 3 4 5 6 
#
# 1 0.012115 -0.005191 -0.003308 0.000000 -0.001496 0.000000
# 2 -0.005191 0.014165 -0.001986 0.000000 -0.001338 0.000000
# 3 -0.003308 -0.001986 0.011780 0.000000 -0.003416 0.000000
# 4 0.000000 0.000000 0.000000 0.055667 0.000000 0.002417
# 5 -0.001496 -0.001338 -0.003416 0.000000 0.029155 0.000000
# 6 0.000000 0.000000 0.000000 0.002417 0.000000 0.027598
#
#
# Mechanical properties :
#
#
# Convention : Reuss Voigt Hill
#
# Bulk Modulus (GPa) = 58.51594 64.90105 61.70849
# Shear Modulus (GPa) = 28.22494 31.12478 29.67486
#
# Velocity S-wave (km/s) = 3.56319 3.74176 3.65356
# Velocity P-wave (km/s) = 6.57651 6.91823 6.74953
#
# Compressibility (1/GPa) = 0.01708936
#
# Stress axis : x y z
#
# Youngs Moduli (GPa) = 82.54200 70.59474 84.88758
#
# Poissons Ratio (x) = 0.36646 0.28083
# Poissons Ratio (y) = 0.42848 0.16862
# Poissons Ratio (z) = 0.27307 0.14023
#
# Static dielectric constant tensor:
#      x y z
#    x 4.351620 0.000000 0.186480 
#    y 0.000000 4.078440 0.000000 
#    z 0.186480 0.000000 4.163020 
# 
# 
# High freq. dielectric constant tensor:
#      x y z
#    x 1.886340 0.000000 0.008220 
#    y 0.000000 1.885350 0.000000 
#    z 0.008220 0.000000 1.882080 
# 
# From -- ./inp_files/2590.got.cif
#   From: 2010.03.12/outbox.cif.g09.slc.cpg/sg4_2_cif.got.tgz:2590.got - 2010.03.31 09:31:35.
