data_PCOD8047298
_publ_section_title
;
Structure prediction by ZEFSAII (Michael W. Deem and Ramdas Pophale) SiO2 
 PCOD8047298
Probable space group: P 21
;
_chemical_formula_sum "Si O2"
_cell_formula_units_Z 16
_cell_length_a 11.898100
_cell_length_b 9.216696
_cell_length_c 14.634397
_cell_angle_alpha 90.000000
_cell_angle_beta 153.211051
_cell_angle_gamma 90.000000
_cell_volume 723.303300
_symmetry_space_group_name_H-M "P 21"
_symmetry_group_IT_number 4
_symmetry_cell_setting 'monoclinic'
loop_
_space_group_symop_operation_xyz
x,y,z
-x,1/2+y,-z
loop_
_atom_site_type_symbol
_atom_site_label
_atom_site_fract_x
_atom_site_fract_y
_atom_site_fract_z
Si Si1 0.740516 0.778230 0.258077
Si Si2 0.014462 0.877101 0.791427
Si Si3 0.365945 0.378777 0.624660
Si Si4 0.348552 0.577043 0.367089
Si Si5 0.131222 0.779104 0.058100
Si Si6 0.432446 0.304207 0.335397
Si Si7 0.458212 0.046739 0.021084
Si Si8 0.705955 0.190785 0.364926
O O1 0.631188 0.784029 0.281249
O O2 0.037512 0.765694 0.477284
O O3 0.680303 0.930846 0.161974
O O4 0.620837 0.635253 0.125498
O O5 0.814617 0.800832 0.579305
O O6 0.087622 0.750639 0.917298
O O7 0.890243 0.013648 0.753419
O O8 0.245707 0.940194 0.904221
O O9 0.644825 0.400490 0.784393
O O10 0.243603 0.535564 0.552404
O O11 0.244078 0.651315 0.199498
O O12 0.523550 0.446933 0.456406
O O13 0.511302 0.671907 0.554843
O O14 0.862460 0.824290 0.902943
O O15 0.571504 0.294219 0.340194
O O16 0.535243 0.167266 0.151882
#
# Coordination Sequence:
#
# PCOD8047298 Si02
#       8
#     2   2   2   2   2   2   2   2
#     4  11  25  44  73 104 133 188 235 292 343 428
#     4  11  21  44  73  95 137 189 225 279 354 414
#     4  11  23  45  73 100 136 188 230 281 358 407
#     4  11  24  41  68 105 134 180 231 284 342 417
#     4  11  23  40  68 104 132 184 228 279 348 421
#     4  11  25  43  70  98 142 179 230 286 348 420
#     4  11  24  44  72 102 135 189 232 287 358 414
#     4  11  23  45  71 100 141 183 231 290 355 409
#
# _framework density 22.120735
#
# number of rings (size 3 to 8) (size 9 to 14) (size 15 to 20)
#    0.000    1.000    5.000    2.250    3.500    0.000 
#    9.000    0.000    0.000    0.000    0.000    0.000 
#    0.000    0.000    0.000    0.000    0.000    0.000 
#
# Total GULP energy -198218.345760 kJ/mol
# GULP energy per Si atom -12388.646610 kJ/mol
# Density = 2.207039 g / cm^3
# Si number density = 22.120735 Si / 1000 Ang^3
#
#
#
# Elastic Constant Matrix: (Units=GPa)
#
#
# Indices 1 2 3 4 5 6 
#
# 1 89.9920 32.7184 49.8733 0.0000 -0.6483 0.0000
# 2 32.7184 60.6467 18.1794 0.0000 -2.7867 0.0000
# 3 49.8733 18.1794 128.1651 0.0000 1.1269 0.0000
# 4 0.0000 0.0000 0.0000 44.0314 0.0000 -9.3119
# 5 -0.6483 -2.7867 1.1269 0.0000 40.1742 0.0000
# 6 0.0000 0.0000 0.0000 -9.3119 0.0000 43.7487
#
#
#
# Elastic Compliance Matrix: (Units=1/GPa)
#
#
# Indices 1 2 3 4 5 6 
#
# 1 0.016875 -0.007457 -0.005508 0.000000 -0.000090 0.000000
# 2 -0.007457 0.020581 -0.000029 0.000000 0.001308 0.000000
# 3 -0.005508 -0.000029 0.009953 0.000000 -0.000370 0.000000
# 4 0.000000 0.000000 0.000000 0.023782 0.000000 0.005062
# 5 -0.000090 0.001308 -0.000370 0.000000 0.024991 0.000000
# 6 0.000000 0.000000 0.000000 0.005062 0.000000 0.023935
#
#
# Mechanical properties :
#
#
# Convention : Reuss Voigt Hill
#
# Bulk Modulus (GPa) = 46.68362 53.37177 50.02769
# Shear Modulus (GPa) = 32.62729 37.45972 35.04351
#
# Velocity S-wave (km/s) = 3.84469 4.11958 3.98451
# Velocity P-wave (km/s) = 6.39208 6.84162 6.62067
#
# Compressibility (1/GPa) = 0.02142079
#
# Stress axis : x y z
#
# Youngs Moduli (GPa) = 59.25841 48.58908 100.47000
#
# Poissons Ratio (x) = 0.36233 0.55341
# Poissons Ratio (y) = 0.44189 0.00291
# Poissons Ratio (z) = 0.32641 0.00141
#
# Static dielectric constant tensor:
#      x y z
#    x 4.148220 0.000000 -0.104700 
#    y 0.000000 3.843900 0.000000 
#    z -0.104700 0.000000 4.296680 
# 
# 
# High freq. dielectric constant tensor:
#      x y z
#    x 1.872330 0.000000 -0.006490 
#    y 0.000000 1.839190 0.000000 
#    z -0.006490 0.000000 1.892230 
# 
# From -- ./inp_files/13916.got.cif
#   From: 2010.03.12/outbox.cif.g09.slc.cpg/sg4_7_cif.got.tgz:13916.got - 2010.03.31 09:31:35.
