data_PCOD8047887
_publ_section_title
;
Structure prediction by ZEFSAII (Michael W. Deem and Ramdas Pophale) SiO2 
 PCOD8047887
Probable space group: P 21
;
_chemical_formula_sum "Si O2"
_cell_formula_units_Z 16
_cell_length_a 14.085780
_cell_length_b 8.578371
_cell_length_c 10.657213
_cell_angle_alpha 90.000000
_cell_angle_beta 150.491896
_cell_angle_gamma 90.000000
_cell_volume 634.273767
_symmetry_space_group_name_H-M "P 21"
_symmetry_group_IT_number 4
_symmetry_cell_setting 'monoclinic'
loop_
_space_group_symop_operation_xyz
x,y,z
-x,1/2+y,-z
loop_
_atom_site_type_symbol
_atom_site_label
_atom_site_fract_x
_atom_site_fract_y
_atom_site_fract_z
Si Si1 0.091922 0.420510 0.254608
Si Si2 0.130344 0.708888 0.809903
Si Si3 0.588652 0.364523 0.048386
Si Si4 0.718666 0.421876 0.683765
Si Si5 0.394855 0.266508 0.435059
Si Si6 0.202051 0.370557 0.955990
Si Si7 0.206669 0.752119 0.478872
Si Si8 0.259618 0.203576 0.768750
O O1 0.290717 0.357892 0.427138
O O2 0.135124 0.575421 0.381557
O O3 0.983789 0.290590 0.209962
O O4 0.942375 0.458074 0.969157
O O5 0.298936 0.816890 0.948005
O O6 0.240866 0.553804 0.981115
O O7 0.967333 0.676002 0.516407
O O8 0.651974 0.260470 0.240899
O O9 0.622233 0.544780 0.110437
O O10 0.357914 0.323704 0.779379
O O11 0.616332 0.326189 0.680494
O O12 0.606388 0.583811 0.536321
O O13 0.689791 0.317472 0.526637
O O14 0.294952 0.303644 0.188045
O O15 0.286735 0.270646 0.939112
O O16 0.972505 0.362044 0.697947
#
# Coordination Sequence:
#
# PCOD8047887 Si02
#       8
#     2   2   2   2   2   2   2   2
#     4  12  27  46  75 103 142 189 239 291 357 420
#     4  12  27  46  75 103 142 189 239 291 357 420
#     4  12  28  47  73 105 145 184 238 296 351 422
#     4  12  26  47  73 105 142 189 236 291 358 420
#     4  12  28  47  73 105 145 184 238 296 351 422
#     4  12  24  48  75 102 143 185 237 294 352 418
#     4  12  24  48  75 102 143 185 237 294 352 418
#     4  12  26  47  73 105 142 189 236 291 358 420
#
# _framework density 25.225698000000001
#
# number of rings (size 3 to 8) (size 9 to 14) (size 15 to 20)
#    0.000    0.000    5.000    3.750    7.000    1.000 
#    0.000    0.000    0.000    0.000    0.000    0.000 
#    0.000    0.000    0.000    0.000    0.000    0.000 
#
# Total GULP energy -198512.769899 kJ/mol
# GULP energy per Si atom -12407.048119 kJ/mol
# Density = 2.516828 g / cm^3
# Si number density = 25.225698 Si / 1000 Ang^3
#
#
#
# Elastic Constant Matrix: (Units=GPa)
#
#
# Indices 1 2 3 4 5 6 
#
# 1 131.1512 6.0511 6.2569 0.0000 10.1210 0.0000
# 2 6.0511 113.9564 10.7509 0.0000 0.8817 0.0000
# 3 6.2569 10.7509 37.7654 0.0000 4.8926 0.0000
# 4 0.0000 0.0000 0.0000 31.2289 0.0000 2.3981
# 5 10.1210 0.8817 4.8926 0.0000 40.2764 0.0000
# 6 0.0000 0.0000 0.0000 2.3981 0.0000 53.1925
#
#
#
# Elastic Compliance Matrix: (Units=1/GPa)
#
#
# Indices 1 2 3 4 5 6 
#
# 1 0.007828 -0.000310 -0.000970 0.000000 -0.001842 0.000000
# 2 -0.000310 0.009030 -0.002544 0.000000 0.000189 0.000000
# 3 -0.000970 -0.002544 0.027762 0.000000 -0.003073 0.000000
# 4 0.000000 0.000000 0.000000 0.032133 0.000000 -0.001449
# 5 -0.001842 0.000189 -0.003073 0.000000 0.025661 0.000000
# 6 0.000000 0.000000 0.000000 -0.001449 0.000000 0.018865
#
#
# Mechanical properties :
#
#
# Convention : Reuss Voigt Hill
#
# Bulk Modulus (GPa) = 27.04703 36.55453 31.80078
# Shear Modulus (GPa) = 35.39821 42.26049 38.82935
#
# Velocity S-wave (km/s) = 3.75007 4.09748 3.92762
# Velocity P-wave (km/s) = 5.43103 6.07521 5.76213
#
# Compressibility (1/GPa) = 0.03697264
#
# Stress axis : x y z
#
# Youngs Moduli (GPa) = 127.75415 110.73869 36.02016
#
# Poissons Ratio (x) = 0.03432 0.03494
# Poissons Ratio (y) = 0.03959 0.09163
# Poissons Ratio (z) = 0.12391 0.28170
#
# Static dielectric constant tensor:
#      x y z
#    x 4.696060 0.000000 0.306080 
#    y 0.000000 4.412260 0.000000 
#    z 0.306080 0.000000 4.878440 
# 
# 
# High freq. dielectric constant tensor:
#      x y z
#    x 2.021200 0.000000 0.010140 
#    y 0.000000 2.011150 0.000000 
#    z 0.010140 0.000000 2.015940 
# 
# From -- ./inp_files/8096.got.cif
#   From: 2010.03.12/outbox.cif.g09.slc.cpg/sg4_5_cif.got.tgz:8096.got - 2010.03.31 09:31:35.
