data_PCOD8047379
_publ_section_title
;
Structure prediction by ZEFSAII (Michael W. Deem and Ramdas Pophale) SiO2 
 PCOD8047379
Probable space group: P 21
;
_chemical_formula_sum "Si O2"
_cell_formula_units_Z 16
_cell_length_a 10.668292
_cell_length_b 10.680278
_cell_length_c 9.827130
_cell_angle_alpha 90.000000
_cell_angle_beta 141.831294
_cell_angle_gamma 90.000000
_cell_volume 691.955120
_symmetry_space_group_name_H-M "P 21"
_symmetry_group_IT_number 4
_symmetry_cell_setting 'monoclinic'
loop_
_space_group_symop_operation_xyz
x,y,z
-x,1/2+y,-z
loop_
_atom_site_type_symbol
_atom_site_label
_atom_site_fract_x
_atom_site_fract_y
_atom_site_fract_z
Si Si1 0.295376 0.224800 0.916105
Si Si2 0.234213 0.997563 0.401967
Si Si3 0.061883 0.966106 0.724154
Si Si4 0.909917 0.946454 0.901730
Si Si5 0.546020 0.797080 0.682757
Si Si6 0.879129 0.985876 0.290432
Si Si7 0.594584 0.161866 0.678622
Si Si8 0.350285 0.734768 0.979692
O O1 0.172651 0.355439 0.830964
O O2 0.160044 0.102257 0.787078
O O3 0.427727 0.205515 0.166031
O O4 0.430392 0.248217 0.899336
O O5 0.419508 0.917149 0.623432
O O6 0.091808 0.030522 0.407673
O O7 0.359999 0.118566 0.462683
O O8 0.111411 0.943368 0.166844
O O9 0.211766 0.851327 0.816572
O O10 0.966918 0.950798 0.791759
O O11 0.889102 0.961225 0.460747
O O12 0.767416 0.826186 0.806461
O O13 0.776967 0.064227 0.832926
O O14 0.383436 0.743810 0.437129
O O15 0.724190 0.097721 0.129464
O O16 0.624027 0.245900 0.836875
#
# Coordination Sequence:
#
# PCOD8047379 Si02
#       8
#     2   2   2   2   2   2   2   2
#     4  12  26  48  71 106 146 187 243 298 358 424
#     4  11  22  45  70  98 135 192 234 278 365 425
#     4  12  28  42  74 106 142 189 239 305 351 424
#     4  11  25  46  67 108 148 181 245 292 361 433
#     4  11  25  42  72 102 143 188 232 299 357 424
#     4  12  25  47  73 100 143 194 240 291 361 430
#     4  11  25  42  72 102 143 188 232 299 357 424
#     4  12  26  48  71 106 146 187 243 298 358 424
#
# _framework density 23.122886999999999
#
# number of rings (size 3 to 8) (size 9 to 14) (size 15 to 20)
#    0.000    0.500    2.500    5.250    7.000    3.000 
#    0.000    0.000    0.000    0.000    0.000    0.000 
#    0.000    0.000    0.000    0.000    0.000    0.000 
#
# Total GULP energy -198354.902135 kJ/mol
# GULP energy per Si atom -12397.181383 kJ/mol
# Density = 2.307026 g / cm^3
# Si number density = 23.122887 Si / 1000 Ang^3
#
#
#
# Elastic Constant Matrix: (Units=GPa)
#
#
# Indices 1 2 3 4 5 6 
#
# 1 98.1825 -3.6491 9.8892 0.0000 -5.6207 0.0000
# 2 -3.6491 106.7996 20.0067 0.0000 3.2127 0.0000
# 3 9.8892 20.0067 107.8468 0.0000 -17.7115 0.0000
# 4 0.0000 0.0000 0.0000 33.0664 0.0000 -5.9776
# 5 -5.6207 3.2127 -17.7115 0.0000 51.4201 0.0000
# 6 0.0000 0.0000 0.0000 -5.9776 0.0000 22.6876
#
#
#
# Elastic Compliance Matrix: (Units=1/GPa)
#
#
# Indices 1 2 3 4 5 6 
#
# 1 0.010341 0.000501 -0.000912 0.000000 0.000785 0.000000
# 2 0.000501 0.009807 -0.002074 0.000000 -0.001272 0.000000
# 3 -0.000912 -0.002074 0.010330 0.000000 0.003588 0.000000
# 4 0.000000 0.000000 0.000000 0.031755 0.000000 0.008367
# 5 0.000785 -0.001272 0.003588 0.000000 0.020849 0.000000
# 6 0.000000 0.000000 0.000000 0.008367 0.000000 0.046281
#
#
# Mechanical properties :
#
#
# Convention : Reuss Voigt Hill
#
# Bulk Modulus (GPa) = 39.20604 40.59139 39.89872
# Shear Modulus (GPa) = 35.00509 40.54030 37.77269
#
# Velocity S-wave (km/s) = 3.89507 4.19173 4.04612
# Velocity P-wave (km/s) = 6.10091 6.40470 6.25465
#
# Compressibility (1/GPa) = 0.02550627
#
# Stress axis : x y z
#
# Youngs Moduli (GPa) = 96.70693 101.96512 96.80440
#
# Poissons Ratio (x) = -0.05104 0.08830
# Poissons Ratio (y) = -0.04841 0.20079
# Poissons Ratio (z) = 0.08821 0.21150
#
# Static dielectric constant tensor:
#      x y z
#    x 4.184960 0.000000 -0.023560 
#    y 0.000000 4.141790 0.000000 
#    z -0.023560 0.000000 4.166480 
# 
# 
# High freq. dielectric constant tensor:
#      x y z
#    x 1.922240 0.000000 -0.006670 
#    y 0.000000 1.913560 0.000000 
#    z -0.006670 0.000000 1.924790 
# 
# From -- ./inp_files/2919.got.cif
#   From: 2010.03.12/outbox.cif.g09.slc.cpg/sg4_2_cif.got.tgz:2919.got - 2010.03.31 09:31:35.
