data_PCOD8047951
_publ_section_title
;
Structure prediction by ZEFSAII (Michael W. Deem and Ramdas Pophale) SiO2 
 PCOD8047951
Probable space group: P 21
;
_chemical_formula_sum "Si O2"
_cell_formula_units_Z 14
_cell_length_a 7.550868
_cell_length_b 12.164905
_cell_length_c 8.424207
_cell_angle_alpha 90.000000
_cell_angle_beta 52.219508
_cell_angle_gamma 90.000000
_cell_volume 611.591706
_symmetry_space_group_name_H-M "P 21"
_symmetry_group_IT_number 4
_symmetry_cell_setting 'monoclinic'
loop_
_space_group_symop_operation_xyz
x,y,z
-x,1/2+y,-z
loop_
_atom_site_type_symbol
_atom_site_label
_atom_site_fract_x
_atom_site_fract_y
_atom_site_fract_z
Si Si1 0.924745 0.483800 0.960375
Si Si2 0.689330 0.356372 0.332748
Si Si3 0.503824 0.345886 0.781266
Si Si4 0.649478 0.066129 0.124633
Si Si5 0.131955 0.758978 0.196892
Si Si6 0.310314 0.237114 0.373051
Si Si7 0.127498 0.218558 0.125644
O O1 0.882168 0.369878 0.895006
O O2 0.830485 0.587875 0.914279
O O3 0.186912 0.510614 0.835728
O O4 0.810445 0.466373 0.197550
O O5 0.582683 0.377992 0.561861
O O6 0.488901 0.331070 0.319295
O O7 0.869141 0.255019 0.243538
O O8 0.455383 0.459076 0.906881
O O9 0.696877 0.274028 0.753891
O O10 0.273786 0.275544 0.906292
O O11 0.438391 0.122425 0.324066
O O12 0.785105 0.153107 0.945063
O O13 0.890598 0.730787 0.394898
O O14 0.224372 0.258181 0.241548
#
# Coordination Sequence:
#
# PCOD8047951 Si02
#       7
#     2   2   2   2   2   2   2
#     4  12  25  50  75 110 158 197 256 318 382 456
#     4  12  26  49  76 114 150 204 255 314 387 452
#     4  12  27  49  78 113 155 201 256 324 380 456
#     4  12  26  46  77 110 156 200 255 317 377 455
#     4  12  27  51  75 116 157 202 258 318 381 464
#     4  12  26  48  76 110 154 197 257 308 380 456
#     4  12  25  51  75 113 154 203 255 313 387 457
#
# _framework density 22.891089999999998
#
# number of rings (size 3 to 8) (size 9 to 14) (size 15 to 20)
#    0.000    0.000    7.143    1.714    4.000    0.000 
#    5.143    0.000    0.000    0.000    0.000    0.000 
#    0.000    0.000    0.000    0.000    0.000    0.000 
#
# Total GULP energy -173538.750425 kJ/mol
# GULP energy per Si atom -12395.625030 kJ/mol
# Density = 2.283899 g / cm^3
# Si number density = 22.891090 Si / 1000 Ang^3
#
#
#
# Elastic Constant Matrix: (Units=GPa)
#
#
# Indices 1 2 3 4 5 6 
#
# 1 99.0702 34.4384 51.8024 0.0000 -11.5213 0.0000
# 2 34.4384 138.2702 64.9928 0.0000 -14.6189 0.0000
# 3 51.8024 64.9928 151.5389 0.0000 -19.7703 0.0000
# 4 0.0000 0.0000 0.0000 24.1115 0.0000 -9.0162
# 5 -11.5213 -14.6189 -19.7703 0.0000 44.3396 0.0000
# 6 0.0000 0.0000 0.0000 -9.0162 0.0000 42.8536
#
#
#
# Elastic Compliance Matrix: (Units=1/GPa)
#
#
# Indices 1 2 3 4 5 6 
#
# 1 0.012562 -0.001322 -0.003566 0.000000 0.001238 0.000000
# 2 -0.001322 0.009272 -0.003367 0.000000 0.001212 0.000000
# 3 -0.003566 -0.003367 0.009552 0.000000 0.002222 0.000000
# 4 0.000000 0.000000 0.000000 0.045015 0.000000 0.009471
# 5 0.001238 0.001212 0.002222 0.000000 0.024266 0.000000
# 6 0.000000 0.000000 0.000000 0.009471 0.000000 0.025328
#
#
# Mechanical properties :
#
#
# Convention : Reuss Voigt Hill
#
# Bulk Modulus (GPa) = 67.21606 76.81627 72.01617
# Shear Modulus (GPa) = 33.90703 38.10399 36.00551
#
# Velocity S-wave (km/s) = 3.85285 4.08435 3.97029
# Velocity P-wave (km/s) = 7.01568 7.47480 7.24888
#
# Compressibility (1/GPa) = 0.01487740
#
# Stress axis : x y z
#
# Youngs Moduli (GPa) = 79.60645 107.85078 104.69313
#
# Poissons Ratio (x) = 0.14255 0.37330
# Poissons Ratio (y) = 0.10522 0.35246
# Poissons Ratio (z) = 0.28385 0.36310
#
# Static dielectric constant tensor:
#      x y z
#    x 4.323760 0.000000 -0.227130 
#    y 0.000000 4.260580 0.000000 
#    z -0.227130 0.000000 4.181500 
# 
# 
# High freq. dielectric constant tensor:
#      x y z
#    x 1.919660 0.000000 -0.018780 
#    y 0.000000 1.908920 0.000000 
#    z -0.018780 0.000000 1.902320 
# 
# From -- ./inp_files/6368.got.cif
#   From: 2010.03.12/outbox.cif.g09.slc.cpg/sg4_4_cif.got.tgz:6368.got - 2010.03.31 09:31:35.
