data_PCOD8047769
_publ_section_title
;
Structure prediction by ZEFSAII (Michael W. Deem and Ramdas Pophale) SiO2 
 PCOD8047769
Probable space group: P 21
;
_chemical_formula_sum "Si O2"
_cell_formula_units_Z 16
_cell_length_a 14.955036
_cell_length_b 8.471396
_cell_length_c 15.510607
_cell_angle_alpha 90.000000
_cell_angle_beta 19.160439
_cell_angle_gamma 90.000000
_cell_volume 644.954401
_symmetry_space_group_name_H-M "P 21"
_symmetry_group_IT_number 4
_symmetry_cell_setting 'monoclinic'
loop_
_space_group_symop_operation_xyz
x,y,z
-x,1/2+y,-z
loop_
_atom_site_type_symbol
_atom_site_label
_atom_site_fract_x
_atom_site_fract_y
_atom_site_fract_z
Si Si1 0.212153 0.295290 0.651737
Si Si2 0.903528 0.046234 0.021816
Si Si3 0.322447 0.792566 0.659892
Si Si4 0.320114 0.214498 0.238994
Si Si5 0.457107 0.079454 0.290223
Si Si6 0.801268 0.418491 0.763496
Si Si7 0.831341 0.546065 0.925315
Si Si8 0.352444 0.748599 0.439366
O O1 0.478483 0.378886 0.451825
O O2 0.279106 0.213564 0.499646
O O3 0.153726 0.163617 0.776904
O O4 0.959139 0.414686 0.872711
O O5 0.725949 0.111572 0.263778
O O6 0.743417 0.049836 0.076709
O O7 0.026374 0.876149 0.931672
O O8 0.448003 0.797299 0.449084
O O9 0.492765 0.139389 0.160607
O O10 0.076939 0.323770 0.494601
O O11 0.190329 0.075322 0.301235
O O12 0.534478 0.312458 0.985238
O O13 0.320704 0.905888 0.410946
O O14 0.766374 0.465434 0.894543
O O15 0.047840 0.684427 0.717962
O O16 0.553481 0.616009 0.217923
#
# Coordination Sequence:
#
# PCOD8047769 Si02
#       8
#     2   2   2   2   2   2   2   2
#     4  11  26  45  74 101 154 205 255 315 391 454
#     4  11  26  47  72 100 153 202 267 316 392 456
#     4  11  28  45  69 110 147 207 265 326 379 454
#     4  12  28  51  87 115 163 197 258 318 391 476
#     4  11  26  50  74 107 151 212 251 314 399 461
#     4  12  28  53  82 124 155 204 255 317 395 470
#     4  12  29  48  77 112 156 201 258 317 389 458
#     4  12  29  47  75 111 153 202 263 325 372 455
#
# _framework density 24.807955
#
# number of rings (size 3 to 8) (size 9 to 14) (size 15 to 20)
#    0.000    0.500    2.500    3.000   14.000    0.000 
#    0.000    0.000    0.000    0.000    0.000    0.000 
#    0.000    0.000    0.000    0.000    0.000    0.000 
#
# Total GULP energy -198441.313066 kJ/mol
# GULP energy per Si atom -12402.582067 kJ/mol
# Density = 2.475149 g / cm^3
# Si number density = 24.807955 Si / 1000 Ang^3
#
#
#
# Elastic Constant Matrix: (Units=GPa)
#
#
# Indices 1 2 3 4 5 6 
#
# 1 96.6766 36.6684 23.8020 0.0000 -1.9681 0.0000
# 2 36.6684 96.1959 6.4331 0.0000 2.0030 0.0000
# 3 23.8020 6.4331 69.0763 0.0000 4.2263 0.0000
# 4 0.0000 0.0000 0.0000 51.3807 0.0000 3.2653
# 5 -1.9681 2.0030 4.2263 0.0000 29.8382 0.0000
# 6 0.0000 0.0000 0.0000 3.2653 0.0000 35.0708
#
#
#
# Elastic Compliance Matrix: (Units=1/GPa)
#
#
# Indices 1 2 3 4 5 6 
#
# 1 0.013242 -0.004802 -0.004225 0.000000 0.001794 0.000000
# 2 -0.004802 0.012212 0.000592 0.000000 -0.001220 0.000000
# 3 -0.004225 0.000592 0.016036 0.000000 -0.002590 0.000000
# 4 0.000000 0.000000 0.000000 0.019578 0.000000 -0.001823
# 5 0.001794 -0.001220 -0.002590 0.000000 0.034081 0.000000
# 6 0.000000 0.000000 0.000000 -0.001823 0.000000 0.028683
#
#
# Mechanical properties :
#
#
# Convention : Reuss Voigt Hill
#
# Bulk Modulus (GPa) = 40.61969 43.97286 42.29628
# Shear Modulus (GPa) = 33.57713 36.26095 34.91904
#
# Velocity S-wave (km/s) = 3.68296 3.82732 3.75584
# Velocity P-wave (km/s) = 5.87323 6.10696 5.99123
#
# Compressibility (1/GPa) = 0.02461860
#
# Stress axis : x y z
#
# Youngs Moduli (GPa) = 75.51645 81.88736 62.35952
#
# Poissons Ratio (x) = 0.39326 0.26350
# Poissons Ratio (y) = 0.36267 -0.03693
# Poissons Ratio (z) = 0.31909 -0.04849
#
# Static dielectric constant tensor:
#      x y z
#    x 4.339450 0.000000 -0.002070 
#    y 0.000000 4.772950 0.000000 
#    z -0.002070 0.000000 4.413120 
# 
# 
# High freq. dielectric constant tensor:
#      x y z
#    x 1.978580 0.000000 -0.003660 
#    y 0.000000 2.005200 0.000000 
#    z -0.003660 0.000000 1.996650 
# 
# From -- ./inp_files/14192.got.cif
#   From: 2010.03.12/outbox.cif.g09.slc.cpg/sg4_8_cif.got.tgz:14192.got - 2010.03.31 09:31:35.
