data_PCOD8047775
_publ_section_title
;
Structure prediction by ZEFSAII (Michael W. Deem and Ramdas Pophale) SiO2 
 PCOD8047775
Probable space group: P 21
;
_chemical_formula_sum "Si O2"
_cell_formula_units_Z 16
_cell_length_a 8.790272
_cell_length_b 8.941206
_cell_length_c 11.909745
_cell_angle_alpha 90.000000
_cell_angle_beta 135.252648
_cell_angle_gamma 90.000000
_cell_volume 658.965036
_symmetry_space_group_name_H-M "P 21"
_symmetry_group_IT_number 4
_symmetry_cell_setting 'monoclinic'
loop_
_space_group_symop_operation_xyz
x,y,z
-x,1/2+y,-z
loop_
_atom_site_type_symbol
_atom_site_label
_atom_site_fract_x
_atom_site_fract_y
_atom_site_fract_z
Si Si1 0.754327 0.401440 0.422255
Si Si2 0.093961 0.825775 0.915430
Si Si3 0.602421 0.801690 0.928782
Si Si4 0.796583 0.910985 0.449165
Si Si5 0.468964 0.484014 0.906652
Si Si6 0.303337 0.656086 0.447291
Si Si7 0.244708 0.165023 0.418249
Si Si8 0.036904 0.647495 0.094284
O O1 0.539282 0.400030 0.232771
O O2 0.781786 0.234507 0.483881
O O3 0.745232 0.493514 0.535085
O O4 0.957179 0.446841 0.453082
O O5 0.965312 0.726059 0.756919
O O6 0.299188 0.901728 0.963198
O O7 0.158076 0.707794 0.046698
O O8 0.965546 0.966365 0.904903
O O9 0.477261 0.663269 0.923162
O O10 0.672985 0.915800 0.065459
O O11 0.801914 0.725071 0.969441
O O12 0.635016 0.954010 0.267272
O O13 0.752351 0.739080 0.456122
O O14 0.738273 0.984648 0.539991
O O15 0.553507 0.692664 0.557551
O O16 0.167504 0.706683 0.269179
#
# Coordination Sequence:
#
# PCOD8047775 Si02
#       8
#     2   2   2   2   2   2   2   2
#     4  12  27  45  77 107 148 198 248 307 368 441
#     4  11  26  46  73 107 148 192 244 301 368 439
#     4  11  26  46  73 107 148 192 244 301 368 439
#     4  12  25  48  72 109 150 193 249 304 367 444
#     4  11  26  46  74 106 149 192 244 304 365 441
#     4  12  25  48  72 109 150 193 249 304 367 444
#     4  12  27  45  77 107 148 198 248 307 368 441
#     4  11  26  46  74 106 149 192 244 304 365 441
#
# _framework density 24.2805
#
# number of rings (size 3 to 8) (size 9 to 14) (size 15 to 20)
#    0.000    0.500    2.500    4.500   10.500    1.000 
#    0.000    0.000    0.000    0.000    0.000    0.000 
#    0.000    0.000    0.000    0.000    0.000    0.000 
#
# Total GULP energy -198366.092685 kJ/mol
# GULP energy per Si atom -12397.880793 kJ/mol
# Density = 2.422524 g / cm^3
# Si number density = 24.280500 Si / 1000 Ang^3
#
#
#
# Elastic Constant Matrix: (Units=GPa)
#
#
# Indices 1 2 3 4 5 6 
#
# 1 73.7730 27.2149 38.3485 0.0000 -4.8150 0.0000
# 2 27.2149 71.2008 33.6542 0.0000 -9.7909 0.0000
# 3 38.3485 33.6542 124.0380 0.0000 1.0948 0.0000
# 4 0.0000 0.0000 0.0000 46.9802 0.0000 -15.1841
# 5 -4.8150 -9.7909 1.0948 0.0000 40.0495 0.0000
# 6 0.0000 0.0000 0.0000 -15.1841 0.0000 53.0361
#
#
#
# Elastic Compliance Matrix: (Units=1/GPa)
#
#
# Indices 1 2 3 4 5 6 
#
# 1 0.017479 -0.004555 -0.004178 0.000000 0.001102 0.000000
# 2 -0.004555 0.017986 -0.003507 0.000000 0.003945 0.000000
# 3 -0.004178 -0.003507 0.010320 0.000000 -0.001642 0.000000
# 4 0.000000 0.000000 0.000000 0.023456 0.000000 0.006715
# 5 0.001102 0.003945 -0.001642 0.000000 0.026111 0.000000
# 6 0.000000 0.000000 0.000000 0.006715 0.000000 0.020778
#
#
# Mechanical properties :
#
#
# Convention : Reuss Voigt Hill
#
# Bulk Modulus (GPa) = 46.93506 51.93857 49.43681
# Shear Modulus (GPa) = 33.85032 39.33277 36.59154
#
# Velocity S-wave (km/s) = 3.73786 4.02920 3.88627
# Velocity P-wave (km/s) = 6.16451 6.56380 6.36729
#
# Compressibility (1/GPa) = 0.02130604
#
# Stress axis : x y z
#
# Youngs Moduli (GPa) = 57.21156 55.59990 96.90289
#
# Poissons Ratio (x) = 0.25324 0.40485
# Poissons Ratio (y) = 0.26058 0.33980
# Poissons Ratio (z) = 0.23902 0.19497
#
# Static dielectric constant tensor:
#      x y z
#    x 4.146930 0.000000 -0.010360 
#    y 0.000000 4.525160 0.000000 
#    z -0.010360 0.000000 4.145090 
# 
# 
# High freq. dielectric constant tensor:
#      x y z
#    x 1.961730 0.000000 -0.010860 
#    y 0.000000 1.981190 0.000000 
#    z -0.010860 0.000000 1.963540 
# 
# From -- ./inp_files/5753.got.cif
#   From: 2010.03.12/outbox.cif.g09.slc.cpg/sg4_3_cif.got.tgz:5753.got - 2010.03.31 09:31:35.
