data_PCOD8047800
_publ_section_title
;
Structure prediction by ZEFSAII (Michael W. Deem and Ramdas Pophale) SiO2 
 PCOD8047800
Probable space group: P 21
;
_chemical_formula_sum "Si O2"
_cell_formula_units_Z 10
_cell_length_a 7.931534
_cell_length_b 8.031740
_cell_length_c 5.864957
_cell_angle_alpha 90.000000
_cell_angle_beta 104.134971
_cell_angle_gamma 90.000000
_cell_volume 362.309252
_symmetry_space_group_name_H-M "P 21"
_symmetry_group_IT_number 4
_symmetry_cell_setting 'monoclinic'
loop_
_space_group_symop_operation_xyz
x,y,z
-x,1/2+y,-z
loop_
_atom_site_type_symbol
_atom_site_label
_atom_site_fract_x
_atom_site_fract_y
_atom_site_fract_z
Si Si1 0.755957 0.668240 0.309272
Si Si2 0.193128 0.614340 0.047611
Si Si3 0.570040 0.309721 0.580692
Si Si4 0.997189 0.370641 0.316510
Si Si5 0.508554 0.628135 0.846372
O O1 0.585377 0.681066 0.406463
O O2 0.885249 0.818035 0.426210
O O3 0.846691 0.488010 0.371725
O O4 0.692007 0.679003 0.023945
O O5 0.246676 0.750246 0.255974
O O6 0.103047 0.464749 0.152420
O O7 0.369289 0.554683 0.979469
O O8 0.069317 0.700636 0.820704
O O9 0.531296 0.490880 0.659726
O O10 0.571220 0.293708 0.304251
#
# Coordination Sequence:
#
# PCOD8047800 Si02
#       5
#     2   2   2   2   2
#     4  11  29  51  79 120 166 215 273 334 411 480
#     4  11  29  52  81 118 167 216 273 337 410 483
#     4  11  26  50  84 118 158 219 275 328 405 494
#     4  12  29  53  83 120 168 216 271 341 414 479
#     4  11  27  54  83 118 165 218 276 334 404 498
#
# _framework density 27.600732000000001
#
# number of rings (size 3 to 8) (size 9 to 14) (size 15 to 20)
#    0.000    0.800    2.000    1.200   14.000    3.200 
#    0.000    0.000    0.000    0.000    0.000    0.000 
#    0.000    0.000    0.000    0.000    0.000    0.000 
#
# Total GULP energy -123942.449881 kJ/mol
# GULP energy per Si atom -12394.244988 kJ/mol
# Density = 2.753791 g / cm^3
# Si number density = 27.600732 Si / 1000 Ang^3
#
#
#
# Elastic Constant Matrix: (Units=GPa)
#
#
# Indices 1 2 3 4 5 6 
#
# 1 57.9329 34.2581 28.9500 0.0000 25.4047 0.0000
# 2 34.2581 120.9390 70.2365 0.0000 5.1234 0.0000
# 3 28.9500 70.2365 149.0399 0.0000 34.8072 0.0000
# 4 0.0000 0.0000 0.0000 61.7498 0.0000 1.8400
# 5 25.4047 5.1234 34.8072 0.0000 33.1702 0.0000
# 6 0.0000 0.0000 0.0000 1.8400 0.0000 47.0038
#
#
#
# Elastic Compliance Matrix: (Units=1/GPa)
#
#
# Indices 1 2 3 4 5 6 
#
# 1 0.035388 -0.012406 0.006431 0.000000 -0.031936 0.000000
# 2 -0.012406 0.016433 -0.009220 0.000000 0.016639 0.000000
# 3 0.006431 -0.009220 0.014072 0.000000 -0.018267 0.000000
# 4 0.000000 0.000000 0.000000 0.016213 0.000000 -0.000635
# 5 -0.031936 0.016639 -0.018267 0.000000 0.071206 0.000000
# 6 0.000000 0.000000 0.000000 -0.000635 0.000000 0.021300
#
#
# Mechanical properties :
#
#
# Convention : Reuss Voigt Hill
#
# Bulk Modulus (GPa) = 28.16745 66.08900 47.12822
# Shear Modulus (GPa) = 23.05886 41.34926 32.20406
#
# Velocity S-wave (km/s) = 2.89354 3.87476 3.41953
# Velocity P-wave (km/s) = 4.62503 6.63438 5.71865
#
# Compressibility (1/GPa) = 0.03550198
#
# Stress axis : x y z
#
# Youngs Moduli (GPa) = 28.25782 60.85419 71.06441
#
# Poissons Ratio (x) = 0.75498 -0.45701
# Poissons Ratio (y) = 0.35058 0.65522
# Poissons Ratio (z) = -0.18173 0.56108
#
# Static dielectric constant tensor:
#      x y z
#    x 5.063170 0.000000 0.199690 
#    y 0.000000 4.716650 0.000000 
#    z 0.199690 0.000000 5.392140 
# 
# 
# High freq. dielectric constant tensor:
#      x y z
#    x 2.112670 0.000000 0.007300 
#    y 0.000000 2.114840 0.000000 
#    z 0.007300 0.000000 2.131490 
# 
# From -- ./inp_files/945.got.cif
#   From: 2010.03.12/outbox.cif.g09.slc.cpg/sg4_1_cif.got.tgz:945.got - 2010.03.31 09:31:35.
