data_PCOD8047052
_publ_section_title
;
Structure prediction by ZEFSAII (Michael W. Deem and Ramdas Pophale) SiO2 
 PCOD8047052
Probable space group: P 21
;
_chemical_formula_sum "Si O2"
_cell_formula_units_Z 12
_cell_length_a 7.761127
_cell_length_b 8.069347
_cell_length_c 9.345613
_cell_angle_alpha 90.000000
_cell_angle_beta 58.480308
_cell_angle_gamma 90.000000
_cell_volume 498.936479
_symmetry_space_group_name_H-M "P 21"
_symmetry_group_IT_number 4
_symmetry_cell_setting 'monoclinic'
loop_
_space_group_symop_operation_xyz
x,y,z
-x,1/2+y,-z
loop_
_atom_site_type_symbol
_atom_site_label
_atom_site_fract_x
_atom_site_fract_y
_atom_site_fract_z
Si Si1 0.133743 0.482700 0.778558
Si Si2 0.225925 0.427030 0.270133
Si Si3 0.586312 0.376817 0.564016
Si Si4 0.414536 0.044840 0.715723
Si Si5 0.124902 0.265113 0.033494
Si Si6 0.071441 0.795061 0.392122
O O1 0.375349 0.470780 0.682179
O O2 0.064400 0.673331 0.810179
O O3 0.042430 0.392406 0.682006
O O4 0.035785 0.397136 0.961132
O O5 0.443926 0.426294 0.250920
O O6 0.255436 0.364175 0.095126
O O7 0.127906 0.610873 0.316947
O O8 0.086519 0.290269 0.408397
O O9 0.550998 0.179399 0.571176
O O10 0.687009 0.439133 0.370064
O O11 0.735380 0.401943 0.635143
O O12 0.260475 0.133331 0.888615
#
# Coordination Sequence:
#
# PCOD8047052 Si02
#       6
#     2   2   2   2   2   2
#     4  11  24  46  67 108 144 193 236 294 361 423
#     4  11  24  45  72 109 145 187 241 295 358 429
#     4  10  24  42  71 103 138 186 242 287 347 427
#     4  10  24  45  70 107 143 187 239 291 357 424
#     4  11  26  43  73 105 151 188 235 300 366 419
#     4  11  24  43  75 104 143 191 243 293 351 430
#
# _framework density 24.051155000000001
#
# number of rings (size 3 to 8) (size 9 to 14) (size 15 to 20)
#    0.000    1.333    1.667    2.000    9.333    5.333 
#    0.000    1.667    0.000    0.000    0.000    0.000 
#    0.000    0.000    0.000    0.000    0.000    0.000 
#
# Total GULP energy -148760.205502 kJ/mol
# GULP energy per Si atom -12396.683792 kJ/mol
# Density = 2.399641 g / cm^3
# Si number density = 24.051155 Si / 1000 Ang^3
#
#
#
# Elastic Constant Matrix: (Units=GPa)
#
#
# Indices 1 2 3 4 5 6 
#
# 1 101.1811 27.7873 41.9365 0.0000 18.6050 0.0000
# 2 27.7873 66.1895 45.1059 0.0000 -0.0597 0.0000
# 3 41.9365 45.1059 117.8060 0.0000 30.8894 0.0000
# 4 0.0000 0.0000 0.0000 63.1345 0.0000 7.6621
# 5 18.6050 -0.0597 30.8894 0.0000 20.6746 0.0000
# 6 0.0000 0.0000 0.0000 7.6621 0.0000 31.0044
#
#
#
# Elastic Compliance Matrix: (Units=1/GPa)
#
#
# Indices 1 2 3 4 5 6 
#
# 1 0.013861 -0.006960 0.001655 0.000000 -0.014966 0.000000
# 2 -0.006960 0.030032 -0.017569 0.000000 0.032599 0.000000
# 3 0.001655 -0.017569 0.024710 0.000000 -0.038459 0.000000
# 4 0.000000 0.000000 0.000000 0.016329 0.000000 -0.004035
# 5 -0.014966 0.032599 -0.038459 0.000000 0.119391 0.000000
# 6 0.000000 0.000000 0.000000 -0.004035 0.000000 0.033251
#
#
# Mechanical properties :
#
#
# Convention : Reuss Voigt Hill
#
# Bulk Modulus (GPa) = 43.75387 57.20401 50.47894
# Shear Modulus (GPa) = 17.18567 34.31917 25.75242
#
# Velocity S-wave (km/s) = 2.67600 3.78156 3.27576
# Velocity P-wave (km/s) = 5.27062 6.55003 5.94485
#
# Compressibility (1/GPa) = 0.02285512
#
# Stress axis : x y z
#
# Youngs Moduli (GPa) = 72.14621 33.29780 40.46895
#
# Poissons Ratio (x) = 0.23176 -0.06698
# Poissons Ratio (y) = 0.50216 0.71099
# Poissons Ratio (z) = -0.11940 0.58500
#
# Static dielectric constant tensor:
#      x y z
#    x 4.401670 0.000000 0.195490 
#    y 0.000000 4.408310 0.000000 
#    z 0.195490 0.000000 4.392230 
# 
# 
# High freq. dielectric constant tensor:
#      x y z
#    x 1.957450 0.000000 0.012450 
#    y 0.000000 1.955990 0.000000 
#    z 0.012450 0.000000 1.959430 
# 
# From -- ./inp_files/5342.got.cif
#   From: 2010.03.12/outbox.cif.g09.slc.cpg/sg4_3_cif.got.tgz:5342.got - 2010.03.31 09:31:35.
