data_PCOD8047513
_publ_section_title
;
Structure prediction by ZEFSAII (Michael W. Deem and Ramdas Pophale) SiO2 
 PCOD8047513
Probable space group: P 21
;
_chemical_formula_sum "Si O2"
_cell_formula_units_Z 14
_cell_length_a 6.931849
_cell_length_b 5.423059
_cell_length_c 16.889323
_cell_angle_alpha 90.000000
_cell_angle_beta 77.238717
_cell_angle_gamma 90.000000
_cell_volume 619.217715
_symmetry_space_group_name_H-M "P 21"
_symmetry_group_IT_number 4
_symmetry_cell_setting 'monoclinic'
loop_
_space_group_symop_operation_xyz
x,y,z
-x,1/2+y,-z
loop_
_atom_site_type_symbol
_atom_site_label
_atom_site_fract_x
_atom_site_fract_y
_atom_site_fract_z
Si Si1 0.336168 0.563810 0.904833
Si Si2 0.644888 0.921044 0.926471
Si Si3 0.703345 0.195384 0.342232
Si Si4 0.998957 0.137086 0.182885
Si Si5 0.883136 0.207539 0.495591
Si Si6 0.675890 0.307875 0.801011
Si Si7 0.539050 0.191472 0.649130
O O1 0.423598 0.818116 0.931697
O O2 0.120636 0.573137 0.885642
O O3 0.491855 0.497398 0.820930
O O4 0.308383 0.392014 0.984862
O O5 0.815304 0.797297 0.858896
O O6 0.642236 0.191706 0.890780
O O7 0.854124 0.268926 0.258191
O O8 0.821666 0.158430 0.411739
O O9 0.561538 0.432054 0.363579
O O10 0.599807 0.933026 0.333129
O O11 0.098782 0.906544 0.219724
O O12 0.694583 0.253491 0.567303
O O13 0.007936 0.459838 0.485604
O O14 0.647360 0.147944 0.724108
#
# Coordination Sequence:
#
# PCOD8047513 Si02
#       7
#     2   2   2   2   2   2   2
#     4  11  23  46  61 100 134 186 233 301 357 421
#     4  11  25  40  68  93 139 181 241 295 361 422
#     4  12  26  48  73 106 145 191 237 288 360 428
#     4  11  27  41  68 102 136 184 242 293 359 424
#     4  12  26  46  76 110 147 183 238 296 348 429
#     4  11  25  44  69  96 139 184 238 294 356 423
#     4  12  26  47  75 103 146 191 237 289 359 427
#
# _framework density 22.609171
#
# number of rings (size 3 to 8) (size 9 to 14) (size 15 to 20)
#    0.000    0.571    2.857    4.286    8.000    1.143 
#    0.000    0.000    0.000    0.000    0.000    0.000 
#    0.000    0.000    0.000    0.000    0.000    0.000 
#
# Total GULP energy -173471.174432 kJ/mol
# GULP energy per Si atom -12390.798174 kJ/mol
# Density = 2.255771 g / cm^3
# Si number density = 22.609171 Si / 1000 Ang^3
#
#
#
# Elastic Constant Matrix: (Units=GPa)
#
#
# Indices 1 2 3 4 5 6 
#
# 1 111.2236 27.7646 36.6367 0.0000 7.4999 0.0000
# 2 27.7646 86.3756 11.2185 0.0000 -0.2359 0.0000
# 3 36.6367 11.2185 126.0420 0.0000 9.1529 0.0000
# 4 0.0000 0.0000 0.0000 32.8107 0.0000 2.4986
# 5 7.4999 -0.2359 9.1529 0.0000 44.8039 0.0000
# 6 0.0000 0.0000 0.0000 2.4986 0.0000 26.4937
#
#
#
# Elastic Compliance Matrix: (Units=1/GPa)
#
#
# Indices 1 2 3 4 5 6 
#
# 1 0.010759 -0.003103 -0.002760 0.000000 -0.001254 0.000000
# 2 -0.003103 0.012611 -0.000267 0.000000 0.000640 0.000000
# 3 -0.002760 -0.000267 0.008858 0.000000 -0.001349 0.000000
# 4 0.000000 0.000000 0.000000 0.030698 0.000000 -0.002895
# 5 -0.001254 0.000640 -0.001349 0.000000 0.022808 0.000000
# 6 0.000000 0.000000 0.000000 -0.002895 0.000000 0.038018
#
#
# Mechanical properties :
#
#
# Convention : Reuss Voigt Hill
#
# Bulk Modulus (GPa) = 50.08131 52.76452 51.42291
# Shear Modulus (GPa) = 35.04597 37.35642 36.20119
#
# Velocity S-wave (km/s) = 3.94137 4.06922 4.00581
# Velocity P-wave (km/s) = 6.55069 6.74288 6.64748
#
# Compressibility (1/GPa) = 0.01996753
#
# Stress axis : x y z
#
# Youngs Moduli (GPa) = 92.94276 79.29381 112.89389
#
# Poissons Ratio (x) = 0.24608 0.31161
# Poissons Ratio (y) = 0.28844 0.03013
# Poissons Ratio (z) = 0.25654 0.02116
#
# Static dielectric constant tensor:
#      x y z
#    x 4.113200 0.000000 0.023470 
#    y 0.000000 4.181540 0.000000 
#    z 0.023470 0.000000 4.249590 
# 
# 
# High freq. dielectric constant tensor:
#      x y z
#    x 1.899350 0.000000 0.002010 
#    y 0.000000 1.883670 0.000000 
#    z 0.002010 0.000000 1.915820 
# 
# From -- ./inp_files/3328.got.cif
#   From: 2010.03.12/outbox.cif.g09.slc.cpg/sg4_2_cif.got.tgz:3328.got - 2010.03.31 09:31:35.
