data_PCOD8047698
_publ_section_title
;
Structure prediction by ZEFSAII (Michael W. Deem and Ramdas Pophale) SiO2 
 PCOD8047698
Probable space group: P 21
;
_chemical_formula_sum "Si O2"
_cell_formula_units_Z 16
_cell_length_a 19.223789
_cell_length_b 8.229129
_cell_length_c 9.478778
_cell_angle_alpha 90.000000
_cell_angle_beta 150.382621
_cell_angle_gamma 90.000000
_cell_volume 741.059122
_symmetry_space_group_name_H-M "P 21"
_symmetry_group_IT_number 4
_symmetry_cell_setting 'monoclinic'
loop_
_space_group_symop_operation_xyz
x,y,z
-x,1/2+y,-z
loop_
_atom_site_type_symbol
_atom_site_label
_atom_site_fract_x
_atom_site_fract_y
_atom_site_fract_z
Si Si1 0.121911 0.318790 0.091427
Si Si2 0.117357 0.190853 0.767715
Si Si3 0.568631 0.168030 0.684320
Si Si4 0.433938 0.310120 0.708780
Si Si5 0.432819 0.678826 0.792151
Si Si6 0.133849 0.814530 0.855042
Si Si7 0.123927 0.698693 0.143851
Si Si8 0.601155 0.809458 0.848928
O O1 0.269734 0.257154 0.417854
O O2 0.113247 0.511934 0.082405
O O3 0.110435 0.270522 0.908632
O O4 0.995677 0.237331 0.953866
O O5 0.974603 0.217961 0.432734
O O6 0.147075 0.000301 0.832560
O O7 0.233671 0.278586 0.875917
O O8 0.496070 0.294135 0.662419
O O9 0.480985 0.173647 0.385853
O O10 0.558761 0.988073 0.726211
O O11 0.724884 0.218228 0.924221
O O12 0.451454 0.493380 0.786411
O O13 0.529333 0.196660 0.976849
O O14 0.275110 0.740564 0.479681
O O15 0.549896 0.787690 0.918699
O O16 0.097923 0.806788 0.958287
#
# Coordination Sequence:
#
# PCOD8047698 Si02
#       8
#     2   2   2   2   2   2   2   2
#     4  11  25  45  68  96 135 177 222 272 330 396
#     4  12  26  45  70  99 134 176 222 274 332 394
#     4  12  24  43  70  99 133 173 222 275 331 392
#     4  11  25  44  68  98 134 176 223 272 330 394
#     4  11  25  44  68  98 134 176 223 272 330 394
#     4  12  26  45  70  99 134 176 222 274 332 394
#     4  11  25  45  68  96 135 177 222 272 330 396
#     4  12  24  43  70  99 133 173 222 275 331 392
#
# _framework density 21.590720999999998
#
# number of rings (size 3 to 8) (size 9 to 14) (size 15 to 20)
#    0.000    0.500    2.500    6.000    3.500    3.000 
#    0.000    0.000    0.000    0.000    0.000    0.000 
#    0.000    0.000    0.000    0.000    0.000    0.000 
#
# Total GULP energy -198504.059874 kJ/mol
# GULP energy per Si atom -12406.503742 kJ/mol
# Density = 2.154158 g / cm^3
# Si number density = 21.590721 Si / 1000 Ang^3
#
#
#
# Elastic Constant Matrix: (Units=GPa)
#
#
# Indices 1 2 3 4 5 6 
#
# 1 97.9933 7.3430 33.3608 0.0000 12.8341 0.0000
# 2 7.3430 47.8483 30.6426 0.0000 11.7828 0.0000
# 3 33.3608 30.6426 152.1133 0.0000 27.8682 0.0000
# 4 0.0000 0.0000 0.0000 34.8863 0.0000 -0.1584
# 5 12.8341 11.7828 27.8682 0.0000 47.6191 0.0000
# 6 0.0000 0.0000 0.0000 -0.1584 0.0000 40.5598
#
#
#
# Elastic Compliance Matrix: (Units=1/GPa)
#
#
# Indices 1 2 3 4 5 6 
#
# 1 0.011159 0.000097 -0.002141 0.000000 -0.001779 0.000000
# 2 0.000097 0.024522 -0.004306 0.000000 -0.003574 0.000000
# 3 -0.002141 -0.004306 0.008524 0.000000 -0.003346 0.000000
# 4 0.000000 0.000000 0.000000 0.028665 0.000000 0.000112
# 5 -0.001779 -0.003574 -0.003346 0.000000 0.024322 0.000000
# 6 0.000000 0.000000 0.000000 0.000112 0.000000 0.024655
#
#
# Mechanical properties :
#
#
# Convention : Reuss Voigt Hill
#
# Bulk Modulus (GPa) = 31.74187 48.96083 40.35135
# Shear Modulus (GPa) = 34.47057 39.72027 37.09542
#
# Velocity S-wave (km/s) = 4.00001 4.29382 4.14952
# Velocity P-wave (km/s) = 6.00558 6.87812 6.45661
#
# Compressibility (1/GPa) = 0.03150413
#
# Stress axis : x y z
#
# Youngs Moduli (GPa) = 89.61076 40.77898 117.31413
#
# Poissons Ratio (x) = -0.00394 0.25117
# Poissons Ratio (y) = -0.00865 0.50520
# Poissons Ratio (z) = 0.19186 0.17561
#
# Static dielectric constant tensor:
#      x y z
#    x 4.183230 0.000000 -0.034070 
#    y 0.000000 3.929100 0.000000 
#    z -0.034070 0.000000 4.102410 
# 
# 
# High freq. dielectric constant tensor:
#      x y z
#    x 1.859840 0.000000 0.001220 
#    y 0.000000 1.860300 0.000000 
#    z 0.001220 0.000000 1.858030 
# 
# From -- ./inp_files/5427.got.cif
#   From: 2010.03.12/outbox.cif.g09.slc.cpg/sg4_3_cif.got.tgz:5427.got - 2010.03.31 09:31:35.
