data_PCOD8047706
_publ_section_title
;
Structure prediction by ZEFSAII (Michael W. Deem and Ramdas Pophale) SiO2 
 PCOD8047706
Probable space group: P 21
;
_chemical_formula_sum "Si O2"
_cell_formula_units_Z 12
_cell_length_a 7.325225
_cell_length_b 5.371952
_cell_length_c 14.879723
_cell_angle_alpha 90.000000
_cell_angle_beta 56.473454
_cell_angle_gamma 90.000000
_cell_volume 488.114018
_symmetry_space_group_name_H-M "P 21"
_symmetry_group_IT_number 4
_symmetry_cell_setting 'monoclinic'
loop_
_space_group_symop_operation_xyz
x,y,z
-x,1/2+y,-z
loop_
_atom_site_type_symbol
_atom_site_label
_atom_site_fract_x
_atom_site_fract_y
_atom_site_fract_z
Si Si1 0.949313 0.307230 0.242790
Si Si2 0.492336 0.908942 0.056864
Si Si3 0.245079 0.417801 0.581348
Si Si4 0.202053 0.690500 0.270458
Si Si5 0.929271 0.690475 0.980120
Si Si6 0.481187 0.093947 0.650859
O O1 0.750526 0.475643 0.258449
O O2 0.168189 0.454105 0.213880
O O3 0.024163 0.138138 0.138215
O O4 0.857274 0.173722 0.356290
O O5 0.285289 0.913571 0.182318
O O6 0.464124 0.686384 0.991101
O O7 0.697112 0.822206 0.061000
O O8 0.422047 0.337497 0.608514
O O9 0.366660 0.421741 0.453249
O O10 0.039105 0.234618 0.622959
O O11 0.380670 0.653061 0.298631
O O12 0.914194 0.412308 0.025558
#
# Coordination Sequence:
#
# PCOD8047706 Si02
#       6
#     2   2   2   2   2   2
#     4  11  25  48  70 100 143 182 239 298 354 432
#     4  12  25  48  72 105 150 190 241 304 362 431
#     4  11  25  45  71 100 145 178 236 303 356 437
#     4  11  27  43  72 104 138 189 239 295 363 432
#     4  12  27  46  75 106 146 193 243 299 367 434
#     4  11  25  46  70 105 136 186 236 293 368 428
#
# _framework density 24.584420000000001
#
# number of rings (size 3 to 8) (size 9 to 14) (size 15 to 20)
#    0.000    0.667    3.333    3.000    9.333    1.333 
#    0.000    0.000    0.000    0.000    0.000    0.000 
#    0.000    0.000    0.000    0.000    0.000    0.000 
#
# Total GULP energy -148686.217578 kJ/mol
# GULP energy per Si atom -12390.518132 kJ/mol
# Density = 2.452847 g / cm^3
# Si number density = 24.584420 Si / 1000 Ang^3
#
#
#
# Elastic Constant Matrix: (Units=GPa)
#
#
# Indices 1 2 3 4 5 6 
#
# 1 129.7773 4.2424 13.5856 0.0000 23.5170 0.0000
# 2 4.2424 54.0270 -8.3146 0.0000 19.4589 0.0000
# 3 13.5856 -8.3146 105.0625 0.0000 5.3070 0.0000
# 4 0.0000 0.0000 0.0000 40.3620 0.0000 1.2213
# 5 23.5170 19.4589 5.3070 0.0000 38.7248 0.0000
# 6 0.0000 0.0000 0.0000 1.2213 0.0000 24.0948
#
#
#
# Elastic Compliance Matrix: (Units=1/GPa)
#
#
# Indices 1 2 3 4 5 6 
#
# 1 0.008811 0.001326 -0.000736 0.000000 -0.005916 0.000000
# 2 0.001326 0.023405 0.002332 0.000000 -0.012886 0.000000
# 3 -0.000736 0.002332 0.009903 0.000000 -0.002082 0.000000
# 4 0.000000 0.000000 0.000000 0.024814 0.000000 -0.001258
# 5 -0.005916 -0.012886 -0.002082 0.000000 0.036176 0.000000
# 6 0.000000 0.000000 0.000000 -0.001258 0.000000 0.041566
#
#
# Mechanical properties :
#
#
# Convention : Reuss Voigt Hill
#
# Bulk Modulus (GPa) = 20.84940 34.21040 27.52990
# Shear Modulus (GPa) = 32.29560 39.25987 35.77774
#
# Velocity S-wave (km/s) = 3.62838 4.00051 3.81898
# Velocity P-wave (km/s) = 5.10418 5.94007 5.53792
#
# Compressibility (1/GPa) = 0.04796302
#
# Stress axis : x y z
#
# Youngs Moduli (GPa) = 113.49090 42.72594 100.97981
#
# Poissons Ratio (x) = -0.05665 0.07428
# Poissons Ratio (y) = -0.15047 -0.23546
# Poissons Ratio (z) = 0.08349 -0.09962
#
# Static dielectric constant tensor:
#      x y z
#    x 4.626300 0.000000 -0.354340 
#    y 0.000000 4.375630 0.000000 
#    z -0.354340 0.000000 4.523460 
# 
# 
# High freq. dielectric constant tensor:
#      x y z
#    x 1.990940 0.000000 -0.017750 
#    y 0.000000 1.969090 0.000000 
#    z -0.017750 0.000000 1.983800 
# 
# From -- ./inp_files/3371.got.cif
#   From: 2010.03.12/outbox.cif.g09.slc.cpg/sg4_2_cif.got.tgz:3371.got - 2010.03.31 09:31:35.
