data_PCOD8047948
_publ_section_title
;
Structure prediction by ZEFSAII (Michael W. Deem and Ramdas Pophale) SiO2 
 PCOD8047948
Probable space group: P 21
;
_chemical_formula_sum "Si O2"
_cell_formula_units_Z 16
_cell_length_a 15.253389
_cell_length_b 8.895766
_cell_length_c 5.094169
_cell_angle_alpha 90.000000
_cell_angle_beta 71.657635
_cell_angle_gamma 90.000000
_cell_volume 656.111416
_symmetry_space_group_name_H-M "P 21"
_symmetry_group_IT_number 4
_symmetry_cell_setting 'monoclinic'
loop_
_space_group_symop_operation_xyz
x,y,z
-x,1/2+y,-z
loop_
_atom_site_type_symbol
_atom_site_label
_atom_site_fract_x
_atom_site_fract_y
_atom_site_fract_z
Si Si1 0.781686 0.276960 0.154425
Si Si2 0.080396 0.425103 0.302971
Si Si3 0.308232 0.074575 0.607938
Si Si4 0.894886 0.253960 0.557223
Si Si5 0.192452 0.341003 0.695699
Si Si6 0.346403 0.510964 0.792197
Si Si7 0.493771 0.050549 0.700181
Si Si8 0.423684 0.272902 0.120078
O O1 0.722786 0.401797 0.367631
O O2 0.841581 0.210545 0.338627
O O3 0.720320 0.148385 0.068425
O O4 0.838989 0.338093 0.847513
O O5 0.066828 0.600577 0.360492
O O6 0.147346 0.348688 0.452585
O O7 0.978946 0.358368 0.397305
O O8 0.124021 0.407759 0.975360
O O9 0.214992 0.168391 0.752665
O O10 0.355533 0.145644 0.303591
O O11 0.385373 0.079838 0.759398
O O12 0.293186 0.424917 0.601835
O O13 0.443147 0.585649 0.611492
O O14 0.362775 0.387466 0.000803
O O15 0.518716 0.878129 0.737533
O O16 0.508937 0.179435 0.904686
#
# Coordination Sequence:
#
# PCOD8047948 Si02
#       8
#     2   2   2   2   2   2   2   2
#     4  12  31  48  82 117 159 205 273 333 387 485
#     4  12  27  50  81 113 155 201 253 328 400 493
#     4  12  30  48  74 116 157 213 270 329 394 472
#     4  12  28  52  79 119 154 203 257 325 417 473
#     4  12  25  49  81 106 153 205 261 314 398 469
#     4  12  26  49  73 110 154 214 268 325 396 473
#     4  12  28  46  73 113 155 214 267 331 401 479
#     4  12  27  48  75 106 163 217 269 331 409 466
#
# _framework density 24.386104
#
# number of rings (size 3 to 8) (size 9 to 14) (size 15 to 20)
#    0.000    0.000    5.000    2.250   14.000    0.000 
#    0.000    0.000    0.000    0.000    0.000    0.000 
#    0.000    0.000    0.000    0.000    0.000    0.000 
#
# Total GULP energy -198286.389475 kJ/mol
# GULP energy per Si atom -12392.899342 kJ/mol
# Density = 2.433060 g / cm^3
# Si number density = 24.386104 Si / 1000 Ang^3
#
#
#
# Elastic Constant Matrix: (Units=GPa)
#
#
# Indices 1 2 3 4 5 6 
#
# 1 56.7538 29.0923 37.3694 0.0000 -8.0131 0.0000
# 2 29.0923 113.0943 45.5049 0.0000 -19.5982 0.0000
# 3 37.3694 45.5049 114.7922 0.0000 2.5935 0.0000
# 4 0.0000 0.0000 0.0000 43.1942 0.0000 -4.3307
# 5 -8.0131 -19.5982 2.5935 0.0000 29.3916 0.0000
# 6 0.0000 0.0000 0.0000 -4.3307 0.0000 33.7864
#
#
#
# Elastic Compliance Matrix: (Units=1/GPa)
#
#
# Indices 1 2 3 4 5 6 
#
# 1 0.024325 -0.002431 -0.007082 0.000000 0.005636 0.000000
# 2 -0.002431 0.012657 -0.004411 0.000000 0.008166 0.000000
# 3 -0.007082 -0.004411 0.012901 0.000000 -0.006010 0.000000
# 4 0.000000 0.000000 0.000000 0.023453 0.000000 0.003006
# 5 0.005636 0.008166 -0.006010 0.000000 0.041535 0.000000
# 6 0.000000 0.000000 0.000000 0.003006 0.000000 0.029983
#
#
# Mechanical properties :
#
#
# Convention : Reuss Voigt Hill
#
# Bulk Modulus (GPa) = 45.38116 56.50818 50.94467
# Shear Modulus (GPa) = 27.77030 32.78601 30.27815
#
# Velocity S-wave (km/s) = 3.37824 3.67066 3.52748
# Velocity P-wave (km/s) = 5.81949 6.41775 6.12593
#
# Compressibility (1/GPa) = 0.02203557
#
# Stress axis : x y z
#
# Youngs Moduli (GPa) = 41.10943 79.00544 77.51205
#
# Poissons Ratio (x) = 0.19207 0.54898
# Poissons Ratio (y) = 0.09994 0.34187
# Poissons Ratio (z) = 0.29116 0.34846
#
# Static dielectric constant tensor:
#      x y z
#    x 4.424760 0.000000 -0.070070 
#    y 0.000000 4.587990 0.000000 
#    z -0.070070 0.000000 4.348590 
# 
# 
# High freq. dielectric constant tensor:
#      x y z
#    x 1.968020 0.000000 0.000350 
#    y 0.000000 1.979360 0.000000 
#    z 0.000350 0.000000 1.972050 
# 
# From -- ./inp_files/3621.got.cif
#   From: 2010.03.12/outbox.cif.g09.slc.cpg/sg4_2_cif.got.tgz:3621.got - 2010.03.31 09:31:35.
