data_PCOD8047323
_publ_section_title
;
Structure prediction by ZEFSAII (Michael W. Deem and Ramdas Pophale) SiO2 
 PCOD8047323
Probable space group: P 21
;
_chemical_formula_sum "Si O2"
_cell_formula_units_Z 16
_cell_length_a 9.179808
_cell_length_b 18.917610
_cell_length_c 5.278285
_cell_angle_alpha 90.000000
_cell_angle_beta 125.097255
_cell_angle_gamma 90.000000
_cell_volume 749.963469
_symmetry_space_group_name_H-M "P 21"
_symmetry_group_IT_number 4
_symmetry_cell_setting 'monoclinic'
loop_
_space_group_symop_operation_xyz
x,y,z
-x,1/2+y,-z
loop_
_atom_site_type_symbol
_atom_site_label
_atom_site_fract_x
_atom_site_fract_y
_atom_site_fract_z
Si Si1 0.748358 0.837320 0.250794
Si Si2 0.744216 0.077755 0.246638
Si Si3 0.096713 0.135696 0.793579
Si Si4 0.751484 0.749191 0.753971
Si Si5 0.403268 0.450872 0.600156
Si Si6 0.244101 0.008770 0.241641
Si Si7 0.608087 0.634633 0.307315
Si Si8 0.891921 0.951844 0.091137
O O1 0.808282 0.793850 0.561385
O O2 0.587791 0.890955 0.170673
O O3 0.905452 0.892469 0.326515
O O4 0.691424 0.792666 0.944526
O O5 0.896854 0.130095 0.495274
O O6 0.661930 0.028295 0.380782
O O7 0.829448 0.029541 0.113785
O O8 0.589335 0.129277 0.997815
O O9 0.242381 0.163405 0.737389
O O10 0.087781 0.195646 0.004770
O O11 0.161712 0.058268 0.943030
O O12 0.594548 0.693969 0.515753
O O13 0.603177 0.456509 0.701864
O O14 0.257745 0.423127 0.252656
O O15 0.329225 0.056947 0.545046
O O16 0.089307 0.957173 0.180607
#
# Coordination Sequence:
#
# PCOD8047323 Si02
#       8
#     2   2   2   2   2   2   2   2
#     4  11  24  46  72  94 136 195 234 268 338 399
#     4  11  22  38  66 112 138 169 226 276 370 393
#     4  11  22  39  71 102 142 177 217 293 336 416
#     4  11  24  46  72  94 136 195 234 268 338 399
#     4  11  22  39  71 102 142 177 217 293 336 416
#     4  11  22  38  66 112 138 169 226 276 370 393
#     4  11  22  39  71 102 142 177 217 293 336 416
#     4  11  22  39  71 102 142 177 217 293 336 416
#
# _framework density 21.334374
#
# number of rings (size 3 to 8) (size 9 to 14) (size 15 to 20)
#    0.000    1.000    7.500    0.000    0.000    0.000 
#    0.000    0.000   11.000    0.000    0.000    0.000 
#    0.000    0.000    0.000    0.000    0.000    0.000 
#
# Total GULP energy -198252.983662 kJ/mol
# GULP energy per Si atom -12390.811479 kJ/mol
# Density = 2.128582 g / cm^3
# Si number density = 21.334374 Si / 1000 Ang^3
#
#
#
# Elastic Constant Matrix: (Units=GPa)
#
#
# Indices 1 2 3 4 5 6 
#
# 1 138.4797 53.4336 58.8537 0.0000 8.4005 0.0000
# 2 53.4336 119.6196 54.8460 0.0000 -4.7444 0.0000
# 3 58.8537 54.8460 133.8328 0.0000 7.3952 0.0000
# 4 0.0000 0.0000 0.0000 27.8943 0.0000 -13.7180
# 5 8.4005 -4.7444 7.3952 0.0000 41.9807 0.0000
# 6 0.0000 0.0000 0.0000 -13.7180 0.0000 23.8324
#
#
#
# Elastic Compliance Matrix: (Units=1/GPa)
#
#
# Indices 1 2 3 4 5 6 
#
# 1 0.009767 -0.003091 -0.002930 0.000000 -0.001788 0.000000
# 2 -0.003091 0.011428 -0.003464 0.000000 0.002520 0.000000
# 3 -0.002930 -0.003464 0.010269 0.000000 -0.001614 0.000000
# 4 0.000000 0.000000 0.000000 0.050005 0.000000 0.028783
# 5 -0.001788 0.002520 -0.001614 0.000000 0.024747 0.000000
# 6 0.000000 0.000000 0.000000 0.028783 0.000000 0.058527
#
#
# Mechanical properties :
#
#
# Convention : Reuss Voigt Hill
#
# Bulk Modulus (GPa) = 80.02163 80.68875 80.35519
# Shear Modulus (GPa) = 26.61299 33.72806 30.17053
#
# Velocity S-wave (km/s) = 3.53572 3.98040 3.76463
# Velocity P-wave (km/s) = 7.36601 7.68296 7.52616
#
# Compressibility (1/GPa) = 0.01249662
#
# Stress axis : x y z
#
# Youngs Moduli (GPa) = 102.38045 87.50102 97.37954
#
# Poissons Ratio (x) = 0.27043 0.28532
# Poissons Ratio (y) = 0.31642 0.33729
# Poissons Ratio (z) = 0.29997 0.30307
#
# Static dielectric constant tensor:
#      x y z
#    x 3.850370 0.000000 -0.345560 
#    y 0.000000 3.941870 0.000000 
#    z -0.345560 0.000000 3.952370 
# 
# 
# High freq. dielectric constant tensor:
#      x y z
#    x 1.823270 0.000000 -0.026490 
#    y 0.000000 1.840420 0.000000 
#    z -0.026490 0.000000 1.831100 
# 
# From -- ./inp_files/681.got.cif
#   From: 2010.03.12/outbox.cif.g09.slc.cpg/sg4_1_cif.got.tgz:681.got - 2010.03.31 09:31:35.
