data_PCOD8047347
_publ_section_title
;
Structure prediction by ZEFSAII (Michael W. Deem and Ramdas Pophale) SiO2 
 PCOD8047347
Probable space group: P 21
;
_chemical_formula_sum "Si O2"
_cell_formula_units_Z 14
_cell_length_a 9.315819
_cell_length_b 8.667734
_cell_length_c 8.319668
_cell_angle_alpha 90.000000
_cell_angle_beta 118.019314
_cell_angle_gamma 90.000000
_cell_volume 593.047756
_symmetry_space_group_name_H-M "P 21"
_symmetry_group_IT_number 4
_symmetry_cell_setting 'monoclinic'
loop_
_space_group_symop_operation_xyz
x,y,z
-x,1/2+y,-z
loop_
_atom_site_type_symbol
_atom_site_label
_atom_site_fract_x
_atom_site_fract_y
_atom_site_fract_z
Si Si1 0.404828 0.340220 0.639164
Si Si2 0.572257 0.637851 0.632351
Si Si3 0.968184 0.406611 0.812592
Si Si4 0.759546 0.059710 0.239874
Si Si5 0.568598 0.578021 0.121138
Si Si6 0.711487 0.333514 0.414196
Si Si7 0.832974 0.615533 0.012161
O O1 0.544166 0.450916 0.629818
O O2 0.347154 0.204041 0.488097
O O3 0.245556 0.437060 0.614020
O O4 0.473762 0.247303 0.830181
O O5 0.393143 0.707518 0.546422
O O6 0.691157 0.698196 0.834755
O O7 0.834758 0.416658 0.601135
O O8 0.901101 0.472121 0.945151
O O9 0.118460 0.512105 0.835925
O O10 0.020975 0.231534 0.870995
O O11 0.804327 0.232040 0.325131
O O12 0.573097 0.045541 0.080258
O O13 0.583027 0.453949 0.271701
O O14 0.747146 0.565659 0.132361
#
# Coordination Sequence:
#
# PCOD8047347 Si02
#       7
#     2   2   2   2   2   2   2
#     4  11  22  42  72 106 137 180 246 296 348 419
#     4  11  24  45  73 107 137 192 242 291 351 436
#     4  12  29  46  68 112 146 191 232 311 368 417
#     4  11  25  45  75 104 142 188 247 292 362 428
#     4  12  23  47  76 101 140 193 245 294 348 445
#     4  11  26  44  74 105 147 190 237 295 359 430
#     4  12  27  47  70 103 147 192 241 295 364 427
#
# _framework density 23.606867000000001
#
# number of rings (size 3 to 8) (size 9 to 14) (size 15 to 20)
#    0.000    0.571    4.286    4.286    4.000    4.571 
#    0.000    0.000    0.000    0.000    0.000    0.000 
#    0.000    0.000    0.000    0.000    0.000    0.000 
#
# Total GULP energy -173542.640970 kJ/mol
# GULP energy per Si atom -12395.902926 kJ/mol
# Density = 2.355314 g / cm^3
# Si number density = 23.606867 Si / 1000 Ang^3
#
#
#
# Elastic Constant Matrix: (Units=GPa)
#
#
# Indices 1 2 3 4 5 6 
#
# 1 89.3012 36.8545 16.3346 0.0000 -0.9881 0.0000
# 2 36.8545 115.6691 31.3648 0.0000 -10.2251 0.0000
# 3 16.3346 31.3648 70.6140 0.0000 -3.3949 0.0000
# 4 0.0000 0.0000 0.0000 49.6088 0.0000 -14.3990
# 5 -0.9881 -10.2251 -3.3949 0.0000 29.8709 0.0000
# 6 0.0000 0.0000 0.0000 -14.3990 0.0000 48.5523
#
#
#
# Elastic Compliance Matrix: (Units=1/GPa)
#
#
# Indices 1 2 3 4 5 6 
#
# 1 0.013034 -0.003882 -0.001341 0.000000 -0.001050 0.000000
# 2 -0.003882 0.011239 -0.003937 0.000000 0.003271 0.000000
# 3 -0.001341 -0.003937 0.016242 0.000000 0.000454 0.000000
# 4 0.000000 0.000000 0.000000 0.022056 0.000000 0.006541
# 5 -0.001050 0.003271 0.000454 0.000000 0.034614 0.000000
# 6 0.000000 0.000000 0.000000 0.006541 0.000000 0.022536
#
#
# Mechanical properties :
#
#
# Convention : Reuss Voigt Hill
#
# Bulk Modulus (GPa) = 45.05521 49.41026 47.23274
# Shear Modulus (GPa) = 34.37848 38.34177 36.36012
#
# Velocity S-wave (km/s) = 3.82028 4.03448 3.92884
# Velocity P-wave (km/s) = 6.21180 6.53289 6.37437
#
# Compressibility (1/GPa) = 0.02219499
#
# Stress axis : x y z
#
# Youngs Moduli (GPa) = 76.72321 88.97666 61.56809
#
# Poissons Ratio (x) = 0.34541 0.08258
# Poissons Ratio (y) = 0.29784 0.24238
# Poissons Ratio (z) = 0.10290 0.35028
#
# Static dielectric constant tensor:
#      x y z
#    x 4.166870 0.000000 -0.246370 
#    y 0.000000 4.445030 0.000000 
#    z -0.246370 0.000000 4.146250 
# 
# 
# High freq. dielectric constant tensor:
#      x y z
#    x 1.929990 0.000000 -0.023900 
#    y 0.000000 1.947640 0.000000 
#    z -0.023900 0.000000 1.923620 
# 
# From -- ./inp_files/5250.got.cif
#   From: 2010.03.12/outbox.cif.g09.slc.cpg/sg4_3_cif.got.tgz:5250.got - 2010.03.31 09:31:35.
