data_PCOD8047243
_publ_section_title
;
Structure prediction by ZEFSAII (Michael W. Deem and Ramdas Pophale) SiO2 
 PCOD8047243
Probable space group: P 21
;
_chemical_formula_sum "Si O2"
_cell_formula_units_Z 14
_cell_length_a 9.131722
_cell_length_b 7.472970
_cell_length_c 10.194119
_cell_angle_alpha 90.000000
_cell_angle_beta 120.626283
_cell_angle_gamma 90.000000
_cell_volume 598.619344
_symmetry_space_group_name_H-M "P 21"
_symmetry_group_IT_number 4
_symmetry_cell_setting 'monoclinic'
loop_
_space_group_symop_operation_xyz
x,y,z
-x,1/2+y,-z
loop_
_atom_site_type_symbol
_atom_site_label
_atom_site_fract_x
_atom_site_fract_y
_atom_site_fract_z
Si Si1 0.024270 0.600720 0.911477
Si Si2 0.361586 0.225126 0.878512
Si Si3 0.713618 0.318426 0.109657
Si Si4 0.736403 0.822835 0.888645
Si Si5 0.889362 0.532337 0.582929
Si Si6 0.634934 0.253232 0.365100
Si Si7 0.191681 0.403051 0.554116
O O1 0.114458 0.774643 0.889600
O O2 0.854712 0.653005 0.912686
O O3 0.968882 0.478168 0.760629
O O4 0.147307 0.500818 0.072703
O O5 0.274499 0.302543 0.712799
O O6 0.298098 0.027496 0.875014
O O7 0.564072 0.236833 0.950752
O O8 0.318591 0.341528 0.985779
O O9 0.706553 0.227304 0.249853
O O10 0.566074 0.802472 0.723094
O O11 0.721940 0.412809 0.484868
O O12 0.842830 0.745468 0.567574
O O13 0.015355 0.494806 0.518539
O O14 0.683042 0.057488 0.448737
#
# Coordination Sequence:
#
# PCOD8047243 Si02
#       7
#     2   2   2   2   2   2   2
#     4  12  25  46  66  97 134 182 230 276 350 405
#     4  11  21  37  68 102 132 169 221 288 331 400
#     4  11  20  38  68  99 130 171 223 279 342 394
#     4  11  25  46  65  96 137 179 229 281 334 409
#     4  12  24  42  69 102 134 179 222 282 341 407
#     4  11  23  45  68 101 138 172 227 281 339 402
#     4  12  22  40  72 105 135 172 224 283 341 399
#
# _framework density 23.387149000000001
#
# number of rings (size 3 to 8) (size 9 to 14) (size 15 to 20)
#    0.000    0.571    5.714    4.286    0.000    0.000 
#    5.143    0.000    0.000    0.000    0.000    0.000 
#    0.000    0.000    0.000    0.000    0.000    0.000 
#
# Total GULP energy -173562.252815 kJ/mol
# GULP energy per Si atom -12397.303772 kJ/mol
# Density = 2.333392 g / cm^3
# Si number density = 23.387149 Si / 1000 Ang^3
#
#
#
# Elastic Constant Matrix: (Units=GPa)
#
#
# Indices 1 2 3 4 5 6 
#
# 1 68.7478 14.6720 30.6888 0.0000 30.4747 0.0000
# 2 14.6720 142.4475 49.8030 0.0000 31.6777 0.0000
# 3 30.6888 49.8030 96.7429 0.0000 41.8054 0.0000
# 4 0.0000 0.0000 0.0000 43.8594 0.0000 14.8058
# 5 30.4747 31.6777 41.8054 0.0000 34.8725 0.0000
# 6 0.0000 0.0000 0.0000 14.8058 0.0000 32.0333
#
#
#
# Elastic Compliance Matrix: (Units=1/GPa)
#
#
# Indices 1 2 3 4 5 6 
#
# 1 0.024886 0.002592 0.002462 0.000000 -0.027054 0.000000
# 2 0.002592 0.009306 -0.002036 0.000000 -0.008278 0.000000
# 3 0.002462 -0.002036 0.022272 0.000000 -0.027002 0.000000
# 4 0.000000 0.000000 0.000000 0.027015 0.000000 -0.012486
# 5 -0.027054 -0.008278 -0.027002 0.000000 0.092209 0.000000
# 6 0.000000 0.000000 0.000000 -0.012486 0.000000 0.036989
#
#
# Mechanical properties :
#
#
# Convention : Reuss Voigt Hill
#
# Bulk Modulus (GPa) = 15.99963 55.36286 35.68125
# Shear Modulus (GPa) = 21.98056 36.33799 29.15927
#
# Velocity S-wave (km/s) = 3.06903 3.94605 3.53485
# Velocity P-wave (km/s) = 4.40621 6.66974 5.65244
#
# Compressibility (1/GPa) = 0.06250146
#
# Stress axis : x y z
#
# Youngs Moduli (GPa) = 40.18271 107.46025 44.89913
#
# Poissons Ratio (x) = -0.27857 -0.11054
# Poissons Ratio (y) = -0.10417 0.09140
# Poissons Ratio (z) = -0.09893 0.21875
#
# Static dielectric constant tensor:
#      x y z
#    x 3.956230 0.000000 0.296240 
#    y 0.000000 4.300720 0.000000 
#    z 0.296240 0.000000 4.370560 
# 
# 
# High freq. dielectric constant tensor:
#      x y z
#    x 1.898330 0.000000 0.031380 
#    y 0.000000 1.930770 0.000000 
#    z 0.031380 0.000000 1.929450 
# 
# From -- ./inp_files/5726.got.cif
#   From: 2010.03.12/outbox.cif.g09.slc.cpg/sg4_3_cif.got.tgz:5726.got - 2010.03.31 09:31:35.
