data_PCOD8047534
_publ_section_title
;
Structure prediction by ZEFSAII (Michael W. Deem and Ramdas Pophale) SiO2 
 PCOD8047534
Probable space group: P 21
;
_chemical_formula_sum "Si O2"
_cell_formula_units_Z 14
_cell_length_a 9.909292
_cell_length_b 13.144583
_cell_length_c 6.965405
_cell_angle_alpha 90.000000
_cell_angle_beta 135.343420
_cell_angle_gamma 90.000000
_cell_volume 637.678935
_symmetry_space_group_name_H-M "P 21"
_symmetry_group_IT_number 4
_symmetry_cell_setting 'monoclinic'
loop_
_space_group_symop_operation_xyz
x,y,z
-x,1/2+y,-z
loop_
_atom_site_type_symbol
_atom_site_label
_atom_site_fract_x
_atom_site_fract_y
_atom_site_fract_z
Si Si1 0.294790 0.936080 0.396503
Si Si2 0.190355 0.982777 0.714321
Si Si3 0.456573 0.080858 0.259307
Si Si4 0.984429 0.255545 0.983387
Si Si5 0.734649 0.255371 0.068941
Si Si6 0.847561 0.109455 0.518948
Si Si7 0.576441 0.779538 0.558551
O O1 0.127820 0.859926 0.166461
O O2 0.501293 0.881051 0.588390
O O3 0.237199 0.982291 0.539091
O O4 0.318285 0.030180 0.277600
O O5 0.979506 0.027849 0.543708
O O6 0.349806 0.060816 0.952225
O O7 0.208216 0.870595 0.820394
O O8 0.679909 0.045921 0.460109
O O9 0.474904 0.197781 0.332137
O O10 0.890171 0.207161 0.078799
O O11 0.972861 0.177528 0.793346
O O12 0.199301 0.286669 0.250834
O O13 0.528119 0.258262 0.752113
O O14 0.736692 0.184344 0.257879
#
# Coordination Sequence:
#
# PCOD8047534 Si02
#       7
#     2   2   2   2   2   2   2
#     4  11  26  48  68 106 147 183 245 295 360 432
#     4  12  26  45  73 109 142 188 248 298 346 448
#     4  12  25  45  70 109 142 188 241 295 360 432
#     4  11  23  47  74  99 144 192 235 299 364 425
#     4  11  25  49  69 107 147 188 242 299 362 431
#     4  12  27  46  74 107 147 189 246 295 361 432
#     4  11  24  48  74  99 151 192 229 305 367 418
#
# _framework density 21.954620999999999
#
# number of rings (size 3 to 8) (size 9 to 14) (size 15 to 20)
#    0.000    0.571    8.571    0.000    6.000    1.143 
#    2.571    0.000    0.000    0.000    0.000    0.000 
#    0.000    0.000    0.000    0.000    0.000    0.000 
#
# Total GULP energy -173543.314785 kJ/mol
# GULP energy per Si atom -12395.951056 kJ/mol
# Density = 2.190465 g / cm^3
# Si number density = 21.954621 Si / 1000 Ang^3
#
#
#
# Elastic Constant Matrix: (Units=GPa)
#
#
# Indices 1 2 3 4 5 6 
#
# 1 134.5313 15.8867 71.3162 0.0000 7.0791 0.0000
# 2 15.8867 53.7006 27.7697 0.0000 -5.9423 0.0000
# 3 71.3162 27.7697 93.7492 0.0000 17.3301 0.0000
# 4 0.0000 0.0000 0.0000 26.0477 0.0000 -3.5533
# 5 7.0791 -5.9423 17.3301 0.0000 38.3226 0.0000
# 6 0.0000 0.0000 0.0000 -3.5533 0.0000 42.0427
#
#
#
# Elastic Compliance Matrix: (Units=1/GPa)
#
#
# Indices 1 2 3 4 5 6 
#
# 1 0.012821 0.002188 -0.010941 0.000000 0.002918 0.000000
# 2 0.002188 0.024193 -0.010311 0.000000 0.008010 0.000000
# 3 -0.010941 -0.010311 0.023969 0.000000 -0.010417 0.000000
# 4 0.000000 0.000000 0.000000 0.038839 0.000000 0.003282
# 5 0.002918 0.008010 -0.010417 0.000000 0.031508 0.000000
# 6 0.000000 0.000000 0.000000 0.003282 0.000000 0.024063
#
#
# Mechanical properties :
#
#
# Convention : Reuss Voigt Hill
#
# Bulk Modulus (GPa) = 43.75378 56.88071 50.31725
# Shear Modulus (GPa) = 24.85837 32.41651 28.63744
#
# Velocity S-wave (km/s) = 3.36856 3.84672 3.61556
# Velocity P-wave (km/s) = 5.92470 6.75975 6.35595
#
# Compressibility (1/GPa) = 0.02285517
#
# Stress axis : x y z
#
# Youngs Moduli (GPa) = 77.99714 41.33421 41.72004
#
# Poissons Ratio (x) = -0.09042 0.45644
# Poissons Ratio (y) = -0.17062 0.43018
# Poissons Ratio (z) = 0.85333 0.42620
#
# Static dielectric constant tensor:
#      x y z
#    x 4.198920 0.000000 -0.116760 
#    y 0.000000 3.946010 0.000000 
#    z -0.116760 0.000000 4.223720 
# 
# 
# High freq. dielectric constant tensor:
#      x y z
#    x 1.881740 0.000000 -0.001620 
#    y 0.000000 1.859870 0.000000 
#    z -0.001620 0.000000 1.862620 
# 
# From -- ./inp_files/1965.got.cif
#   From: 2010.03.12/outbox.cif.g09.slc.cpg/sg4_1_cif.got.tgz:1965.got - 2010.03.31 09:31:35.
