data_PCOD8047996
_publ_section_title
;
Structure prediction by ZEFSAII (Michael W. Deem and Ramdas Pophale) SiO2 
 PCOD8047996
Probable space group: P 21
;
_chemical_formula_sum "Si O2"
_cell_formula_units_Z 16
_cell_length_a 10.777754
_cell_length_b 12.800762
_cell_length_c 10.774894
_cell_angle_alpha 90.000000
_cell_angle_beta 154.232945
_cell_angle_gamma 90.000000
_cell_volume 646.219515
_symmetry_space_group_name_H-M "P 21"
_symmetry_group_IT_number 4
_symmetry_cell_setting 'monoclinic'
loop_
_space_group_symop_operation_xyz
x,y,z
-x,1/2+y,-z
loop_
_atom_site_type_symbol
_atom_site_label
_atom_site_fract_x
_atom_site_fract_y
_atom_site_fract_z
Si Si1 0.369278 0.234220 0.877219
Si Si2 0.831236 0.266772 0.826303
Si Si3 0.236671 0.955861 0.055375
Si Si4 0.796556 0.918251 0.440360
Si Si5 0.933083 0.100880 0.396381
Si Si6 0.708483 0.629058 0.706919
Si Si7 0.172806 0.364523 0.919119
Si Si8 0.670481 0.504869 0.431533
O O1 0.294472 0.303140 0.687253
O O2 0.098369 0.158656 0.657096
O O3 0.377841 0.302040 0.009471
O O4 0.657132 0.168697 0.110332
O O5 0.723637 0.366951 0.804360
O O6 0.564628 0.206717 0.522618
O O7 0.089594 0.295904 0.963497
O O8 0.008633 0.192649 0.080258
O O9 0.535237 0.979562 0.261630
O O10 0.181094 0.067535 0.069803
O O11 0.030192 0.917140 0.759493
O O12 0.875730 0.982692 0.387597
O O13 0.179512 0.097318 0.511718
O O14 0.634648 0.541766 0.539827
O O15 0.865788 0.401692 0.592653
O O16 0.350639 0.471653 0.104413
#
# Coordination Sequence:
#
# PCOD8047996 Si02
#       8
#     2   2   2   2   2   2   2   2
#     4  12  28  48  77 109 151 196 254 310 380 449
#     4  12  28  48  76 112 147 201 253 310 379 452
#     4  12  28  49  74 109 155 197 248 312 382 451
#     4  12  28  49  74 109 155 197 248 312 382 451
#     4  12  28  48  76 112 147 201 253 310 379 452
#     4  12  28  48  77 109 151 196 254 310 380 449
#     4  12  26  50  77 104 148 198 256 312 370 446
#     4  12  26  50  77 104 148 198 256 312 370 446
#
# _framework density 24.75939
#
# number of rings (size 3 to 8) (size 9 to 14) (size 15 to 20)
#    0.000    0.000    2.500    6.000   14.000    0.000 
#    0.000    0.000    0.000    0.000    0.000    0.000 
#    0.000    0.000    0.000    0.000    0.000    0.000 
#
# Total GULP energy -198282.632677 kJ/mol
# GULP energy per Si atom -12392.664542 kJ/mol
# Density = 2.470304 g / cm^3
# Si number density = 24.759390 Si / 1000 Ang^3
#
#
#
# Elastic Constant Matrix: (Units=GPa)
#
#
# Indices 1 2 3 4 5 6 
#
# 1 89.7495 25.8870 24.2550 0.0000 0.1727 0.0000
# 2 25.8870 100.7686 39.5916 0.0000 -0.6349 0.0000
# 3 24.2550 39.5916 143.3794 0.0000 1.7908 0.0000
# 4 0.0000 0.0000 0.0000 59.8024 0.0000 9.8805
# 5 0.1727 -0.6349 1.7908 0.0000 35.6206 0.0000
# 6 0.0000 0.0000 0.0000 9.8805 0.0000 22.5744
#
#
#
# Elastic Compliance Matrix: (Units=1/GPa)
#
#
# Indices 1 2 3 4 5 6 
#
# 1 0.012263 -0.002620 -0.001351 0.000000 -0.000038 0.000000
# 2 -0.002620 0.011696 -0.002791 0.000000 0.000361 0.000000
# 3 -0.001351 -0.002791 0.007979 0.000000 -0.000444 0.000000
# 4 0.000000 0.000000 0.000000 0.018025 0.000000 -0.007889
# 5 -0.000038 0.000361 -0.000444 0.000000 0.028103 0.000000
# 6 0.000000 0.000000 0.000000 -0.007889 0.000000 0.047751
#
#
# Mechanical properties :
#
#
# Convention : Reuss Voigt Hill
#
# Bulk Modulus (GPa) = 54.30350 57.04053 55.67202
# Shear Modulus (GPa) = 34.36963 39.87707 37.12335
#
# Velocity S-wave (km/s) = 3.72982 4.01756 3.87636
# Velocity P-wave (km/s) = 6.36623 6.67900 6.52449
#
# Compressibility (1/GPa) = 0.01841502
#
# Stress axis : x y z
#
# Youngs Moduli (GPa) = 81.54700 85.50260 125.32657
#
# Poissons Ratio (x) = 0.22401 0.16926
# Poissons Ratio (y) = 0.21364 0.34976
# Poissons Ratio (z) = 0.11013 0.23862
#
# Static dielectric constant tensor:
#      x y z
#    x 4.344160 0.000000 0.054140 
#    y 0.000000 4.675750 0.000000 
#    z 0.054140 0.000000 4.285250 
# 
# 
# High freq. dielectric constant tensor:
#      x y z
#    x 1.980610 0.000000 0.004370 
#    y 0.000000 2.002170 0.000000 
#    z 0.004370 0.000000 1.997930 
# 
# From -- ./inp_files/12255.got.cif
#   From: 2010.03.12/outbox.cif.g09.slc.cpg/sg4_7_cif.got.tgz:12255.got - 2010.03.31 09:31:35.
