data_PCOD8047579
_publ_section_title
;
Structure prediction by ZEFSAII (Michael W. Deem and Ramdas Pophale) SiO2 
 PCOD8047579
Probable space group: P 21
;
_chemical_formula_sum "Si O2"
_cell_formula_units_Z 16
_cell_length_a 5.191907
_cell_length_b 9.350168
_cell_length_c 16.505643
_cell_angle_alpha 90.000000
_cell_angle_beta 55.550371
_cell_angle_gamma 90.000000
_cell_volume 660.746151
_symmetry_space_group_name_H-M "P 21"
_symmetry_group_IT_number 4
_symmetry_cell_setting 'monoclinic'
loop_
_space_group_symop_operation_xyz
x,y,z
-x,1/2+y,-z
loop_
_atom_site_type_symbol
_atom_site_label
_atom_site_fract_x
_atom_site_fract_y
_atom_site_fract_z
Si Si1 0.644986 0.031720 0.533690
Si Si2 0.865975 0.396860 0.815795
Si Si3 0.899651 0.745958 0.514683
Si Si4 0.863973 0.964706 0.070410
Si Si5 0.073816 0.779675 0.887570
Si Si6 0.013505 0.126404 0.681997
Si Si7 0.216207 0.330858 0.236622
Si Si8 0.729374 0.110212 0.352939
O O1 0.340101 0.044592 0.643218
O O2 0.623168 0.996903 0.441854
O O3 0.789188 0.190790 0.498880
O O4 0.884097 0.916612 0.528222
O O5 0.514352 0.449963 0.859855
O O6 0.955495 0.370064 0.893504
O O7 0.926105 0.248830 0.760053
O O8 0.115878 0.519124 0.746285
O O9 0.944392 0.692147 0.414285
O O10 0.593933 0.685232 0.614551
O O11 0.993907 0.125836 0.059053
O O12 0.980217 0.907642 0.963833
O O13 0.439622 0.777142 0.804524
O O14 0.874528 0.806148 0.841591
O O15 0.771484 0.996924 0.736607
O O16 0.975283 0.236795 0.333601
#
# Coordination Sequence:
#
# PCOD8047579 Si02
#       8
#     2   2   2   2   2   2   2   2
#     4  11  26  42  66  99 149 188 240 297 353 415
#     4  12  27  47  78 104 145 188 244 290 353 439
#     4  11  26  42  66  99 149 188 240 297 353 415
#     4  12  28  50  76 109 143 185 233 301 370 428
#     4  12  28  50  76 109 143 185 233 301 370 428
#     4  11  28  44  67 108 144 194 247 290 358 411
#     4  12  27  47  78 104 145 188 244 290 353 439
#     4  11  24  44  65 100 138 194 231 288 346 419
#
# _framework density 24.215047999999999
#
# number of rings (size 3 to 8) (size 9 to 14) (size 15 to 20)
#    0.000    0.500    5.000    0.750   14.000    0.000 
#    0.000    0.000    0.000    0.000    0.000    0.000 
#    0.000    0.000    0.000    0.000    0.000    0.000 
#
# Total GULP energy -198244.545109 kJ/mol
# GULP energy per Si atom -12390.284069 kJ/mol
# Density = 2.415993 g / cm^3
# Si number density = 24.215048 Si / 1000 Ang^3
#
#
#
# Elastic Constant Matrix: (Units=GPa)
#
#
# Indices 1 2 3 4 5 6 
#
# 1 58.8613 -17.2049 9.1849 0.0000 3.0662 0.0000
# 2 -17.2049 97.0044 18.0199 0.0000 7.7294 0.0000
# 3 9.1849 18.0199 61.6621 0.0000 -3.2879 0.0000
# 4 0.0000 0.0000 0.0000 42.1468 0.0000 -3.3251
# 5 3.0662 7.7294 -3.2879 0.0000 23.8841 0.0000
# 6 0.0000 0.0000 0.0000 -3.3251 0.0000 32.7910
#
#
#
# Elastic Compliance Matrix: (Units=1/GPa)
#
#
# Indices 1 2 3 4 5 6 
#
# 1 0.019272 0.004612 -0.004463 0.000000 -0.004581 0.000000
# 2 0.004612 0.012396 -0.004589 0.000000 -0.005236 0.000000
# 3 -0.004463 -0.004589 0.018469 0.000000 0.004600 0.000000
# 4 0.000000 0.000000 0.000000 0.023918 0.000000 0.002425
# 5 -0.004581 -0.005236 0.004600 0.000000 0.044785 0.000000
# 6 0.000000 0.000000 0.000000 0.002425 0.000000 0.030742
#
#
# Mechanical properties :
#
#
# Convention : Reuss Voigt Hill
#
# Bulk Modulus (GPa) = 24.23759 26.39198 25.31479
# Shear Modulus (GPa) = 29.03370 33.59957 31.31664
#
# Velocity S-wave (km/s) = 3.46641 3.72902 3.60011
# Velocity P-wave (km/s) = 5.10415 5.42803 5.26858
#
# Compressibility (1/GPa) = 0.04125822
#
# Stress axis : x y z
#
# Youngs Moduli (GPa) = 51.88806 80.66817 54.14619
#
# Poissons Ratio (x) = -0.37206 0.24165
# Poissons Ratio (y) = -0.23932 0.24847
# Poissons Ratio (z) = 0.23157 0.37018
#
# Static dielectric constant tensor:
#      x y z
#    x 4.324280 0.000000 -0.016450 
#    y 0.000000 4.520540 0.000000 
#    z -0.016450 0.000000 4.355090 
# 
# 
# High freq. dielectric constant tensor:
#      x y z
#    x 1.960260 0.000000 0.003620 
#    y 0.000000 1.972770 0.000000 
#    z 0.003620 0.000000 1.969290 
# 
# From -- ./inp_files/2569.got.cif
#   From: 2010.03.12/outbox.cif.g09.slc.cpg/sg4_2_cif.got.tgz:2569.got - 2010.03.31 09:31:35.
