data_PCOD8047075
_publ_section_title
;
Structure prediction by ZEFSAII (Michael W. Deem and Ramdas Pophale) SiO2 
 PCOD8047075
Probable space group: P 21
;
_chemical_formula_sum "Si O2"
_cell_formula_units_Z 12
_cell_length_a 11.635284
_cell_length_b 8.544172
_cell_length_c 8.214255
_cell_angle_alpha 90.000000
_cell_angle_beta 140.114909
_cell_angle_gamma 90.000000
_cell_volume 523.651702
_symmetry_space_group_name_H-M "P 21"
_symmetry_group_IT_number 4
_symmetry_cell_setting 'monoclinic'
loop_
_space_group_symop_operation_xyz
x,y,z
-x,1/2+y,-z
loop_
_atom_site_type_symbol
_atom_site_label
_atom_site_fract_x
_atom_site_fract_y
_atom_site_fract_z
Si Si1 0.967493 0.253360 0.726199
Si Si2 0.325202 0.182335 0.961955
Si Si3 0.690153 0.216964 0.863623
Si Si4 0.989924 0.561949 0.934687
Si Si5 0.360983 0.852958 0.844287
Si Si6 0.609223 0.543274 0.623381
O O1 0.780760 0.297014 0.443159
O O2 0.118545 0.236201 0.750942
O O3 0.028693 0.384286 0.923883
O O4 0.948235 0.091728 0.809192
O O5 0.336028 0.035128 0.852414
O O6 0.441026 0.323504 0.012556
O O7 0.402128 0.139680 0.222035
O O8 0.630324 0.360970 0.686123
O O9 0.569629 0.069247 0.676570
O O10 0.899130 0.177440 0.062874
O O11 0.664997 0.248640 0.024790
O O12 0.777482 0.599505 0.695943
#
# Coordination Sequence:
#
# PCOD8047075 Si02
#       6
#     2   2   2   2   2   2
#     4  11  26  46  72 102 140 179 234 282 342 409
#     4  10  26  46  68 102 141 181 226 282 344 410
#     4  11  25  42  71 100 138 182 226 287 340 403
#     4  11  24  44  71 100 136 184 233 281 338 403
#     4  11  27  46  67 105 141 180 229 281 349 405
#     4  10  24  44  67 103 134 180 236 277 339 408
#
# _framework density 22.915994000000001
#
# number of rings (size 3 to 8) (size 9 to 14) (size 15 to 20)
#    0.000    1.333    1.667    1.000   11.667    0.000 
#    0.000    3.333    0.000    0.000    0.000    0.000 
#    0.000    0.000    0.000    0.000    0.000    0.000 
#
# Total GULP energy -148822.562540 kJ/mol
# GULP energy per Si atom -12401.880212 kJ/mol
# Density = 2.286384 g / cm^3
# Si number density = 22.915994 Si / 1000 Ang^3
#
#
#
# Elastic Constant Matrix: (Units=GPa)
#
#
# Indices 1 2 3 4 5 6 
#
# 1 139.3868 47.1903 26.8539 0.0000 22.7243 0.0000
# 2 47.1903 93.6317 32.1625 0.0000 -2.5401 0.0000
# 3 26.8539 32.1625 82.0512 0.0000 -0.2592 0.0000
# 4 0.0000 0.0000 0.0000 33.0964 0.0000 -2.5177
# 5 22.7243 -2.5401 -0.2592 0.0000 30.2146 0.0000
# 6 0.0000 0.0000 0.0000 -2.5177 0.0000 49.6460
#
#
#
# Elastic Compliance Matrix: (Units=1/GPa)
#
#
# Indices 1 2 3 4 5 6 
#
# 1 0.010522 -0.005013 -0.001505 0.000000 -0.008348 0.000000
# 2 -0.005013 0.014760 -0.004129 0.000000 0.004975 0.000000
# 3 -0.001505 -0.004129 0.014302 0.000000 0.000908 0.000000
# 4 0.000000 0.000000 0.000000 0.030332 0.000000 0.001538
# 5 -0.008348 0.004975 0.000908 0.000000 0.039801 0.000000
# 6 0.000000 0.000000 0.000000 0.001538 0.000000 0.020221
#
#
# Mechanical properties :
#
#
# Convention : Reuss Voigt Hill
#
# Bulk Modulus (GPa) = 54.67655 58.60922 56.64289
# Shear Modulus (GPa) = 31.78064 36.51562 34.14813
#
# Velocity S-wave (km/s) = 3.72806 3.99614 3.86443
# Velocity P-wave (km/s) = 6.51480 6.85007 6.68453
#
# Compressibility (1/GPa) = 0.01828937
#
# Stress axis : x y z
#
# Youngs Moduli (GPa) = 95.03586 67.75108 69.92198
#
# Poissons Ratio (x) = 0.33961 0.10525
# Poissons Ratio (y) = 0.47638 0.28873
# Poissons Ratio (z) = 0.14306 0.27977
#
# Static dielectric constant tensor:
#      x y z
#    x 4.424130 0.000000 0.069210 
#    y 0.000000 4.128390 0.000000 
#    z 0.069210 0.000000 3.809310 
# 
# 
# High freq. dielectric constant tensor:
#      x y z
#    x 1.929560 0.000000 0.006880 
#    y 0.000000 1.900990 0.000000 
#    z 0.006880 0.000000 1.883710 
# 
# From -- ./inp_files/5615.got.cif
#   From: 2010.03.12/outbox.cif.g09.slc.cpg/sg4_3_cif.got.tgz:5615.got - 2010.03.31 09:31:35.
