data_PCOD8047846
_publ_section_title
;
Structure prediction by ZEFSAII (Michael W. Deem and Ramdas Pophale) SiO2 
 PCOD8047846
Probable space group: P 21
;
_chemical_formula_sum "Si O2"
_cell_formula_units_Z 14
_cell_length_a 15.261506
_cell_length_b 5.684207
_cell_length_c 9.694909
_cell_angle_alpha 90.000000
_cell_angle_beta 141.979533
_cell_angle_gamma 90.000000
_cell_volume 518.025914
_symmetry_space_group_name_H-M "P 21"
_symmetry_group_IT_number 4
_symmetry_cell_setting 'monoclinic'
loop_
_space_group_symop_operation_xyz
x,y,z
-x,1/2+y,-z
loop_
_atom_site_type_symbol
_atom_site_label
_atom_site_fract_x
_atom_site_fract_y
_atom_site_fract_z
Si Si1 0.176361 0.518350 0.321158
Si Si2 0.041128 0.652106 0.872873
Si Si3 0.058562 0.402055 0.629572
Si Si4 0.676866 0.389474 0.816270
Si Si5 0.656720 0.675663 0.053058
Si Si6 0.648593 0.365301 0.283624
Si Si7 0.604914 0.672931 0.476774
O O1 0.226105 0.715286 0.490100
O O2 0.315559 0.423351 0.412896
O O3 0.101581 0.308249 0.314823
O O4 0.068253 0.605290 0.068429
O O5 0.027160 0.421610 0.757139
O O6 0.168506 0.792776 0.956887
O O7 0.005012 0.646606 0.493826
O O8 0.228044 0.386560 0.803105
O O9 0.637493 0.598251 0.871255
O O10 0.683602 0.481803 0.668555
O O11 0.558551 0.186489 0.679764
O O12 0.501878 0.735124 0.922221
O O13 0.709942 0.454766 0.212764
O O14 0.614929 0.595077 0.331885
#
# Coordination Sequence:
#
# PCOD8047846 Si02
#       7
#     2   2   2   2   2   2   2
#     4  12  28  53  79 121 168 219 285 357 423 516
#     4  12  28  51  83 123 168 222 286 350 437 511
#     4  12  31  57  88 124 174 228 281 361 430 524
#     4  12  23  47  82 124 164 218 291 353 428 512
#     4  12  28  51  83 123 168 222 286 350 437 511
#     4  12  28  53  79 121 168 219 285 357 423 516
#     4  12  24  48  80 116 162 218 276 358 428 500
#
# _framework density 27.025675
#
# number of rings (size 3 to 8) (size 9 to 14) (size 15 to 20)
#    0.000    0.000    2.857    6.000    2.000    5.714 
#    0.000    0.000    0.000    0.000    0.000    0.000 
#    0.000    0.000    0.000    0.000    0.000    0.000 
#
# Total GULP energy -173627.769887 kJ/mol
# GULP energy per Si atom -12401.983563 kJ/mol
# Density = 2.696416 g / cm^3
# Si number density = 27.025675 Si / 1000 Ang^3
#
#
#
# Elastic Constant Matrix: (Units=GPa)
#
#
# Indices 1 2 3 4 5 6 
#
# 1 108.0908 33.6421 41.7787 0.0000 9.4451 0.0000
# 2 33.6421 110.0886 49.7326 0.0000 1.9979 0.0000
# 3 41.7787 49.7326 127.2888 0.0000 -6.4161 0.0000
# 4 0.0000 0.0000 0.0000 42.9464 0.0000 2.9195
# 5 9.4451 1.9979 -6.4161 0.0000 34.6469 0.0000
# 6 0.0000 0.0000 0.0000 2.9195 0.0000 59.8571
#
#
#
# Elastic Compliance Matrix: (Units=1/GPa)
#
#
# Indices 1 2 3 4 5 6 
#
# 1 0.011400 -0.002000 -0.003140 0.000000 -0.003574 0.000000
# 2 -0.002000 0.011454 -0.003860 0.000000 -0.000830 0.000000
# 3 -0.003140 -0.003860 0.010548 0.000000 0.003032 0.000000
# 4 0.000000 0.000000 0.000000 0.023362 0.000000 -0.001139
# 5 -0.003574 -0.000830 0.003032 0.000000 0.030446 0.000000
# 6 0.000000 0.000000 0.000000 -0.001139 0.000000 0.016762
#
#
# Mechanical properties :
#
#
# Convention : Reuss Voigt Hill
#
# Bulk Modulus (GPa) = 64.93551 66.19723 65.56637
# Shear Modulus (GPa) = 39.33661 42.17773 40.75717
#
# Velocity S-wave (km/s) = 3.81928 3.95480 3.88763
# Velocity P-wave (km/s) = 6.59763 6.73805 6.66821
#
# Compressibility (1/GPa) = 0.01539989
#
# Stress axis : x y z
#
# Youngs Moduli (GPa) = 87.71820 87.30686 94.80463
#
# Poissons Ratio (x) = 0.17464 0.29772
# Poissons Ratio (y) = 0.17546 0.36599
# Poissons Ratio (z) = 0.27547 0.33704
#
# Static dielectric constant tensor:
#      x y z
#    x 4.814900 0.000000 0.118210 
#    y 0.000000 4.688770 0.000000 
#    z 0.118210 0.000000 5.050420 
# 
# 
# High freq. dielectric constant tensor:
#      x y z
#    x 2.099030 0.000000 0.004090 
#    y 0.000000 2.080730 0.000000 
#    z 0.004090 0.000000 2.101190 
# 
# From -- ./inp_files/9096.got.cif
#   From: 2010.03.12/outbox.cif.g09.slc.cpg/sg4_5_cif.got.tgz:9096.got - 2010.03.31 09:31:35.
