data_PCOD8047099
_publ_section_title
;
Structure prediction by ZEFSAII (Michael W. Deem and Ramdas Pophale) SiO2 
 PCOD8047099
Probable space group: P 21
;
_chemical_formula_sum "Si O2"
_cell_formula_units_Z 16
_cell_length_a 5.195510
_cell_length_b 9.529027
_cell_length_c 13.769298
_cell_angle_alpha 90.000000
_cell_angle_beta 67.876735
_cell_angle_gamma 90.000000
_cell_volume 631.503465
_symmetry_space_group_name_H-M "P 21"
_symmetry_group_IT_number 4
_symmetry_cell_setting 'monoclinic'
loop_
_space_group_symop_operation_xyz
x,y,z
-x,1/2+y,-z
loop_
_atom_site_type_symbol
_atom_site_label
_atom_site_fract_x
_atom_site_fract_y
_atom_site_fract_z
Si Si1 0.066529 0.761940 0.209656
Si Si2 0.081505 0.534054 0.050517
Si Si3 0.481506 0.304207 0.378375
Si Si4 0.976326 0.802497 0.795913
Si Si5 0.101461 0.063382 0.436013
Si Si6 0.204242 0.536872 0.327991
Si Si7 0.280070 0.038468 0.087413
Si Si8 0.375406 0.393381 0.598467
O O1 0.990385 0.667726 0.127382
O O2 0.264174 0.677322 0.258069
O O3 0.773363 0.793846 0.302784
O O4 0.232871 0.900864 0.158406
O O5 0.976257 0.385965 0.109498
O O6 0.414647 0.533905 0.999510
O O7 0.950482 0.548652 0.963489
O O8 0.740156 0.234274 0.286327
O O9 0.197436 0.219889 0.389531
O O10 0.466179 0.469250 0.348070
O O11 0.503649 0.299653 0.492489
O O12 0.757615 0.675970 0.840131
O O13 0.871254 0.916034 0.735991
O O14 0.035857 0.067799 0.559939
O O15 0.369195 0.964710 0.382217
O O16 0.842871 0.010062 0.409678
#
# Coordination Sequence:
#
# PCOD8047099 Si02
#       8
#     2   2   2   2   2   2   2   2
#     4  11  25  49  75 108 146 194 246 299 385 437
#     4  11  28  49  74 105 144 186 248 316 375 429
#     4  11  24  43  73 105 153 193 250 294 367 450
#     4  11  25  45  77 103 146 193 245 300 381 435
#     4  11  24  44  68 103 157 193 246 292 358 431
#     4  10  24  45  66 109 145 200 232 300 356 442
#     4  12  27  49  74 109 139 190 249 316 361 444
#     4  11  25  44  69 110 146 197 238 303 355 452
#
# _framework density 25.336358000000001
#
# number of rings (size 3 to 8) (size 9 to 14) (size 15 to 20)
#    0.000    1.000    2.500    2.250    8.750    2.000 
#    4.500    0.000    0.000    0.000    0.000    0.000 
#    0.000    0.000    0.000    0.000    0.000    0.000 
#
# Total GULP energy -198403.210596 kJ/mol
# GULP energy per Si atom -12400.200662 kJ/mol
# Density = 2.527869 g / cm^3
# Si number density = 25.336358 Si / 1000 Ang^3
#
#
#
# Elastic Constant Matrix: (Units=GPa)
#
#
# Indices 1 2 3 4 5 6 
#
# 1 58.0180 11.2489 23.0525 0.0000 -10.6514 0.0000
# 2 11.2489 131.7719 61.8488 0.0000 -1.2789 0.0000
# 3 23.0525 61.8488 144.4599 0.0000 -18.2157 0.0000
# 4 0.0000 0.0000 0.0000 52.1230 0.0000 2.6364
# 5 -10.6514 -1.2789 -18.2157 0.0000 30.9798 0.0000
# 6 0.0000 0.0000 0.0000 2.6364 0.0000 30.6405
#
#
#
# Elastic Compliance Matrix: (Units=1/GPa)
#
#
# Indices 1 2 3 4 5 6 
#
# 1 0.019174 -0.000580 -0.002142 0.000000 0.005309 0.000000
# 2 -0.000580 0.009651 -0.004336 0.000000 -0.002350 0.000000
# 3 -0.002142 -0.004336 0.009726 0.000000 0.004803 0.000000
# 4 0.000000 0.000000 0.000000 0.019269 0.000000 -0.001658
# 5 0.005309 -0.002350 0.004803 0.000000 0.036832 0.000000
# 6 0.000000 0.000000 0.000000 -0.001658 0.000000 0.032779
#
#
# Mechanical properties :
#
#
# Convention : Reuss Voigt Hill
#
# Bulk Modulus (GPa) = 40.92365 58.50558 49.71461
# Shear Modulus (GPa) = 33.40208 38.62198 36.01203
#
# Velocity S-wave (km/s) = 3.63484 3.90855 3.77418
# Velocity P-wave (km/s) = 5.81406 6.59627 6.21748
#
# Compressibility (1/GPa) = 0.02443575
#
# Stress axis : x y z
#
# Youngs Moduli (GPa) = 52.15331 103.62141 102.81662
#
# Poissons Ratio (x) = 0.06009 0.22024
# Poissons Ratio (y) = 0.03025 0.44577
# Poissons Ratio (z) = 0.11171 0.44926
#
# Static dielectric constant tensor:
#      x y z
#    x 4.203850 0.000000 -0.120470 
#    y 0.000000 4.966010 0.000000 
#    z -0.120470 0.000000 5.285340 
# 
# 
# High freq. dielectric constant tensor:
#      x y z
#    x 1.989200 0.000000 0.001270 
#    y 0.000000 2.023180 0.000000 
#    z 0.001270 0.000000 2.030760 
# 
# From -- ./inp_files/13296.got.cif
#   From: 2010.03.12/outbox.cif.g09.slc.cpg/sg4_7_cif.got.tgz:13296.got - 2010.03.31 09:31:35.
