data_PCOD8047281
_publ_section_title
;
Structure prediction by ZEFSAII (Michael W. Deem and Ramdas Pophale) SiO2 
 PCOD8047281
Probable space group: P 21
;
_chemical_formula_sum "Si O2"
_cell_formula_units_Z 12
_cell_length_a 8.322012
_cell_length_b 5.314590
_cell_length_c 15.140762
_cell_angle_alpha 90.000000
_cell_angle_beta 135.856876
_cell_angle_gamma 90.000000
_cell_volume 466.377632
_symmetry_space_group_name_H-M "P 21"
_symmetry_group_IT_number 4
_symmetry_cell_setting 'monoclinic'
loop_
_space_group_symop_operation_xyz
x,y,z
-x,1/2+y,-z
loop_
_atom_site_type_symbol
_atom_site_label
_atom_site_fract_x
_atom_site_fract_y
_atom_site_fract_z
Si Si1 0.026103 0.816580 0.130461
Si Si2 0.603186 0.287095 0.005804
Si Si3 0.675844 0.033836 0.873609
Si Si4 0.946515 0.920317 0.727974
Si Si5 0.920297 0.974691 0.516960
Si Si6 0.425819 0.187099 0.309542
O O1 0.098740 0.580173 0.097170
O O2 0.027077 0.712928 0.231354
O O3 0.229567 0.011899 0.191202
O O4 0.768606 0.887268 0.998329
O O5 0.871208 0.245643 0.144853
O O6 0.549503 0.573678 0.008428
O O7 0.564286 0.269526 0.882625
O O8 0.499034 0.882058 0.740195
O O9 0.685557 0.824027 0.648020
O O10 0.010134 0.908507 0.650191
O O11 0.648246 0.026546 0.422312
O O12 0.043071 0.226892 0.528539
#
# Coordination Sequence:
#
# PCOD8047281 Si02
#       6
#     2   2   2   2   2   2
#     4  11  21  42  78 114 150 193 263 330 380 473
#     4  12  28  45  76 120 166 209 246 331 413 482
#     4  11  22  43  72 118 154 199 253 318 402 471
#     4  11  28  51  80 116 155 212 278 320 395 484
#     4  12  34  57  79 116 162 215 270 340 405 469
#     4  11  27  48  85 110 157 216 268 335 381 487
#
# _framework density 25.730224
#
# number of rings (size 3 to 8) (size 9 to 14) (size 15 to 20)
#    0.000    0.667    3.333    2.000   14.000    0.000 
#    0.000    0.000    0.000    0.000    0.000    0.000 
#    0.000    0.000    0.000    0.000    0.000    0.000 
#
# Total GULP energy -148707.771692 kJ/mol
# GULP energy per Si atom -12392.314308 kJ/mol
# Density = 2.567166 g / cm^3
# Si number density = 25.730224 Si / 1000 Ang^3
#
#
#
# Elastic Constant Matrix: (Units=GPa)
#
#
# Indices 1 2 3 4 5 6 
#
# 1 113.7639 35.1357 35.0546 0.0000 -23.7500 0.0000
# 2 35.1357 95.5972 20.1812 0.0000 -11.0861 0.0000
# 3 35.0546 20.1812 71.7553 0.0000 -19.7367 0.0000
# 4 0.0000 0.0000 0.0000 40.5790 0.0000 1.5236
# 5 -23.7500 -11.0861 -19.7367 0.0000 50.9526 0.0000
# 6 0.0000 0.0000 0.0000 1.5236 0.0000 41.7003
#
#
#
# Elastic Compliance Matrix: (Units=1/GPa)
#
#
# Indices 1 2 3 4 5 6 
#
# 1 0.011622 -0.003068 -0.003927 0.000000 0.003229 0.000000
# 2 -0.003068 0.012015 -0.001740 0.000000 0.000510 0.000000
# 3 -0.003927 -0.001740 0.017613 0.000000 0.004614 0.000000
# 4 0.000000 0.000000 0.000000 0.024677 0.000000 -0.000902
# 5 0.003229 0.000510 0.004614 0.000000 0.023029 0.000000
# 6 0.000000 0.000000 0.000000 -0.000902 0.000000 0.024014
#
#
# Mechanical properties :
#
#
# Convention : Reuss Voigt Hill
#
# Bulk Modulus (GPa) = 42.05240 51.31774 46.68507
# Shear Modulus (GPa) = 36.13635 39.36271 37.74953
#
# Velocity S-wave (km/s) = 3.75164 3.91554 3.83447
# Velocity P-wave (km/s) = 5.92836 6.35844 6.14716
#
# Compressibility (1/GPa) = 0.02377986
#
# Stress axis : x y z
#
# Youngs Moduli (GPa) = 86.04650 83.23158 56.77663
#
# Poissons Ratio (x) = 0.25536 0.22294
# Poissons Ratio (y) = 0.26400 0.09879
# Poissons Ratio (z) = 0.33787 0.14482
#
# Static dielectric constant tensor:
#      x y z
#    x 4.721270 0.000000 -0.036060 
#    y 0.000000 4.783620 0.000000 
#    z -0.036060 0.000000 4.267610 
# 
# 
# High freq. dielectric constant tensor:
#      x y z
#    x 2.046350 0.000000 -0.006360 
#    y 0.000000 2.039810 0.000000 
#    z -0.006360 0.000000 1.999620 
# 
# From -- ./inp_files/8895.got.cif
#   From: 2010.03.12/outbox.cif.g09.slc.cpg/sg4_5_cif.got.tgz:8895.got - 2010.03.31 09:31:35.
