data_PCOD8047045
_publ_section_title
;
Structure prediction by ZEFSAII (Michael W. Deem and Ramdas Pophale) SiO2 
 PCOD8047045
Probable space group: P 21
;
_chemical_formula_sum "Si O2"
_cell_formula_units_Z 14
_cell_length_a 11.042595
_cell_length_b 11.017754
_cell_length_c 8.446697
_cell_angle_alpha 90.000000
_cell_angle_beta 42.925120
_cell_angle_gamma 90.000000
_cell_volume 699.882296
_symmetry_space_group_name_H-M "P 21"
_symmetry_group_IT_number 4
_symmetry_cell_setting 'monoclinic'
loop_
_space_group_symop_operation_xyz
x,y,z
-x,1/2+y,-z
loop_
_atom_site_type_symbol
_atom_site_label
_atom_site_fract_x
_atom_site_fract_y
_atom_site_fract_z
Si Si1 0.867459 0.063930 0.907301
Si Si2 0.176891 0.383112 0.316758
Si Si3 0.666705 0.705107 0.068190
Si Si4 0.552433 0.480501 0.985902
Si Si5 0.134962 0.840721 0.152528
Si Si6 0.508348 0.948115 0.308099
Si Si7 0.809640 0.521672 0.172366
O O1 0.817703 0.203017 0.929250
O O2 0.895726 0.999809 0.709998
O O3 0.048320 0.050984 0.830354
O O4 0.703314 0.002977 0.158972
O O5 0.052733 0.348648 0.580081
O O6 0.190080 0.269934 0.183194
O O7 0.370305 0.411962 0.204027
O O8 0.526867 0.802371 0.272330
O O9 0.777257 0.643363 0.103220
O O10 0.555063 0.607013 0.076245
O O11 0.713952 0.394908 0.880340
O O12 0.563557 0.505277 0.787335
O O13 0.117763 0.913818 0.006000
O O14 0.376885 0.979057 0.575271
#
# Coordination Sequence:
#
# PCOD8047045 Si02
#       7
#     2   2   2   2   2   2   2
#     4  10  25  42  63  96 126 165 209 254 317 371
#     4  10  24  42  67  93 123 163 213 264 305 368
#     4   9  22  43  65  91 126 164 208 261 309 374
#     4   9  21  43  65  93 119 165 211 255 315 358
#     4  11  25  40  67  96 122 165 214 252 318 372
#     4  10  24  42  66  92 128 162 210 258 317 367
#     4  11  25  42  63  95 128 168 203 256 321 376
#
# _framework density 20.003363
#
# number of rings (size 3 to 8) (size 9 to 14) (size 15 to 20)
#    0.000    2.286    0.000    0.857   20.000    2.286 
#    0.000    0.000    0.000    0.000    0.000    0.000 
#    0.000    0.000    0.000    0.000    0.000    0.000 
#
# Total GULP energy -173640.354373 kJ/mol
# GULP energy per Si atom -12402.882455 kJ/mol
# Density = 1.995783 g / cm^3
# Si number density = 20.003363 Si / 1000 Ang^3
#
#
#
# Elastic Constant Matrix: (Units=GPa)
#
#
# Indices 1 2 3 4 5 6 
#
# 1 50.2087 13.8683 14.8259 0.0000 -11.2205 0.0000
# 2 13.8683 124.5520 42.2267 0.0000 -1.6577 0.0000
# 3 14.8259 42.2267 134.3516 0.0000 -5.2838 0.0000
# 4 0.0000 0.0000 0.0000 22.5107 0.0000 6.3430
# 5 -11.2205 -1.6577 -5.2838 0.0000 19.9381 0.0000
# 6 0.0000 0.0000 0.0000 6.3430 0.0000 28.6191
#
#
#
# Elastic Compliance Matrix: (Units=1/GPa)
#
#
# Indices 1 2 3 4 5 6 
#
# 1 0.023767 -0.001967 -0.001500 0.000000 0.012814 0.000000
# 2 -0.001967 0.009149 -0.002700 0.000000 -0.001062 0.000000
# 3 -0.001500 -0.002700 0.008504 0.000000 0.001185 0.000000
# 4 0.000000 0.000000 0.000000 0.047383 0.000000 -0.010502
# 5 0.012814 -0.001062 0.001185 0.000000 0.057592 0.000000
# 6 0.000000 0.000000 0.000000 -0.010502 0.000000 0.037269
#
#
# Mechanical properties :
#
#
# Convention : Reuss Voigt Hill
#
# Bulk Modulus (GPa) = 34.38276 50.10601 42.24438
# Shear Modulus (GPa) = 24.30787 30.09298 27.20042
#
# Velocity S-wave (km/s) = 3.48974 3.88286 3.69154
# Velocity P-wave (km/s) = 5.78476 6.72349 6.27172
#
# Compressibility (1/GPa) = 0.02908435
#
# Stress axis : x y z
#
# Youngs Moduli (GPa) = 42.07536 109.29991 117.59134
#
# Poissons Ratio (x) = 0.21500 0.17645
# Poissons Ratio (y) = 0.08277 0.31753
# Poissons Ratio (z) = 0.06313 0.29514
#
# Static dielectric constant tensor:
#      x y z
#    x 3.600110 0.000000 0.017960 
#    y 0.000000 3.807900 0.000000 
#    z 0.017960 0.000000 3.536730 
# 
# 
# High freq. dielectric constant tensor:
#      x y z
#    x 1.784480 0.000000 -0.002120 
#    y 0.000000 1.792990 0.000000 
#    z -0.002120 0.000000 1.774110 
# 
# From -- ./inp_files/8413.got.cif
#   From: 2010.03.12/outbox.cif.g09.slc.cpg/sg4_5_cif.got.tgz:8413.got - 2010.03.31 09:31:35.
