data_PCOD8047516
_publ_section_title
;
Structure prediction by ZEFSAII (Michael W. Deem and Ramdas Pophale) SiO2 
 PCOD8047516
Probable space group: P 21
;
_chemical_formula_sum "Si O2"
_cell_formula_units_Z 16
_cell_length_a 14.887237
_cell_length_b 6.769072
_cell_length_c 13.797486
_cell_angle_alpha 90.000000
_cell_angle_beta 30.635952
_cell_angle_gamma 90.000000
_cell_volume 708.527609
_symmetry_space_group_name_H-M "P 21"
_symmetry_group_IT_number 4
_symmetry_cell_setting 'monoclinic'
loop_
_space_group_symop_operation_xyz
x,y,z
-x,1/2+y,-z
loop_
_atom_site_type_symbol
_atom_site_label
_atom_site_fract_x
_atom_site_fract_y
_atom_site_fract_z
Si Si1 0.844298 0.130260 0.569169
Si Si2 0.527108 0.095676 0.605113
Si Si3 0.219757 0.275528 0.248320
Si Si4 0.057001 0.613272 0.065865
Si Si5 0.680857 0.861178 0.055662
Si Si6 0.741995 0.365845 0.271030
Si Si7 0.343825 0.024391 0.297713
Si Si8 0.822721 0.842669 0.420949
O O1 0.707635 0.295306 0.661720
O O2 0.015519 0.226343 0.458339
O O3 0.747717 0.994906 0.739313
O O4 0.900111 0.002867 0.423371
O O5 0.398719 0.190953 0.803242
O O6 0.661924 0.259695 0.439567
O O7 0.407441 0.010847 0.630460
O O8 0.639505 0.917557 0.545930
O O9 0.342939 0.121824 0.191947
O O10 0.260011 0.256910 0.098273
O O11 0.910593 0.494027 0.142945
O O12 0.968388 0.797545 0.204305
O O13 0.151493 0.462996 0.050993
O O14 0.202269 0.700367 0.858333
O O15 0.538985 0.031070 0.161714
O O16 0.211325 0.137532 0.491786
#
# Coordination Sequence:
#
# PCOD8047516 Si02
#       8
#     2   2   2   2   2   2   2   2
#     4  11  23  46  68 103 139 192 230 290 351 417
#     4  12  25  47  73 103 144 187 235 294 366 423
#     4  11  26  41  72  98 144 186 236 288 349 417
#     4  12  26  45  74 106 142 185 243 293 355 430
#     4  12  27  43  72 105 143 187 238 292 348 428
#     4  12  26  47  72 105 143 184 233 303 364 419
#     4  11  24  47  66 103 149 185 232 289 356 413
#     4  11  25  44  75 103 140 190 235 285 349 429
#
# _framework density 22.582042999999999
#
# number of rings (size 3 to 8) (size 9 to 14) (size 15 to 20)
#    0.000    0.500    2.500    5.250    7.000    0.000 
#    0.000    0.000    0.000    0.000    0.000    0.000 
#    0.000    0.000    0.000    0.000    0.000    0.000 
#
# Total GULP energy -198531.124495 kJ/mol
# GULP energy per Si atom -12408.195281 kJ/mol
# Density = 2.253065 g / cm^3
# Si number density = 22.582043 Si / 1000 Ang^3
#
#
#
# Elastic Constant Matrix: (Units=GPa)
#
#
# Indices 1 2 3 4 5 6 
#
# 1 103.7256 34.4169 25.2139 0.0000 -1.4063 0.0000
# 2 34.4169 110.5266 35.2146 0.0000 7.3088 0.0000
# 3 25.2139 35.2146 84.4957 0.0000 12.4817 0.0000
# 4 0.0000 0.0000 0.0000 40.4925 0.0000 -4.1780
# 5 -1.4063 7.3088 12.4817 0.0000 49.6543 0.0000
# 6 0.0000 0.0000 0.0000 -4.1780 0.0000 48.0762
#
#
#
# Elastic Compliance Matrix: (Units=1/GPa)
#
#
# Indices 1 2 3 4 5 6 
#
# 1 0.011165 -0.002814 -0.002354 0.000000 0.001322 0.000000
# 2 -0.002814 0.011152 -0.003691 0.000000 -0.000793 0.000000
# 3 -0.002354 -0.003691 0.014545 0.000000 -0.003180 0.000000
# 4 0.000000 0.000000 0.000000 0.024919 0.000000 0.002166
# 5 0.001322 -0.000793 -0.003180 0.000000 0.021093 0.000000
# 6 0.000000 0.000000 0.000000 0.002166 0.000000 0.020989
#
#
# Mechanical properties :
#
#
# Convention : Reuss Voigt Hill
#
# Bulk Modulus (GPa) = 52.23510 54.27097 53.25303
# Shear Modulus (GPa) = 39.07394 41.23808 40.15601
#
# Velocity S-wave (km/s) = 4.16421 4.27798 4.22148
# Velocity P-wave (km/s) = 6.80458 6.96322 6.88436
#
# Compressibility (1/GPa) = 0.01914422
#
# Stress axis : x y z
#
# Youngs Moduli (GPa) = 89.56807 89.66786 68.75046
#
# Poissons Ratio (x) = 0.25232 0.16185
# Poissons Ratio (y) = 0.25204 0.25375
# Poissons Ratio (z) = 0.21086 0.33096
#
# Static dielectric constant tensor:
#      x y z
#    x 4.260480 0.000000 -0.009870 
#    y 0.000000 4.012410 0.000000 
#    z -0.009870 0.000000 3.904210 
# 
# 
# High freq. dielectric constant tensor:
#      x y z
#    x 1.911950 0.000000 -0.002020 
#    y 0.000000 1.895730 0.000000 
#    z -0.002020 0.000000 1.886460 
# 
# From -- ./inp_files/14066.got.cif
#   From: 2010.03.12/outbox.cif.g09.slc.cpg/sg4_8_cif.got.tgz:14066.got - 2010.03.31 09:31:35.
