data_PCOD8047556
_publ_section_title
;
Structure prediction by ZEFSAII (Michael W. Deem and Ramdas Pophale) SiO2 
 PCOD8047556
Probable space group: P 21
;
_chemical_formula_sum "Si O2"
_cell_formula_units_Z 16
_cell_length_a 11.751853
_cell_length_b 8.563411
_cell_length_c 15.046699
_cell_angle_alpha 90.000000
_cell_angle_beta 152.420821
_cell_angle_gamma 90.000000
_cell_volume 701.053141
_symmetry_space_group_name_H-M "P 21"
_symmetry_group_IT_number 4
_symmetry_cell_setting 'monoclinic'
loop_
_space_group_symop_operation_xyz
x,y,z
-x,1/2+y,-z
loop_
_atom_site_type_symbol
_atom_site_label
_atom_site_fract_x
_atom_site_fract_y
_atom_site_fract_z
Si Si1 0.292428 0.796860 0.699847
Si Si2 0.611468 0.576176 0.024739
Si Si3 0.252862 0.867089 0.332478
Si Si4 0.730173 0.998688 0.931200
Si Si5 0.823227 0.837480 0.484465
Si Si6 0.138049 0.666644 0.414068
Si Si7 0.555973 0.245235 0.923660
Si Si8 0.465498 0.134729 0.588646
O O1 0.139994 0.769541 0.504483
O O2 0.107351 0.851068 0.650134
O O3 0.501018 0.923140 0.824865
O O4 0.418170 0.634969 0.817355
O O5 0.520379 0.610668 0.060566
O O6 0.865633 0.665286 0.185754
O O7 0.664497 0.391815 0.052218
O O8 0.289956 0.752680 0.442441
O O9 0.395599 0.789154 0.349699
O O10 0.368539 0.033616 0.438833
O O11 0.972823 0.894085 0.106240
O O12 0.762105 0.167867 0.001878
O O13 0.657809 0.029622 0.778550
O O14 0.669905 0.810056 0.289506
O O15 0.765148 0.691962 0.510274
O O16 0.753234 0.995953 0.488353
#
# Coordination Sequence:
#
# PCOD8047556 Si02
#       8
#     2   2   2   2   2   2   2   2
#     4  12  24  44  73 109 155 187 232 299 362 437
#     4  12  24  40  66 106 151 190 233 286 360 439
#     4  12  27  51  78 103 139 195 247 296 363 424
#     4  11  26  49  72 109 146 185 240 305 360 426
#     4  11  25  45  71 108 149 191 234 299 365 432
#     4  12  24  43  72 105 145 190 237 295 355 424
#     4  11  24  41  67 102 145 197 237 288 362 432
#     4  11  28  51  75 104 144 191 246 300 355 426
#
# _framework density 22.822804999999999
#
# number of rings (size 3 to 8) (size 9 to 14) (size 15 to 20)
#    0.000    0.500    5.000    3.000    5.250    1.000 
#    6.750    0.000    0.000    0.000    0.000    0.000 
#    0.000    0.000    0.000    0.000    0.000    0.000 
#
# Total GULP energy -198391.963158 kJ/mol
# GULP energy per Si atom -12399.497697 kJ/mol
# Density = 2.277086 g / cm^3
# Si number density = 22.822805 Si / 1000 Ang^3
#
#
#
# Elastic Constant Matrix: (Units=GPa)
#
#
# Indices 1 2 3 4 5 6 
#
# 1 101.0603 42.4044 47.6807 0.0000 4.6602 0.0000
# 2 42.4044 96.0158 36.2799 0.0000 2.1198 0.0000
# 3 47.6807 36.2799 97.8726 0.0000 0.9767 0.0000
# 4 0.0000 0.0000 0.0000 37.7243 0.0000 -6.1452
# 5 4.6602 2.1198 0.9767 0.0000 27.6801 0.0000
# 6 0.0000 0.0000 0.0000 -6.1452 0.0000 51.7771
#
#
#
# Elastic Compliance Matrix: (Units=1/GPa)
#
#
# Indices 1 2 3 4 5 6 
#
# 1 0.014298 -0.004242 -0.005374 0.000000 -0.001893 0.000000
# 2 -0.004242 0.013386 -0.002893 0.000000 -0.000209 0.000000
# 3 -0.005374 -0.002893 0.013902 0.000000 0.000636 0.000000
# 4 0.000000 0.000000 0.000000 0.027031 0.000000 0.003208
# 5 -0.001893 -0.000209 0.000636 0.000000 0.036439 0.000000
# 6 0.000000 0.000000 0.000000 0.003208 0.000000 0.019694
#
#
# Mechanical properties :
#
#
# Convention : Reuss Voigt Hill
#
# Bulk Modulus (GPa) = 60.36239 60.85321 60.60780
# Shear Modulus (GPa) = 32.19748 34.67520 33.43634
#
# Velocity S-wave (km/s) = 3.76008 3.90208 3.83174
# Velocity P-wave (km/s) = 6.73473 6.85732 6.79630
#
# Compressibility (1/GPa) = 0.01656661
#
# Stress axis : x y z
#
# Youngs Moduli (GPa) = 69.94055 74.70316 71.93373
#
# Poissons Ratio (x) = 0.31690 0.38658
# Poissons Ratio (y) = 0.29669 0.20813
# Poissons Ratio (z) = 0.37587 0.21615
#
# Static dielectric constant tensor:
#      x y z
#    x 3.870100 0.000000 -0.160280 
#    y 0.000000 4.144420 0.000000 
#    z -0.160280 0.000000 3.985050 
# 
# 
# High freq. dielectric constant tensor:
#      x y z
#    x 1.887610 0.000000 -0.021270 
#    y 0.000000 1.909730 0.000000 
#    z -0.021270 0.000000 1.904030 
# 
# From -- ./inp_files/12046.got.cif
#   From: 2010.03.12/outbox.cif.g09.slc.cpg/sg4_7_cif.got.tgz:12046.got - 2010.03.31 09:31:35.
