data_PCOD8047594
_publ_section_title
;
Structure prediction by ZEFSAII (Michael W. Deem and Ramdas Pophale) SiO2 
 PCOD8047594
Probable space group: P 21
;
_chemical_formula_sum "Si O2"
_cell_formula_units_Z 16
_cell_length_a 9.649094
_cell_length_b 8.255188
_cell_length_c 9.655567
_cell_angle_alpha 90.000000
_cell_angle_beta 69.411475
_cell_angle_gamma 90.000000
_cell_volume 719.991621
_symmetry_space_group_name_H-M "P 21"
_symmetry_group_IT_number 4
_symmetry_cell_setting 'monoclinic'
loop_
_space_group_symop_operation_xyz
x,y,z
-x,1/2+y,-z
loop_
_atom_site_type_symbol
_atom_site_label
_atom_site_fract_x
_atom_site_fract_y
_atom_site_fract_z
Si Si1 0.927654 0.536940 0.919346
Si Si2 0.629139 0.972074 0.890285
Si Si3 0.401826 0.180708 0.578410
Si Si4 0.192586 0.696784 0.975521
Si Si5 0.320198 0.810458 0.656886
Si Si6 0.372637 0.198149 0.893067
Si Si7 0.053597 0.667227 0.607403
Si Si8 0.803918 0.860863 0.566559
O O1 0.079688 0.568799 0.947786
O O2 0.943449 0.580356 0.752921
O O3 0.899926 0.346787 0.934676
O O4 0.795888 0.641689 0.030600
O O5 0.714927 0.875199 0.740675
O O6 0.479992 0.046232 0.880523
O O7 0.582654 0.843558 0.022410
O O8 0.728613 0.112583 0.922539
O O9 0.566599 0.191001 0.459766
O O10 0.392678 0.268301 0.730739
O O11 0.288567 0.263988 0.514318
O O12 0.369569 0.993518 0.618142
O O13 0.313110 0.759591 0.820924
O O14 0.156323 0.795621 0.651290
O O15 0.160289 0.541006 0.494801
O O16 0.956140 0.763199 0.530916
#
# Coordination Sequence:
#
# PCOD8047594 Si02
#       8
#     2   2   2   2   2   2   2   2
#     4  11  24  44  73 106 143 187 235 294 361 422
#     4  12  28  48  74 106 148 187 246 299 362 432
#     4  12  27  47  76 104 150 190 242 298 365 432
#     4  11  26  44  75 105 148 186 242 297 357 429
#     4  11  25  46  73 107 144 191 242 295 360 430
#     4  12  26  47  73 107 141 191 235 301 362 426
#     4  11  26  46  71 107 144 189 238 293 364 425
#     4  12  28  48  73 106 148 191 242 297 361 436
#
# _framework density 22.222481999999999
#
# number of rings (size 3 to 8) (size 9 to 14) (size 15 to 20)
#    0.000    0.500    2.500    4.500   12.250    0.000 
#    4.500    0.000    0.000    0.000    0.000    0.000 
#    0.000    0.000    0.000    0.000    0.000    0.000 
#
# Total GULP energy -198530.158486 kJ/mol
# GULP energy per Si atom -12408.134905 kJ/mol
# Density = 2.217190 g / cm^3
# Si number density = 22.222482 Si / 1000 Ang^3
#
#
#
# Elastic Constant Matrix: (Units=GPa)
#
#
# Indices 1 2 3 4 5 6 
#
# 1 100.4324 29.7307 50.2401 0.0000 8.2082 0.0000
# 2 29.7307 97.7703 33.2608 0.0000 2.9532 0.0000
# 3 50.2401 33.2608 114.0239 0.0000 8.1119 0.0000
# 4 0.0000 0.0000 0.0000 40.2956 0.0000 -1.4939
# 5 8.2082 2.9532 8.1119 0.0000 39.0080 0.0000
# 6 0.0000 0.0000 0.0000 -1.4939 0.0000 47.1216
#
#
#
# Elastic Compliance Matrix: (Units=1/GPa)
#
#
# Indices 1 2 3 4 5 6 
#
# 1 0.013301 -0.002266 -0.005088 0.000000 -0.001569 0.000000
# 2 -0.002266 0.011742 -0.002433 0.000000 0.000094 0.000000
# 3 -0.005088 -0.002433 0.011807 0.000000 -0.001201 0.000000
# 4 0.000000 0.000000 0.000000 0.024846 0.000000 0.000788
# 5 -0.001569 0.000094 -0.001201 0.000000 0.026209 0.000000
# 6 0.000000 0.000000 0.000000 0.000788 0.000000 0.021247
#
#
# Mechanical properties :
#
#
# Convention : Reuss Voigt Hill
#
# Bulk Modulus (GPa) = 57.88622 59.85443 58.87032
# Shear Modulus (GPa) = 37.17878 38.55137 37.86508
#
# Velocity S-wave (km/s) = 4.09470 4.16960 4.13232
# Velocity P-wave (km/s) = 6.96136 7.08332 7.02260
#
# Compressibility (1/GPa) = 0.01727527
#
# Stress axis : x y z
#
# Youngs Moduli (GPa) = 75.18057 85.16292 84.69497
#
# Poissons Ratio (x) = 0.19302 0.43092
# Poissons Ratio (y) = 0.17040 0.20608
# Poissons Ratio (z) = 0.38251 0.20722
#
# Static dielectric constant tensor:
#      x y z
#    x 4.088520 0.000000 0.004950 
#    y 0.000000 3.993830 0.000000 
#    z 0.004950 0.000000 4.248630 
# 
# 
# High freq. dielectric constant tensor:
#      x y z
#    x 1.886850 0.000000 0.000070 
#    y 0.000000 1.882460 0.000000 
#    z 0.000070 0.000000 1.886340 
# 
# From -- ./inp_files/5430.got.cif
#   From: 2010.03.12/outbox.cif.g09.slc.cpg/sg4_3_cif.got.tgz:5430.got - 2010.03.31 09:31:35.
