data_PCOD8047435
_publ_section_title
;
Structure prediction by ZEFSAII (Michael W. Deem and Ramdas Pophale) SiO2 
 PCOD8047435
Probable space group: P 21
;
_chemical_formula_sum "Si O2"
_cell_formula_units_Z 16
_cell_length_a 11.323582
_cell_length_b 9.038691
_cell_length_c 12.746140
_cell_angle_alpha 90.000000
_cell_angle_beta 34.635018
_cell_angle_gamma 90.000000
_cell_volume 741.449222
_symmetry_space_group_name_H-M "P 21"
_symmetry_group_IT_number 4
_symmetry_cell_setting 'monoclinic'
loop_
_space_group_symop_operation_xyz
x,y,z
-x,1/2+y,-z
loop_
_atom_site_type_symbol
_atom_site_label
_atom_site_fract_x
_atom_site_fract_y
_atom_site_fract_z
Si Si1 0.470785 0.678810 0.437169
Si Si2 0.618264 0.218383 0.904733
Si Si3 0.029637 0.502200 0.410305
Si Si4 0.965990 0.444187 0.689652
Si Si5 0.612395 0.835892 0.128382
Si Si6 0.988758 0.261589 0.271138
Si Si7 0.376297 0.345176 0.477738
Si Si8 0.402770 0.146016 0.270449
O O1 0.586079 0.742255 0.252175
O O2 0.486236 0.501375 0.419880
O O3 0.591325 0.730657 0.451923
O O4 0.234998 0.736759 0.617316
O O5 0.750733 0.358621 0.844558
O O6 0.512993 0.255412 0.872127
O O7 0.445974 0.192774 0.119313
O O8 0.761069 0.072902 0.789493
O O9 0.073624 0.451483 0.496566
O O10 0.844235 0.621084 0.540145
O O11 0.960502 0.359158 0.395865
O O12 0.908881 0.606722 0.771442
O O13 0.128550 0.366912 0.648859
O O14 0.532250 0.000813 0.205792
O O15 0.857913 0.842030 0.922778
O O16 0.469549 0.273607 0.303140
#
# Coordination Sequence:
#
# PCOD8047435 Si02
#       8
#     2   2   2   2   2   2   2   2
#     4  11  25  50  69  99 138 185 240 289 347 407
#     4  12  25  39  68 107 145 182 228 286 354 421
#     4  12  22  44  66 103 145 186 225 280 356 418
#     4  11  23  42  68 104 140 180 226 285 353 418
#     4  12  25  43  68 103 142 188 231 289 346 418
#     4  11  25  42  68  98 138 181 230 286 345 405
#     4  11  26  46  76  98 138 189 234 290 348 416
#     4  12  25  42  69 104 142 185 230 285 353 421
#
# _framework density 21.579360999999999
#
# number of rings (size 3 to 8) (size 9 to 14) (size 15 to 20)
#    0.000    0.500    5.000    3.750    3.500    0.000 
#    2.250    0.000    0.000    0.000    0.000    0.000 
#    0.000    0.000    0.000    0.000    0.000    0.000 
#
# Total GULP energy -198523.586006 kJ/mol
# GULP energy per Si atom -12407.724125 kJ/mol
# Density = 2.153025 g / cm^3
# Si number density = 21.579361 Si / 1000 Ang^3
#
#
#
# Elastic Constant Matrix: (Units=GPa)
#
#
# Indices 1 2 3 4 5 6 
#
# 1 101.1329 37.7024 28.8858 0.0000 8.6971 0.0000
# 2 37.7024 98.0310 20.0359 0.0000 7.2698 0.0000
# 3 28.8858 20.0359 86.1963 0.0000 -4.4247 0.0000
# 4 0.0000 0.0000 0.0000 31.4261 0.0000 12.1412
# 5 8.6971 7.2698 -4.4247 0.0000 25.8281 0.0000
# 6 0.0000 0.0000 0.0000 12.1412 0.0000 38.0141
#
#
#
# Elastic Compliance Matrix: (Units=1/GPa)
#
#
# Indices 1 2 3 4 5 6 
#
# 1 0.012666 -0.003867 -0.003540 0.000000 -0.003783 0.000000
# 2 -0.003867 0.012208 -0.001666 0.000000 -0.002419 0.000000
# 3 -0.003540 -0.001666 0.013378 0.000000 0.003953 0.000000
# 4 0.000000 0.000000 0.000000 0.036300 0.000000 -0.011594
# 5 -0.003783 -0.002419 0.003953 0.000000 0.041349 0.000000
# 6 0.000000 0.000000 0.000000 -0.011594 0.000000 0.030009
#
#
# Mechanical properties :
#
#
# Convention : Reuss Voigt Hill
#
# Bulk Modulus (GPa) = 49.73675 50.95650 50.34663
# Shear Modulus (GPa) = 29.28116 32.30275 30.79195
#
# Velocity S-wave (km/s) = 3.68762 3.87321 3.78155
# Velocity P-wave (km/s) = 6.42103 6.60811 6.51525
#
# Compressibility (1/GPa) = 0.02010586
#
# Stress axis : x y z
#
# Youngs Moduli (GPa) = 78.95090 81.91279 74.75059
#
# Poissons Ratio (x) = 0.31678 0.26461
# Poissons Ratio (y) = 0.30533 0.12453
# Poissons Ratio (z) = 0.27948 0.13646
#
# Static dielectric constant tensor:
#      x y z
#    x 3.786720 0.000000 -0.027030 
#    y 0.000000 4.169600 0.000000 
#    z -0.027030 0.000000 3.857200 
# 
# 
# High freq. dielectric constant tensor:
#      x y z
#    x 1.839340 0.000000 -0.002490 
#    y 0.000000 1.868490 0.000000 
#    z -0.002490 0.000000 1.843740 
# 
# From -- ./inp_files/11977.got.cif
#   From: 2010.03.12/outbox.cif.g09.slc.cpg/sg4_6_cif.got.tgz:11977.got - 2010.03.31 09:31:35.
