data_PCOD8047447
_publ_section_title
;
Structure prediction by ZEFSAII (Michael W. Deem and Ramdas Pophale) SiO2 
 PCOD8047447
Probable space group: P 21
;
_chemical_formula_sum "Si O2"
_cell_formula_units_Z 14
_cell_length_a 10.553467
_cell_length_b 5.026168
_cell_length_c 12.654497
_cell_angle_alpha 90.000000
_cell_angle_beta 111.691542
_cell_angle_gamma 90.000000
_cell_volume 623.706452
_symmetry_space_group_name_H-M "P 21"
_symmetry_group_IT_number 4
_symmetry_cell_setting 'monoclinic'
loop_
_space_group_symop_operation_xyz
x,y,z
-x,1/2+y,-z
loop_
_atom_site_type_symbol
_atom_site_label
_atom_site_fract_x
_atom_site_fract_y
_atom_site_fract_z
Si Si1 0.067658 0.705200 0.135705
Si Si2 0.300205 0.278295 0.690803
Si Si3 0.411724 0.161065 0.495769
Si Si4 0.817299 0.366633 0.040036
Si Si5 0.138150 0.217507 0.286995
Si Si6 0.145696 0.763609 0.716791
Si Si7 0.518370 0.344031 0.938991
O O1 0.156776 0.493469 0.229811
O O2 0.907781 0.628878 0.092921
O O3 0.090956 0.997450 0.188249
O O4 0.110994 0.685252 0.026478
O O5 0.367544 0.236674 0.598977
O O6 0.208964 0.542700 0.659617
O O7 0.425298 0.312691 0.808810
O O8 0.199140 0.044868 0.692593
O O9 0.513269 0.378723 0.478830
O O10 0.278633 0.133737 0.382621
O O11 0.805720 0.209184 0.147588
O O12 0.668298 0.451619 0.952159
O O13 0.019559 0.252910 0.339170
O O14 0.457284 0.555543 0.001835
#
# Coordination Sequence:
#
# PCOD8047447 Si02
#       7
#     2   2   2   2   2   2   2
#     4  11  25  42  71 105 143 187 231 283 350 404
#     4  12  25  46  68 103 132 187 224 291 342 406
#     4  12  29  51  73 100 141 179 239 292 349 419
#     4  11  23  43  66 104 145 180 228 280 341 422
#     4  11  26  46  71 104 135 189 237 292 343 404
#     4  11  23  43  70  99 140 169 236 285 341 407
#     4  12  25  41  67 101 144 183 221 273 356 416
#
# _framework density 22.446458
#
# number of rings (size 3 to 8) (size 9 to 14) (size 15 to 20)
#    0.000    0.571    2.857    5.143    4.000    4.571 
#    0.000    0.000    0.000    0.000    0.000    0.000 
#    0.000    0.000    0.000    0.000    0.000    0.000 
#
# Total GULP energy -173650.375928 kJ/mol
# GULP energy per Si atom -12403.598281 kJ/mol
# Density = 2.239537 g / cm^3
# Si number density = 22.446458 Si / 1000 Ang^3
#
#
#
# Elastic Constant Matrix: (Units=GPa)
#
#
# Indices 1 2 3 4 5 6 
#
# 1 124.7938 16.9435 36.1830 0.0000 19.4721 0.0000
# 2 16.9435 72.4868 10.6049 0.0000 5.2294 0.0000
# 3 36.1830 10.6049 77.9730 0.0000 -4.1398 0.0000
# 4 0.0000 0.0000 0.0000 28.0200 0.0000 -5.6965
# 5 19.4721 5.2294 -4.1398 0.0000 48.2767 0.0000
# 6 0.0000 0.0000 0.0000 -5.6965 0.0000 39.0074
#
#
#
# Elastic Compliance Matrix: (Units=1/GPa)
#
#
# Indices 1 2 3 4 5 6 
#
# 1 0.010287 -0.001381 -0.004820 0.000000 -0.004413 0.000000
# 2 -0.001381 0.014401 -0.001377 0.000000 -0.001121 0.000000
# 3 -0.004820 -0.001377 0.015430 0.000000 0.003416 0.000000
# 4 0.000000 0.000000 0.000000 0.036781 0.000000 0.005371
# 5 -0.004413 -0.001121 0.003416 0.000000 0.022908 0.000000
# 6 0.000000 0.000000 0.000000 0.005371 0.000000 0.026421
#
#
# Mechanical properties :
#
#
# Convention : Reuss Voigt Hill
#
# Bulk Modulus (GPa) = 40.06185 44.74626 42.40406
# Shear Modulus (GPa) = 33.39911 37.16229 35.28070
#
# Velocity S-wave (km/s) = 3.86157 4.07332 3.96886
# Velocity P-wave (km/s) = 6.14563 6.48849 6.31939
#
# Compressibility (1/GPa) = 0.02496140
#
# Stress axis : x y z
#
# Youngs Moduli (GPa) = 97.21204 69.44067 64.80731
#
# Poissons Ratio (x) = 0.09590 0.31237
# Poissons Ratio (y) = 0.13425 0.08926
# Poissons Ratio (z) = 0.46856 0.09564
#
# Static dielectric constant tensor:
#      x y z
#    x 4.330740 0.000000 -0.021020 
#    y 0.000000 4.050040 0.000000 
#    z -0.021020 0.000000 3.946480 
# 
# 
# High freq. dielectric constant tensor:
#      x y z
#    x 1.900680 0.000000 0.001790 
#    y 0.000000 1.892310 0.000000 
#    z 0.001790 0.000000 1.875340 
# 
# From -- ./inp_files/10668.got.cif
#   From: 2010.03.12/outbox.cif.g09.slc.cpg/sg4_6_cif.got.tgz:10668.got - 2010.03.31 09:31:35.
