data_PCOD8047909
_publ_section_title
;
Structure prediction by ZEFSAII (Michael W. Deem and Ramdas Pophale) SiO2 
 PCOD8047909
Probable space group: P 21
;
_chemical_formula_sum "Si O2"
_cell_formula_units_Z 16
_cell_length_a 8.758893
_cell_length_b 8.390307
_cell_length_c 12.849964
_cell_angle_alpha 90.000000
_cell_angle_beta 132.970826
_cell_angle_gamma 90.000000
_cell_volume 690.975350
_symmetry_space_group_name_H-M "P 21"
_symmetry_group_IT_number 4
_symmetry_cell_setting 'monoclinic'
loop_
_space_group_symop_operation_xyz
x,y,z
-x,1/2+y,-z
loop_
_atom_site_type_symbol
_atom_site_label
_atom_site_fract_x
_atom_site_fract_y
_atom_site_fract_z
Si Si1 0.720413 0.525080 0.815090
Si Si2 0.659306 0.336594 0.591628
Si Si3 0.409755 0.525078 0.315084
Si Si4 0.004942 0.234872 0.601598
Si Si5 0.698261 0.234854 0.101600
Si Si6 0.742604 0.041921 0.318969
Si Si7 0.976057 0.836582 0.908381
Si Si8 0.395326 0.041912 0.818967
O O1 0.689436 0.490268 0.678976
O O2 0.501101 0.525541 0.771617
O O3 0.834548 0.692772 0.884996
O O4 0.857424 0.381550 0.925967
O O5 0.494509 0.381555 0.425973
O O6 0.564584 0.192776 0.615023
O O7 0.880676 0.293931 0.644507
O O8 0.168503 0.490255 0.178974
O O9 0.542113 0.525531 0.271603
O O10 0.140553 0.374546 0.611898
O O11 0.155183 0.095017 0.711055
O O12 0.842781 0.172894 0.440754
O O13 0.766960 0.095012 0.211074
O O14 0.583280 0.374537 0.111912
O O15 0.908333 0.293899 0.144491
O O16 0.538720 0.172861 0.940767
#
# Coordination Sequence:
#
# PCOD8047909 Si02
#       8
#     2   2   2   2   2   2   2   2
#     4  12  26  46  71 103 141 184 235 290 349 418
#     4  12  25  44  69 101 138 184 232 288 350 416
#     4  12  26  46  71 103 141 184 235 290 349 418
#     4  12  25  44  69 101 138 184 232 288 350 416
#     4  12  25  44  69 101 138 184 232 288 350 416
#     4  12  26  46  71 103 141 184 235 290 349 418
#     4  12  25  44  69 101 138 184 232 288 350 416
#     4  12  26  46  71 103 141 184 235 290 349 418
#
# _framework density 23.155674000000001
#
# number of rings (size 3 to 8) (size 9 to 14) (size 15 to 20)
#    0.000    0.000    0.000   12.000    0.000    4.000 
#    0.000    0.000    0.000    0.000    0.000    0.000 
#    0.000    0.000    0.000    0.000    0.000    0.000 
#
# Total GULP energy -198570.733699 kJ/mol
# GULP energy per Si atom -12410.670856 kJ/mol
# Density = 2.310297 g / cm^3
# Si number density = 23.155674 Si / 1000 Ang^3
#
#
#
# Elastic Constant Matrix: (Units=GPa)
#
#
# Indices 1 2 3 4 5 6 
#
# 1 73.9793 27.2962 5.8024 0.0000 -0.1670 0.0000
# 2 27.2962 105.7786 29.1815 0.0000 -0.0182 0.0000
# 3 5.8024 29.1815 73.5129 0.0000 0.1760 0.0000
# 4 0.0000 0.0000 0.0000 57.6762 0.0000 -0.1224
# 5 -0.1670 -0.0182 0.1760 0.0000 41.7543 0.0000
# 6 0.0000 0.0000 0.0000 -0.1224 0.0000 46.5829
#
#
#
# Elastic Compliance Matrix: (Units=1/GPa)
#
#
# Indices 1 2 3 4 5 6 
#
# 1 0.014950 -0.003967 0.000394 0.000000 0.000056 0.000000
# 2 -0.003967 0.011669 -0.004319 0.000000 0.000007 0.000000
# 3 0.000394 -0.004319 0.015287 0.000000 -0.000065 0.000000
# 4 0.000000 0.000000 0.000000 0.017338 0.000000 0.000046
# 5 0.000056 0.000007 -0.000065 0.000000 0.023950 0.000000
# 6 0.000000 0.000000 0.000000 0.000046 0.000000 0.021467
#
#
# Mechanical properties :
#
#
# Convention : Reuss Voigt Hill
#
# Bulk Modulus (GPa) = 38.28040 41.98125 40.13083
# Shear Modulus (GPa) = 38.71435 41.93538 40.32486
#
# Velocity S-wave (km/s) = 4.09334 4.26022 4.17762
# Velocity P-wave (km/s) = 6.23765 6.50913 6.37483
#
# Compressibility (1/GPa) = 0.02612303
#
# Stress axis : x y z
#
# Youngs Moduli (GPa) = 66.88924 85.69865 65.41717
#
# Poissons Ratio (x) = 0.33994 -0.02580
# Poissons Ratio (y) = 0.26533 0.28253
# Poissons Ratio (z) = -0.02638 0.37013
#
# Static dielectric constant tensor:
#      x y z
#    x 4.125670 0.000000 -0.001590 
#    y 0.000000 4.294180 0.000000 
#    z -0.001590 0.000000 4.265520 
# 
# 
# High freq. dielectric constant tensor:
#      x y z
#    x 1.924330 0.000000 -0.000060 
#    y 0.000000 1.928120 0.000000 
#    z -0.000060 0.000000 1.929320 
# 
# From -- ./inp_files/5685.got.cif
#   From: 2010.03.12/outbox.cif.g09.slc.cpg/sg4_3_cif.got.tgz:5685.got - 2010.03.31 09:31:35.
