data_PCOD8047573
_publ_section_title
;
Structure prediction by ZEFSAII (Michael W. Deem and Ramdas Pophale) SiO2 
 PCOD8047573
Probable space group: P 21
;
_chemical_formula_sum "Si O2"
_cell_formula_units_Z 14
_cell_length_a 16.633015
_cell_length_b 5.060068
_cell_length_c 8.051559
_cell_angle_alpha 90.000000
_cell_angle_beta 129.029636
_cell_angle_gamma 90.000000
_cell_volume 526.414572
_symmetry_space_group_name_H-M "P 21"
_symmetry_group_IT_number 4
_symmetry_cell_setting 'monoclinic'
loop_
_space_group_symop_operation_xyz
x,y,z
-x,1/2+y,-z
loop_
_atom_site_type_symbol
_atom_site_label
_atom_site_fract_x
_atom_site_fract_y
_atom_site_fract_z
Si Si1 0.765834 0.430600 0.904171
Si Si2 0.879470 0.785579 0.819839
Si Si3 0.461304 0.085705 0.373743
Si Si4 0.974967 0.463921 0.696562
Si Si5 0.228372 0.651656 0.549816
Si Si6 0.537686 0.266731 0.130834
Si Si7 0.823803 0.929099 0.185703
O O1 0.796802 0.638160 0.087444
O O2 0.795723 0.137056 0.002405
O O3 0.818008 0.516697 0.794955
O O4 0.643981 0.433975 0.721975
O O5 0.944112 0.750321 0.731438
O O6 0.796918 0.013613 0.661533
O O7 0.961115 0.830989 0.070721
O O8 0.544446 0.874088 0.549252
O O9 0.479369 0.122797 0.204003
O O10 0.049864 0.461611 0.632387
O O11 0.864430 0.339307 0.510699
O O12 0.338999 0.795481 0.678068
O O13 0.236058 0.453678 0.718400
O O14 0.510015 0.061261 0.946724
#
# Coordination Sequence:
#
# PCOD8047573 Si02
#       7
#     2   2   2   2   2   2   2
#     4  11  25  47  71  99 147 190 243 296 370 425
#     4  11  24  43  70 103 144 189 236 298 356 445
#     4  12  25  44  75 108 143 187 252 310 366 431
#     4  11  25  42  70 100 147 184 235 293 361 436
#     4  12  28  44  75 107 146 195 245 297 370 430
#     4  12  28  51  75 107 151 195 248 309 367 433
#     4  11  27  45  70 102 144 194 239 293 358 448
#
# _framework density 26.595008
#
# number of rings (size 3 to 8) (size 9 to 14) (size 15 to 20)
#    0.000    0.571    1.429    5.143   12.000    0.000 
#    0.000    0.000    0.000    0.000    0.000    0.000 
#    0.000    0.000    0.000    0.000    0.000    0.000 
#
# Total GULP energy -173517.415741 kJ/mol
# GULP energy per Si atom -12394.101124 kJ/mol
# Density = 2.653448 g / cm^3
# Si number density = 26.595008 Si / 1000 Ang^3
#
#
#
# Elastic Constant Matrix: (Units=GPa)
#
#
# Indices 1 2 3 4 5 6 
#
# 1 61.7662 -20.6636 8.8559 0.0000 16.4586 0.0000
# 2 -20.6636 77.2305 13.6654 0.0000 12.7897 0.0000
# 3 8.8559 13.6654 82.5383 0.0000 25.9963 0.0000
# 4 0.0000 0.0000 0.0000 46.4541 0.0000 1.6771
# 5 16.4586 12.7897 25.9963 0.0000 46.6537 0.0000
# 6 0.0000 0.0000 0.0000 1.6771 0.0000 31.4930
#
#
#
# Elastic Compliance Matrix: (Units=1/GPa)
#
#
# Indices 1 2 3 4 5 6 
#
# 1 0.021138 0.007271 -0.000601 0.000000 -0.009116 0.000000
# 2 0.007271 0.016182 -0.001521 0.000000 -0.006154 0.000000
# 3 -0.000601 -0.001521 0.014838 0.000000 -0.007639 0.000000
# 4 0.000000 0.000000 0.000000 0.021568 0.000000 -0.001149
# 5 -0.009116 -0.006154 -0.007639 0.000000 0.030594 0.000000
# 6 0.000000 0.000000 0.000000 -0.001149 0.000000 0.031814
#
#
# Mechanical properties :
#
#
# Convention : Reuss Voigt Hill
#
# Bulk Modulus (GPa) = 16.01104 25.02783 20.51944
# Shear Modulus (GPa) = 34.09385 39.56531 36.82958
#
# Velocity S-wave (km/s) = 3.58434 3.86125 3.72537
# Velocity P-wave (km/s) = 4.81283 5.41389 5.12218
#
# Compressibility (1/GPa) = 0.06245689
#
# Stress axis : x y z
#
# Youngs Moduli (GPa) = 47.30843 61.79689 67.39515
#
# Poissons Ratio (x) = -0.44936 0.04049
# Poissons Ratio (y) = -0.34400 0.10252
# Poissons Ratio (z) = 0.02842 0.09400
#
# Static dielectric constant tensor:
#      x y z
#    x 5.238590 0.000000 0.037990 
#    y 0.000000 4.722390 0.000000 
#    z 0.037990 0.000000 4.767200 
# 
# 
# High freq. dielectric constant tensor:
#      x y z
#    x 2.077280 0.000000 0.002110 
#    y 0.000000 2.068890 0.000000 
#    z 0.002110 0.000000 2.070020 
# 
# From -- ./inp_files/9538.got.cif
#   From: 2010.03.12/outbox.cif.g09.slc.cpg/sg4_5_cif.got.tgz:9538.got - 2010.03.31 09:31:35.
