data_PCOD8047090
_publ_section_title
;
Structure prediction by ZEFSAII (Michael W. Deem and Ramdas Pophale) SiO2 
 PCOD8047090
Probable space group: P 21
;
_chemical_formula_sum "Si O2"
_cell_formula_units_Z 16
_cell_length_a 9.520128
_cell_length_b 9.354134
_cell_length_c 12.204121
_cell_angle_alpha 90.000000
_cell_angle_beta 144.268910
_cell_angle_gamma 90.000000
_cell_volume 634.676148
_symmetry_space_group_name_H-M "P 21"
_symmetry_group_IT_number 4
_symmetry_cell_setting 'monoclinic'
loop_
_space_group_symop_operation_xyz
x,y,z
-x,1/2+y,-z
loop_
_atom_site_type_symbol
_atom_site_label
_atom_site_fract_x
_atom_site_fract_y
_atom_site_fract_z
Si Si1 0.762088 0.539410 0.503479
Si Si2 0.116448 0.989273 0.855600
Si Si3 0.374396 0.734889 0.603349
Si Si4 0.156572 0.233306 0.239809
Si Si5 0.710305 0.084069 0.907163
Si Si6 0.569411 0.820019 0.161819
Si Si7 0.049858 0.489225 0.475421
Si Si8 0.285390 0.291872 0.991352
O O1 0.786078 0.368968 0.541558
O O2 0.866801 0.639256 0.664368
O O3 0.473754 0.566918 0.310536
O O4 0.912299 0.569616 0.486865
O O5 0.099652 0.157828 0.875197
O O6 0.892935 0.901292 0.767395
O O7 0.135653 0.946351 0.738111
O O8 0.370955 0.938927 0.065972
O O9 0.591445 0.708098 0.657192
O O10 0.209323 0.597281 0.503205
O O11 0.467811 0.761398 0.786115
O O12 0.943193 0.178791 0.023617
O O13 0.547259 0.163701 0.896221
O O14 0.821315 0.933214 0.018343
O O15 0.793067 0.853682 0.384981
O O16 0.659270 0.833862 0.096602
#
# Coordination Sequence:
#
# PCOD8047090 Si02
#       8
#     2   2   2   2   2   2   2   2
#     4  11  26  47  75 109 149 196 253 318 378 452
#     4  11  25  42  74 103 148 193 248 306 382 447
#     4  11  28  48  72 112 153 194 258 306 386 467
#     4  11  27  50  72 106 151 202 247 314 380 460
#     4  10  24  44  72 102 147 190 253 305 374 452
#     4  11  22  43  69 109 144 190 243 314 376 440
#     4  12  26  44  75 110 146 195 254 316 378 448
#     4  11  22  44  69 109 146 192 246 313 368 450
#
# _framework density 25.209709
#
# number of rings (size 3 to 8) (size 9 to 14) (size 15 to 20)
#    0.000    1.000    1.250    4.500   12.250    2.000 
#    0.000    0.000    0.000    0.000    0.000    0.000 
#    0.000    0.000    0.000    0.000    0.000    0.000 
#
# Total GULP energy -198330.916328 kJ/mol
# GULP energy per Si atom -12395.682271 kJ/mol
# Density = 2.515233 g / cm^3
# Si number density = 25.209709 Si / 1000 Ang^3
#
#
#
# Elastic Constant Matrix: (Units=GPa)
#
#
# Indices 1 2 3 4 5 6 
#
# 1 73.0640 21.6298 6.2826 0.0000 24.2948 0.0000
# 2 21.6298 149.0173 32.0197 0.0000 12.6406 0.0000
# 3 6.2826 32.0197 69.8252 0.0000 -0.2860 0.0000
# 4 0.0000 0.0000 0.0000 45.7685 0.0000 8.6128
# 5 24.2948 12.6406 -0.2860 0.0000 30.8561 0.0000
# 6 0.0000 0.0000 0.0000 8.6128 0.0000 26.8290
#
#
#
# Elastic Compliance Matrix: (Units=1/GPa)
#
#
# Indices 1 2 3 4 5 6 
#
# 1 0.018959 -0.001276 -0.001180 0.000000 -0.014416 0.000000
# 2 -0.001276 0.007835 -0.003487 0.000000 -0.002238 0.000000
# 3 -0.001180 -0.003487 0.016037 0.000000 0.002506 0.000000
# 4 0.000000 0.000000 0.000000 0.023254 0.000000 -0.007465
# 5 -0.014416 -0.002238 0.002506 0.000000 0.044699 0.000000
# 6 0.000000 0.000000 0.000000 -0.007465 0.000000 0.039669
#
#
# Mechanical properties :
#
#
# Convention : Reuss Voigt Hill
#
# Bulk Modulus (GPa) = 32.31469 45.75230 39.03350
# Shear Modulus (GPa) = 28.95959 36.15570 32.55765
#
# Velocity S-wave (km/s) = 3.39299 3.79119 3.59761
# Velocity P-wave (km/s) = 5.31000 6.11165 5.72487
#
# Compressibility (1/GPa) = 0.03094567
#
# Stress axis : x y z
#
# Youngs Moduli (GPa) = 52.74469 127.63410 62.35563
#
# Poissons Ratio (x) = 0.16280 0.07358
# Poissons Ratio (y) = 0.06728 0.21745
# Poissons Ratio (z) = 0.06224 0.44509
#
# Static dielectric constant tensor:
#      x y z
#    x 4.042860 0.000000 -0.024840 
#    y 0.000000 4.728230 0.000000 
#    z -0.024840 0.000000 4.854970 
# 
# 
# High freq. dielectric constant tensor:
#      x y z
#    x 1.976030 0.000000 0.004720 
#    y 0.000000 2.018060 0.000000 
#    z 0.004720 0.000000 2.016700 
# 
# From -- ./inp_files/11109.got.cif
#   From: 2010.03.12/outbox.cif.g09.slc.cpg/sg4_6_cif.got.tgz:11109.got - 2010.03.31 09:31:35.
