data_PCOD8047850
_publ_section_title
;
Structure prediction by ZEFSAII (Michael W. Deem and Ramdas Pophale) SiO2 
 PCOD8047850
Probable space group: P 21
;
_chemical_formula_sum "Si O2"
_cell_formula_units_Z 12
_cell_length_a 4.988888
_cell_length_b 24.730767
_cell_length_c 5.012962
_cell_angle_alpha 90.000000
_cell_angle_beta 119.841313
_cell_angle_gamma 90.000000
_cell_volume 536.486278
_symmetry_space_group_name_H-M "P 21"
_symmetry_group_IT_number 4
_symmetry_cell_setting 'monoclinic'
loop_
_space_group_symop_operation_xyz
x,y,z
-x,1/2+y,-z
loop_
_atom_site_type_symbol
_atom_site_label
_atom_site_fract_x
_atom_site_fract_y
_atom_site_fract_z
Si Si1 0.937233 0.103040 0.442214
Si Si2 0.604556 0.060966 0.773768
Si Si3 0.266283 0.894752 0.167899
Si Si4 0.669211 0.270158 0.773760
Si Si5 0.401616 0.436372 0.167900
Si Si6 0.004980 0.228085 0.442205
O O1 0.673270 0.083987 0.514810
O O2 0.011542 0.165562 0.523081
O O3 0.243471 0.068576 0.653974
O O4 0.816238 0.093558 0.084919
O O5 0.689115 0.998207 0.829891
O O6 0.339081 0.915562 0.500000
O O7 0.658463 0.747138 0.485199
O O8 0.359221 0.832917 0.170105
O O9 0.464263 0.930599 0.061794
O O10 0.097530 0.400525 0.061794
O O11 0.768683 0.237565 0.084907
O O12 0.910496 0.262550 0.653957
#
# Coordination Sequence:
#
# PCOD8047850 Si02
#       6
#     2   2   2   2   2   2
#     4  12  24  42  64  92 127 168 213 264 319 380
#     4  12  25  43  66  96 129 169 214 264 319 380
#     4  12  24  43  67  96 130 169 213 264 319 380
#     4  12  25  43  66  96 129 169 214 264 319 380
#     4  12  24  43  67  96 130 169 213 264 319 380
#     4  12  24  42  64  92 127 168 213 264 319 380
#
# _framework density 22.367766
#
# number of rings (size 3 to 8) (size 9 to 14) (size 15 to 20)
#    0.000    0.000    0.000   12.000    0.000    0.000 
#    0.000    0.000    0.000    0.000    0.000    0.000 
#    0.000    0.000    0.000    0.000    0.000    0.000 
#
# Total GULP energy -148968.425274 kJ/mol
# GULP energy per Si atom -12414.035439 kJ/mol
# Density = 2.231686 g / cm^3
# Si number density = 22.367766 Si / 1000 Ang^3
#
#
#
# Elastic Constant Matrix: (Units=GPa)
#
#
# Indices 1 2 3 4 5 6 
#
# 1 89.1771 18.7332 26.9868 0.0000 0.0006 0.0000
# 2 18.7332 88.9740 27.2120 0.0000 -0.0028 0.0000
# 3 26.9868 27.2120 90.5329 0.0000 -0.0007 0.0000
# 4 0.0000 0.0000 0.0000 31.2027 0.0000 -0.0004
# 5 0.0006 -0.0028 -0.0007 0.0000 31.5063 0.0000
# 6 0.0000 0.0000 0.0000 -0.0004 0.0000 36.7485
#
#
#
# Elastic Compliance Matrix: (Units=1/GPa)
#
#
# Indices 1 2 3 4 5 6 
#
# 1 0.012541 -0.001649 -0.003243 0.000000 0.000000 0.000000
# 2 -0.001649 0.012594 -0.003294 0.000000 0.000001 0.000000
# 3 -0.003243 -0.003294 0.013002 0.000000 0.000000 0.000000
# 4 0.000000 0.000000 0.000000 0.032049 0.000000 0.000000
# 5 0.000000 0.000001 0.000000 0.000000 0.031740 0.000000
# 6 0.000000 0.000000 0.000000 0.000000 0.000000 0.027212
#
#
# Mechanical properties :
#
#
# Convention : Reuss Voigt Hill
#
# Bulk Modulus (GPa) = 45.94206 46.06088 46.00147
# Shear Modulus (GPa) = 32.73016 32.94164 32.83590
#
# Velocity S-wave (km/s) = 3.82943 3.84178 3.83561
# Velocity P-wave (km/s) = 6.33535 6.34951 6.34243
#
# Compressibility (1/GPa) = 0.02176655
#
# Stress axis : x y z
#
# Youngs Moduli (GPa) = 79.73624 79.40417 76.90859
#
# Poissons Ratio (x) = 0.13092 0.24940
# Poissons Ratio (y) = 0.13146 0.25333
# Poissons Ratio (z) = 0.25857 0.26155
#
# Static dielectric constant tensor:
#      x y z
#    x 4.013950 0.000000 -0.000010 
#    y 0.000000 4.060630 0.000000 
#    z -0.000010 0.000000 4.056760 
# 
# 
# High freq. dielectric constant tensor:
#      x y z
#    x 1.891550 0.000000 0.000000 
#    y 0.000000 1.894930 0.000000 
#    z 0.000000 0.000000 1.893600 
# 
# From -- ./inp_files/557.got.cif
#   From: 2010.03.12/outbox.cif.g09.slc.cpg/sg4_1_cif.got.tgz:557.got - 2010.03.31 09:31:35.
