data_PCOD8047653
_publ_section_title
;
Structure prediction by ZEFSAII (Michael W. Deem and Ramdas Pophale) SiO2 
 PCOD8047653
Probable space group: P 21
;
_chemical_formula_sum "Si O2"
_cell_formula_units_Z 14
_cell_length_a 12.163866
_cell_length_b 5.534350
_cell_length_c 12.036700
_cell_angle_alpha 90.000000
_cell_angle_beta 45.869526
_cell_angle_gamma 90.000000
_cell_volume 581.597529
_symmetry_space_group_name_H-M "P 21"
_symmetry_group_IT_number 4
_symmetry_cell_setting 'monoclinic'
loop_
_space_group_symop_operation_xyz
x,y,z
-x,1/2+y,-z
loop_
_atom_site_type_symbol
_atom_site_label
_atom_site_fract_x
_atom_site_fract_y
_atom_site_fract_z
Si Si1 0.741300 0.779510 0.104892
Si Si2 0.957237 0.636913 0.772345
Si Si3 0.943691 0.978973 0.594876
Si Si4 0.524950 0.109670 0.143475
Si Si5 0.708770 0.323466 0.825061
Si Si6 0.542953 0.391315 0.347624
Si Si7 0.745805 0.041314 0.318173
O O1 0.594080 0.629679 0.248081
O O2 0.674559 0.941992 0.052063
O O3 0.812006 0.910204 0.162182
O O4 0.879979 0.641243 0.948249
O O5 0.982688 0.897224 0.694012
O O6 0.861870 0.457168 0.760759
O O7 0.128545 0.542134 0.673475
O O8 0.963399 0.724924 0.510034
O O9 0.765355 0.070816 0.727498
O O10 0.488089 0.208767 0.291034
O O11 0.369816 0.978750 0.215808
O O12 0.580804 0.301063 0.011334
O O13 0.690625 0.304247 0.314767
O O14 0.403544 0.408679 0.530232
#
# Coordination Sequence:
#
# PCOD8047653 Si02
#       7
#     2   2   2   2   2   2   2
#     4  11  24  47  73 109 149 205 263 326 401 477
#     4  12  27  48  77 118 161 209 272 337 411 479
#     4  12  28  53  75 113 167 210 265 334 410 485
#     4  11  26  44  79 105 154 203 266 326 394 489
#     4  12  26  48  75 118 159 213 269 336 403 487
#     4  11  24  50  71 111 151 205 264 328 404 477
#     4  11  27  46  76 110 153 205 263 335 401 482
#
# _framework density 24.071626999999999
#
# number of rings (size 3 to 8) (size 9 to 14) (size 15 to 20)
#    0.000    0.571    5.714    0.857    2.000    4.571 
#    0.000    0.000    0.000    0.000    0.000    0.000 
#    0.000    0.000    0.000    0.000    0.000    0.000 
#
# Total GULP energy -173445.601766 kJ/mol
# GULP energy per Si atom -12388.971555 kJ/mol
# Density = 2.401684 g / cm^3
# Si number density = 24.071627 Si / 1000 Ang^3
#
#
#
# Elastic Constant Matrix: (Units=GPa)
#
#
# Indices 1 2 3 4 5 6 
#
# 1 143.8656 45.3904 24.2790 0.0000 2.3913 0.0000
# 2 45.3904 97.6465 29.9723 0.0000 2.7514 0.0000
# 3 24.2790 29.9723 122.4425 0.0000 8.4329 0.0000
# 4 0.0000 0.0000 0.0000 43.5850 0.0000 -9.3958
# 5 2.3913 2.7514 8.4329 0.0000 20.0027 0.0000
# 6 0.0000 0.0000 0.0000 -9.3958 0.0000 16.7578
#
#
#
# Elastic Compliance Matrix: (Units=1/GPa)
#
#
# Indices 1 2 3 4 5 6 
#
# 1 0.008209 -0.003585 -0.000738 0.000000 -0.000177 0.000000
# 2 -0.003585 0.012641 -0.002362 0.000000 -0.000314 0.000000
# 3 -0.000738 -0.002362 0.009128 0.000000 -0.003435 0.000000
# 4 0.000000 0.000000 0.000000 0.026098 0.000000 0.014633
# 5 -0.000177 -0.000314 -0.003435 0.000000 0.051506 0.000000
# 6 0.000000 0.000000 0.000000 0.014633 0.000000 0.067878
#
#
# Mechanical properties :
#
#
# Convention : Reuss Voigt Hill
#
# Bulk Modulus (GPa) = 60.20669 62.58199 61.39434
# Shear Modulus (GPa) = 25.72460 33.68997 29.70729
#
# Velocity S-wave (km/s) = 3.27260 3.74514 3.51682
# Velocity P-wave (km/s) = 6.27261 6.69000 6.48467
#
# Compressibility (1/GPa) = 0.01660945
#
# Stress axis : x y z
#
# Youngs Moduli (GPa) = 121.81175 79.10695 109.55017
#
# Poissons Ratio (x) = 0.28356 0.08087
# Poissons Ratio (y) = 0.43664 0.25875
# Poissons Ratio (z) = 0.08992 0.18685
#
# Static dielectric constant tensor:
#      x y z
#    x 4.051410 0.000000 0.198240 
#    y 0.000000 4.604050 0.000000 
#    z 0.198240 0.000000 4.414440 
# 
# 
# High freq. dielectric constant tensor:
#      x y z
#    x 1.940640 0.000000 0.013760 
#    y 0.000000 1.952960 0.000000 
#    z 0.013760 0.000000 1.977830 
# 
# From -- ./inp_files/7075.got.cif
#   From: 2010.03.12/outbox.cif.g09.slc.cpg/sg4_4_cif.got.tgz:7075.got - 2010.03.31 09:31:35.
