data_PCOD8047185
_publ_section_title
;
Structure prediction by ZEFSAII (Michael W. Deem and Ramdas Pophale) SiO2 
 PCOD8047185
Probable space group: P 21
;
_chemical_formula_sum "Si O2"
_cell_formula_units_Z 12
_cell_length_a 11.567811
_cell_length_b 5.187956
_cell_length_c 9.004588
_cell_angle_alpha 90.000000
_cell_angle_beta 78.746005
_cell_angle_gamma 90.000000
_cell_volume 530.004101
_symmetry_space_group_name_H-M "P 21"
_symmetry_group_IT_number 4
_symmetry_cell_setting 'monoclinic'
loop_
_space_group_symop_operation_xyz
x,y,z
-x,1/2+y,-z
loop_
_atom_site_type_symbol
_atom_site_label
_atom_site_fract_x
_atom_site_fract_y
_atom_site_fract_z
Si Si1 0.858872 0.181860 0.618337
Si Si2 0.867810 0.681624 0.429598
Si Si3 0.302111 0.684951 0.054701
Si Si4 0.710447 0.469928 0.227716
Si Si5 0.538093 0.149320 0.412331
Si Si6 0.538601 0.842370 0.141578
O O1 0.829023 0.452792 0.549555
O O2 0.780686 0.151659 0.784432
O O3 0.993538 0.169305 0.636942
O O4 0.830325 0.950399 0.512762
O O5 0.806129 0.651768 0.283871
O O6 0.430774 0.800681 0.058794
O O7 0.239586 0.855422 0.940643
O O8 0.339422 0.409365 0.977184
O O9 0.673836 0.245599 0.355544
O O10 0.582859 0.605096 0.231358
O O11 0.458114 0.386318 0.491181
O O12 0.490825 0.069471 0.261240
#
# Coordination Sequence:
#
# PCOD8047185 Si02
#       6
#     2   2   2   2   2   2
#     4  10  25  49  74  99 135 184 230 295 351 399
#     4  10  25  48  72 103 134 175 244 292 339 413
#     4  11  25  43  68 102 144 189 223 282 349 414
#     4  11  25  44  66 102 144 181 230 290 338 418
#     4  11  24  40  63 100 136 178 229 279 341 405
#     4  11  24  42  65 100 145 183 228 276 342 427
#
# _framework density 22.641335000000002
#
# number of rings (size 3 to 8) (size 9 to 14) (size 15 to 20)
#    0.000    1.333    3.333    0.000    9.333    1.333 
#    3.000    0.000    0.000    0.000    0.000    0.000 
#    0.000    0.000    0.000    0.000    0.000    0.000 
#
# Total GULP energy -148688.939681 kJ/mol
# GULP energy per Si atom -12390.744973 kJ/mol
# Density = 2.258980 g / cm^3
# Si number density = 22.641335 Si / 1000 Ang^3
#
#
#
# Elastic Constant Matrix: (Units=GPa)
#
#
# Indices 1 2 3 4 5 6 
#
# 1 66.3097 18.1344 53.7173 0.0000 8.9296 0.0000
# 2 18.1344 106.8149 32.0744 0.0000 -3.1677 0.0000
# 3 53.7173 32.0744 122.4350 0.0000 -15.5791 0.0000
# 4 0.0000 0.0000 0.0000 31.4137 0.0000 2.0193
# 5 8.9296 -3.1677 -15.5791 0.0000 42.6847 0.0000
# 6 0.0000 0.0000 0.0000 2.0193 0.0000 26.3415
#
#
#
# Elastic Compliance Matrix: (Units=1/GPa)
#
#
# Indices 1 2 3 4 5 6 
#
# 1 0.027400 -0.001033 -0.013099 0.000000 -0.010590 0.000000
# 2 -0.001033 0.010202 -0.002198 0.000000 0.000171 0.000000
# 3 -0.013099 -0.002198 0.015540 0.000000 0.008249 0.000000
# 4 0.000000 0.000000 0.000000 0.031991 0.000000 -0.002452
# 5 -0.010590 0.000171 0.008249 0.000000 0.028666 0.000000
# 6 0.000000 0.000000 0.000000 -0.002452 0.000000 0.038151
#
#
# Mechanical properties :
#
#
# Convention : Reuss Voigt Hill
#
# Bulk Modulus (GPa) = 48.81783 55.93464 52.37624
# Shear Modulus (GPa) = 26.11824 32.86356 29.49090
#
# Velocity S-wave (km/s) = 3.40010 3.81397 3.61297
# Velocity P-wave (km/s) = 6.08461 6.64481 6.37087
#
# Compressibility (1/GPa) = 0.02048432
#
# Stress axis : x y z
#
# Youngs Moduli (GPa) = 36.49585 98.01654 64.35042
#
# Poissons Ratio (x) = 0.10122 0.84290
# Poissons Ratio (y) = 0.03769 0.14144
# Poissons Ratio (z) = 0.47805 0.21543
#
# Static dielectric constant tensor:
#      x y z
#    x 3.724380 0.000000 0.067190 
#    y 0.000000 4.534490 0.000000 
#    z 0.067190 0.000000 4.269080 
# 
# 
# High freq. dielectric constant tensor:
#      x y z
#    x 1.858850 0.000000 0.009760 
#    y 0.000000 1.913590 0.000000 
#    z 0.009760 0.000000 1.907030 
# 
# From -- ./inp_files/7326.got.cif
#   From: 2010.03.12/outbox.cif.g09.slc.cpg/sg4_4_cif.got.tgz:7326.got - 2010.03.31 09:31:35.
