data_PCOD8047149
_publ_section_title
;
Structure prediction by ZEFSAII (Michael W. Deem and Ramdas Pophale) SiO2 
 PCOD8047149
Probable space group: P 21
;
_chemical_formula_sum "Si O2"
_cell_formula_units_Z 10
_cell_length_a 4.989427
_cell_length_b 8.774696
_cell_length_c 9.732466
_cell_angle_alpha 90.000000
_cell_angle_beta 73.085691
_cell_angle_gamma 90.000000
_cell_volume 407.661795
_symmetry_space_group_name_H-M "P 21"
_symmetry_group_IT_number 4
_symmetry_cell_setting 'monoclinic'
loop_
_space_group_symop_operation_xyz
x,y,z
-x,1/2+y,-z
loop_
_atom_site_type_symbol
_atom_site_label
_atom_site_fract_x
_atom_site_fract_y
_atom_site_fract_z
Si Si1 0.934061 0.595760 0.676561
Si Si2 0.820002 0.573417 0.393480
Si Si3 0.487734 0.773384 0.615280
Si Si4 0.794514 0.431511 0.965284
Si Si5 0.229291 0.588648 0.086326
O O1 0.230049 0.659610 0.680028
O O2 0.945998 0.517004 0.522669
O O3 0.713297 0.738791 0.703037
O O4 0.828093 0.471112 0.799962
O O5 0.635732 0.727221 0.447142
O O6 0.610064 0.446191 0.365759
O O7 0.069967 0.608902 0.253802
O O8 0.745309 0.252369 0.990049
O O9 0.536876 0.523505 0.070524
O O10 0.071379 0.473424 0.008558
#
# Coordination Sequence:
#
# PCOD8047149 Si02
#       5
#     2   2   2   2   2
#     4  10  26  45  76  99 151 184 249 304 367 436
#     4  10  28  44  80 104 148 189 256 300 379 436
#     4  10  25  41  76 106 142 184 248 305 365 435
#     4  12  29  51  74 114 150 208 245 323 364 467
#     4  12  30  49  80 107 159 195 264 298 395 436
#
# _framework density 24.530135999999999
#
# number of rings (size 3 to 8) (size 9 to 14) (size 15 to 20)
#    1.200    0.000    0.000    2.400   19.600    0.000 
#    0.000    0.000    0.000    0.000    0.000    0.000 
#    0.000    0.000    0.000    0.000    0.000    0.000 
#
# Total GULP energy -124007.884645 kJ/mol
# GULP energy per Si atom -12400.788465 kJ/mol
# Density = 2.447430 g / cm^3
# Si number density = 24.530136 Si / 1000 Ang^3
#
#
#
# Elastic Constant Matrix: (Units=GPa)
#
#
# Indices 1 2 3 4 5 6 
#
# 1 79.5971 -13.6920 22.1769 0.0000 -14.5093 0.0000
# 2 -13.6920 68.8134 13.4184 0.0000 -18.2381 0.0000
# 3 22.1769 13.4184 98.8561 0.0000 -15.8982 0.0000
# 4 0.0000 0.0000 0.0000 26.7868 0.0000 -6.5463
# 5 -14.5093 -18.2381 -15.8982 0.0000 37.0088 0.0000
# 6 0.0000 0.0000 0.0000 -6.5463 0.0000 32.1480
#
#
#
# Elastic Compliance Matrix: (Units=1/GPa)
#
#
# Indices 1 2 3 4 5 6 
#
# 1 0.015835 0.005806 -0.003096 0.000000 0.007739 0.000000
# 2 0.005806 0.018939 -0.002155 0.000000 0.010684 0.000000
# 3 -0.003096 -0.002155 0.011534 0.000000 0.002679 0.000000
# 4 0.000000 0.000000 0.000000 0.039287 0.000000 0.008000
# 5 0.007739 0.010684 0.002679 0.000000 0.036471 0.000000
# 6 0.000000 0.000000 0.000000 0.008000 0.000000 0.032735
#
#
# Mechanical properties :
#
#
# Convention : Reuss Voigt Hill
#
# Bulk Modulus (GPa) = 21.08921 32.34147 26.71534
# Shear Modulus (GPa) = 29.49913 34.21293 31.85603
#
# Velocity S-wave (km/s) = 3.47157 3.73866 3.60759
# Velocity P-wave (km/s) = 4.96840 5.64356 5.31671
#
# Compressibility (1/GPa) = 0.04741762
#
# Stress axis : x y z
#
# Youngs Moduli (GPa) = 63.15023 52.80109 86.70361
#
# Poissons Ratio (x) = -0.30655 0.26842
# Poissons Ratio (y) = -0.36663 0.18685
# Poissons Ratio (z) = 0.19550 0.11379
#
# Static dielectric constant tensor:
#      x y z
#    x 4.399010 0.000000 -0.196020 
#    y 0.000000 4.107960 0.000000 
#    z -0.196020 0.000000 4.328980 
# 
# 
# High freq. dielectric constant tensor:
#      x y z
#    x 1.984720 0.000000 -0.011890 
#    y 0.000000 1.962400 0.000000 
#    z -0.011890 0.000000 1.977250 
# 
# From -- ./inp_files/942.got.cif
#   From: 2010.03.12/outbox.cif.g09.slc.cpg/sg4_1_cif.got.tgz:942.got - 2010.03.31 09:31:35.
