data_PCOD8047390
_publ_section_title
;
Structure prediction by ZEFSAII (Michael W. Deem and Ramdas Pophale) SiO2 
 PCOD8047390
Probable space group: P 21
;
_chemical_formula_sum "Si O2"
_cell_formula_units_Z 16
_cell_length_a 6.358361
_cell_length_b 12.322748
_cell_length_c 10.968756
_cell_angle_alpha 90.000000
_cell_angle_beta 53.373370
_cell_angle_gamma 90.000000
_cell_volume 689.726577
_symmetry_space_group_name_H-M "P 21"
_symmetry_group_IT_number 4
_symmetry_cell_setting 'monoclinic'
loop_
_space_group_symop_operation_xyz
x,y,z
-x,1/2+y,-z
loop_
_atom_site_type_symbol
_atom_site_label
_atom_site_fract_x
_atom_site_fract_y
_atom_site_fract_z
Si Si1 0.508597 0.254040 0.950705
Si Si2 0.959116 0.556799 0.662261
Si Si3 0.355576 0.427446 0.190167
Si Si4 0.755239 0.338836 0.639555
Si Si5 0.839460 0.568463 0.976124
Si Si6 0.739267 0.746458 0.600880
Si Si7 0.519576 0.180593 0.542288
Si Si8 0.975381 0.089326 0.831923
O O1 0.550878 0.328575 0.818765
O O2 0.756258 0.177736 0.884658
O O3 0.486059 0.331288 0.071340
O O4 0.233646 0.192666 0.026868
O O5 0.256482 0.588493 0.524535
O O6 0.859912 0.462775 0.604388
O O7 0.939019 0.518706 0.811993
O O8 0.773160 0.661127 0.700504
O O9 0.293910 0.370129 0.340122
O O10 0.094294 0.479999 0.220422
O O11 0.576862 0.517647 0.124196
O O12 0.604851 0.297414 0.569757
O O13 0.997541 0.254411 0.572700
O O14 0.046303 0.561313 0.015204
O O15 0.511354 0.705569 0.590714
O O16 0.261668 0.132961 0.696260
#
# Coordination Sequence:
#
# PCOD8047390 Si02
#       8
#     2   2   2   2   2   2   2   2
#     4  11  22  47  68  98 145 181 229 296 350 416
#     4  11  26  45  70 108 142 179 243 297 353 423
#     4  11  26  44  71 101 146 186 227 303 357 409
#     4  11  24  46  71 100 142 190 232 288 360 415
#     4  11  24  44  71 104 137 184 233 291 357 425
#     4  11  26  46  67 104 146 185 236 292 355 425
#     4  11  26  47  73 103 142 192 238 294 349 440
#     4  11  26  45  73 104 138 187 242 281 361 433
#
# _framework density 23.197596000000001
#
# number of rings (size 3 to 8) (size 9 to 14) (size 15 to 20)
#    0.000    1.000    5.000    0.000    5.250    4.000 
#    2.250    0.000    0.000    0.000    0.000    0.000 
#    0.000    0.000    0.000    0.000    0.000    0.000 
#
# Total GULP energy -198307.335299 kJ/mol
# GULP energy per Si atom -12394.208456 kJ/mol
# Density = 2.314480 g / cm^3
# Si number density = 23.197596 Si / 1000 Ang^3
#
#
#
# Elastic Constant Matrix: (Units=GPa)
#
#
# Indices 1 2 3 4 5 6 
#
# 1 80.5836 49.3155 27.4874 0.0000 3.4435 0.0000
# 2 49.3155 95.6175 29.6400 0.0000 5.0708 0.0000
# 3 27.4874 29.6400 74.7899 0.0000 5.9306 0.0000
# 4 0.0000 0.0000 0.0000 36.4610 0.0000 7.8740
# 5 3.4435 5.0708 5.9306 0.0000 34.3228 0.0000
# 6 0.0000 0.0000 0.0000 7.8740 0.0000 36.3913
#
#
#
# Elastic Compliance Matrix: (Units=1/GPa)
#
#
# Indices 1 2 3 4 5 6 
#
# 1 0.018911 -0.008663 -0.003516 0.000000 -0.000010 0.000000
# 2 -0.008663 0.015923 -0.003051 0.000000 -0.000956 0.000000
# 3 -0.003516 -0.003051 0.016028 0.000000 -0.001966 0.000000
# 4 0.000000 0.000000 0.000000 0.028771 0.000000 -0.006225
# 5 -0.000010 -0.000956 -0.001966 0.000000 0.029617 0.000000
# 6 0.000000 0.000000 0.000000 -0.006225 0.000000 0.028826
#
#
# Mechanical properties :
#
#
# Convention : Reuss Voigt Hill
#
# Bulk Modulus (GPa) = 49.01513 51.54188 50.27850
# Shear Modulus (GPa) = 28.51670 31.07155 29.79412
#
# Velocity S-wave (km/s) = 3.50993 3.66379 3.58769
# Velocity P-wave (km/s) = 6.13200 6.33756 6.23563
#
# Compressibility (1/GPa) = 0.02040187
#
# Stress axis : x y z
#
# Youngs Moduli (GPa) = 52.87980 62.80358 62.39077
#
# Poissons Ratio (x) = 0.54406 0.21938
# Poissons Ratio (y) = 0.45809 0.19033
# Poissons Ratio (z) = 0.18594 0.19159
#
# Static dielectric constant tensor:
#      x y z
#    x 4.171310 0.000000 0.067240 
#    y 0.000000 4.355840 0.000000 
#    z 0.067240 0.000000 4.153900 
# 
# 
# High freq. dielectric constant tensor:
#      x y z
#    x 1.909070 0.000000 0.005620 
#    y 0.000000 1.915820 0.000000 
#    z 0.005620 0.000000 1.924700 
# 
# From -- ./inp_files/1333.got.cif
#   From: 2010.03.12/outbox.cif.g09.slc.cpg/sg4_1_cif.got.tgz:1333.got - 2010.03.31 09:31:35.
