data_PCOD8047035
_publ_section_title
;
Structure prediction by ZEFSAII (Michael W. Deem and Ramdas Pophale) SiO2 
 PCOD8047035
Probable space group: P 21
;
_chemical_formula_sum "Si O2"
_cell_formula_units_Z 14
_cell_length_a 25.553119
_cell_length_b 4.783806
_cell_length_c 9.134488
_cell_angle_alpha 90.000000
_cell_angle_beta 150.018432
_cell_angle_gamma 90.000000
_cell_volume 557.994107
_symmetry_space_group_name_H-M "P 21"
_symmetry_group_IT_number 4
_symmetry_cell_setting 'monoclinic'
loop_
_space_group_symop_operation_xyz
x,y,z
-x,1/2+y,-z
loop_
_atom_site_type_symbol
_atom_site_label
_atom_site_fract_x
_atom_site_fract_y
_atom_site_fract_z
Si Si1 0.012948 0.871450 0.430435
Si Si2 0.431005 0.660784 0.849284
Si Si3 0.227392 0.848686 0.817780
Si Si4 0.568114 0.629808 0.629774
Si Si5 0.682395 0.345560 0.675233
Si Si6 0.231704 0.591606 0.524118
Si Si7 0.834538 0.588499 0.818584
O O1 0.040093 0.646109 0.625351
O O2 0.115526 0.981372 0.591653
O O3 0.941816 0.717941 0.137124
O O4 0.357079 0.600869 0.528593
O O5 0.357100 0.646622 0.811628
O O6 0.465469 0.979144 0.905096
O O7 0.209049 0.634525 0.640615
O O8 0.320584 0.078995 0.011651
O O9 0.263443 0.688077 0.054838
O O10 0.470242 0.449311 0.457639
O O11 0.586686 0.539066 0.505731
O O12 0.760017 0.557206 0.778552
O O13 0.211029 0.276747 0.423915
O O14 0.157060 0.788596 0.242369
#
# Coordination Sequence:
#
# PCOD8047035 Si02
#       7
#     2   2   2   2   2   2   2
#     4  12  25  46  77 107 136 186 245 291 357 441
#     4  11  24  40  65  95 136 188 237 279 349 419
#     4  10  26  46  72 108 140 186 243 301 356 432
#     4  10  24  40  66  97 140 179 232 296 359 412
#     4   9  23  45  67 101 137 188 239 292 345 436
#     4  11  26  44  67 104 146 182 234 299 363 420
#     4  11  24  47  70 100 145 183 234 296 361 426
#
# _framework density 25.089869
#
# number of rings (size 3 to 8) (size 9 to 14) (size 15 to 20)
#    0.857    0.571    1.429    2.571    6.000    8.000 
#    0.000    0.000    0.000    0.000    0.000    0.000 
#    0.000    0.000    0.000    0.000    0.000    0.000 
#
# Total GULP energy -173455.211244 kJ/mol
# GULP energy per Si atom -12389.657946 kJ/mol
# Density = 2.503276 g / cm^3
# Si number density = 25.089869 Si / 1000 Ang^3
#
#
#
# Elastic Constant Matrix: (Units=GPa)
#
#
# Indices 1 2 3 4 5 6 
#
# 1 126.1381 7.9428 37.9933 0.0000 -2.7104 0.0000
# 2 7.9428 56.3785 5.0686 0.0000 -1.6671 0.0000
# 3 37.9933 5.0686 88.9224 0.0000 11.0641 0.0000
# 4 0.0000 0.0000 0.0000 27.0878 0.0000 -1.3232
# 5 -2.7104 -1.6671 11.0641 0.0000 49.1103 0.0000
# 6 0.0000 0.0000 0.0000 -1.3232 0.0000 22.7859
#
#
#
# Elastic Compliance Matrix: (Units=1/GPa)
#
#
# Indices 1 2 3 4 5 6 
#
# 1 0.009240 -0.000895 -0.004071 0.000000 0.001397 0.000000
# 2 -0.000895 0.017950 -0.000731 0.000000 0.000725 0.000000
# 3 -0.004071 -0.000731 0.013434 0.000000 -0.003276 0.000000
# 4 0.000000 0.000000 0.000000 0.037022 0.000000 0.002150
# 5 0.001397 0.000725 -0.003276 0.000000 0.021202 0.000000
# 6 0.000000 0.000000 0.000000 0.002150 0.000000 0.044012
#
#
# Mechanical properties :
#
#
# Convention : Reuss Voigt Hill
#
# Bulk Modulus (GPa) = 34.20895 41.49426 37.85161
# Shear Modulus (GPa) = 30.48818 34.49242 32.49030
#
# Velocity S-wave (km/s) = 3.48969 3.71179 3.60245
# Velocity P-wave (km/s) = 5.46822 5.91135 5.69410
#
# Compressibility (1/GPa) = 0.02923211
#
# Stress axis : x y z
#
# Youngs Moduli (GPa) = 108.22137 55.70893 74.43580
#
# Poissons Ratio (x) = 0.04983 0.30302
# Poissons Ratio (y) = 0.09681 0.05442
# Poissons Ratio (z) = 0.44055 0.04073
#
# Static dielectric constant tensor:
#      x y z
#    x 4.481330 0.000000 -0.004110 
#    y 0.000000 4.039410 0.000000 
#    z -0.004110 0.000000 4.422420 
# 
# 
# High freq. dielectric constant tensor:
#      x y z
#    x 2.002250 0.000000 -0.002480 
#    y 0.000000 1.974580 0.000000 
#    z -0.002480 0.000000 2.001000 
# 
# From -- ./inp_files/10128.got.cif
#   From: 2010.03.12/outbox.cif.g09.slc.cpg/sg4_6_cif.got.tgz:10128.got - 2010.03.31 09:31:35.
