data_PCOD8047667
_publ_section_title
;
Structure prediction by ZEFSAII (Michael W. Deem and Ramdas Pophale) SiO2 
 PCOD8047667
Probable space group: P 21
;
_chemical_formula_sum "Si O2"
_cell_formula_units_Z 16
_cell_length_a 13.959584
_cell_length_b 9.960226
_cell_length_c 13.654556
_cell_angle_alpha 90.000000
_cell_angle_beta 158.969729
_cell_angle_gamma 90.000000
_cell_volume 681.311439
_symmetry_space_group_name_H-M "P 21"
_symmetry_group_IT_number 4
_symmetry_cell_setting 'monoclinic'
loop_
_space_group_symop_operation_xyz
x,y,z
-x,1/2+y,-z
loop_
_atom_site_type_symbol
_atom_site_label
_atom_site_fract_x
_atom_site_fract_y
_atom_site_fract_z
Si Si1 0.736081 0.904570 0.353870
Si Si2 0.182248 0.014072 0.320314
Si Si3 0.694325 0.952137 0.092454
Si Si4 0.231263 0.100729 0.572016
Si Si5 0.194228 0.991173 0.919697
Si Si6 0.447088 0.346952 0.425873
Si Si7 0.902553 0.284323 0.001774
Si Si8 0.782347 0.782989 0.988809
O O1 0.739671 0.885567 0.240650
O O2 0.729876 0.758171 0.393561
O O3 0.000388 0.979991 0.641603
O O4 0.491527 0.992313 0.160371
O O5 0.336871 0.049016 0.567895
O O6 0.982020 0.132394 0.101097
O O7 0.407276 0.992373 0.450660
O O8 0.024539 0.874117 0.181875
O O9 0.679282 0.836865 0.995590
O O10 0.922872 0.061694 0.290099
O O11 0.414449 0.031432 0.828986
O O12 0.159458 0.865794 0.959267
O O13 0.128871 0.129149 0.913144
O O14 0.441384 0.281848 0.310869
O O15 0.147652 0.360805 0.181673
O O16 0.636015 0.267754 0.682142
#
# Coordination Sequence:
#
# PCOD8047667 Si02
#       8
#     2   2   2   2   2   2   2   2
#     4  12  27  48  76 107 151 195 242 304 366 434
#     4  11  26  50  77 102 150 195 250 299 362 438
#     4  11  26  44  78 106 144 194 245 298 363 435
#     4  11  24  48  74 106 143 197 249 296 358 434
#     4  12  29  50  71 111 152 192 238 313 363 433
#     4  12  27  46  74 111 143 191 243 304 360 435
#     4  12  29  46  78 107 145 198 248 297 369 435
#     4  11  28  48  74 110 150 186 245 303 369 426
#
# _framework density 23.484120999999998
#
# number of rings (size 3 to 8) (size 9 to 14) (size 15 to 20)
#    0.000    0.500    3.750    2.250   10.500    1.000 
#    0.000    0.000    0.000    0.000    0.000    0.000 
#    0.000    0.000    0.000    0.000    0.000    0.000 
#
# Total GULP energy -198422.427794 kJ/mol
# GULP energy per Si atom -12401.401737 kJ/mol
# Density = 2.343067 g / cm^3
# Si number density = 23.484121 Si / 1000 Ang^3
#
#
#
# Elastic Constant Matrix: (Units=GPa)
#
#
# Indices 1 2 3 4 5 6 
#
# 1 107.7193 8.8098 31.7926 0.0000 -17.8647 0.0000
# 2 8.8098 74.9335 15.6683 0.0000 -6.0483 0.0000
# 3 31.7926 15.6683 129.6383 0.0000 -27.9447 0.0000
# 4 0.0000 0.0000 0.0000 31.8852 0.0000 -1.5198
# 5 -17.8647 -6.0483 -27.9447 0.0000 43.9372 0.0000
# 6 0.0000 0.0000 0.0000 -1.5198 0.0000 21.4748
#
#
#
# Elastic Compliance Matrix: (Units=1/GPa)
#
#
# Indices 1 2 3 4 5 6 
#
# 1 0.010365 -0.000596 -0.001830 0.000000 0.002968 0.000000
# 2 -0.000596 0.013761 -0.001345 0.000000 0.000796 0.000000
# 3 -0.001830 -0.001345 0.009416 0.000000 0.005059 0.000000
# 4 0.000000 0.000000 0.000000 0.031469 0.000000 0.002227
# 5 0.002968 0.000796 0.005059 0.000000 0.027294 0.000000
# 6 0.000000 0.000000 0.000000 0.002227 0.000000 0.046724
#
#
# Mechanical properties :
#
#
# Convention : Reuss Voigt Hill
#
# Bulk Modulus (GPa) = 38.46448 47.20362 42.83405
# Shear Modulus (GPa) = 32.20891 36.52748 34.36819
#
# Velocity S-wave (km/s) = 3.70742 3.94815 3.82968
# Velocity P-wave (km/s) = 5.89416 6.39748 6.15097
#
# Compressibility (1/GPa) = 0.02599801
#
# Stress axis : x y z
#
# Youngs Moduli (GPa) = 96.48318 72.67004 106.20550
#
# Poissons Ratio (x) = 0.04334 0.19434
# Poissons Ratio (y) = 0.05754 0.14288
# Poissons Ratio (z) = 0.17655 0.09776
#
# Static dielectric constant tensor:
#      x y z
#    x 4.364740 0.000000 -0.197750 
#    y 0.000000 4.010730 0.000000 
#    z -0.197750 0.000000 4.451140 
# 
# 
# High freq. dielectric constant tensor:
#      x y z
#    x 1.933750 0.000000 -0.012810 
#    y 0.000000 1.922130 0.000000 
#    z -0.012810 0.000000 1.948230 
# 
# From -- ./inp_files/14225.got.cif
#   From: 2010.03.12/outbox.cif.g09.slc.cpg/sg4_8_cif.got.tgz:14225.got - 2010.03.31 09:31:35.
