data_PCOD8047806
_publ_section_title
;
Structure prediction by ZEFSAII (Michael W. Deem and Ramdas Pophale) SiO2 
 PCOD8047806
Probable space group: P 21
;
_chemical_formula_sum "Si O2"
_cell_formula_units_Z 16
_cell_length_a 9.292379
_cell_length_b 15.987500
_cell_length_c 5.190187
_cell_angle_alpha 90.000000
_cell_angle_beta 122.607034
_cell_angle_gamma 90.000000
_cell_volume 649.533786
_symmetry_space_group_name_H-M "P 21"
_symmetry_group_IT_number 4
_symmetry_cell_setting 'monoclinic'
loop_
_space_group_symop_operation_xyz
x,y,z
-x,1/2+y,-z
loop_
_atom_site_type_symbol
_atom_site_label
_atom_site_fract_x
_atom_site_fract_y
_atom_site_fract_z
Si Si1 0.232488 0.525380 0.056604
Si Si2 0.155669 0.149630 0.698239
Si Si3 0.212162 0.298884 0.373783
Si Si4 0.585023 0.900433 0.084499
Si Si5 0.780751 0.128158 0.466567
Si Si6 0.771135 0.460007 0.235960
Si Si7 0.464073 0.237020 0.234732
Si Si8 0.945826 0.408618 0.880265
O O1 0.360038 0.448980 0.121191
O O2 0.253741 0.596845 0.858141
O O3 0.041861 0.490271 0.863646
O O4 0.270712 0.556328 0.380789
O O5 0.140959 0.217770 0.455233
O O6 0.977939 0.155937 0.687436
O O7 0.184919 0.054607 0.634849
O O8 0.318152 0.168404 0.033590
O O9 0.248953 0.385169 0.571254
O O10 0.399053 0.276590 0.438831
O O11 0.070060 0.326676 0.022947
O O12 0.425600 0.951788 0.044943
O O13 0.527756 0.806034 0.977174
O O14 0.655417 0.202598 0.428459
O O15 0.802955 0.398503 0.516891
O O16 0.878486 0.427638 0.098952
#
# Coordination Sequence:
#
# PCOD8047806 Si02
#       8
#     2   2   2   2   2   2   2   2
#     4  12  24  51  74 106 148 196 251 316 382 450
#     4  11  27  50  75 114 150 205 254 327 383 461
#     4  11  27  50  75 108 162 206 253 319 401 459
#     4  11  27  48  73 109 154 203 254 323 382 466
#     4  12  28  47  78 110 151 199 253 317 387 457
#     4  12  28  47  79 117 145 199 268 315 381 462
#     4  11  28  47  74 110 153 206 251 315 394 467
#     4  12  25  48  76 110 149 198 256 316 384 456
#
# _framework density 24.633053
#
# number of rings (size 3 to 8) (size 9 to 14) (size 15 to 20)
#    0.000    0.500    3.750    2.250   14.000    0.000 
#    0.000    0.000    0.000    0.000    0.000    0.000 
#    0.000    0.000    0.000    0.000    0.000    0.000 
#
# Total GULP energy -198293.442393 kJ/mol
# GULP energy per Si atom -12393.340150 kJ/mol
# Density = 2.457699 g / cm^3
# Si number density = 24.633053 Si / 1000 Ang^3
#
#
#
# Elastic Constant Matrix: (Units=GPa)
#
#
# Indices 1 2 3 4 5 6 
#
# 1 137.2754 52.7583 41.8482 0.0000 4.1061 0.0000
# 2 52.7583 79.1744 29.9937 0.0000 1.8930 0.0000
# 3 41.8482 29.9937 69.8582 0.0000 -1.9124 0.0000
# 4 0.0000 0.0000 0.0000 32.0802 0.0000 4.0485
# 5 4.1061 1.8930 -1.9124 0.0000 46.2198 0.0000
# 6 0.0000 0.0000 0.0000 4.0485 0.0000 44.0863
#
#
#
# Elastic Compliance Matrix: (Units=1/GPa)
#
#
# Indices 1 2 3 4 5 6 
#
# 1 0.010680 -0.005568 -0.004031 0.000000 -0.000888 0.000000
# 2 -0.005568 0.018023 -0.004414 0.000000 -0.000426 0.000000
# 3 -0.004031 -0.004414 0.018661 0.000000 0.001311 0.000000
# 4 0.000000 0.000000 0.000000 0.031537 0.000000 -0.002896
# 5 -0.000888 -0.000426 0.001311 0.000000 0.021786 0.000000
# 6 0.000000 0.000000 0.000000 -0.002896 0.000000 0.022949
#
#
# Mechanical properties :
#
#
# Convention : Reuss Voigt Hill
#
# Bulk Modulus (GPa) = 51.71643 59.50095 55.60869
# Shear Modulus (GPa) = 31.62346 35.25778 33.44062
#
# Velocity S-wave (km/s) = 3.58688 3.78738 3.68849
# Velocity P-wave (km/s) = 6.18017 6.58279 6.38465
#
# Compressibility (1/GPa) = 0.01933622
#
# Stress axis : x y z
#
# Youngs Moduli (GPa) = 93.63112 55.48365 53.58797
#
# Poissons Ratio (x) = 0.30895 0.21604
# Poissons Ratio (y) = 0.52137 0.23655
# Poissons Ratio (z) = 0.37747 0.24492
#
# Static dielectric constant tensor:
#      x y z
#    x 4.552710 0.000000 0.007410 
#    y 0.000000 4.386800 0.000000 
#    z 0.007410 0.000000 4.439210 
# 
# 
# High freq. dielectric constant tensor:
#      x y z
#    x 1.989230 0.000000 0.000840 
#    y 0.000000 1.982720 0.000000 
#    z 0.000840 0.000000 1.972100 
# 
# From -- ./inp_files/1879.got.cif
#   From: 2010.03.12/outbox.cif.g09.slc.cpg/sg4_1_cif.got.tgz:1879.got - 2010.03.31 09:31:35.
