data_PCOD8047019
_publ_section_title
;
Structure prediction by ZEFSAII (Michael W. Deem and Ramdas Pophale) SiO2 
 PCOD8047019
Probable space group: P 21
;
_chemical_formula_sum "Si O2"
_cell_formula_units_Z 14
_cell_length_a 8.102710
_cell_length_b 11.579419
_cell_length_c 9.086741
_cell_angle_alpha 90.000000
_cell_angle_beta 134.824196
_cell_angle_gamma 90.000000
_cell_volume 604.698244
_symmetry_space_group_name_H-M "P 21"
_symmetry_group_IT_number 4
_symmetry_cell_setting 'monoclinic'
loop_
_space_group_symop_operation_xyz
x,y,z
-x,1/2+y,-z
loop_
_atom_site_type_symbol
_atom_site_label
_atom_site_fract_x
_atom_site_fract_y
_atom_site_fract_z
Si Si1 0.014639 0.193460 0.964998
Si Si2 0.102631 0.336861 0.763041
Si Si3 0.583932 0.001673 0.215909
Si Si4 0.808570 0.556347 0.650045
Si Si5 0.294137 0.513691 0.375309
Si Si6 0.131807 0.872761 0.916266
Si Si7 0.889544 0.211978 0.356807
O O1 0.183087 0.263636 0.957769
O O2 0.165043 0.115551 0.172132
O O3 0.843362 0.128787 0.747365
O O4 0.830743 0.272453 0.940915
O O5 0.322553 0.393891 0.821225
O O6 0.945940 0.437810 0.732099
O O7 0.955803 0.254805 0.560664
O O8 0.692192 0.992014 0.443678
O O9 0.663385 0.127024 0.206391
O O10 0.304090 0.983383 0.043747
O O11 0.542655 0.521142 0.453197
O O12 0.890924 0.642950 0.573931
O O13 0.135855 0.408252 0.218638
O O14 0.169369 0.824524 0.775851
#
# Coordination Sequence:
#
# PCOD8047019 Si02
#       7
#     2   2   2   2   2   2   2
#     4  11  24  44  71 101 138 187 238 287 359 419
#     4  11  22  46  72 101 140 189 232 297 357 410
#     4  11  24  44  72 105 141 183 242 289 349 430
#     4  10  26  45  68 106 140 183 245 285 351 435
#     4  12  23  44  69  98 145 181 235 290 346 432
#     4  11  26  46  69 104 144 189 233 292 357 425
#     4  10  23  49  69 103 144 188 233 294 361 413
#
# _framework density 23.152045000000001
#
# number of rings (size 3 to 8) (size 9 to 14) (size 15 to 20)
#    0.000    1.143    2.857    2.571    2.000    4.571 
#   12.857    0.000    0.000    0.000    0.000    0.000 
#    0.000    0.000    0.000    0.000    0.000    0.000 
#
# Total GULP energy -173543.119404 kJ/mol
# GULP energy per Si atom -12395.937100 kJ/mol
# Density = 2.309935 g / cm^3
# Si number density = 23.152045 Si / 1000 Ang^3
#
#
#
# Elastic Constant Matrix: (Units=GPa)
#
#
# Indices 1 2 3 4 5 6 
#
# 1 64.1802 45.9035 41.4295 0.0000 -0.1320 0.0000
# 2 45.9035 111.5802 50.8094 0.0000 -2.7185 0.0000
# 3 41.4295 50.8094 100.1436 0.0000 -1.8316 0.0000
# 4 0.0000 0.0000 0.0000 39.4917 0.0000 -10.9049
# 5 -0.1320 -2.7185 -1.8316 0.0000 49.1521 0.0000
# 6 0.0000 0.0000 0.0000 -10.9049 0.0000 47.1217
#
#
#
# Elastic Compliance Matrix: (Units=1/GPa)
#
#
# Indices 1 2 3 4 5 6 
#
# 1 0.025127 -0.007299 -0.006702 0.000000 -0.000586 0.000000
# 2 -0.007299 0.013784 -0.003963 0.000000 0.000595 0.000000
# 3 -0.006702 -0.003963 0.014775 0.000000 0.000313 0.000000
# 4 0.000000 0.000000 0.000000 0.027050 0.000000 0.006260
# 5 -0.000586 0.000595 0.000313 0.000000 0.020388 0.000000
# 6 0.000000 0.000000 0.000000 0.006260 0.000000 0.022670
#
#
# Mechanical properties :
#
#
# Convention : Reuss Voigt Hill
#
# Bulk Modulus (GPa) = 56.31685 61.35430 58.83558
# Shear Modulus (GPa) = 30.18531 36.33720 33.26125
#
# Velocity S-wave (km/s) = 3.61471 3.96599 3.79442
# Velocity P-wave (km/s) = 6.46523 6.89422 6.68317
#
# Compressibility (1/GPa) = 0.01775667
#
# Stress axis : x y z
#
# Youngs Moduli (GPa) = 39.79743 72.54680 67.68265
#
# Poissons Ratio (x) = 0.52955 0.45364
# Poissons Ratio (y) = 0.29050 0.26822
# Poissons Ratio (z) = 0.26674 0.28750
#
# Static dielectric constant tensor:
#      x y z
#    x 4.264970 0.000000 -0.147060 
#    y 0.000000 4.418610 0.000000 
#    z -0.147060 0.000000 3.905200 
# 
# 
# High freq. dielectric constant tensor:
#      x y z
#    x 1.922450 0.000000 -0.018430 
#    y 0.000000 1.930970 0.000000 
#    z -0.018430 0.000000 1.898540 
# 
# From -- ./inp_files/1119.got.cif
#   From: 2010.03.12/outbox.cif.g09.slc.cpg/sg4_1_cif.got.tgz:1119.got - 2010.03.31 09:31:35.
