data_PCOD8047189
_publ_section_title
;
Structure prediction by ZEFSAII (Michael W. Deem and Ramdas Pophale) SiO2 
 PCOD8047189
Probable space group: P 21
;
_chemical_formula_sum "Si O2"
_cell_formula_units_Z 14
_cell_length_a 4.952631
_cell_length_b 19.375248
_cell_length_c 4.788728
_cell_angle_alpha 90.000000
_cell_angle_beta 79.279513
_cell_angle_gamma 90.000000
_cell_volume 451.498650
_symmetry_space_group_name_H-M "P 21"
_symmetry_group_IT_number 4
_symmetry_cell_setting 'monoclinic'
loop_
_space_group_symop_operation_xyz
x,y,z
-x,1/2+y,-z
loop_
_atom_site_type_symbol
_atom_site_label
_atom_site_fract_x
_atom_site_fract_y
_atom_site_fract_z
Si Si1 0.667203 0.642420 0.140936
Si Si2 0.728070 0.873432 0.521092
Si Si3 0.954106 0.535703 0.778988
Si Si4 0.095334 0.897532 0.939894
Si Si5 0.733506 0.253266 0.995103
Si Si6 0.110167 0.229975 0.429522
Si Si7 0.478396 0.012530 0.573974
O O1 0.539402 0.702999 0.958886
O O2 0.748321 0.665440 0.438528
O O3 0.467276 0.574362 0.208390
O O4 0.924488 0.612328 0.913112
O O5 0.663126 0.792630 0.602451
O O6 0.826482 0.879267 0.181345
O O7 0.482532 0.928629 0.650705
O O8 0.995706 0.896860 0.640803
O O9 0.806566 0.476847 0.006720
O O10 0.812973 0.530720 0.505284
O O11 0.273205 0.517768 0.693460
O O12 0.320469 0.835140 0.936383
O O13 0.838690 0.249745 0.657106
O O14 0.979972 0.221600 0.141046
#
# Coordination Sequence:
#
# PCOD8047189 Si02
#       7
#     2   2   2   2   2   2   2
#     4  12  30  44  80 116 160 206 258 330 396 480
#     4   9  21  47  76 109 147 203 261 324 381 464
#     4  11  29  49  78 115 158 206 264 321 398 468
#     4   9  21  47  76 109 147 203 261 324 381 464
#     4  10  25  48  77 109 157 205 264 322 395 467
#     4  10  25  48  77 109 157 205 264 322 395 467
#     4  11  29  49  78 115 158 206 264 321 398 468
#
# _framework density 31.007842
#
# number of rings (size 3 to 8) (size 9 to 14) (size 15 to 20)
#    0.000    1.714    0.000    0.000   18.000    0.000 
#    0.000    0.000    0.000    0.000    0.000    0.000 
#    0.000    0.000    0.000    0.000    0.000    0.000 
#
# Total GULP energy -173564.317188 kJ/mol
# GULP energy per Si atom -12397.451228 kJ/mol
# Density = 3.093727 g / cm^3
# Si number density = 31.007842 Si / 1000 Ang^3
#
#
#
# Elastic Constant Matrix: (Units=GPa)
#
#
# Indices 1 2 3 4 5 6 
#
# 1 77.4689 51.9365 16.5555 0.0000 15.8167 0.0000
# 2 51.9365 301.9839 54.3918 0.0000 2.6842 0.0000
# 3 16.5555 54.3918 119.5093 0.0000 13.8077 0.0000
# 4 0.0000 0.0000 0.0000 66.8156 0.0000 -11.1154
# 5 15.8167 2.6842 13.8077 0.0000 27.6741 0.0000
# 6 0.0000 0.0000 0.0000 -11.1154 0.0000 54.1937
#
#
#
# Elastic Compliance Matrix: (Units=1/GPa)
#
#
# Indices 1 2 3 4 5 6 
#
# 1 0.016664 -0.002789 0.000032 0.000000 -0.009270 0.000000
# 2 -0.002789 0.004081 -0.001708 0.000000 0.002050 0.000000
# 3 0.000032 -0.001708 0.009681 0.000000 -0.004683 0.000000
# 4 0.000000 0.000000 0.000000 0.015495 0.000000 0.003178
# 5 -0.009270 0.002050 -0.004683 0.000000 0.043570 0.000000
# 6 0.000000 0.000000 0.000000 0.003178 0.000000 0.019104
#
#
# Mechanical properties :
#
#
# Convention : Reuss Voigt Hill
#
# Bulk Modulus (GPa) = 46.52010 82.74773 64.63391
# Shear Modulus (GPa) = 40.09903 54.80856 47.45379
#
# Velocity S-wave (km/s) = 3.60000 4.20881 3.91625
# Velocity P-wave (km/s) = 5.68465 7.09667 6.42954
#
# Compressibility (1/GPa) = 0.02149609
#
# Stress axis : x y z
#
# Youngs Moduli (GPa) = 60.00905 245.06773 103.29113
#
# Poissons Ratio (x) = 0.68358 -0.00331
# Poissons Ratio (y) = 0.16739 0.17638
# Poissons Ratio (z) = -0.00192 0.41849
#
# Static dielectric constant tensor:
#      x y z
#    x 5.152800 0.000000 -0.509840 
#    y 0.000000 6.525670 0.000000 
#    z -0.509840 0.000000 5.765360 
# 
# 
# High freq. dielectric constant tensor:
#      x y z
#    x 2.265110 0.000000 -0.047940 
#    y 0.000000 2.327850 0.000000 
#    z -0.047940 0.000000 2.300630 
# 
# From -- ./inp_files/521.got.cif
#   From: 2010.03.12/outbox.cif.g09.slc.cpg/sg4_1_cif.got.tgz:521.got - 2010.03.31 09:31:35.
