data_PCOD8047628
_publ_section_title
;
Structure prediction by ZEFSAII (Michael W. Deem and Ramdas Pophale) SiO2 
 PCOD8047628
Probable space group: P 21
;
_chemical_formula_sum "Si O2"
_cell_formula_units_Z 16
_cell_length_a 8.795115
_cell_length_b 18.863558
_cell_length_c 5.282182
_cell_angle_alpha 90.000000
_cell_angle_beta 129.565096
_cell_angle_gamma 90.000000
_cell_volume 675.580859
_symmetry_space_group_name_H-M "P 21"
_symmetry_group_IT_number 4
_symmetry_cell_setting 'monoclinic'
loop_
_space_group_symop_operation_xyz
x,y,z
-x,1/2+y,-z
loop_
_atom_site_type_symbol
_atom_site_label
_atom_site_fract_x
_atom_site_fract_y
_atom_site_fract_z
Si Si1 0.727088 0.045440 0.815073
Si Si2 0.810818 0.419723 0.334700
Si Si3 0.516828 0.682832 0.445883
Si Si4 0.904877 0.826913 0.131098
Si Si5 0.232179 0.194096 0.784940
Si Si6 0.214966 0.805826 0.067639
Si Si7 0.019794 0.554233 0.411826
Si Si8 0.482492 0.405171 0.348980
O O1 0.553895 0.102475 0.645205
O O2 0.875880 0.064346 0.746802
O O3 0.622550 0.971583 0.630764
O O4 0.831073 0.041833 0.198458
O O5 0.871924 0.486684 0.228585
O O6 0.590796 0.432748 0.207447
O O7 0.992560 0.404559 0.720402
O O8 0.823807 0.337747 0.248870
O O9 0.670823 0.697307 0.387185
O O10 0.328054 0.732228 0.196537
O O11 0.609284 0.696462 0.819098
O O12 0.908901 0.763281 0.344350
O O13 0.008010 0.794757 0.990952
O O14 0.672817 0.842136 0.852693
O O15 0.103506 0.123815 0.663304
O O16 0.342449 0.872950 0.301922
#
# Coordination Sequence:
#
# PCOD8047628 Si02
#       8
#     2   2   2   2   2   2   2   2
#     4  12  27  46  74 100 147 183 237 291 354 417
#     4  11  26  42  73 103 143 183 239 288 350 421
#     4  12  27  47  71 106 140 189 234 291 353 417
#     4  11  24  46  69 104 141 185 232 291 351 415
#     4  12  27  46  74 100 147 183 237 291 354 417
#     4  11  26  42  73 103 143 183 239 288 350 421
#     4  12  27  47  71 106 140 189 234 291 353 417
#     4  11  24  46  69 104 141 185 232 291 351 415
#
# _framework density 23.683322
#
# number of rings (size 3 to 8) (size 9 to 14) (size 15 to 20)
#    0.000    0.500    2.500    4.500   10.500    2.000 
#    0.000    0.000    0.000    0.000    0.000    0.000 
#    0.000    0.000    0.000    0.000    0.000    0.000 
#
# Total GULP energy -198313.030122 kJ/mol
# GULP energy per Si atom -12394.564383 kJ/mol
# Density = 2.362942 g / cm^3
# Si number density = 23.683322 Si / 1000 Ang^3
#
#
#
# Elastic Constant Matrix: (Units=GPa)
#
#
# Indices 1 2 3 4 5 6 
#
# 1 137.5298 16.4238 13.2752 0.0000 7.6102 0.0000
# 2 16.4238 117.7243 9.6341 0.0000 15.6901 0.0000
# 3 13.2752 9.6341 43.4728 0.0000 4.6349 0.0000
# 4 0.0000 0.0000 0.0000 38.8301 0.0000 11.4530
# 5 7.6102 15.6901 4.6349 0.0000 35.5751 0.0000
# 6 0.0000 0.0000 0.0000 11.4530 0.0000 55.0751
#
#
#
# Elastic Compliance Matrix: (Units=1/GPa)
#
#
# Indices 1 2 3 4 5 6 
#
# 1 0.007616 -0.000758 -0.002048 0.000000 -0.001028 0.000000
# 2 -0.000758 0.009211 -0.001414 0.000000 -0.003716 0.000000
# 3 -0.002048 -0.001414 0.024164 0.000000 -0.002087 0.000000
# 4 0.000000 0.000000 0.000000 0.027436 0.000000 -0.005705
# 5 -0.001028 -0.003716 -0.002087 0.000000 0.030240 0.000000
# 6 0.000000 0.000000 0.000000 -0.005705 0.000000 0.019343
#
#
# Mechanical properties :
#
#
# Convention : Reuss Voigt Hill
#
# Bulk Modulus (GPa) = 30.72009 41.93257 36.32633
# Shear Modulus (GPa) = 36.41626 43.18901 39.80263
#
# Velocity S-wave (km/s) = 3.92552 4.27500 4.10398
# Velocity P-wave (km/s) = 5.79186 6.48934 6.15049
#
# Compressibility (1/GPa) = 0.03255198
#
# Stress axis : x y z
#
# Youngs Moduli (GPa) = 131.29817 108.56435 41.38377
#
# Poissons Ratio (x) = 0.08228 0.08476
# Poissons Ratio (y) = 0.09951 0.05850
# Poissons Ratio (z) = 0.26892 0.15347
#
# Static dielectric constant tensor:
#      x y z
#    x 4.346320 0.000000 -0.000910 
#    y 0.000000 4.390440 0.000000 
#    z -0.000910 0.000000 4.255040 
# 
# 
# High freq. dielectric constant tensor:
#      x y z
#    x 1.948110 0.000000 0.010390 
#    y 0.000000 1.960260 0.000000 
#    z 0.010390 0.000000 1.937810 
# 
# From -- ./inp_files/452.got.cif
#   From: 2010.03.12/outbox.cif.g09.slc.cpg/sg4_1_cif.got.tgz:452.got - 2010.03.31 09:31:35.
