data_PCOD8047168
_publ_section_title
;
Structure prediction by ZEFSAII (Michael W. Deem and Ramdas Pophale) SiO2 
 PCOD8047168
Probable space group: P 21
;
_chemical_formula_sum "Si O2"
_cell_formula_units_Z 16
_cell_length_a 8.284876
_cell_length_b 10.954196
_cell_length_c 11.356670
_cell_angle_alpha 90.000000
_cell_angle_beta 40.189652
_cell_angle_gamma 90.000000
_cell_volume 665.108457
_symmetry_space_group_name_H-M "P 21"
_symmetry_group_IT_number 4
_symmetry_cell_setting 'monoclinic'
loop_
_space_group_symop_operation_xyz
x,y,z
-x,1/2+y,-z
loop_
_atom_site_type_symbol
_atom_site_label
_atom_site_fract_x
_atom_site_fract_y
_atom_site_fract_z
Si Si1 0.956864 0.314530 0.822302
Si Si2 0.596834 0.664755 0.515159
Si Si3 0.964073 0.475921 0.245965
Si Si4 0.922121 0.188533 0.266118
Si Si5 0.132788 0.002898 0.322423
Si Si6 0.303964 0.445385 0.254908
Si Si7 0.160168 0.022076 0.951411
Si Si8 0.511716 0.189190 0.166401
O O1 0.824019 0.392094 0.792065
O O2 0.228726 0.271986 0.633037
O O3 0.983981 0.403371 0.918881
O O4 0.784091 0.197370 0.951458
O O5 0.752980 0.540626 0.444470
O O6 0.362918 0.641376 0.561104
O O7 0.471066 0.715484 0.704249
O O8 0.918613 0.333090 0.270650
O O9 0.918983 0.532771 0.140910
O O10 0.229583 0.501062 0.166734
O O11 0.046584 0.128026 0.309203
O O12 0.058276 0.143944 0.070380
O O13 0.401858 0.051474 0.218224
O O14 0.941578 0.961378 0.528400
O O15 0.542986 0.510243 0.182984
O O16 0.349110 0.301894 0.206610
#
# Coordination Sequence:
#
# PCOD8047168 Si02
#       8
#     2   2   2   2   2   2   2   2
#     4  10  25  45  76 100 147 201 235 310 385 430
#     4  12  26  44  77 102 151 197 248 305 375 440
#     4  12  26  45  77 112 142 198 256 298 367 458
#     4  11  26  47  69 108 151 191 250 312 368 447
#     4  11  22  47  73 104 151 192 239 311 386 422
#     4  11  22  48  76 109 149 197 248 308 368 447
#     4  10  26  48  73 107 154 195 244 318 378 429
#     4  11  23  46  71 110 147 187 254 306 361 457
#
# _framework density 24.056228999999998
#
# number of rings (size 3 to 8) (size 9 to 14) (size 15 to 20)
#    0.000    1.000    3.750    2.250    7.000    3.000 
#    0.000    0.000    0.000    0.000    0.000    0.000 
#    0.000    0.000    0.000    0.000    0.000    0.000 
#
# Total GULP energy -198263.853508 kJ/mol
# GULP energy per Si atom -12391.490844 kJ/mol
# Density = 2.400148 g / cm^3
# Si number density = 24.056229 Si / 1000 Ang^3
#
#
#
# Elastic Constant Matrix: (Units=GPa)
#
#
# Indices 1 2 3 4 5 6 
#
# 1 121.0992 12.6032 33.0041 0.0000 7.0810 0.0000
# 2 12.6032 77.4321 10.5762 0.0000 -12.9032 0.0000
# 3 33.0041 10.5762 91.5643 0.0000 -9.7934 0.0000
# 4 0.0000 0.0000 0.0000 25.5568 0.0000 -4.3886
# 5 7.0810 -12.9032 -9.7934 0.0000 24.3980 0.0000
# 6 0.0000 0.0000 0.0000 -4.3886 0.0000 28.1039
#
#
#
# Elastic Compliance Matrix: (Units=1/GPa)
#
#
# Indices 1 2 3 4 5 6 
#
# 1 0.009849 -0.001982 -0.003907 0.000000 -0.005475 0.000000
# 2 -0.001982 0.014628 -0.000090 0.000000 0.008275 0.000000
# 3 -0.003907 -0.000090 0.013015 0.000000 0.006310 0.000000
# 4 0.000000 0.000000 0.000000 0.040207 0.000000 0.006278
# 5 -0.005475 0.008275 0.006310 0.000000 0.049485 0.000000
# 6 0.000000 0.000000 0.000000 0.006278 0.000000 0.036563
#
#
# Mechanical properties :
#
#
# Convention : Reuss Voigt Hill
#
# Bulk Modulus (GPa) = 39.16226 44.71807 41.94016
# Shear Modulus (GPa) = 27.14214 31.20588 29.17401
#
# Velocity S-wave (km/s) = 3.36263 3.60558 3.48622
# Velocity P-wave (km/s) = 5.60278 5.99691 5.80320
#
# Compressibility (1/GPa) = 0.02553479
#
# Stress axis : x y z
#
# Youngs Moduli (GPa) = 101.53581 68.36009 76.83583
#
# Poissons Ratio (x) = 0.13547 0.30017
# Poissons Ratio (y) = 0.20121 0.00694
# Poissons Ratio (z) = 0.39666 0.00617
#
# Static dielectric constant tensor:
#      x y z
#    x 4.492270 0.000000 0.088940 
#    y 0.000000 4.234640 0.000000 
#    z 0.088940 0.000000 4.405520 
# 
# 
# High freq. dielectric constant tensor:
#      x y z
#    x 1.959760 0.000000 0.001120 
#    y 0.000000 1.958220 0.000000 
#    z 0.001120 0.000000 1.957090 
# 
# From -- ./inp_files/8398.got.cif
#   From: 2010.03.12/outbox.cif.g09.slc.cpg/sg4_5_cif.got.tgz:8398.got - 2010.03.31 09:31:35.
