data_PCOD8047128
_publ_section_title
;
Structure prediction by ZEFSAII (Michael W. Deem and Ramdas Pophale) SiO2 
 PCOD8047128
Probable space group: P 21
;
_chemical_formula_sum "Si O2"
_cell_formula_units_Z 14
_cell_length_a 5.446482
_cell_length_b 10.099880
_cell_length_c 12.938092
_cell_angle_alpha 90.000000
_cell_angle_beta 130.625339
_cell_angle_gamma 90.000000
_cell_volume 540.175416
_symmetry_space_group_name_H-M "P 21"
_symmetry_group_IT_number 4
_symmetry_cell_setting 'monoclinic'
loop_
_space_group_symop_operation_xyz
x,y,z
-x,1/2+y,-z
loop_
_atom_site_type_symbol
_atom_site_label
_atom_site_fract_x
_atom_site_fract_y
_atom_site_fract_z
Si Si1 0.083421 0.880560 0.057914
Si Si2 0.126481 0.084231 0.359520
Si Si3 0.341185 0.486794 0.356349
Si Si4 0.228151 0.332219 0.694845
Si Si5 0.829080 0.666338 0.133982
Si Si6 0.117810 0.641682 0.922541
Si Si7 0.086326 0.827714 0.599320
O O1 0.438371 0.905384 0.196734
O O2 0.886003 0.804623 0.092103
O O3 0.072592 0.791725 0.951142
O O4 0.953328 0.031084 0.007684
O O5 0.473906 0.089432 0.514711
O O6 0.130969 0.126866 0.240698
O O7 0.858734 0.178107 0.343056
O O8 0.048527 0.930085 0.341723
O O9 0.588899 0.395082 0.356905
O O10 0.133511 0.566381 0.212657
O O11 0.082345 0.404078 0.351942
O O12 0.219713 0.195790 0.756890
O O13 0.182423 0.305496 0.561977
O O14 0.492381 0.611210 0.994140
#
# Coordination Sequence:
#
# PCOD8047128 Si02
#       7
#     2   2   2   2   2   2   2
#     4  11  25  48  77 104 153 204 259 312 391 464
#     4  11  25  49  77 108 155 194 265 309 382 460
#     4  11  28  48  77 114 157 199 247 322 389 453
#     4  10  24  46  75 106 146 205 244 310 391 464
#     4  11  26  49  74 104 154 197 253 310 396 456
#     4  11  27  48  75 112 149 207 258 321 383 464
#     4  11  27  46  77 118 152 194 260 320 378 457
#
# _framework density 25.917505999999999
#
# number of rings (size 3 to 8) (size 9 to 14) (size 15 to 20)
#    0.000    1.143    1.429    1.714   16.000    3.429 
#    0.000    0.000    0.000    0.000    0.000    0.000 
#    0.000    0.000    0.000    0.000    0.000    0.000 
#
# Total GULP energy -173491.584444 kJ/mol
# GULP energy per Si atom -12392.256032 kJ/mol
# Density = 2.585852 g / cm^3
# Si number density = 25.917506 Si / 1000 Ang^3
#
#
#
# Elastic Constant Matrix: (Units=GPa)
#
#
# Indices 1 2 3 4 5 6 
#
# 1 89.4077 6.0306 6.3017 0.0000 0.6151 0.0000
# 2 6.0306 76.4823 7.0397 0.0000 -2.9236 0.0000
# 3 6.3017 7.0397 52.1895 0.0000 -8.6813 0.0000
# 4 0.0000 0.0000 0.0000 31.6048 0.0000 -6.9926
# 5 0.6151 -2.9236 -8.6813 0.0000 34.3219 0.0000
# 6 0.0000 0.0000 0.0000 -6.9926 0.0000 23.0750
#
#
#
# Elastic Compliance Matrix: (Units=1/GPa)
#
#
# Indices 1 2 3 4 5 6 
#
# 1 0.011339 -0.000792 -0.001365 0.000000 -0.000616 0.000000
# 2 -0.000792 0.013311 -0.001575 0.000000 0.000750 0.000000
# 3 -0.001365 -0.001575 0.020377 0.000000 0.005044 0.000000
# 4 0.000000 0.000000 0.000000 0.033915 0.000000 0.010277
# 5 -0.000616 0.000750 0.005044 0.000000 0.030487 0.000000
# 6 0.000000 0.000000 0.000000 0.010277 0.000000 0.046451
#
#
# Mechanical properties :
#
#
# Convention : Reuss Voigt Hill
#
# Bulk Modulus (GPa) = 26.62179 28.53593 27.57886
# Shear Modulus (GPa) = 28.43100 31.04751 29.73926
#
# Velocity S-wave (km/s) = 3.31566 3.46488 3.39109
# Velocity P-wave (km/s) = 4.99522 5.20013 5.09870
#
# Compressibility (1/GPa) = 0.03756322
#
# Stress axis : x y z
#
# Youngs Moduli (GPa) = 88.19464 75.12581 49.07417
#
# Poissons Ratio (x) = 0.05950 0.06697
# Poissons Ratio (y) = 0.06985 0.07730
# Poissons Ratio (z) = 0.12036 0.11834
#
# Static dielectric constant tensor:
#      x y z
#    x 4.580210 0.000000 0.065210 
#    y 0.000000 4.698320 0.000000 
#    z 0.065210 0.000000 4.917460 
# 
# 
# High freq. dielectric constant tensor:
#      x y z
#    x 2.030180 0.000000 -0.005250 
#    y 0.000000 2.038360 0.000000 
#    z -0.005250 0.000000 2.047090 
# 
# From -- ./inp_files/13358.got.cif
#   From: 2010.03.12/outbox.cif.g09.slc.cpg/sg4_7_cif.got.tgz:13358.got - 2010.03.31 09:31:35.
