data_PCOD8047349
_publ_section_title
;
Structure prediction by ZEFSAII (Michael W. Deem and Ramdas Pophale) SiO2 
 PCOD8047349
Probable space group: P 21
;
_chemical_formula_sum "Si O2"
_cell_formula_units_Z 16
_cell_length_a 9.960768
_cell_length_b 9.248213
_cell_length_c 11.003460
_cell_angle_alpha 90.000000
_cell_angle_beta 50.253903
_cell_angle_gamma 90.000000
_cell_volume 779.366126
_symmetry_space_group_name_H-M "P 21"
_symmetry_group_IT_number 4
_symmetry_cell_setting 'monoclinic'
loop_
_space_group_symop_operation_xyz
x,y,z
-x,1/2+y,-z
loop_
_atom_site_type_symbol
_atom_site_label
_atom_site_fract_x
_atom_site_fract_y
_atom_site_fract_z
Si Si1 0.823627 0.102220 0.818696
Si Si2 0.686292 0.113860 0.158294
Si Si3 0.675750 0.802189 0.212395
Si Si4 0.035002 0.799933 0.860279
Si Si5 0.177022 0.100950 0.681936
Si Si6 0.685251 0.615041 0.657700
Si Si7 0.963401 0.801531 0.639265
Si Si8 0.322919 0.803812 0.287276
O O1 0.692152 0.206304 0.824141
O O2 0.000639 0.190524 0.750519
O O3 0.885387 0.962716 0.704022
O O4 0.738246 0.054005 0.994891
O O5 0.825989 0.215321 0.139784
O O6 0.500831 0.197193 0.250561
O O7 0.655829 0.971190 0.259210
O O8 0.690562 0.703345 0.323191
O O9 0.498986 0.746872 0.250016
O O10 0.851308 0.788103 0.033361
O O11 0.999038 0.727746 0.749577
O O12 0.114112 0.960935 0.796131
O O13 0.261949 0.053771 0.505576
O O14 0.823660 0.718495 0.639105
O O15 0.655889 0.473077 0.759069
O O16 0.146917 0.789662 0.466063
#
# Coordination Sequence:
#
# PCOD8047349 Si02
#       8
#     2   2   2   2   2   2   2   2
#     4  11  22  43  64  86 129 161 200 258 300 358
#     4  11  25  42  63  93 123 163 207 249 305 365
#     4  11  23  41  64  92 124 161 205 252 305 361
#     4  11  22  43  63  89 128 162 199 257 305 357
#     4  11  22  43  64  86 129 161 200 258 300 358
#     4  11  25  42  63  93 123 163 207 249 305 365
#     4  11  22  43  63  89 128 162 199 257 305 357
#     4  11  23  41  64  92 124 161 205 252 305 361
#
# _framework density 20.529502000000001
#
# number of rings (size 3 to 8) (size 9 to 14) (size 15 to 20)
#    0.000    1.000    7.500    0.000    3.500    2.000 
#    4.500    0.000    0.000    0.000    0.000    0.000 
#    0.000    0.000    0.000    0.000    0.000    0.000 
#
# Total GULP energy -198232.196609 kJ/mol
# GULP energy per Si atom -12389.512288 kJ/mol
# Density = 2.048278 g / cm^3
# Si number density = 20.529502 Si / 1000 Ang^3
#
#
#
# Elastic Constant Matrix: (Units=GPa)
#
#
# Indices 1 2 3 4 5 6 
#
# 1 186.2709 79.0002 50.5262 0.0000 -24.8016 0.0000
# 2 79.0002 85.2444 27.2719 0.0000 3.1631 0.0000
# 3 50.5262 27.2719 67.9921 0.0000 -14.4129 0.0000
# 4 0.0000 0.0000 0.0000 18.7103 0.0000 -2.8629
# 5 -24.8016 3.1631 -14.4129 0.0000 43.2946 0.0000
# 6 0.0000 0.0000 0.0000 -2.8629 0.0000 37.3116
#
#
#
# Elastic Compliance Matrix: (Units=1/GPa)
#
#
# Indices 1 2 3 4 5 6 
#
# 1 0.011005 -0.009415 -0.003141 0.000000 0.005947 0.000000
# 2 -0.009415 0.021882 -0.003511 0.000000 -0.008161 0.000000
# 3 -0.003141 -0.003511 0.019499 0.000000 0.004948 0.000000
# 4 0.000000 0.000000 0.000000 0.054081 0.000000 0.004150
# 5 0.005947 -0.008161 0.004948 0.000000 0.028748 0.000000
# 6 0.000000 0.000000 0.000000 0.004150 0.000000 0.027120
#
#
# Mechanical properties :
#
#
# Convention : Reuss Voigt Hill
#
# Bulk Modulus (GPa) = 49.37567 72.56711 60.97139
# Shear Modulus (GPa) = 24.84844 32.04391 28.44618
#
# Velocity S-wave (km/s) = 3.48282 3.95507 3.72644
# Velocity P-wave (km/s) = 6.34639 7.50208 6.94831
#
# Compressibility (1/GPa) = 0.02025289
#
# Stress axis : x y z
#
# Youngs Moduli (GPa) = 90.86454 45.69938 51.28459
#
# Poissons Ratio (x) = 0.43025 0.16111
# Poissons Ratio (y) = 0.85548 0.18004
# Poissons Ratio (z) = 0.28544 0.16043
#
# Static dielectric constant tensor:
#      x y z
#    x 4.023310 0.000000 -0.149270 
#    y 0.000000 3.504290 0.000000 
#    z -0.149270 0.000000 3.902140 
# 
# 
# High freq. dielectric constant tensor:
#      x y z
#    x 1.817900 0.000000 -0.017710 
#    y 0.000000 1.777770 0.000000 
#    z -0.017710 0.000000 1.813120 
# 
# From -- ./inp_files/11032.got.cif
#   From: 2010.03.12/outbox.cif.g09.slc.cpg/sg4_6_cif.got.tgz:11032.got - 2010.03.31 09:31:35.
