data_PCOD8047733
_publ_section_title
;
Structure prediction by ZEFSAII (Michael W. Deem and Ramdas Pophale) SiO2 
 PCOD8047733
Probable space group: P 21
;
_chemical_formula_sum "Si O2"
_cell_formula_units_Z 16
_cell_length_a 5.453870
_cell_length_b 13.307846
_cell_length_c 9.183093
_cell_angle_alpha 90.000000
_cell_angle_beta 105.503139
_cell_angle_gamma 90.000000
_cell_volume 642.251974
_symmetry_space_group_name_H-M "P 21"
_symmetry_group_IT_number 4
_symmetry_cell_setting 'monoclinic'
loop_
_space_group_symop_operation_xyz
x,y,z
-x,1/2+y,-z
loop_
_atom_site_type_symbol
_atom_site_label
_atom_site_fract_x
_atom_site_fract_y
_atom_site_fract_z
Si Si1 0.399451 0.948540 0.132537
Si Si2 0.146244 0.646834 0.154271
Si Si3 0.865505 0.514499 0.617038
Si Si4 0.311433 0.256330 0.756319
Si Si5 0.142066 0.353404 0.469571
Si Si6 0.458228 0.489569 0.348993
Si Si7 0.746206 0.128437 0.143081
Si Si8 0.259275 0.852057 0.828389
O O1 0.246931 0.966320 0.254805
O O2 0.640193 0.873085 0.192948
O O3 0.508739 0.053761 0.092034
O O4 0.212531 0.899400 0.981056
O O5 0.420396 0.700854 0.190805
O O6 0.200086 0.548642 0.262290
O O7 0.909362 0.708684 0.178898
O O8 0.081859 0.620003 0.976657
O O9 0.660297 0.561382 0.467925
O O10 0.971779 0.421138 0.545596
O O11 0.075152 0.598697 0.690839
O O12 0.213762 0.254121 0.572971
O O13 0.399670 0.409219 0.465617
O O14 0.004520 0.329999 0.295234
O O15 0.563338 0.431769 0.225165
O O16 0.622083 0.239740 0.140235
#
# Coordination Sequence:
#
# PCOD8047733 Si02
#       8
#     2   2   2   2   2   2   2   2
#     4  12  25  50  77 107 164 204 268 340 405 490
#     4  12  30  47  83 116 158 207 271 331 410 491
#     4  11  25  46  77 107 159 208 265 329 412 481
#     4  12  27  52  77 113 155 212 265 324 410 483
#     4  11  26  48  75 108 153 215 260 339 405 481
#     4  11  26  50  74 112 159 210 265 341 407 487
#     4  12  27  45  75 121 151 220 265 339 408 492
#     4  11  28  46  76 114 157 204 277 333 407 485
#
# _framework density 24.912341000000001
#
# number of rings (size 3 to 8) (size 9 to 14) (size 15 to 20)
#    0.000    0.500    5.000    0.750   10.500    3.000 
#    0.000    0.000    0.000    0.000    0.000    0.000 
#    0.000    0.000    0.000    0.000    0.000    0.000 
#
# Total GULP energy -198313.144030 kJ/mol
# GULP energy per Si atom -12394.571502 kJ/mol
# Density = 2.485564 g / cm^3
# Si number density = 24.912341 Si / 1000 Ang^3
#
#
#
# Elastic Constant Matrix: (Units=GPa)
#
#
# Indices 1 2 3 4 5 6 
#
# 1 78.1843 -4.7858 17.1760 0.0000 -6.0299 0.0000
# 2 -4.7858 68.8145 30.1506 0.0000 1.6434 0.0000
# 3 17.1760 30.1506 127.3933 0.0000 3.1986 0.0000
# 4 0.0000 0.0000 0.0000 33.8619 0.0000 2.3599
# 5 -6.0299 1.6434 3.1986 0.0000 36.4001 0.0000
# 6 0.0000 0.0000 0.0000 2.3599 0.0000 26.9045
#
#
#
# Elastic Compliance Matrix: (Units=1/GPa)
#
#
# Indices 1 2 3 4 5 6 
#
# 1 0.013607 0.001918 -0.002348 0.000000 0.002374 0.000000
# 2 0.001918 0.016489 -0.004160 0.000000 -0.000061 0.000000
# 3 -0.002348 -0.004160 0.009176 0.000000 -0.001008 0.000000
# 4 0.000000 0.000000 0.000000 0.029713 0.000000 -0.002606
# 5 0.002374 -0.000061 -0.001008 0.000000 0.027957 0.000000
# 6 0.000000 0.000000 0.000000 -0.002606 0.000000 0.037397
#
#
# Mechanical properties :
#
#
# Convention : Reuss Voigt Hill
#
# Bulk Modulus (GPa) = 33.23018 39.94152 36.58585
# Shear Modulus (GPa) = 32.56283 34.89005 33.72644
#
# Velocity S-wave (km/s) = 3.61930 3.74640 3.68340
# Velocity P-wave (km/s) = 5.55280 5.89760 5.72779
#
# Compressibility (1/GPa) = 0.03009312
#
# Stress axis : x y z
#
# Youngs Moduli (GPa) = 73.49346 60.64565 108.97887
#
# Poissons Ratio (x) = -0.11635 0.25590
# Poissons Ratio (y) = -0.14099 0.45332
# Poissons Ratio (z) = 0.17258 0.25227
#
# Static dielectric constant tensor:
#      x y z
#    x 4.229260 0.000000 0.187970 
#    y 0.000000 4.620040 0.000000 
#    z 0.187970 0.000000 5.245030 
# 
# 
# High freq. dielectric constant tensor:
#      x y z
#    x 1.977800 0.000000 0.007620 
#    y 0.000000 1.990860 0.000000 
#    z 0.007620 0.000000 2.023760 
# 
# From -- ./inp_files/4845.got.cif
#   From: 2010.03.12/outbox.cif.g09.slc.cpg/sg4_3_cif.got.tgz:4845.got - 2010.03.31 09:31:35.
