data_PCOD8047455
_publ_section_title
;
Structure prediction by ZEFSAII (Michael W. Deem and Ramdas Pophale) SiO2 
 PCOD8047455
Probable space group: P 21
;
_chemical_formula_sum "Si O2"
_cell_formula_units_Z 16
_cell_length_a 5.166571
_cell_length_b 10.079125
_cell_length_c 14.436942
_cell_angle_alpha 90.000000
_cell_angle_beta 125.346787
_cell_angle_gamma 90.000000
_cell_volume 613.214633
_symmetry_space_group_name_H-M "P 21"
_symmetry_group_IT_number 4
_symmetry_cell_setting 'monoclinic'
loop_
_space_group_symop_operation_xyz
x,y,z
-x,1/2+y,-z
loop_
_atom_site_type_symbol
_atom_site_label
_atom_site_fract_x
_atom_site_fract_y
_atom_site_fract_z
Si Si1 0.506569 0.081140 0.641974
Si Si2 0.302735 0.274073 0.748852
Si Si3 0.387345 0.241134 0.458227
Si Si4 0.067846 0.159907 0.105857
Si Si5 0.193282 0.912599 0.027634
Si Si6 0.039046 0.884187 0.488240
Si Si7 0.145324 0.002743 0.815876
Si Si8 0.758518 0.227860 0.229346
O O1 0.517564 0.202039 0.716909
O O2 0.598158 0.133711 0.557879
O O3 0.765208 0.974286 0.730896
O O4 0.145415 0.027986 0.549703
O O5 0.485579 0.378584 0.850961
O O6 0.180180 0.154371 0.789420
O O7 0.047555 0.365331 0.639393
O O8 0.622577 0.305342 0.431123
O O9 0.251368 0.342307 0.507762
O O10 0.072361 0.178456 0.347229
O O11 0.445131 0.160420 0.207998
O O12 0.819229 0.180929 0.136675
O O13 0.984375 0.019385 0.041598
O O14 0.015257 0.279631 0.022387
O O15 0.275742 0.980537 0.946182
O O16 0.290326 0.889318 0.778019
#
# Coordination Sequence:
#
# PCOD8047455 Si02
#       8
#     2   2   2   2   2   2   2   2
#     4  11  24  45  73 106 151 201 248 320 391 466
#     4  11  26  49  72 114 156 204 263 324 392 469
#     4  11  23  43  70 107 144 186 245 306 378 460
#     4  11  28  50  72 111 148 205 257 327 381 463
#     4  11  28  50  77 111 155 210 265 329 390 465
#     4  11  24  44  72 109 145 197 245 306 384 465
#     4  11  24  44  77 103 149 206 256 320 384 465
#     4  11  25  45  75 109 150 193 257 312 390 461
#
# _framework density 26.092005
#
# number of rings (size 3 to 8) (size 9 to 14) (size 15 to 20)
#    0.000    1.000    2.500    2.250   12.250    1.000 
#    6.750    0.000    0.000    0.000    0.000    0.000 
#    0.000    0.000    0.000    0.000    0.000    0.000 
#
# Total GULP energy -198213.974879 kJ/mol
# GULP energy per Si atom -12388.373430 kJ/mol
# Density = 2.603262 g / cm^3
# Si number density = 26.092005 Si / 1000 Ang^3
#
#
#
# Elastic Constant Matrix: (Units=GPa)
#
#
# Indices 1 2 3 4 5 6 
#
# 1 51.6526 -0.3295 -17.9874 0.0000 5.5445 0.0000
# 2 -0.3295 89.3039 33.6408 0.0000 -12.3697 0.0000
# 3 -17.9874 33.6408 113.3061 0.0000 -1.8781 0.0000
# 4 0.0000 0.0000 0.0000 48.4973 0.0000 6.6042
# 5 5.5445 -12.3697 -1.8781 0.0000 25.7922 0.0000
# 6 0.0000 0.0000 0.0000 6.6042 0.0000 32.7813
#
#
#
# Elastic Compliance Matrix: (Units=1/GPa)
#
#
# Indices 1 2 3 4 5 6 
#
# 1 0.021284 -0.002136 0.003925 0.000000 -0.005314 0.000000
# 2 -0.002136 0.013746 -0.004309 0.000000 0.006738 0.000000
# 3 0.003925 -0.004309 0.010693 0.000000 -0.002132 0.000000
# 4 0.000000 0.000000 0.000000 0.021201 0.000000 -0.004271
# 5 -0.005314 0.006738 -0.002132 0.000000 0.042990 0.000000
# 6 0.000000 0.000000 0.000000 -0.004271 0.000000 0.031366
#
#
# Mechanical properties :
#
#
# Convention : Reuss Voigt Hill
#
# Bulk Modulus (GPa) = 24.58031 31.65670 28.11851
# Shear Modulus (GPa) = 31.27342 37.34342 34.30842
#
# Velocity S-wave (km/s) = 3.46581 3.78725 3.63009
# Velocity P-wave (km/s) = 5.04548 5.59316 5.32636
#
# Compressibility (1/GPa) = 0.04068297
#
# Stress axis : x y z
#
# Youngs Moduli (GPa) = 46.98432 72.74733 93.52207
#
# Poissons Ratio (x) = 0.15539 -0.36707
# Poissons Ratio (y) = 0.10036 0.40296
# Poissons Ratio (z) = -0.18441 0.31345
#
# Static dielectric constant tensor:
#      x y z
#    x 4.282840 0.000000 -0.022610 
#    y 0.000000 4.804680 0.000000 
#    z -0.022610 0.000000 4.947940 
# 
# 
# High freq. dielectric constant tensor:
#      x y z
#    x 2.025050 0.000000 0.002740 
#    y 0.000000 2.037950 0.000000 
#    z 0.002740 0.000000 2.060270 
# 
# From -- ./inp_files/13400.got.cif
#   From: 2010.03.12/outbox.cif.g09.slc.cpg/sg4_7_cif.got.tgz:13400.got - 2010.03.31 09:31:35.
