data_PCOD8047649
_publ_section_title
;
Structure prediction by ZEFSAII (Michael W. Deem and Ramdas Pophale) SiO2 
 PCOD8047649
Probable space group: P 21
;
_chemical_formula_sum "Si O2"
_cell_formula_units_Z 14
_cell_length_a 4.926052
_cell_length_b 12.741136
_cell_length_c 9.344818
_cell_angle_alpha 90.000000
_cell_angle_beta 81.058963
_cell_angle_gamma 90.000000
_cell_volume 579.386630
_symmetry_space_group_name_H-M "P 21"
_symmetry_group_IT_number 4
_symmetry_cell_setting 'monoclinic'
loop_
_space_group_symop_operation_xyz
x,y,z
-x,1/2+y,-z
loop_
_atom_site_type_symbol
_atom_site_label
_atom_site_fract_x
_atom_site_fract_y
_atom_site_fract_z
Si Si1 0.117299 0.900610 0.077491
Si Si2 0.083872 0.989640 0.377268
Si Si3 0.739851 0.847778 0.741542
Si Si4 0.470833 0.583976 0.488323
Si Si5 0.589114 0.534881 0.167423
Si Si6 0.293698 0.811169 0.553941
Si Si7 0.616017 0.761646 0.034939
O O1 0.039988 0.981623 0.210502
O O2 0.386185 0.840749 0.110046
O O3 0.898586 0.808524 0.072295
O O4 0.166224 0.968333 0.928384
O O5 0.223390 0.884357 0.426464
O O6 0.303788 0.081220 0.401507
O O7 0.783920 0.004574 0.470631
O O8 0.577336 0.843344 0.605433
O O9 0.058491 0.822138 0.693012
O O10 0.689221 0.963497 0.817712
O O11 0.625137 0.760111 0.861128
O O12 0.646733 0.555577 0.331221
O O13 0.326681 0.695976 0.487552
O O14 0.549007 0.644457 0.090733
#
# Coordination Sequence:
#
# PCOD8047649 Si02
#       7
#     2   2   2   2   2   2   2
#     4  11  27  47  72 107 152 186 245 306 360 440
#     4  12  25  49  69 112 143 193 241 309 367 441
#     4  11  24  47  70 110 145 194 233 319 361 442
#     4  12  27  42  77 107 143 198 244 296 381 443
#     4  11  25  49  75 107 147 199 241 304 371 448
#     4  12  24  45  73 103 153 182 251 299 373 435
#     4  11  26  45  74 106 143 194 249 295 373 435
#
# _framework density 24.163485000000001
#
# number of rings (size 3 to 8) (size 9 to 14) (size 15 to 20)
#    0.000    0.571    2.857    4.286    4.000    6.857 
#    0.000    0.000    0.000    0.000    0.000    0.000 
#    0.000    0.000    0.000    0.000    0.000    0.000 
#
# Total GULP energy -173567.827802 kJ/mol
# GULP energy per Si atom -12397.701986 kJ/mol
# Density = 2.410849 g / cm^3
# Si number density = 24.163485 Si / 1000 Ang^3
#
#
#
# Elastic Constant Matrix: (Units=GPa)
#
#
# Indices 1 2 3 4 5 6 
#
# 1 90.8136 22.8787 37.8337 0.0000 -4.7559 0.0000
# 2 22.8787 115.5587 49.5044 0.0000 -16.4528 0.0000
# 3 37.8337 49.5044 118.1972 0.0000 -11.3306 0.0000
# 4 0.0000 0.0000 0.0000 42.9328 0.0000 -5.4199
# 5 -4.7559 -16.4528 -11.3306 0.0000 32.3831 0.0000
# 6 0.0000 0.0000 0.0000 -5.4199 0.0000 29.1027
#
#
#
# Elastic Compliance Matrix: (Units=1/GPa)
#
#
# Indices 1 2 3 4 5 6 
#
# 1 0.012791 -0.000935 -0.003692 0.000000 0.000112 0.000000
# 2 -0.000935 0.011125 -0.003964 0.000000 0.004128 0.000000
# 3 -0.003692 -0.003964 0.011441 0.000000 0.001447 0.000000
# 4 0.000000 0.000000 0.000000 0.023853 0.000000 0.004442
# 5 0.000112 0.004128 0.001447 0.000000 0.033500 0.000000
# 6 0.000000 0.000000 0.000000 0.004442 0.000000 0.035188
#
#
# Mechanical properties :
#
#
# Convention : Reuss Voigt Hill
#
# Bulk Modulus (GPa) = 55.02226 60.55591 57.78909
# Shear Modulus (GPa) = 33.08206 35.17390 34.12798
#
# Velocity S-wave (km/s) = 3.70414 3.81945 3.76224
# Velocity P-wave (km/s) = 6.41206 6.67580 6.54526
#
# Compressibility (1/GPa) = 0.01817446
#
# Stress axis : x y z
#
# Youngs Moduli (GPa) = 78.17951 89.89006 87.40246
#
# Poissons Ratio (x) = 0.08404 0.32269
# Poissons Ratio (y) = 0.07309 0.34650
# Poissons Ratio (z) = 0.28864 0.35636
#
# Static dielectric constant tensor:
#      x y z
#    x 4.239610 0.000000 -0.161080 
#    y 0.000000 4.427220 0.000000 
#    z -0.161080 0.000000 4.325770 
# 
# 
# High freq. dielectric constant tensor:
#      x y z
#    x 1.959190 0.000000 -0.010140 
#    y 0.000000 1.961530 0.000000 
#    z -0.010140 0.000000 1.962660 
# 
# From -- ./inp_files/4592.got.cif
#   From: 2010.03.12/outbox.cif.g09.slc.cpg/sg4_3_cif.got.tgz:4592.got - 2010.03.31 09:31:35.
