data_PCOD8047040
_publ_section_title
;
Structure prediction by ZEFSAII (Michael W. Deem and Ramdas Pophale) SiO2 
 PCOD8047040
Probable space group: P 21
;
_chemical_formula_sum "Si O2"
_cell_formula_units_Z 16
_cell_length_a 12.550910
_cell_length_b 8.454196
_cell_length_c 6.493808
_cell_angle_alpha 90.000000
_cell_angle_beta 79.605011
_cell_angle_gamma 90.000000
_cell_volume 677.734922
_symmetry_space_group_name_H-M "P 21"
_symmetry_group_IT_number 4
_symmetry_cell_setting 'monoclinic'
loop_
_space_group_symop_operation_xyz
x,y,z
-x,1/2+y,-z
loop_
_atom_site_type_symbol
_atom_site_label
_atom_site_fract_x
_atom_site_fract_y
_atom_site_fract_z
Si Si1 0.018535 0.150560 0.689789
Si Si2 0.214704 0.004816 0.431662
Si Si3 0.594971 0.502637 0.367528
Si Si4 0.681041 0.338876 0.953661
Si Si5 0.874208 0.187722 0.374579
Si Si6 0.963050 0.858883 0.952323
Si Si7 0.252410 0.508607 0.917232
Si Si8 0.527439 0.831646 0.254463
O O1 0.121059 0.133584 0.500169
O O2 0.912422 0.126819 0.585979
O O3 0.019707 0.319448 0.808824
O O4 0.023481 0.021036 0.869712
O O5 0.325019 0.076193 0.488212
O O6 0.232121 0.956436 0.186262
O O7 0.193257 0.846065 0.568857
O O8 0.542654 0.644532 0.259927
O O9 0.502576 0.399433 0.510755
O O10 0.662512 0.390689 0.192639
O O11 0.568117 0.353455 0.874253
O O12 0.730827 0.161826 0.942508
O O13 0.797653 0.061450 0.286520
O O14 0.983074 0.220647 0.202775
O O15 0.834386 0.885471 0.953297
O O16 0.365279 0.419009 0.859313
#
# Coordination Sequence:
#
# PCOD8047040 Si02
#       8
#     2   2   2   2   2   2   2   2
#     4  11  25  44  70 104 140 188 238 297 349 428
#     4  10  24  41  70  98 137 188 223 293 357 410
#     4  11  23  47  67 102 142 176 236 301 354 425
#     4  11  24  46  73 102 140 189 239 290 364 422
#     4  11  25  43  69 103 146 185 237 292 355 427
#     4  11  25  45  70 104 147 184 244 293 350 435
#     4  12  24  46  73 106 143 197 237 300 359 424
#     4  11  26  44  74 103 139 185 242 298 360 425
#
# _framework density 23.608051
#
# number of rings (size 3 to 8) (size 9 to 14) (size 15 to 20)
#    0.000    1.000    2.500    3.000    5.250    3.000 
#    2.250    0.000    0.000    0.000    0.000    0.000 
#    0.000    0.000    0.000    0.000    0.000    0.000 
#
# Total GULP energy -198334.955003 kJ/mol
# GULP energy per Si atom -12395.934688 kJ/mol
# Density = 2.355432 g / cm^3
# Si number density = 23.608051 Si / 1000 Ang^3
#
#
#
# Elastic Constant Matrix: (Units=GPa)
#
#
# Indices 1 2 3 4 5 6 
#
# 1 107.3115 16.3003 36.9348 0.0000 2.2004 0.0000
# 2 16.3003 50.0685 19.2927 0.0000 10.0851 0.0000
# 3 36.9348 19.2927 92.8615 0.0000 -6.9952 0.0000
# 4 0.0000 0.0000 0.0000 31.7198 0.0000 -0.0179
# 5 2.2004 10.0851 -6.9952 0.0000 40.1982 0.0000
# 6 0.0000 0.0000 0.0000 -0.0179 0.0000 42.3692
#
#
#
# Elastic Compliance Matrix: (Units=1/GPa)
#
#
# Indices 1 2 3 4 5 6 
#
# 1 0.011015 -0.001851 -0.004060 0.000000 -0.000845 0.000000
# 2 -0.001851 0.023728 -0.004696 0.000000 -0.006669 0.000000
# 3 -0.004060 -0.004696 0.013643 0.000000 0.003775 0.000000
# 4 0.000000 0.000000 0.000000 0.031526 0.000000 0.000013
# 5 -0.000845 -0.006669 0.003775 0.000000 0.027253 0.000000
# 6 0.000000 0.000000 0.000000 0.000013 0.000000 0.023602
#
#
# Mechanical properties :
#
#
# Convention : Reuss Voigt Hill
#
# Bulk Modulus (GPa) = 36.80249 43.92190 40.36219
# Shear Modulus (GPa) = 31.04851 34.70503 32.87677
#
# Velocity S-wave (km/s) = 3.63046 3.83828 3.73582
# Velocity P-wave (km/s) = 5.76163 6.18775 5.97849
#
# Compressibility (1/GPa) = 0.02717208
#
# Stress axis : x y z
#
# Youngs Moduli (GPa) = 90.78880 42.14433 73.29520
#
# Poissons Ratio (x) = 0.07802 0.29758
# Poissons Ratio (y) = 0.16807 0.34417
# Poissons Ratio (z) = 0.36860 0.19790
#
# Static dielectric constant tensor:
#      x y z
#    x 4.260810 0.000000 -0.240230 
#    y 0.000000 4.086230 0.000000 
#    z -0.240230 0.000000 4.330240 
# 
# 
# High freq. dielectric constant tensor:
#      x y z
#    x 1.941130 0.000000 -0.008510 
#    y 0.000000 1.921330 0.000000 
#    z -0.008510 0.000000 1.938900 
# 
# From -- ./inp_files/2632.got.cif
#   From: 2010.03.12/outbox.cif.g09.slc.cpg/sg4_2_cif.got.tgz:2632.got - 2010.03.31 09:31:35.
