data_PCOD8047023
_publ_section_title
;
Structure prediction by ZEFSAII (Michael W. Deem and Ramdas Pophale) SiO2 
 PCOD8047023
Probable space group: P 21
;
_chemical_formula_sum "Si O2"
_cell_formula_units_Z 14
_cell_length_a 13.298897
_cell_length_b 5.072905
_cell_length_c 20.260955
_cell_angle_alpha 90.000000
_cell_angle_beta 28.074963
_cell_angle_gamma 90.000000
_cell_volume 643.292544
_symmetry_space_group_name_H-M "P 21"
_symmetry_group_IT_number 4
_symmetry_cell_setting 'monoclinic'
loop_
_space_group_symop_operation_xyz
x,y,z
-x,1/2+y,-z
loop_
_atom_site_type_symbol
_atom_site_label
_atom_site_fract_x
_atom_site_fract_y
_atom_site_fract_z
Si Si1 0.492069 0.964730 0.461807
Si Si2 0.208852 0.943581 0.510774
Si Si3 0.740007 0.129745 0.079378
Si Si4 0.446773 0.464420 0.945014
Si Si5 0.210312 0.303504 0.817026
Si Si6 0.452008 0.458637 0.327346
Si Si7 0.717622 0.963747 0.817915
O O1 0.547414 0.749806 0.484646
O O2 0.689576 0.991772 0.296540
O O3 0.280798 0.871210 0.543783
O O4 0.302177 0.232767 0.443467
O O5 0.955840 0.950105 0.651922
O O6 0.306902 0.724408 0.403136
O O7 0.690736 0.964133 0.042165
O O8 0.555922 0.350601 0.198894
O O9 0.757783 0.931049 0.129857
O O10 0.966036 0.271243 0.939227
O O11 0.605225 0.219806 0.854092
O O12 0.592175 0.719610 0.861808
O O13 0.284547 0.460984 0.101028
O O14 0.346611 0.029357 0.740743
#
# Coordination Sequence:
#
# PCOD8047023 Si02
#       7
#     2   2   2   2   2   2   2
#     4  11  24  41  63 101 137 172 226 270 332 412
#     4  11  23  43  71  90 139 178 216 287 345 385
#     4  12  24  44  71 101 140 186 220 280 340 411
#     4  10  25  44  75  98 137 169 240 279 342 394
#     4  11  25  42  69  99 143 181 221 273 339 415
#     4  11  22  42  66  98 135 175 220 275 330 411
#     4  10  23  50  67 103 129 179 227 298 328 400
#
# _framework density 21.763038999999999
#
# number of rings (size 3 to 8) (size 9 to 14) (size 15 to 20)
#    0.000    1.143    4.286    2.571    4.000    0.000 
#    5.143    2.857    0.000    0.000    0.000    0.000 
#    0.000    0.000    0.000    0.000    0.000    0.000 
#
# Total GULP energy -173571.210943 kJ/mol
# GULP energy per Si atom -12397.943639 kJ/mol
# Density = 2.171351 g / cm^3
# Si number density = 21.763039 Si / 1000 Ang^3
#
#
#
# Elastic Constant Matrix: (Units=GPa)
#
#
# Indices 1 2 3 4 5 6 
#
# 1 111.5762 31.8065 53.1146 0.0000 7.4370 0.0000
# 2 31.8065 124.7951 34.1529 0.0000 -10.4048 0.0000
# 3 53.1146 34.1529 122.8134 0.0000 -25.2646 0.0000
# 4 0.0000 0.0000 0.0000 35.0314 0.0000 13.4237
# 5 7.4370 -10.4048 -25.2646 0.0000 27.2963 0.0000
# 6 0.0000 0.0000 0.0000 13.4237 0.0000 10.1230
#
#
#
# Elastic Compliance Matrix: (Units=1/GPa)
#
#
# Indices 1 2 3 4 5 6 
#
# 1 0.014303 -0.002473 -0.008021 0.000000 -0.012264 0.000000
# 2 -0.002473 0.009140 -0.000762 0.000000 0.003452 0.000000
# 3 -0.008021 -0.000762 0.015085 0.000000 0.015857 0.000000
# 4 0.000000 0.000000 0.000000 0.058035 0.000000 -0.076959
# 5 -0.012264 0.003452 0.015857 0.000000 0.055969 0.000000
# 6 0.000000 0.000000 0.000000 -0.076959 0.000000 0.200837
#
#
# Mechanical properties :
#
#
# Convention : Reuss Voigt Hill
#
# Bulk Modulus (GPa) = 62.43494 66.37031 64.40263
# Shear Modulus (GPa) = 13.11576 30.49751 21.80664
#
# Velocity S-wave (km/s) = 2.45758 3.74751 3.16888
# Velocity P-wave (km/s) = 6.06661 7.02055 6.56094
#
# Compressibility (1/GPa) = 0.01601667
#
# Stress axis : x y z
#
# Youngs Moduli (GPa) = 69.91484 109.41217 66.28926
#
# Poissons Ratio (x) = 0.27055 0.53171
# Poissons Ratio (y) = 0.17288 0.05051
# Poissons Ratio (z) = 0.56079 0.08337
#
# Static dielectric constant tensor:
#      x y z
#    x 3.752280 0.000000 0.089930 
#    y 0.000000 4.058260 0.000000 
#    z 0.089930 0.000000 4.121180 
# 
# 
# High freq. dielectric constant tensor:
#      x y z
#    x 1.832320 0.000000 0.003650 
#    y 0.000000 1.870880 0.000000 
#    z 0.003650 0.000000 1.861860 
# 
# From -- ./inp_files/11475.got.cif
#   From: 2010.03.12/outbox.cif.g09.slc.cpg/sg4_6_cif.got.tgz:11475.got - 2010.03.31 09:31:35.
