data_PCOD8047021
_publ_section_title
;
Structure prediction by ZEFSAII (Michael W. Deem and Ramdas Pophale) SiO2 
 PCOD8047021
Probable space group: P 21
;
_chemical_formula_sum "Si O2"
_cell_formula_units_Z 10
_cell_length_a 8.578503
_cell_length_b 8.292800
_cell_length_c 9.102736
_cell_angle_alpha 90.000000
_cell_angle_beta 34.840212
_cell_angle_gamma 90.000000
_cell_volume 369.948327
_symmetry_space_group_name_H-M "P 21"
_symmetry_group_IT_number 4
_symmetry_cell_setting 'monoclinic'
loop_
_space_group_symop_operation_xyz
x,y,z
-x,1/2+y,-z
loop_
_atom_site_type_symbol
_atom_site_label
_atom_site_fract_x
_atom_site_fract_y
_atom_site_fract_z
Si Si1 0.445611 0.065780 0.342535
Si Si2 0.474353 0.430963 0.019383
Si Si3 0.103355 0.051756 0.099641
Si Si4 0.042767 0.307800 0.566003
Si Si5 0.770083 0.335939 0.261696
O O1 0.139008 0.129933 0.542847
O O2 0.603810 0.216137 0.287211
O O3 0.430707 0.914384 0.462659
O O4 0.603215 0.022682 0.070437
O O5 0.206441 0.344920 0.289235
O O6 0.601664 0.549052 0.047674
O O7 0.716731 0.301347 0.789615
O O8 0.891661 0.945218 0.361613
O O9 0.104667 0.977599 0.934514
O O10 0.007664 0.236589 0.160867
#
# Coordination Sequence:
#
# PCOD8047021 Si02
#       5
#     2   2   2   2   2
#     4  12  26  48  80 112 162 202 267 321 399 467
#     4  10  26  46  79 105 154 199 267 314 383 464
#     4  10  25  47  75 111 155 205 261 317 394 463
#     4  10  23  49  75 111 147 203 267 316 383 457
#     4  12  26  48  75 121 156 213 252 336 393 477
#
# _framework density 27.030801
#
# number of rings (size 3 to 8) (size 9 to 14) (size 15 to 20)
#    1.200    0.000    2.000    2.400    2.800    6.400 
#    0.000    0.000    0.000    0.000    0.000    0.000 
#    0.000    0.000    0.000    0.000    0.000    0.000 
#
# Total GULP energy -123988.997936 kJ/mol
# GULP energy per Si atom -12398.899794 kJ/mol
# Density = 2.696928 g / cm^3
# Si number density = 27.030801 Si / 1000 Ang^3
#
#
#
# Elastic Constant Matrix: (Units=GPa)
#
#
# Indices 1 2 3 4 5 6 
#
# 1 73.0067 34.0390 38.2240 0.0000 30.1004 0.0000
# 2 34.0390 78.5064 28.6188 0.0000 16.4012 0.0000
# 3 38.2240 28.6188 155.2746 0.0000 21.4809 0.0000
# 4 0.0000 0.0000 0.0000 38.3762 0.0000 3.9052
# 5 30.1004 16.4012 21.4809 0.0000 42.3220 0.0000
# 6 0.0000 0.0000 0.0000 3.9052 0.0000 50.3128
#
#
#
# Elastic Compliance Matrix: (Units=1/GPa)
#
#
# Indices 1 2 3 4 5 6 
#
# 1 0.023441 -0.006477 -0.002815 0.000000 -0.012733 0.000000
# 2 -0.006477 0.016220 -0.001251 0.000000 -0.001044 0.000000
# 3 -0.002815 -0.001251 0.007550 0.000000 -0.001345 0.000000
# 4 0.000000 0.000000 0.000000 0.026265 0.000000 -0.002039
# 5 -0.012733 -0.001044 -0.001345 0.000000 0.033772 0.000000
# 6 0.000000 0.000000 0.000000 -0.002039 0.000000 0.020034
#
#
# Mechanical properties :
#
#
# Convention : Reuss Voigt Hill
#
# Bulk Modulus (GPa) = 38.27751 56.50569 47.39160
# Shear Modulus (GPa) = 31.83163 39.92924 35.88043
#
# Velocity S-wave (km/s) = 3.43535 3.84757 3.64729
# Velocity P-wave (km/s) = 5.47055 6.37871 5.94201
#
# Compressibility (1/GPa) = 0.02612500
#
# Stress axis : x y z
#
# Youngs Moduli (GPa) = 42.66028 61.65094 132.45398
#
# Poissons Ratio (x) = 0.39933 0.37288
# Poissons Ratio (y) = 0.27632 0.16565
# Poissons Ratio (z) = 0.12010 0.07710
#
# Static dielectric constant tensor:
#      x y z
#    x 4.793580 0.000000 0.189950 
#    y 0.000000 4.782610 0.000000 
#    z 0.189950 0.000000 4.687390 
# 
# 
# High freq. dielectric constant tensor:
#      x y z
#    x 2.089120 0.000000 0.013260 
#    y 0.000000 2.081530 0.000000 
#    z 0.013260 0.000000 2.082900 
# 
# From -- ./inp_files/930.got.cif
#   From: 2010.03.12/outbox.cif.g09.slc.cpg/sg4_1_cif.got.tgz:930.got - 2010.03.31 09:31:35.
