data_PCOD8047112
_publ_section_title
;
Structure prediction by ZEFSAII (Michael W. Deem and Ramdas Pophale) SiO2 
 PCOD8047112
Probable space group: P 21
;
_chemical_formula_sum "Si O2"
_cell_formula_units_Z 16
_cell_length_a 14.532492
_cell_length_b 5.585901
_cell_length_c 24.807445
_cell_angle_alpha 90.000000
_cell_angle_beta 160.598200
_cell_angle_gamma 90.000000
_cell_volume 668.964262
_symmetry_space_group_name_H-M "P 21"
_symmetry_group_IT_number 4
_symmetry_cell_setting 'monoclinic'
loop_
_space_group_symop_operation_xyz
x,y,z
-x,1/2+y,-z
loop_
_atom_site_type_symbol
_atom_site_label
_atom_site_fract_x
_atom_site_fract_y
_atom_site_fract_z
Si Si1 0.046634 0.454330 0.162470
Si Si2 0.307710 0.843777 0.834564
Si Si3 0.113535 0.530043 0.639376
Si Si4 0.878986 0.678019 0.183444
Si Si5 0.428840 0.911581 0.490215
Si Si6 0.559810 0.141973 0.876683
Si Si7 0.102285 0.108241 0.032025
Si Si8 0.658539 0.303173 0.327713
O O1 0.935654 0.570130 0.156300
O O2 0.376823 0.405803 0.349079
O O3 0.884371 0.203220 0.063909
O O4 0.986848 0.633479 0.079944
O O5 0.089850 0.985756 0.751145
O O6 0.448329 0.985062 0.863670
O O7 0.122701 0.635635 0.704854
O O8 0.560713 0.760775 0.012246
O O9 0.396587 0.389352 0.786779
O O10 0.114707 0.726090 0.591894
O O11 0.831808 0.378222 0.476636
O O12 0.099175 0.889032 0.319049
O O13 0.519051 0.668864 0.508422
O O14 0.524414 0.017380 0.799081
O O15 0.437194 0.102423 0.223109
O O16 0.992961 0.346236 0.001088
#
# Coordination Sequence:
#
# PCOD8047112 Si02
#       8
#     2   2   2   2   2   2   2   2
#     4  11  22  48  78 100 142 198 249 296 373 442
#     4  11  24  40  68 110 149 187 241 303 380 438
#     4  11  22  41  71 110 140 188 236 300 366 446
#     4  11  23  45  73 103 144 192 241 305 368 447
#     4  10  24  45  74 108 136 191 257 304 350 429
#     4  11  20  41  71 104 144 190 236 293 365 456
#     4  12  28  49  74 109 147 197 248 308 367 441
#     4  11  23  43  73 104 148 191 246 289 375 443
#
# _framework density 23.917573000000001
#
# number of rings (size 3 to 8) (size 9 to 14) (size 15 to 20)
#    0.000    1.000    3.750    3.000    0.000    4.000 
#    2.250    3.750    0.000    0.000    0.000    0.000 
#    0.000    0.000    0.000    0.000    0.000    0.000 
#
# Total GULP energy -198309.734565 kJ/mol
# GULP energy per Si atom -12394.358410 kJ/mol
# Density = 2.386314 g / cm^3
# Si number density = 23.917573 Si / 1000 Ang^3
#
#
#
# Elastic Constant Matrix: (Units=GPa)
#
#
# Indices 1 2 3 4 5 6 
#
# 1 63.8659 16.4583 16.1023 0.0000 -4.8074 0.0000
# 2 16.4583 82.2143 15.0100 0.0000 -4.3485 0.0000
# 3 16.1023 15.0100 157.4149 0.0000 -15.8047 0.0000
# 4 0.0000 0.0000 0.0000 49.4594 0.0000 -1.8600
# 5 -4.8074 -4.3485 -15.8047 0.0000 15.6815 0.0000
# 6 0.0000 0.0000 0.0000 -1.8600 0.0000 35.0512
#
#
#
# Elastic Compliance Matrix: (Units=1/GPa)
#
#
# Indices 1 2 3 4 5 6 
#
# 1 0.016962 -0.003020 -0.001123 0.000000 0.003231 0.000000
# 2 -0.003020 0.013005 -0.000737 0.000000 0.001938 0.000000
# 3 -0.001123 -0.000737 0.007212 0.000000 0.006721 0.000000
# 4 0.000000 0.000000 0.000000 0.020259 0.000000 0.001075
# 5 0.003231 0.001938 0.006721 0.000000 0.072071 0.000000
# 6 0.000000 0.000000 0.000000 0.001075 0.000000 0.028587
#
#
# Mechanical properties :
#
#
# Convention : Reuss Voigt Hill
#
# Bulk Modulus (GPa) = 36.46781 44.29295 40.38038
# Shear Modulus (GPa) = 28.24935 37.10004 32.67470
#
# Velocity S-wave (km/s) = 3.44046 3.94275 3.70014
# Velocity P-wave (km/s) = 5.57340 6.26788 5.93081
#
# Compressibility (1/GPa) = 0.02742144
#
# Stress axis : x y z
#
# Youngs Moduli (GPa) = 58.95429 76.89446 138.64831
#
# Poissons Ratio (x) = 0.23220 0.15567
# Poissons Ratio (y) = 0.17803 0.10212
# Poissons Ratio (z) = 0.06619 0.05664
#
# Static dielectric constant tensor:
#      x y z
#    x 4.083960 0.000000 -0.112990 
#    y 0.000000 4.501170 0.000000 
#    z -0.112990 0.000000 4.749890 
# 
# 
# High freq. dielectric constant tensor:
#      x y z
#    x 1.929450 0.000000 -0.007150 
#    y 0.000000 1.950850 0.000000 
#    z -0.007150 0.000000 1.961850 
# 
# From -- ./inp_files/16150.got.cif
#   From: 2010.03.12/outbox.cif.g09.slc.cpg/sg4_9_cif.got.tgz:16150.got - 2010.03.31 09:31:35.
