data_PCOD8047180
_publ_section_title
;
Structure prediction by ZEFSAII (Michael W. Deem and Ramdas Pophale) SiO2 
 PCOD8047180
Probable space group: P 21
;
_chemical_formula_sum "Si O2"
_cell_formula_units_Z 16
_cell_length_a 13.619150
_cell_length_b 5.231300
_cell_length_c 9.920159
_cell_angle_alpha 90.000000
_cell_angle_beta 60.388726
_cell_angle_gamma 90.000000
_cell_volume 614.464447
_symmetry_space_group_name_H-M "P 21"
_symmetry_group_IT_number 4
_symmetry_cell_setting 'monoclinic'
loop_
_space_group_symop_operation_xyz
x,y,z
-x,1/2+y,-z
loop_
_atom_site_type_symbol
_atom_site_label
_atom_site_fract_x
_atom_site_fract_y
_atom_site_fract_z
Si Si1 0.459386 0.086620 0.182414
Si Si2 0.764451 0.920077 0.341888
Si Si3 0.818704 0.260268 0.078328
Si Si4 0.681296 0.260269 0.921672
Si Si5 0.264451 0.420077 0.341888
Si Si6 0.559244 0.567704 0.507455
Si Si7 0.940756 0.567704 0.492546
Si Si8 0.959386 0.586620 0.182414
O O1 0.398768 0.363165 0.238886
O O2 0.444848 0.954400 0.337950
O O3 0.387699 0.969099 0.110632
O O4 0.589834 0.074771 0.054126
O O5 0.750000 0.047612 0.500000
O O6 0.685729 0.664260 0.381910
O O7 0.898768 0.863165 0.238886
O O8 0.735091 0.111690 0.239213
O O9 0.887699 0.469098 0.110632
O O10 0.750000 0.383692 1.000000
O O11 0.910166 0.074771 0.945874
O O12 0.764909 0.111691 0.760787
O O13 0.185729 0.164261 0.381910
O O14 0.521392 0.322196 0.445324
O O15 0.944848 0.454400 0.337950
O O16 0.978609 0.322197 0.554676
#
# Coordination Sequence:
#
# PCOD8047180 Si02
#       8
#     2   2   2   2   2   2   2   2
#     4  11  26  47  75 114 161 202 266 329 386 476
#     4  10  25  47  74 109 154 207 256 329 386 460
#     4  12  26  48  78 112 159 210 261 322 404 466
#     4  12  26  48  78 112 159 210 261 322 404 466
#     4  10  25  47  74 109 154 207 256 329 386 460
#     4  11  27  48  81 118 158 208 268 322 396 468
#     4  11  27  48  81 118 158 208 268 322 396 468
#     4  11  26  47  75 114 161 202 266 329 386 476
#
# _framework density 26.038936
#
# number of rings (size 3 to 8) (size 9 to 14) (size 15 to 20)
#    0.000    1.000    2.500    1.500   14.000    2.000 
#    0.000    0.000    0.000    0.000    0.000    0.000 
#    0.000    0.000    0.000    0.000    0.000    0.000 
#
# Total GULP energy -198217.202032 kJ/mol
# GULP energy per Si atom -12388.575127 kJ/mol
# Density = 2.597967 g / cm^3
# Si number density = 26.038936 Si / 1000 Ang^3
#
#
#
# Elastic Constant Matrix: (Units=GPa)
#
#
# Indices 1 2 3 4 5 6 
#
# 1 131.4878 13.9955 45.4654 0.0000 24.5350 0.0000
# 2 13.9955 55.5963 17.1977 0.0000 8.7136 0.0000
# 3 45.4654 17.1977 109.8972 0.0000 15.6573 0.0000
# 4 0.0000 0.0000 0.0000 32.2202 0.0000 7.1324
# 5 24.5350 8.7136 15.6573 0.0000 57.5481 0.0000
# 6 0.0000 0.0000 0.0000 7.1324 0.0000 41.3765
#
#
#
# Elastic Compliance Matrix: (Units=1/GPa)
#
#
# Indices 1 2 3 4 5 6 
#
# 1 0.009404 -0.000871 -0.003331 0.000000 -0.002971 0.000000
# 2 -0.000871 0.019239 -0.002380 0.000000 -0.001894 0.000000
# 3 -0.003331 -0.002380 0.011024 0.000000 -0.001219 0.000000
# 4 0.000000 0.000000 0.000000 0.032268 0.000000 -0.005562
# 5 -0.002971 -0.001894 -0.001219 0.000000 0.019262 0.000000
# 6 0.000000 0.000000 0.000000 -0.005562 0.000000 0.025127
#
#
# Mechanical properties :
#
#
# Convention : Reuss Voigt Hill
#
# Bulk Modulus (GPa) = 37.73337 50.03317 43.88327
# Shear Modulus (GPa) = 36.14728 40.91714 38.53221
#
# Velocity S-wave (km/s) = 3.72990 3.96837 3.85098
# Velocity P-wave (km/s) = 5.75084 6.34458 6.05499
#
# Compressibility (1/GPa) = 0.02650174
#
# Stress axis : x y z
#
# Youngs Moduli (GPa) = 106.33579 51.97688 90.71460
#
# Poissons Ratio (x) = 0.04529 0.30216
# Poissons Ratio (y) = 0.09265 0.21594
# Poissons Ratio (z) = 0.35420 0.12373
#
# Static dielectric constant tensor:
#      x y z
#    x 5.071950 0.000000 -0.201770 
#    y 0.000000 4.107170 0.000000 
#    z -0.201770 0.000000 5.386180 
# 
# 
# High freq. dielectric constant tensor:
#      x y z
#    x 2.054870 0.000000 0.002480 
#    y 0.000000 1.999920 0.000000 
#    z 0.002480 0.000000 2.066590 
# 
# From -- ./inp_files/8931.got.cif
#   From: 2010.03.12/outbox.cif.g09.slc.cpg/sg4_5_cif.got.tgz:8931.got - 2010.03.31 09:31:35.
