data_PCOD8047565
_publ_section_title
;
Structure prediction by ZEFSAII (Michael W. Deem and Ramdas Pophale) SiO2 
 PCOD8047565
Probable space group: P 21
;
_chemical_formula_sum "Si O2"
_cell_formula_units_Z 16
_cell_length_a 6.464731
_cell_length_b 10.225730
_cell_length_c 13.305454
_cell_angle_alpha 90.000000
_cell_angle_beta 54.939959
_cell_angle_gamma 90.000000
_cell_volume 719.979242
_symmetry_space_group_name_H-M "P 21"
_symmetry_group_IT_number 4
_symmetry_cell_setting 'monoclinic'
loop_
_space_group_symop_operation_xyz
x,y,z
-x,1/2+y,-z
loop_
_atom_site_type_symbol
_atom_site_label
_atom_site_fract_x
_atom_site_fract_y
_atom_site_fract_z
Si Si1 0.764471 0.964770 0.100720
Si Si2 0.525638 0.096744 0.717661
Si Si3 0.972559 0.734170 0.424471
Si Si4 0.184074 0.431416 0.683804
Si Si5 0.312923 0.996518 0.572640
Si Si6 0.722759 0.609383 0.822841
Si Si7 0.833121 0.689961 0.010105
Si Si8 0.836008 0.851001 0.666424
O O1 0.748550 0.911611 0.218897
O O2 0.891011 0.846983 0.999584
O O3 0.483774 0.997429 0.140345
O O4 0.920437 0.099426 0.046745
O O5 0.360516 0.057843 0.667996
O O6 0.353104 0.164040 0.847321
O O7 0.739859 0.200858 0.626143
O O8 0.653908 0.973036 0.734967
O O9 0.959664 0.804056 0.319307
O O10 0.808431 0.602355 0.468467
O O11 0.861656 0.829422 0.540079
O O12 0.432382 0.446846 0.548100
O O13 0.002256 0.555429 0.722868
O O14 0.111224 0.877612 0.639781
O O15 0.691043 0.730272 0.756862
O O16 0.694129 0.658109 0.944757
#
# Coordination Sequence:
#
# PCOD8047565 Si02
#       8
#     2   2   2   2   2   2   2   2
#     4  11  27  48  74 102 145 186 246 297 355 424
#     4  11  25  44  69 104 140 183 235 291 353 425
#     4  11  24  42  68 103 141 180 228 285 356 425
#     4  11  24  43  70 105 136 188 223 285 359 426
#     4  11  25  41  70 101 142 181 227 286 354 430
#     4  11  27  45  72 101 146 182 239 292 357 415
#     4  11  28  46  75 102 137 194 241 295 354 422
#     4  11  26  41  70 104 141 182 231 289 354 431
#
# _framework density 22.222864000000001
#
# number of rings (size 3 to 8) (size 9 to 14) (size 15 to 20)
#    0.000    1.000    1.250    3.000   14.000    4.000 
#    0.000    0.000    0.000    0.000    0.000    0.000 
#    0.000    0.000    0.000    0.000    0.000    0.000 
#
# Total GULP energy -198472.407587 kJ/mol
# GULP energy per Si atom -12404.525474 kJ/mol
# Density = 2.217228 g / cm^3
# Si number density = 22.222864 Si / 1000 Ang^3
#
#
#
# Elastic Constant Matrix: (Units=GPa)
#
#
# Indices 1 2 3 4 5 6 
#
# 1 110.9891 33.6742 36.7876 0.0000 10.8051 0.0000
# 2 33.6742 107.4778 31.8098 0.0000 3.1679 0.0000
# 3 36.7876 31.8098 73.1043 0.0000 7.7363 0.0000
# 4 0.0000 0.0000 0.0000 40.0194 0.0000 -1.3239
# 5 10.8051 3.1679 7.7363 0.0000 33.1488 0.0000
# 6 0.0000 0.0000 0.0000 -1.3239 0.0000 41.7833
#
#
#
# Elastic Compliance Matrix: (Units=1/GPa)
#
#
# Indices 1 2 3 4 5 6 
#
# 1 0.011409 -0.002158 -0.004543 0.000000 -0.002452 0.000000
# 2 -0.002158 0.011088 -0.003795 0.000000 0.000529 0.000000
# 3 -0.004543 -0.003795 0.017862 0.000000 -0.002325 0.000000
# 4 0.000000 0.000000 0.000000 0.025014 0.000000 0.000793
# 5 -0.002452 0.000529 -0.002325 0.000000 0.031458 0.000000
# 6 0.000000 0.000000 0.000000 0.000793 0.000000 0.023958
#
#
# Mechanical properties :
#
#
# Convention : Reuss Voigt Hill
#
# Bulk Modulus (GPa) = 51.63028 55.12381 53.37705
# Shear Modulus (GPa) = 33.72975 35.61027 34.67001
#
# Velocity S-wave (km/s) = 3.90012 4.00736 3.95410
# Velocity P-wave (km/s) = 6.60035 6.80226 6.70207
#
# Compressibility (1/GPa) = 0.01936848
#
# Stress axis : x y z
#
# Youngs Moduli (GPa) = 87.64968 90.18882 55.98337
#
# Poissons Ratio (x) = 0.19461 0.25432
# Poissons Ratio (y) = 0.18913 0.21245
# Poissons Ratio (z) = 0.39818 0.34225
#
# Static dielectric constant tensor:
#      x y z
#    x 4.147980 0.000000 0.061000 
#    y 0.000000 4.143750 0.000000 
#    z 0.061000 0.000000 3.837310 
# 
# 
# High freq. dielectric constant tensor:
#      x y z
#    x 1.884340 0.000000 0.004560 
#    y 0.000000 1.888900 0.000000 
#    z 0.004560 0.000000 1.868150 
# 
# From -- ./inp_files/2591.got.cif
#   From: 2010.03.12/outbox.cif.g09.slc.cpg/sg4_2_cif.got.tgz:2591.got - 2010.03.31 09:31:35.
