data_PCOD8047146
_publ_section_title
;
Structure prediction by ZEFSAII (Michael W. Deem and Ramdas Pophale) SiO2 
 PCOD8047146
Probable space group: P 21
;
_chemical_formula_sum "Si O2"
_cell_formula_units_Z 16
_cell_length_a 15.628736
_cell_length_b 8.706246
_cell_length_c 11.528183
_cell_angle_alpha 90.000000
_cell_angle_beta 28.304610
_cell_angle_gamma 90.000000
_cell_volume 743.771779
_symmetry_space_group_name_H-M "P 21"
_symmetry_group_IT_number 4
_symmetry_cell_setting 'monoclinic'
loop_
_space_group_symop_operation_xyz
x,y,z
-x,1/2+y,-z
loop_
_atom_site_type_symbol
_atom_site_label
_atom_site_fract_x
_atom_site_fract_y
_atom_site_fract_z
Si Si1 0.718715 0.217840 0.795558
Si Si2 0.156356 0.216867 0.567583
Si Si3 0.269274 0.042092 0.854696
Si Si4 0.376744 0.068872 0.118993
Si Si5 0.764613 0.217848 0.001877
Si Si6 0.129821 0.575600 0.606110
Si Si7 0.477460 0.707965 0.285715
Si Si8 0.590045 0.541183 0.563923
O O1 0.641954 0.388143 0.872562
O O2 0.809653 0.200398 0.811800
O O3 0.858390 0.173870 0.527097
O O4 0.550004 0.101427 0.993016
O O5 0.201613 0.136140 0.391700
O O6 0.168450 0.398395 0.533242
O O7 0.949591 0.173601 0.847982
O O8 0.290474 0.164192 0.508897
O O9 0.306956 0.000213 0.676963
O O10 0.414321 0.167172 0.726192
O O11 0.292645 0.892348 0.905671
O O12 0.066286 0.107695 0.106120
O O13 0.401310 0.154968 0.967338
O O14 0.604805 0.109456 0.235281
O O15 0.281476 0.627818 0.516868
O O16 0.439203 0.889182 0.325168
#
# Coordination Sequence:
#
# PCOD8047146 Si02
#       8
#     2   2   2   2   2   2   2   2
#     4  11  22  39  69 101 142 173 221 280 345 407
#     4  11  24  42  67 100 137 176 222 282 340 403
#     4  11  25  48  67  97 138 182 234 283 334 410
#     4  11  21  40  67 100 141 172 219 279 342 407
#     4  11  25  44  68 102 133 181 230 282 339 405
#     4  10  25  41  67 102 133 178 221 282 343 399
#     4  11  24  42  69 100 133 180 228 280 344 404
#     4  12  26  44  70  98 137 184 231 280 345 407
#
# _framework density 21.511976000000001
#
# number of rings (size 3 to 8) (size 9 to 14) (size 15 to 20)
#    0.000    1.000    2.500    4.500    3.500    5.000 
#    0.000    0.000    0.000    0.000    0.000    0.000 
#    0.000    0.000    0.000    0.000    0.000    0.000 
#
# Total GULP energy -198454.664611 kJ/mol
# GULP energy per Si atom -12403.416538 kJ/mol
# Density = 2.146301 g / cm^3
# Si number density = 21.511976 Si / 1000 Ang^3
#
#
#
# Elastic Constant Matrix: (Units=GPa)
#
#
# Indices 1 2 3 4 5 6 
#
# 1 81.9385 26.8454 43.1669 0.0000 5.0335 0.0000
# 2 26.8454 81.9845 48.8778 0.0000 -2.0506 0.0000
# 3 43.1669 48.8778 140.3764 0.0000 -7.5984 0.0000
# 4 0.0000 0.0000 0.0000 24.9673 0.0000 -2.6799
# 5 5.0335 -2.0506 -7.5984 0.0000 35.5116 0.0000
# 6 0.0000 0.0000 0.0000 -2.6799 0.0000 30.3392
#
#
#
# Elastic Compliance Matrix: (Units=1/GPa)
#
#
# Indices 1 2 3 4 5 6 
#
# 1 0.015382 -0.002768 -0.003938 0.000000 -0.003183 0.000000
# 2 -0.002768 0.015893 -0.004666 0.000000 0.000312 0.000000
# 3 -0.003938 -0.004666 0.010092 0.000000 0.002448 0.000000
# 4 0.000000 0.000000 0.000000 0.040436 0.000000 0.003572
# 5 -0.003183 0.000312 0.002448 0.000000 0.029153 0.000000
# 6 0.000000 0.000000 0.000000 0.003572 0.000000 0.033276
#
#
# Mechanical properties :
#
#
# Convention : Reuss Voigt Hill
#
# Bulk Modulus (GPa) = 53.69989 60.23108 56.96548
# Shear Modulus (GPa) = 28.87109 30.52422 29.69765
#
# Velocity S-wave (km/s) = 3.66743 3.77097 3.71956
# Velocity P-wave (km/s) = 6.55366 6.85711 6.70710
#
# Compressibility (1/GPa) = 0.01862201
#
# Stress axis : x y z
#
# Youngs Moduli (GPa) = 65.01290 62.91943 99.08954
#
# Poissons Ratio (x) = 0.17418 0.39025
# Poissons Ratio (y) = 0.17997 0.46233
# Poissons Ratio (z) = 0.25604 0.29357
#
# Static dielectric constant tensor:
#      x y z
#    x 3.818090 0.000000 -0.041660 
#    y 0.000000 3.892890 0.000000 
#    z -0.041660 0.000000 3.979900 
# 
# 
# High freq. dielectric constant tensor:
#      x y z
#    x 1.840310 0.000000 -0.003660 
#    y 0.000000 1.848250 0.000000 
#    z -0.003660 0.000000 1.850910 
# 
# From -- ./inp_files/12547.got.cif
#   From: 2010.03.12/outbox.cif.g09.slc.cpg/sg4_7_cif.got.tgz:12547.got - 2010.03.31 09:31:35.
