data_PCOD8047240
_publ_section_title
;
Structure prediction by ZEFSAII (Michael W. Deem and Ramdas Pophale) SiO2 
 PCOD8047240
Probable space group: P 21
;
_chemical_formula_sum "Si O2"
_cell_formula_units_Z 16
_cell_length_a 19.253136
_cell_length_b 6.426691
_cell_length_c 11.138165
_cell_angle_alpha 90.000000
_cell_angle_beta 146.897762
_cell_angle_gamma 90.000000
_cell_volume 752.666007
_symmetry_space_group_name_H-M "P 21"
_symmetry_group_IT_number 4
_symmetry_cell_setting 'monoclinic'
loop_
_space_group_symop_operation_xyz
x,y,z
-x,1/2+y,-z
loop_
_atom_site_type_symbol
_atom_site_label
_atom_site_fract_x
_atom_site_fract_y
_atom_site_fract_z
Si Si1 0.641412 0.017750 0.155164
Si Si2 0.139967 0.219688 0.075052
Si Si3 0.860606 0.691653 0.505757
Si Si4 0.115237 0.911286 0.251889
Si Si5 0.270369 0.613038 0.329948
Si Si6 0.257799 0.903767 0.843792
Si Si7 0.502411 0.672504 0.820678
Si Si8 0.852004 0.346089 0.064606
O O1 0.694051 0.228786 0.176780
O O2 0.565650 0.056266 0.167892
O O3 0.763942 0.880740 0.361095
O O4 0.545530 0.903447 0.923547
O O5 0.256510 0.362730 0.291692
O O6 0.099277 0.042879 0.108821
O O7 0.021631 0.373576 0.885907
O O8 0.166500 0.093919 0.990298
O O9 0.809896 0.547885 0.542343
O O10 0.851926 0.547238 0.375012
O O11 0.001238 0.778996 0.731472
O O12 0.183570 0.695280 0.315682
O O13 0.412519 0.678228 0.573141
O O14 0.235343 0.717321 0.153192
O O15 0.198596 0.799319 0.876003
O O16 0.376308 0.046582 0.049141
#
# Coordination Sequence:
#
# PCOD8047240 Si02
#       8
#     2   2   2   2   2   2   2   2
#     4  11  24  44  73  99 130 175 225 291 336 398
#     4  11  21  38  63  96 142 171 216 273 336 404
#     4  11  25  40  70 101 136 175 225 281 345 407
#     4  11  20  36  63 102 131 170 218 275 337 387
#     4  11  24  40  69  98 139 179 223 280 338 401
#     4  11  27  47  66  96 137 180 227 280 340 403
#     4  11  24  45  71 100 127 178 232 280 334 397
#     4  11  27  44  63 104 136 184 222 274 344 415
#
# _framework density 21.257767999999999
#
# number of rings (size 3 to 8) (size 9 to 14) (size 15 to 20)
#    0.000    1.000    3.750    2.250    7.000    4.000 
#    4.500    0.000    0.000    0.000    0.000    0.000 
#    0.000    0.000    0.000    0.000    0.000    0.000 
#
# Total GULP energy -198395.791787 kJ/mol
# GULP energy per Si atom -12399.736987 kJ/mol
# Density = 2.120938 g / cm^3
# Si number density = 21.257768 Si / 1000 Ang^3
#
#
#
# Elastic Constant Matrix: (Units=GPa)
#
#
# Indices 1 2 3 4 5 6 
#
# 1 69.7657 11.2836 17.6572 0.0000 -6.2832 0.0000
# 2 11.2836 98.7033 43.5435 0.0000 1.7745 0.0000
# 3 17.6572 43.5435 141.3120 0.0000 -5.1768 0.0000
# 4 0.0000 0.0000 0.0000 22.5480 0.0000 -5.9166
# 5 -6.2832 1.7745 -5.1768 0.0000 18.5182 0.0000
# 6 0.0000 0.0000 0.0000 -5.9166 0.0000 25.3224
#
#
#
# Elastic Compliance Matrix: (Units=1/GPa)
#
#
# Indices 1 2 3 4 5 6 
#
# 1 0.015322 -0.001245 -0.001350 0.000000 0.004940 0.000000
# 2 -0.001245 0.011912 -0.003609 0.000000 -0.002573 0.000000
# 3 -0.001350 -0.003609 0.008440 0.000000 0.002247 0.000000
# 4 0.000000 0.000000 0.000000 0.047247 0.000000 0.011039
# 5 0.004940 -0.002573 0.002247 0.000000 0.056552 0.000000
# 6 0.000000 0.000000 0.000000 0.011039 0.000000 0.042070
#
#
# Mechanical properties :
#
#
# Convention : Reuss Voigt Hill
#
# Bulk Modulus (GPa) = 42.98225 50.52775 46.75500
# Shear Modulus (GPa) = 24.78865 29.09751 26.94308
#
# Velocity S-wave (km/s) = 3.41852 3.70374 3.56398
# Velocity P-wave (km/s) = 5.98708 6.48929 6.24324
#
# Compressibility (1/GPa) = 0.02326542
#
# Stress axis : x y z
#
# Youngs Moduli (GPa) = 65.26729 83.94764 118.48778
#
# Poissons Ratio (x) = 0.10450 0.15995
# Poissons Ratio (y) = 0.08125 0.42766
# Poissons Ratio (z) = 0.08810 0.30299
#
# Static dielectric constant tensor:
#      x y z
#    x 3.571540 0.000000 -0.059480 
#    y 0.000000 4.081300 0.000000 
#    z -0.059480 0.000000 3.986360 
# 
# 
# High freq. dielectric constant tensor:
#      x y z
#    x 1.808100 0.000000 -0.008060 
#    y 0.000000 1.848170 0.000000 
#    z -0.008060 0.000000 1.841070 
# 
# From -- ./inp_files/11593.got.cif
#   From: 2010.03.12/outbox.cif.g09.slc.cpg/sg4_6_cif.got.tgz:11593.got - 2010.03.31 09:31:35.
