data_PCOD8047118
_publ_section_title
;
Structure prediction by ZEFSAII (Michael W. Deem and Ramdas Pophale) SiO2 
 PCOD8047118
Probable space group: P 21
;
_chemical_formula_sum "Si O2"
_cell_formula_units_Z 14
_cell_length_a 9.177745
_cell_length_b 8.650352
_cell_length_c 6.823748
_cell_angle_alpha 90.000000
_cell_angle_beta 88.849295
_cell_angle_gamma 90.000000
_cell_volume 541.633047
_symmetry_space_group_name_H-M "P 21"
_symmetry_group_IT_number 4
_symmetry_cell_setting 'monoclinic'
loop_
_space_group_symop_operation_xyz
x,y,z
-x,1/2+y,-z
loop_
_atom_site_type_symbol
_atom_site_label
_atom_site_fract_x
_atom_site_fract_y
_atom_site_fract_z
Si Si1 0.365470 0.390210 0.668058
Si Si2 0.586065 0.646936 0.634915
Si Si3 0.086494 0.951739 0.430766
Si Si4 0.987124 0.137906 0.777754
Si Si5 0.122616 0.617855 0.810301
Si Si6 0.699654 0.656513 0.051532
Si Si7 0.677811 0.377663 0.311182
O O1 0.507106 0.481696 0.578899
O O2 0.325335 0.241358 0.533403
O O3 0.226240 0.499224 0.691298
O O4 0.393953 0.308261 0.879095
O O5 0.445063 0.751544 0.679324
O O6 0.686784 0.631349 0.821336
O O7 0.262498 0.964534 0.484418
O O8 0.063338 0.779112 0.356277
O O9 0.999327 0.990757 0.634584
O O10 0.040099 0.075788 0.265089
O O11 0.134450 0.184318 0.886752
O O12 0.871016 0.098868 0.953224
O O13 0.171220 0.792053 0.757808
O O14 0.631573 0.504833 0.155334
#
# Coordination Sequence:
#
# PCOD8047118 Si02
#       7
#     2   2   2   2   2   2   2
#     4  11  25  47  71 109 143 197 252 299 376 431
#     4  11  25  47  72 101 151 194 248 310 358 439
#     4  11  23  46  69 109 149 189 244 302 374 450
#     4  11  26  43  73 103 145 193 242 305 379 438
#     4  11  25  45  68 110 149 191 249 304 374 442
#     4  11  24  44  72 104 142 189 253 301 370 434
#     4  10  24  46  69 110 145 197 248 301 373 436
#
# _framework density 25.847759
#
# number of rings (size 3 to 8) (size 9 to 14) (size 15 to 20)
#    0.000    1.143    2.857    1.714    4.000    5.714 
#    5.143    0.000    0.000    0.000    0.000    0.000 
#    0.000    0.000    0.000    0.000    0.000    0.000 
#
# Total GULP energy -173514.068519 kJ/mol
# GULP energy per Si atom -12393.862037 kJ/mol
# Density = 2.578893 g / cm^3
# Si number density = 25.847759 Si / 1000 Ang^3
#
#
#
# Elastic Constant Matrix: (Units=GPa)
#
#
# Indices 1 2 3 4 5 6 
#
# 1 87.9912 36.7584 31.1044 0.0000 8.7060 0.0000
# 2 36.7584 125.6661 47.2356 0.0000 1.5193 0.0000
# 3 31.1044 47.2356 155.4965 0.0000 14.3267 0.0000
# 4 0.0000 0.0000 0.0000 48.0223 0.0000 2.8157
# 5 8.7060 1.5193 14.3267 0.0000 34.5866 0.0000
# 6 0.0000 0.0000 0.0000 2.8157 0.0000 36.2469
#
#
#
# Elastic Compliance Matrix: (Units=1/GPa)
#
#
# Indices 1 2 3 4 5 6 
#
# 1 0.013553 -0.003393 -0.001435 0.000000 -0.002668 0.000000
# 2 -0.003393 0.009852 -0.002446 0.000000 0.001435 0.000000
# 3 -0.001435 -0.002446 0.007712 0.000000 -0.002726 0.000000
# 4 0.000000 0.000000 0.000000 0.020919 0.000000 -0.001625
# 5 -0.002668 0.001435 -0.002726 0.000000 0.030651 0.000000
# 6 0.000000 0.000000 0.000000 -0.001625 0.000000 0.027715
#
#
# Mechanical properties :
#
#
# Convention : Reuss Voigt Hill
#
# Bulk Modulus (GPa) = 60.34962 66.59451 63.47207
# Shear Modulus (GPa) = 38.32198 40.70820 39.51509
#
# Velocity S-wave (km/s) = 3.85464 3.97283 3.91418
# Velocity P-wave (km/s) = 6.57341 6.84577 6.71097
#
# Compressibility (1/GPa) = 0.01657011
#
# Stress axis : x y z
#
# Youngs Moduli (GPa) = 73.78269 101.49965 129.66361
#
# Poissons Ratio (x) = 0.34439 0.18601
# Poissons Ratio (y) = 0.25034 0.31720
# Poissons Ratio (z) = 0.10585 0.24830
#
# Static dielectric constant tensor:
#      x y z
#    x 4.812330 0.000000 -0.128790 
#    y 0.000000 5.112200 0.000000 
#    z -0.128790 0.000000 4.756990 
# 
# 
# High freq. dielectric constant tensor:
#      x y z
#    x 2.036960 0.000000 -0.011120 
#    y 0.000000 2.062300 0.000000 
#    z -0.011120 0.000000 2.038030 
# 
# From -- ./inp_files/2566.got.cif
#   From: 2010.03.12/outbox.cif.g09.slc.cpg/sg4_2_cif.got.tgz:2566.got - 2010.03.31 09:31:35.
