data_PCOD8047916
_publ_section_title
;
Structure prediction by ZEFSAII (Michael W. Deem and Ramdas Pophale) SiO2 
 PCOD8047916
Probable space group: P 21
;
_chemical_formula_sum "Si O2"
_cell_formula_units_Z 16
_cell_length_a 11.992660
_cell_length_b 11.537637
_cell_length_c 11.978962
_cell_angle_alpha 90.000000
_cell_angle_beta 156.595845
_cell_angle_gamma 90.000000
_cell_volume 658.379973
_symmetry_space_group_name_H-M "P 21"
_symmetry_group_IT_number 4
_symmetry_cell_setting 'monoclinic'
loop_
_space_group_symop_operation_xyz
x,y,z
-x,1/2+y,-z
loop_
_atom_site_type_symbol
_atom_site_label
_atom_site_fract_x
_atom_site_fract_y
_atom_site_fract_z
Si Si1 0.809834 0.084070 0.455739
Si Si2 0.208752 0.536273 0.948706
Si Si3 0.014297 0.776833 0.537204
Si Si4 0.274547 0.104951 0.071783
Si Si5 0.693534 0.694701 0.453731
Si Si6 0.571608 0.383171 0.640378
Si Si7 0.422028 0.422194 0.932862
Si Si8 0.841406 0.840856 0.922398
O O1 0.905915 0.151057 0.433294
O O2 0.552779 0.157950 0.270045
O O3 0.674432 0.966826 0.279753
O O4 0.048963 0.064520 0.769969
O O5 0.381417 0.517294 0.991659
O O6 0.896656 0.587016 0.662904
O O7 0.385572 0.640460 0.162239
O O8 0.163617 0.415095 0.969430
O O9 0.823207 0.764493 0.470154
O O10 0.810378 0.824659 0.252226
O O11 0.266721 0.868719 0.788981
O O12 0.170152 0.204632 0.058241
O O13 0.394557 0.997218 0.253337
O O14 0.639157 0.789125 0.499233
O O15 0.415589 0.401660 0.379416
O O16 0.884135 0.343477 0.901307
#
# Coordination Sequence:
#
# PCOD8047916 Si02
#       8
#     2   2   2   2   2   2   2   2
#     4  12  25  47  76 111 154 205 244 310 390 455
#     4  12  26  48  77 117 154 202 264 317 387 472
#     4  12  25  45  74 112 159 202 248 307 380 466
#     4  12  28  51  77 115 155 196 271 321 389 483
#     4  12  27  48  76 115 158 202 259 319 389 470
#     4  12  29  51  80 112 151 207 258 334 401 450
#     4  12  26  44  77 110 160 202 250 306 380 465
#     4  12  28  50  83 110 149 208 262 334 392 455
#
# _framework density 24.302074999999999
#
# number of rings (size 3 to 8) (size 9 to 14) (size 15 to 20)
#    0.000    0.000    1.250    8.250    7.000    2.000 
#    0.000    0.000    0.000    0.000    0.000    0.000 
#    0.000    0.000    0.000    0.000    0.000    0.000 
#
# Total GULP energy -198237.046927 kJ/mol
# GULP energy per Si atom -12389.815433 kJ/mol
# Density = 2.424676 g / cm^3
# Si number density = 24.302075 Si / 1000 Ang^3
#
#
#
# Elastic Constant Matrix: (Units=GPa)
#
#
# Indices 1 2 3 4 5 6 
#
# 1 88.2433 43.2632 24.3304 0.0000 3.4707 0.0000
# 2 43.2632 89.7253 20.5653 0.0000 -1.6913 0.0000
# 3 24.3304 20.5653 99.8945 0.0000 -1.9238 0.0000
# 4 0.0000 0.0000 0.0000 44.9370 0.0000 7.0384
# 5 3.4707 -1.6913 -1.9238 0.0000 43.9008 0.0000
# 6 0.0000 0.0000 0.0000 7.0384 0.0000 31.5461
#
#
#
# Elastic Compliance Matrix: (Units=1/GPa)
#
#
# Indices 1 2 3 4 5 6 
#
# 1 0.015448 -0.006936 -0.002365 0.000000 -0.001592 0.000000
# 2 -0.006936 0.014817 -0.001340 0.000000 0.001060 0.000000
# 3 -0.002365 -0.001340 0.010874 0.000000 0.000612 0.000000
# 4 0.000000 0.000000 0.000000 0.023059 0.000000 -0.005145
# 5 -0.001592 0.001060 0.000612 0.000000 0.022972 0.000000
# 6 0.000000 0.000000 0.000000 -0.005145 0.000000 0.032848
#
#
# Mechanical properties :
#
#
# Convention : Reuss Voigt Hill
#
# Bulk Modulus (GPa) = 50.36530 50.46457 50.41493
# Shear Modulus (GPa) = 33.80195 36.72372 35.26283
#
# Velocity S-wave (km/s) = 3.73353 3.89155 3.81336
# Velocity P-wave (km/s) = 6.27339 6.40335 6.33870
#
# Compressibility (1/GPa) = 0.01985494
#
# Stress axis : x y z
#
# Youngs Moduli (GPa) = 64.73422 67.49039 91.95936
#
# Poissons Ratio (x) = 0.46814 0.21750
# Poissons Ratio (y) = 0.44902 0.12327
# Poissons Ratio (z) = 0.15311 0.09047
#
# Static dielectric constant tensor:
#      x y z
#    x 4.365430 0.000000 0.063330 
#    y 0.000000 4.341020 0.000000 
#    z 0.063330 0.000000 4.669490 
# 
# 
# High freq. dielectric constant tensor:
#      x y z
#    x 1.975460 0.000000 0.009800 
#    y 0.000000 1.976790 0.000000 
#    z 0.009800 0.000000 1.982920 
# 
# From -- ./inp_files/12249.got.cif
#   From: 2010.03.12/outbox.cif.g09.slc.cpg/sg4_7_cif.got.tgz:12249.got - 2010.03.31 09:31:35.
