data_PCOD8047589
_publ_section_title
;
Structure prediction by ZEFSAII (Michael W. Deem and Ramdas Pophale) SiO2 
 PCOD8047589
Probable space group: P 21
;
_chemical_formula_sum "Si O2"
_cell_formula_units_Z 16
_cell_length_a 8.242271
_cell_length_b 4.964052
_cell_length_c 13.424719
_cell_angle_alpha 90.000000
_cell_angle_beta 87.892619
_cell_angle_gamma 90.000000
_cell_volume 548.901715
_symmetry_space_group_name_H-M "P 21"
_symmetry_group_IT_number 4
_symmetry_cell_setting 'monoclinic'
loop_
_space_group_symop_operation_xyz
x,y,z
-x,1/2+y,-z
loop_
_atom_site_type_symbol
_atom_site_label
_atom_site_fract_x
_atom_site_fract_y
_atom_site_fract_z
Si Si1 0.830664 0.560960 0.451671
Si Si2 0.109470 0.309134 0.350482
Si Si3 0.562289 0.154657 0.440793
Si Si4 0.570613 0.804064 0.761602
Si Si5 0.128095 0.394578 0.727678
Si Si6 0.578052 0.825349 0.145708
Si Si7 0.918616 0.115510 0.882157
Si Si8 0.217468 0.119334 0.026524
O O1 0.804528 0.619370 0.568690
O O2 0.743153 0.275266 0.436627
O O3 0.773483 0.790229 0.372825
O O4 0.023067 0.539621 0.419965
O O5 0.248717 0.404778 0.271398
O O6 0.969179 0.166593 0.289386
O O7 0.444926 0.362253 0.505410
O O8 0.508451 0.139100 0.327757
O O9 0.554252 0.576315 0.851591
O O10 0.475459 0.075276 0.786070
O O11 0.256898 0.454789 0.812119
O O12 0.992569 0.174288 0.769955
O O13 0.617830 0.709628 0.034810
O O14 0.068564 0.117427 0.953325
O O15 0.779337 0.327908 0.920460
O O16 0.819749 0.835328 0.885246
#
# Coordination Sequence:
#
# PCOD8047589 Si02
#       8
#     2   2   2   2   2   2   2   2
#     4  12  26  42  65  91 134 182 232 274 334 396
#     4  12  28  42  65  94 140 185 229 282 335 400
#     4  12  26  43  68  95 132 176 232 287 334 391
#     4  12  26  43  67  99 134 181 227 280 336 400
#     4  11  25  42  67 100 133 181 227 282 337 412
#     4  11  24  44  72 102 135 171 229 285 343 408
#     4   9  19  35  64  99 133 162 213 275 342 401
#     4   9  18  37  64 100 131 162 207 283 347 392
#
# _framework density 29.149118999999999
#
# number of rings (size 3 to 8) (size 9 to 14) (size 15 to 20)
#    0.000    1.000    3.750    2.250    7.000    2.000 
#    0.000    0.000    0.000    3.000    0.000    0.000 
#    0.000    0.000    0.000    0.000    0.000    0.000 
#
# Total GULP energy -198430.788538 kJ/mol
# GULP energy per Si atom -12401.924284 kJ/mol
# Density = 2.908277 g / cm^3
# Si number density = 29.149119 Si / 1000 Ang^3
#
#
#
# Elastic Constant Matrix: (Units=GPa)
#
#
# Indices 1 2 3 4 5 6 
#
# 1 59.2159 -17.9413 21.4270 0.0000 -26.9201 0.0000
# 2 -17.9413 70.1545 5.1991 0.0000 -4.2998 0.0000
# 3 21.4270 5.1991 144.2325 0.0000 -28.3109 0.0000
# 4 0.0000 0.0000 0.0000 44.5876 0.0000 -14.4816
# 5 -26.9201 -4.2998 -28.3109 0.0000 47.5255 0.0000
# 6 0.0000 0.0000 0.0000 -14.4816 0.0000 50.2972
#
#
#
# Elastic Compliance Matrix: (Units=1/GPa)
#
#
# Indices 1 2 3 4 5 6 
#
# 1 0.026513 0.007792 -0.001284 0.000000 0.014958 0.000000
# 2 0.007792 0.016635 -0.000674 0.000000 0.005517 0.000000
# 3 -0.001284 -0.000674 0.007920 0.000000 0.003930 0.000000
# 4 0.000000 0.000000 0.000000 0.024741 0.000000 0.007124
# 5 0.014958 0.005517 0.003930 0.000000 0.032354 0.000000
# 6 0.000000 0.000000 0.000000 0.007124 0.000000 0.021933
#
#
# Mechanical properties :
#
#
# Convention : Reuss Voigt Hill
#
# Bulk Modulus (GPa) = 15.93965 32.33028 24.13497
# Shear Modulus (GPa) = 35.88363 46.14327 41.01345
#
# Velocity S-wave (km/s) = 3.51242 3.98302 3.75510
# Velocity P-wave (km/s) = 4.68291 5.68049 5.20565
#
# Compressibility (1/GPa) = 0.06273662
#
# Stress axis : x y z
#
# Youngs Moduli (GPa) = 37.71754 60.11352 126.26955
#
# Poissons Ratio (x) = -0.46842 0.16207
# Poissons Ratio (y) = -0.29391 0.08515
# Poissons Ratio (z) = 0.04841 0.04054
#
# Static dielectric constant tensor:
#      x y z
#    x 5.496600 0.000000 -0.268490 
#    y 0.000000 5.102460 0.000000 
#    z -0.268490 0.000000 5.863620 
# 
# 
# High freq. dielectric constant tensor:
#      x y z
#    x 2.205280 0.000000 -0.005790 
#    y 0.000000 2.179470 0.000000 
#    z -0.005790 0.000000 2.216540 
# 
# From -- ./inp_files/8859.got.cif
#   From: 2010.03.12/outbox.cif.g09.slc.cpg/sg4_5_cif.got.tgz:8859.got - 2010.03.31 09:31:35.
