data_PCOD8047964
_publ_section_title
;
Structure prediction by ZEFSAII (Michael W. Deem and Ramdas Pophale) SiO2 
 PCOD8047964
Probable space group: P 21
;
_chemical_formula_sum "Si O2"
_cell_formula_units_Z 10
_cell_length_a 15.916659
_cell_length_b 5.037478
_cell_length_c 11.054200
_cell_angle_alpha 90.000000
_cell_angle_beta 23.856288
_cell_angle_gamma 90.000000
_cell_volume 358.468299
_symmetry_space_group_name_H-M "P 21"
_symmetry_group_IT_number 4
_symmetry_cell_setting 'monoclinic'
loop_
_space_group_symop_operation_xyz
x,y,z
-x,1/2+y,-z
loop_
_atom_site_type_symbol
_atom_site_label
_atom_site_fract_x
_atom_site_fract_y
_atom_site_fract_z
Si Si1 0.878469 0.471310 0.637704
Si Si2 0.772583 0.153324 0.156647
Si Si3 0.796597 0.445997 0.353586
Si Si4 0.386451 0.693876 0.193603
Si Si5 0.525286 0.369576 0.274553
O O1 0.823071 0.322577 0.586070
O O2 0.976405 0.759578 0.483011
O O3 0.657309 0.526161 0.997400
O O4 0.831256 0.407427 0.163690
O O5 0.704513 0.200621 0.108709
O O6 0.572677 0.038505 0.489192
O O7 0.977715 0.973239 0.882772
O O8 0.675805 0.197244 0.579442
O O9 0.644969 0.695437 0.572073
O O10 0.573778 0.900003 0.912229
#
# Coordination Sequence:
#
# PCOD8047964 Si02
#       5
#     2   2   2   2   2
#     4  12  28  49  76 110 149 197 252 307 374 443
#     4  12  26  45  76 107 143 197 242 303 378 436
#     4  12  26  46  74 108 147 191 251 303 369 450
#     4  12  26  48  76 106 148 198 243 308 374 434
#     4  12  26  48  74 105 153 189 244 313 367 441
#
# _framework density 27.896470999999998
#
# number of rings (size 3 to 8) (size 9 to 14) (size 15 to 20)
#    0.000    0.000    6.000    3.600    2.800    3.200 
#    0.000    0.000    0.000    0.000    0.000    0.000 
#    0.000    0.000    0.000    0.000    0.000    0.000 
#
# Total GULP energy -123953.585984 kJ/mol
# GULP energy per Si atom -12395.358598 kJ/mol
# Density = 2.783298 g / cm^3
# Si number density = 27.896471 Si / 1000 Ang^3
#
#
#
# Elastic Constant Matrix: (Units=GPa)
#
#
# Indices 1 2 3 4 5 6 
#
# 1 56.6103 -30.1040 9.2603 0.0000 2.5513 0.0000
# 2 -30.1040 59.4315 24.5398 0.0000 -2.2993 0.0000
# 3 9.2603 24.5398 150.7587 0.0000 1.2374 0.0000
# 4 0.0000 0.0000 0.0000 43.1373 0.0000 2.8333
# 5 2.5513 -2.2993 1.2374 0.0000 60.1356 0.0000
# 6 0.0000 0.0000 0.0000 2.8333 0.0000 29.8700
#
#
#
# Elastic Compliance Matrix: (Units=1/GPa)
#
#
# Indices 1 2 3 4 5 6 
#
# 1 0.026317 0.014986 -0.004052 0.000000 -0.000460 0.000000
# 2 0.014986 0.026606 -0.005255 0.000000 0.000490 0.000000
# 3 -0.004052 -0.005255 0.007739 0.000000 -0.000188 0.000000
# 4 0.000000 0.000000 0.000000 0.023327 0.000000 -0.002213
# 5 -0.000460 0.000490 -0.000188 0.000000 0.016671 0.000000
# 6 0.000000 0.000000 0.000000 -0.002213 0.000000 0.033688
#
#
# Mechanical properties :
#
#
# Convention : Reuss Voigt Hill
#
# Bulk Modulus (GPa) = 13.88512 30.46584 22.17548
# Shear Modulus (GPa) = 34.01399 44.16887 39.09143
#
# Velocity S-wave (km/s) = 3.49563 3.98340 3.74746
# Velocity P-wave (km/s) = 4.61310 5.66581 5.16634
#
# Compressibility (1/GPa) = 0.07201953
#
# Stress axis : x y z
#
# Youngs Moduli (GPa) = 37.99764 37.58559 129.21574
#
# Poissons Ratio (x) = -0.56326 0.52360
# Poissons Ratio (y) = -0.56943 0.67907
# Poissons Ratio (z) = 0.15397 0.19752
#
# Static dielectric constant tensor:
#      x y z
#    x 5.729590 0.000000 -0.105320 
#    y 0.000000 4.789380 0.000000 
#    z -0.105320 0.000000 5.079120 
# 
# 
# High freq. dielectric constant tensor:
#      x y z
#    x 2.147120 0.000000 -0.011970 
#    y 0.000000 2.111010 0.000000 
#    z -0.011970 0.000000 2.145670 
# 
# From -- ./inp_files/882.got.cif
#   From: 2010.03.12/outbox.cif.g09.slc.cpg/sg4_1_cif.got.tgz:882.got - 2010.03.31 09:31:35.
