data_PCOD8047907
_publ_section_title
;
Structure prediction by ZEFSAII (Michael W. Deem and Ramdas Pophale) SiO2 
 PCOD8047907
Probable space group: P 21
;
_chemical_formula_sum "Si O2"
_cell_formula_units_Z 12
_cell_length_a 13.607568
_cell_length_b 7.829055
_cell_length_c 14.512955
_cell_angle_alpha 90.000000
_cell_angle_beta 160.021041
_cell_angle_gamma 90.000000
_cell_volume 528.273652
_symmetry_space_group_name_H-M "P 21"
_symmetry_group_IT_number 4
_symmetry_cell_setting 'monoclinic'
loop_
_space_group_symop_operation_xyz
x,y,z
-x,1/2+y,-z
loop_
_atom_site_type_symbol
_atom_site_label
_atom_site_fract_x
_atom_site_fract_y
_atom_site_fract_z
Si Si1 0.973235 0.669850 0.575042
Si Si2 0.144594 0.871518 0.221512
Si Si3 0.804858 0.279938 0.419988
Si Si4 0.813625 0.666848 0.083785
Si Si5 0.359467 0.603563 0.270185
Si Si6 0.630137 0.285821 0.914646
O O1 0.898126 0.473178 0.508059
O O2 0.171786 0.712523 0.663137
O O3 0.146543 0.699273 0.820504
O O4 0.687295 0.786738 0.320054
O O5 0.332647 0.759417 0.317459
O O6 0.003013 0.746124 0.170310
O O7 0.345405 0.005816 0.450522
O O8 0.906365 0.973797 0.953424
O O9 0.004058 0.163316 0.661181
O O10 0.473653 0.276992 0.157839
O O11 0.728289 0.476829 0.979106
O O12 0.375654 0.675207 0.182137
#
# Coordination Sequence:
#
# PCOD8047907 Si02
#       6
#     2   2   2   2   2   2
#     4  12  25  44  68  99 137 180 226 276 331 394
#     4  12  26  46  71 101 135 176 222 276 336 400
#     4  12  25  44  68  99 137 180 226 276 331 394
#     4  12  25  44  69 100 136 178 224 276 333 396
#     4  12  26  46  71 101 135 176 222 276 336 400
#     4  12  25  44  69 100 136 178 224 276 333 396
#
# _framework density 22.715499999999999
#
# number of rings (size 3 to 8) (size 9 to 14) (size 15 to 20)
#    0.000    0.000    0.000   12.000    0.000    2.667 
#    0.000    0.000    0.000    0.000    0.000    0.000 
#    0.000    0.000    0.000    0.000    0.000    0.000 
#
# Total GULP energy -148940.757806 kJ/mol
# GULP energy per Si atom -12411.729817 kJ/mol
# Density = 2.266380 g / cm^3
# Si number density = 22.715500 Si / 1000 Ang^3
#
#
#
# Elastic Constant Matrix: (Units=GPa)
#
#
# Indices 1 2 3 4 5 6 
#
# 1 63.0752 12.1460 13.6256 0.0000 -9.6408 0.0000
# 2 12.1460 75.6019 -0.4653 0.0000 -2.2920 0.0000
# 3 13.6256 -0.4653 96.4925 0.0000 4.4465 0.0000
# 4 0.0000 0.0000 0.0000 34.5551 0.0000 17.3878
# 5 -9.6408 -2.2920 4.4465 0.0000 36.1894 0.0000
# 6 0.0000 0.0000 0.0000 17.3878 0.0000 26.3319
#
#
#
# Elastic Compliance Matrix: (Units=1/GPa)
#
#
# Indices 1 2 3 4 5 6 
#
# 1 0.017715 -0.002715 -0.002740 0.000000 0.004884 0.000000
# 2 -0.002715 0.013669 0.000445 0.000000 0.000088 0.000000
# 3 -0.002740 0.000445 0.010846 0.000000 -0.002034 0.000000
# 4 0.000000 0.000000 0.000000 0.043340 0.000000 -0.028619
# 5 0.004884 0.000088 -0.002034 0.000000 0.029189 0.000000
# 6 0.000000 0.000000 0.000000 -0.028619 0.000000 0.056875
#
#
# Mechanical properties :
#
#
# Convention : Reuss Voigt Hill
#
# Bulk Modulus (GPa) = 31.04478 31.75359 31.39918
# Shear Modulus (GPa) = 25.98892 33.40618 29.69755
#
# Velocity S-wave (km/s) = 3.38613 3.83904 3.61968
# Velocity P-wave (km/s) = 5.38371 5.80174 5.59663
#
# Compressibility (1/GPa) = 0.03221153
#
# Stress axis : x y z
#
# Youngs Moduli (GPa) = 56.44864 73.15962 92.19768
#
# Poissons Ratio (x) = 0.19862 0.25259
# Poissons Ratio (y) = 0.15325 -0.04105
# Poissons Ratio (z) = 0.15465 -0.03257
#
# Static dielectric constant tensor:
#      x y z
#    x 4.491840 0.000000 -0.142870 
#    y 0.000000 4.222910 0.000000 
#    z -0.142870 0.000000 4.459580 
# 
# 
# High freq. dielectric constant tensor:
#      x y z
#    x 1.906960 0.000000 0.001090 
#    y 0.000000 1.915640 0.000000 
#    z 0.001090 0.000000 1.913730 
# 
# From -- ./inp_files/12162.got.cif
#   From: 2010.03.12/outbox.cif.g09.slc.cpg/sg4_7_cif.got.tgz:12162.got - 2010.03.31 09:31:35.
