data_PCOD8047012
_publ_section_title
;
Structure prediction by ZEFSAII (Michael W. Deem and Ramdas Pophale) SiO2 
 PCOD8047012
Probable space group: P 21
;
_chemical_formula_sum "Si O2"
_cell_formula_units_Z 12
_cell_length_a 7.639472
_cell_length_b 5.274063
_cell_length_c 15.969460
_cell_angle_alpha 90.000000
_cell_angle_beta 130.371426
_cell_angle_gamma 90.000000
_cell_volume 490.201775
_symmetry_space_group_name_H-M "P 21"
_symmetry_group_IT_number 4
_symmetry_cell_setting 'monoclinic'
loop_
_space_group_symop_operation_xyz
x,y,z
-x,1/2+y,-z
loop_
_atom_site_type_symbol
_atom_site_label
_atom_site_fract_x
_atom_site_fract_y
_atom_site_fract_z
Si Si1 0.523843 0.951010 0.720059
Si Si2 0.950473 0.663814 0.434539
Si Si3 0.032756 0.751464 0.146033
Si Si4 0.597823 0.254322 0.490708
Si Si5 0.429315 0.296443 0.928882
Si Si6 0.279128 0.077255 0.101077
O O1 0.452040 0.755215 0.624659
O O2 0.571761 0.818958 0.824675
O O3 0.315548 0.144741 0.675707
O O4 0.752398 0.087963 0.755587
O O5 0.032568 0.394453 0.496056
O O6 0.127246 0.714274 0.412259
O O7 0.850514 0.798720 0.164408
O O8 0.137148 0.008924 0.140514
O O9 0.897588 0.617097 0.028447
O O10 0.543603 0.529517 0.511420
O O11 0.545999 0.354305 0.875171
O O12 0.488418 0.524328 0.012020
#
# Coordination Sequence:
#
# PCOD8047012 Si02
#       6
#     2   2   2   2   2   2
#     4  11  26  45  75 104 144 202 239 297 379 436
#     4  10  23  47  74 100 136 183 242 303 365 435
#     4  11  23  44  72 106 154 198 243 295 355 444
#     4  11  25  50  75 105 142 183 246 322 368 427
#     4  10  24  44  70 100 148 200 246 295 348 413
#     4  11  23  44  72 105 154 200 242 294 359 437
#
# _framework density 24.479717999999998
#
# number of rings (size 3 to 8) (size 9 to 14) (size 15 to 20)
#    0.000    1.333    1.667    3.000   11.667    0.000 
#    6.000    0.000    0.000    0.000    0.000    0.000 
#    0.000    0.000    0.000    0.000    0.000    0.000 
#
# Total GULP energy -148725.247836 kJ/mol
# GULP energy per Si atom -12393.770653 kJ/mol
# Density = 2.442400 g / cm^3
# Si number density = 24.479718 Si / 1000 Ang^3
#
#
#
# Elastic Constant Matrix: (Units=GPa)
#
#
# Indices 1 2 3 4 5 6 
#
# 1 122.5834 6.7107 39.7756 0.0000 51.5593 0.0000
# 2 6.7107 85.4470 33.8084 0.0000 16.6456 0.0000
# 3 39.7756 33.8084 92.5499 0.0000 37.4124 0.0000
# 4 0.0000 0.0000 0.0000 32.7364 0.0000 3.5789
# 5 51.5593 16.6456 37.4124 0.0000 37.5153 0.0000
# 6 0.0000 0.0000 0.0000 3.5789 0.0000 47.5552
#
#
#
# Elastic Compliance Matrix: (Units=1/GPa)
#
#
# Indices 1 2 3 4 5 6 
#
# 1 0.021229 0.003662 0.003334 0.000000 -0.034125 0.000000
# 2 0.003662 0.014387 -0.003710 0.000000 -0.007716 0.000000
# 3 0.003334 -0.003710 0.019961 0.000000 -0.022842 0.000000
# 4 0.000000 0.000000 0.000000 0.030800 0.000000 -0.002318
# 5 -0.034125 -0.007716 -0.022842 0.000000 0.099758 0.000000
# 6 0.000000 0.000000 0.000000 -0.002318 0.000000 0.021203
#
#
# Mechanical properties :
#
#
# Convention : Reuss Voigt Hill
#
# Bulk Modulus (GPa) = 16.09103 51.24107 33.66605
# Shear Modulus (GPa) = 22.57510 38.24706 30.41108
#
# Velocity S-wave (km/s) = 3.04006 3.95701 3.52845
# Velocity P-wave (km/s) = 4.34858 6.46952 5.51202
#
# Compressibility (1/GPa) = 0.06214643
#
# Stress axis : x y z
#
# Youngs Moduli (GPa) = 47.10605 69.50915 50.09731
#
# Poissons Ratio (x) = -0.25451 -0.16700
# Poissons Ratio (y) = -0.17248 0.18586
# Poissons Ratio (z) = -0.15703 0.25788
#
# Static dielectric constant tensor:
#      x y z
#    x 5.016020 0.000000 0.490220 
#    y 0.000000 4.353470 0.000000 
#    z 0.490220 0.000000 4.260160 
# 
# 
# High freq. dielectric constant tensor:
#      x y z
#    x 1.988190 0.000000 0.027020 
#    y 0.000000 1.977800 0.000000 
#    z 0.027020 0.000000 1.956600 
# 
# From -- ./inp_files/14857.got.cif
#   From: 2010.03.12/outbox.cif.g09.slc.cpg/sg4_8_cif.got.tgz:14857.got - 2010.03.31 09:31:35.
