data_PCOD8047753
_publ_section_title
;
Structure prediction by ZEFSAII (Michael W. Deem and Ramdas Pophale) SiO2 
 PCOD8047753
Probable space group: P 21
;
_chemical_formula_sum "Si O2"
_cell_formula_units_Z 14
_cell_length_a 7.621834
_cell_length_b 14.745092
_cell_length_c 5.007244
_cell_angle_alpha 90.000000
_cell_angle_beta 67.022877
_cell_angle_gamma 90.000000
_cell_volume 518.090197
_symmetry_space_group_name_H-M "P 21"
_symmetry_group_IT_number 4
_symmetry_cell_setting 'monoclinic'
loop_
_space_group_symop_operation_xyz
x,y,z
-x,1/2+y,-z
loop_
_atom_site_type_symbol
_atom_site_label
_atom_site_fract_x
_atom_site_fract_y
_atom_site_fract_z
Si Si1 0.352456 0.938060 0.633914
Si Si2 0.259629 0.285654 0.445767
Si Si3 0.511198 0.302666 0.820802
Si Si4 0.935690 0.418467 0.775982
Si Si5 0.859061 0.590839 0.448388
Si Si6 0.729373 0.125401 0.795424
Si Si7 0.277573 0.517766 0.721524
O O1 0.325348 0.876330 0.377074
O O2 0.283029 0.043734 0.682574
O O3 0.583598 0.943083 0.502939
O O4 0.251965 0.886658 0.942379
O O5 0.373941 0.276983 0.656242
O O6 0.051009 0.333380 0.582451
O O7 0.233221 0.180314 0.363271
O O8 0.382447 0.337596 0.144103
O O9 0.628685 0.220295 0.871708
O O10 0.084345 0.463298 0.902467
O O11 0.892547 0.501969 0.607930
O O12 0.057211 0.626622 0.202423
O O13 0.749204 0.097542 0.476464
O O14 0.624482 0.055303 0.063106
#
# Coordination Sequence:
#
# PCOD8047753 Si02
#       7
#     2   2   2   2   2   2   2
#     4  12  27  48  81 117 154 216 257 333 400 476
#     4  12  30  53  79 118 166 211 272 335 406 479
#     4  12  29  48  81 115 161 210 264 334 403 485
#     4  11  28  51  80 119 159 213 272 335 399 484
#     4  11  28  47  83 113 163 208 273 331 403 475
#     4  11  25  49  74 115 150 209 258 329 385 484
#     4  11  25  48  78 107 163 197 264 315 402 467
#
# _framework density 27.022321000000002
#
# number of rings (size 3 to 8) (size 9 to 14) (size 15 to 20)
#    0.000    0.571    2.857    2.571   16.000    1.143 
#    0.000    0.000    0.000    0.000    0.000    0.000 
#    0.000    0.000    0.000    0.000    0.000    0.000 
#
# Total GULP energy -173457.660641 kJ/mol
# GULP energy per Si atom -12389.832903 kJ/mol
# Density = 2.696082 g / cm^3
# Si number density = 27.022321 Si / 1000 Ang^3
#
#
#
# Elastic Constant Matrix: (Units=GPa)
#
#
# Indices 1 2 3 4 5 6 
#
# 1 38.7382 11.4193 14.4113 0.0000 -13.6193 0.0000
# 2 11.4193 143.9696 30.4939 0.0000 -7.9752 0.0000
# 3 14.4113 30.4939 161.4810 0.0000 -17.3604 0.0000
# 4 0.0000 0.0000 0.0000 42.6733 0.0000 -2.9520
# 5 -13.6193 -7.9752 -17.3604 0.0000 50.3972 0.0000
# 6 0.0000 0.0000 0.0000 -2.9520 0.0000 38.0978
#
#
#
# Elastic Compliance Matrix: (Units=1/GPa)
#
#
# Indices 1 2 3 4 5 6 
#
# 1 0.029378 -0.001606 -0.001550 0.000000 0.007151 0.000000
# 2 -0.001606 0.007347 -0.001211 0.000000 0.000312 0.000000
# 3 -0.001550 -0.001211 0.006744 0.000000 0.001713 0.000000
# 4 0.000000 0.000000 0.000000 0.023560 0.000000 0.001826
# 5 0.007151 0.000312 0.001713 0.000000 0.022414 0.000000
# 6 0.000000 0.000000 0.000000 0.001826 0.000000 0.026390
#
#
# Mechanical properties :
#
#
# Convention : Reuss Voigt Hill
#
# Bulk Modulus (GPa) = 28.78800 50.75974 39.77387
# Shear Modulus (GPa) = 36.72570 45.42461 41.07516
#
# Velocity S-wave (km/s) = 3.69058 4.10445 3.90301
# Velocity P-wave (km/s) = 5.37001 6.42551 5.92133
#
# Compressibility (1/GPa) = 0.03473670
#
# Stress axis : x y z
#
# Youngs Moduli (GPa) = 34.03858 136.11084 148.28628
#
# Poissons Ratio (x) = 0.21857 0.22981
# Poissons Ratio (y) = 0.05466 0.17951
# Poissons Ratio (z) = 0.05275 0.16477
#
# Static dielectric constant tensor:
#      x y z
#    x 5.527050 0.000000 -0.442730 
#    y 0.000000 5.166960 0.000000 
#    z -0.442730 0.000000 4.897340 
# 
# 
# High freq. dielectric constant tensor:
#      x y z
#    x 2.100450 0.000000 -0.015540 
#    y 0.000000 2.097740 0.000000 
#    z -0.015540 0.000000 2.085820 
# 
# From -- ./inp_files/1906.got.cif
#   From: 2010.03.12/outbox.cif.g09.slc.cpg/sg4_1_cif.got.tgz:1906.got - 2010.03.31 09:31:35.
