data_PCOD8047198
_publ_section_title
;
Structure prediction by ZEFSAII (Michael W. Deem and Ramdas Pophale) SiO2 
 PCOD8047198
Probable space group: P 21
;
_chemical_formula_sum "Si O2"
_cell_formula_units_Z 16
_cell_length_a 21.977280
_cell_length_b 6.460854
_cell_length_c 13.385621
_cell_angle_alpha 90.000000
_cell_angle_beta 158.228820
_cell_angle_gamma 90.000000
_cell_volume 704.952917
_symmetry_space_group_name_H-M "P 21"
_symmetry_group_IT_number 4
_symmetry_cell_setting 'monoclinic'
loop_
_space_group_symop_operation_xyz
x,y,z
-x,1/2+y,-z
loop_
_atom_site_type_symbol
_atom_site_label
_atom_site_fract_x
_atom_site_fract_y
_atom_site_fract_z
Si Si1 0.468193 0.732610 0.361547
Si Si2 0.105616 0.820112 0.783594
Si Si3 0.859187 0.470911 0.378882
Si Si4 0.827874 0.902741 0.646085
Si Si5 0.502123 0.021122 0.233395
Si Si6 0.614877 0.318265 0.549361
Si Si7 0.988608 0.178398 0.732419
Si Si8 0.066673 0.557772 0.981023
O O1 0.598425 0.565393 0.519401
O O2 0.496495 0.760783 0.523120
O O3 0.509437 0.932181 0.358245
O O4 0.274530 0.688612 0.044269
O O5 0.073336 0.928924 0.628540
O O6 0.956183 0.662702 0.576733
O O7 0.111465 0.002437 0.876190
O O8 0.880082 0.265562 0.476156
O O9 0.667376 0.522078 0.082887
O O10 0.890904 0.675813 0.707608
O O11 0.631625 0.903320 0.360530
O O12 0.864654 0.078573 0.621585
O O13 0.915873 0.965023 0.882817
O O14 0.548803 0.253286 0.338135
O O15 0.800164 0.234211 0.844450
O O16 0.085120 0.369547 0.930756
#
# Coordination Sequence:
#
# PCOD8047198 Si02
#       8
#     2   2   2   2   2   2   2   2
#     4  11  23  40  66 104 139 180 225 289 361 424
#     4  11  25  44  74 103 140 186 241 294 350 438
#     4  11  24  46  69 103 140 188 236 295 354 426
#     4  11  24  46  69 103 140 188 236 295 354 426
#     4  10  26  42  66 104 142 180 234 300 348 410
#     4  11  23  40  66 104 139 180 225 289 361 424
#     4  12  24  46  74 102 138 194 238 292 362 418
#     4  11  25  44  74 103 140 186 241 294 350 438
#
# _framework density 22.696552000000001
#
# number of rings (size 3 to 8) (size 9 to 14) (size 15 to 20)
#    0.000    1.000    3.750    2.250    3.500    4.000 
#    6.750    0.000    0.000    0.000    0.000    0.000 
#    0.000    0.000    0.000    0.000    0.000    0.000 
#
# Total GULP energy -198351.027215 kJ/mol
# GULP energy per Si atom -12396.939201 kJ/mol
# Density = 2.264489 g / cm^3
# Si number density = 22.696552 Si / 1000 Ang^3
#
#
#
# Elastic Constant Matrix: (Units=GPa)
#
#
# Indices 1 2 3 4 5 6 
#
# 1 102.2941 32.1733 20.9358 0.0000 1.1657 0.0000
# 2 32.1733 94.6931 31.3668 0.0000 0.4893 0.0000
# 3 20.9358 31.3668 77.5701 0.0000 12.9844 0.0000
# 4 0.0000 0.0000 0.0000 35.1795 0.0000 -2.4467
# 5 1.1657 0.4893 12.9844 0.0000 32.2515 0.0000
# 6 0.0000 0.0000 0.0000 -2.4467 0.0000 48.4814
#
#
#
# Elastic Compliance Matrix: (Units=1/GPa)
#
#
# Indices 1 2 3 4 5 6 
#
# 1 0.011141 -0.003200 -0.001773 0.000000 0.000360 0.000000
# 2 -0.003200 0.013226 -0.004793 0.000000 0.001845 0.000000
# 3 -0.001773 -0.004793 0.016390 0.000000 -0.006462 0.000000
# 4 0.000000 0.000000 0.000000 0.028526 0.000000 0.001440
# 5 0.000360 0.001845 -0.006462 0.000000 0.033567 0.000000
# 6 0.000000 0.000000 0.000000 0.001440 0.000000 0.020699
#
#
# Mechanical properties :
#
#
# Convention : Reuss Voigt Hill
#
# Bulk Modulus (GPa) = 47.11593 49.27878 48.19735
# Shear Modulus (GPa) = 33.29876 35.85459 34.57668
#
# Velocity S-wave (km/s) = 3.83447 3.97890 3.90735
# Velocity P-wave (km/s) = 6.35675 6.54737 6.45276
#
# Compressibility (1/GPa) = 0.02122425
#
# Stress axis : x y z
#
# Youngs Moduli (GPa) = 89.75907 75.60966 61.01277
#
# Poissons Ratio (x) = 0.24193 0.10819
# Poissons Ratio (y) = 0.28721 0.29245
# Poissons Ratio (z) = 0.15916 0.36242
#
# Static dielectric constant tensor:
#      x y z
#    x 4.249190 0.000000 -0.012240 
#    y 0.000000 4.145830 0.000000 
#    z -0.012240 0.000000 3.859850 
# 
# 
# High freq. dielectric constant tensor:
#      x y z
#    x 1.904480 0.000000 -0.003040 
#    y 0.000000 1.898850 0.000000 
#    z -0.003040 0.000000 1.876680 
# 
# From -- ./inp_files/14537.got.cif
#   From: 2010.03.12/outbox.cif.g09.slc.cpg/sg4_8_cif.got.tgz:14537.got - 2010.03.31 09:31:35.
