data_PCOD8047779
_publ_section_title
;
Structure prediction by ZEFSAII (Michael W. Deem and Ramdas Pophale) SiO2 
 PCOD8047779
Probable space group: P 21
;
_chemical_formula_sum "Si O2"
_cell_formula_units_Z 16
_cell_length_a 14.102378
_cell_length_b 8.437459
_cell_length_c 5.089050
_cell_angle_alpha 90.000000
_cell_angle_beta 96.249923
_cell_angle_gamma 90.000000
_cell_volume 601.938064
_symmetry_space_group_name_H-M "P 21"
_symmetry_group_IT_number 4
_symmetry_cell_setting 'monoclinic'
loop_
_space_group_symop_operation_xyz
x,y,z
-x,1/2+y,-z
loop_
_atom_site_type_symbol
_atom_site_label
_atom_site_fract_x
_atom_site_fract_y
_atom_site_fract_z
Si Si1 0.304872 0.782090 0.947558
Si Si2 0.356410 0.456675 0.751811
Si Si3 0.855967 0.835954 0.256673
Si Si4 0.806858 0.511596 0.460563
Si Si5 0.888551 0.289176 0.889373
Si Si6 0.388209 0.001672 0.373894
Si Si7 0.041126 0.458645 0.217219
Si Si8 0.539599 0.835520 0.720240
O O1 0.356482 0.645174 0.799949
O O2 0.248006 0.903983 0.757425
O O3 0.216911 0.713748 0.099010
O O4 0.385068 0.869249 0.144525
O O5 0.252643 0.387182 0.761159
O O6 0.391238 0.421298 0.468750
O O7 0.427873 0.373226 0.976265
O O8 0.863499 0.651390 0.334765
O O9 0.919315 0.935670 0.479093
O O10 0.893638 0.866250 0.975570
O O11 0.884616 0.416575 0.653184
O O12 0.718034 0.573321 0.615392
O O13 0.959782 0.147200 0.834669
O O14 0.934028 0.384653 0.154185
O O15 0.432891 0.908068 0.641153
O O16 0.458517 0.144927 0.315296
#
# Coordination Sequence:
#
# PCOD8047779 Si02
#       8
#     2   2   2   2   2   2   2   2
#     4  11  26  46  75 103 149 191 244 299 370 433
#     4  12  26  48  76 104 146 192 243 300 366 436
#     4  12  26  48  76 104 146 192 243 300 366 436
#     4  11  26  46  75 103 149 191 244 299 370 433
#     4  11  27  46  72 110 145 193 243 305 364 437
#     4  11  27  46  72 110 145 193 243 305 364 437
#     4  12  28  47  76 108 147 190 248 301 364 434
#     4  12  28  47  76 108 147 190 248 301 364 434
#
# _framework density 26.580805999999999
#
# number of rings (size 3 to 8) (size 9 to 14) (size 15 to 20)
#    0.000    0.500    2.500    3.750   14.000    0.000 
#    0.000    0.000    0.000    0.000    0.000    0.000 
#    0.000    0.000    0.000    0.000    0.000    0.000 
#
# Total GULP energy -198478.044151 kJ/mol
# GULP energy per Si atom -12404.877759 kJ/mol
# Density = 2.652031 g / cm^3
# Si number density = 26.580806 Si / 1000 Ang^3
#
#
#
# Elastic Constant Matrix: (Units=GPa)
#
#
# Indices 1 2 3 4 5 6 
#
# 1 123.6175 13.8582 16.2548 0.0000 15.2715 0.0000
# 2 13.8582 134.3071 -12.9118 0.0000 13.9291 0.0000
# 3 16.2548 -12.9118 71.9823 0.0000 23.2793 0.0000
# 4 0.0000 0.0000 0.0000 48.4337 0.0000 7.2373
# 5 15.2715 13.9291 23.2793 0.0000 46.3678 0.0000
# 6 0.0000 0.0000 0.0000 7.2373 0.0000 38.1839
#
#
#
# Elastic Compliance Matrix: (Units=1/GPa)
#
#
# Indices 1 2 3 4 5 6 
#
# 1 0.008607 -0.000843 -0.001504 0.000000 -0.001826 0.000000
# 2 -0.000843 0.008176 0.002819 0.000000 -0.003594 0.000000
# 3 -0.001504 0.002819 0.017730 0.000000 -0.009253 0.000000
# 4 0.000000 0.000000 0.000000 0.021249 0.000000 -0.004027
# 5 -0.001826 -0.003594 -0.009253 0.000000 0.027893 0.000000
# 6 0.000000 0.000000 0.000000 -0.004027 0.000000 0.026952
#
#
# Mechanical properties :
#
#
# Convention : Reuss Voigt Hill
#
# Bulk Modulus (GPa) = 28.20284 40.47884 34.34084
# Shear Modulus (GPa) = 41.15758 47.44412 44.30085
#
# Velocity S-wave (km/s) = 3.93923 4.22939 4.08689
# Velocity P-wave (km/s) = 5.59673 6.25396 5.93445
#
# Compressibility (1/GPa) = 0.03545742
#
# Stress axis : x y z
#
# Youngs Moduli (GPa) = 116.17848 122.30289 56.40087
#
# Poissons Ratio (x) = 0.10315 0.08485
# Poissons Ratio (y) = 0.09798 -0.15902
# Poissons Ratio (z) = 0.17477 -0.34482
#
# Static dielectric constant tensor:
#      x y z
#    x 6.357410 0.000000 -0.115420 
#    y 0.000000 4.447770 0.000000 
#    z -0.115420 0.000000 4.694020 
# 
# 
# High freq. dielectric constant tensor:
#      x y z
#    x 2.101890 0.000000 -0.000740 
#    y 0.000000 2.071700 0.000000 
#    z -0.000740 0.000000 2.067120 
# 
# From -- ./inp_files/3470.got.cif
#   From: 2010.03.12/outbox.cif.g09.slc.cpg/sg4_2_cif.got.tgz:3470.got - 2010.03.31 09:31:35.
