data_PCOD8047988
_publ_section_title
;
Structure prediction by ZEFSAII (Michael W. Deem and Ramdas Pophale) SiO2 
 PCOD8047988
Probable space group: P 21
;
_chemical_formula_sum "Si O2"
_cell_formula_units_Z 10
_cell_length_a 18.361691
_cell_length_b 5.327827
_cell_length_c 12.602110
_cell_angle_alpha 90.000000
_cell_angle_beta 19.387722
_cell_angle_gamma 90.000000
_cell_volume 409.251710
_symmetry_space_group_name_H-M "P 21"
_symmetry_group_IT_number 4
_symmetry_cell_setting 'monoclinic'
loop_
_space_group_symop_operation_xyz
x,y,z
-x,1/2+y,-z
loop_
_atom_site_type_symbol
_atom_site_label
_atom_site_fract_x
_atom_site_fract_y
_atom_site_fract_z
Si Si1 0.809099 0.689370 0.631728
Si Si2 0.570954 0.504002 0.754827
Si Si3 0.722017 0.373454 0.952158
Si Si4 0.518422 0.091983 0.534676
Si Si5 0.875572 0.283173 0.177717
O O1 0.739054 0.621065 0.608828
O O2 0.780751 0.463673 0.753529
O O3 0.065298 0.756423 0.283149
O O4 0.650067 0.915025 0.883795
O O5 0.710979 0.285661 0.505140
O O6 0.486240 0.688639 0.777774
O O7 0.642896 0.591117 0.141159
O O8 0.437517 0.308173 0.566154
O O9 0.758076 0.187493 0.234145
O O10 0.945092 0.566588 0.050645
#
# Coordination Sequence:
#
# PCOD8047988 Si02
#       5
#     2   2   2   2   2
#     4  12  26  48  82 112 154 208 260 322 408 466
#     4  12  26  50  79 116 157 206 266 331 391 477
#     4  12  26  50  79 116 157 206 266 331 391 477
#     4  12  28  53  81 114 158 209 264 327 392 469
#     4  12  28  53  81 114 158 209 264 327 392 469
#
# _framework density 24.434839
#
# number of rings (size 3 to 8) (size 9 to 14) (size 15 to 20)
#    0.000    0.000    6.000    3.600    2.800    0.000 
#   14.400    0.000    0.000    0.000    0.000    0.000 
#    0.000    0.000    0.000    0.000    0.000    0.000 
#
# Total GULP energy -123953.005789 kJ/mol
# GULP energy per Si atom -12395.300579 kJ/mol
# Density = 2.437922 g / cm^3
# Si number density = 24.434839 Si / 1000 Ang^3
#
#
#
# Elastic Constant Matrix: (Units=GPa)
#
#
# Indices 1 2 3 4 5 6 
#
# 1 153.4873 51.0372 63.3701 0.0000 -26.9733 0.0000
# 2 51.0372 123.0785 46.6003 0.0000 -4.0716 0.0000
# 3 63.3701 46.6003 107.4024 0.0000 -13.0951 0.0000
# 4 0.0000 0.0000 0.0000 60.1131 0.0000 3.8417
# 5 -26.9733 -4.0716 -13.0951 0.0000 41.6613 0.0000
# 6 0.0000 0.0000 0.0000 3.8417 0.0000 55.6218
#
#
#
# Elastic Compliance Matrix: (Units=1/GPa)
#
#
# Indices 1 2 3 4 5 6 
#
# 1 0.009891 -0.002340 -0.004230 0.000000 0.004846 0.000000
# 2 -0.002340 0.010282 -0.003268 0.000000 -0.001537 0.000000
# 3 -0.004230 -0.003268 0.013364 0.000000 0.001142 0.000000
# 4 0.000000 0.000000 0.000000 0.016709 0.000000 -0.001154
# 5 0.004846 -0.001537 0.001142 0.000000 0.027349 0.000000
# 6 0.000000 0.000000 0.000000 -0.001154 0.000000 0.018058
#
#
# Mechanical properties :
#
#
# Convention : Reuss Voigt Hill
#
# Bulk Modulus (GPa) = 72.14410 78.44258 75.29334
# Shear Modulus (GPa) = 41.68432 46.34329 44.01381
#
# Velocity S-wave (km/s) = 4.13478 4.35973 4.24874
# Velocity P-wave (km/s) = 7.23771 7.58389 7.41282
#
# Compressibility (1/GPa) = 0.01386115
#
# Stress axis : x y z
#
# Youngs Moduli (GPa) = 101.09954 97.26142 74.82869
#
# Poissons Ratio (x) = 0.22756 0.31653
# Poissons Ratio (y) = 0.23654 0.24454
# Poissons Ratio (z) = 0.42766 0.31785
#
# Static dielectric constant tensor:
#      x y z
#    x 4.480250 0.000000 -0.163160 
#    y 0.000000 4.619290 0.000000 
#    z -0.163160 0.000000 4.285490 
# 
# 
# High freq. dielectric constant tensor:
#      x y z
#    x 1.987390 0.000000 -0.009480 
#    y 0.000000 1.971110 0.000000 
#    z -0.009480 0.000000 1.976210 
# 
# From -- ./inp_files/5116.got.cif
#   From: 2010.03.12/outbox.cif.g09.slc.cpg/sg4_3_cif.got.tgz:5116.got - 2010.03.31 09:31:35.
