data_PCOD8047176
_publ_section_title
;
Structure prediction by ZEFSAII (Michael W. Deem and Ramdas Pophale) SiO2 
 PCOD8047176
Probable space group: P 21
;
_chemical_formula_sum "Si O2"
_cell_formula_units_Z 16
_cell_length_a 5.192212
_cell_length_b 10.128983
_cell_length_c 14.160775
_cell_angle_alpha 90.000000
_cell_angle_beta 114.869262
_cell_angle_gamma 90.000000
_cell_volume 675.681016
_symmetry_space_group_name_H-M "P 21"
_symmetry_group_IT_number 4
_symmetry_cell_setting 'monoclinic'
loop_
_space_group_symop_operation_xyz
x,y,z
-x,1/2+y,-z
loop_
_atom_site_type_symbol
_atom_site_label
_atom_site_fract_x
_atom_site_fract_y
_atom_site_fract_z
Si Si1 0.636176 0.740470 0.371420
Si Si2 0.058629 0.858248 0.280053
Si Si3 0.797239 0.130422 0.217591
Si Si4 0.596511 0.524352 0.982288
Si Si5 0.014163 0.812045 0.598705
Si Si6 0.941838 0.832410 0.886231
Si Si7 0.572697 0.947770 0.670906
Si Si8 0.781240 0.779373 0.057120
O O1 0.384877 0.841599 0.360320
O O2 0.466921 0.604722 0.326137
O O3 0.823986 0.792419 0.312864
O O4 0.838508 0.733258 0.493363
O O5 0.025635 0.788801 0.172670
O O6 0.026143 0.014530 0.263503
O O7 0.799419 0.202859 0.317774
O O8 0.870476 0.241516 0.151880
O O9 0.493815 0.066103 0.140073
O O10 0.581274 0.652506 0.049709
O O11 0.902591 0.458491 0.042268
O O12 0.369358 0.418273 0.980028
O O13 0.260179 0.900364 0.589841
O O14 0.811115 0.905277 0.631316
O O15 0.666510 0.887476 0.787097
O O16 0.880232 0.739729 0.966743
#
# Coordination Sequence:
#
# PCOD8047176 Si02
#       8
#     2   2   2   2   2   2   2   2
#     4  12  27  48  76 108 146 195 251 314 381 431
#     4  11  28  46  73 110 148 191 247 312 367 448
#     4  10  25  47  71 109 148 193 249 303 373 450
#     4  11  23  43  68 103 144 190 243 295 364 446
#     4  11  26  47  78 106 147 197 245 316 374 443
#     4  11  25  44  74 103 148 199 246 300 378 447
#     4  11  26  48  75 109 146 190 255 304 375 450
#     4  11  26  39  73 100 149 191 246 298 374 443
#
# _framework density 23.679811000000001
#
# number of rings (size 3 to 8) (size 9 to 14) (size 15 to 20)
#    0.000    1.000    1.250    3.000   14.000    2.000 
#    0.000    0.000    0.000    0.000    0.000    0.000 
#    0.000    0.000    0.000    0.000    0.000    0.000 
#
# Total GULP energy -198220.962438 kJ/mol
# GULP energy per Si atom -12388.810152 kJ/mol
# Density = 2.362591 g / cm^3
# Si number density = 23.679811 Si / 1000 Ang^3
#
#
#
# Elastic Constant Matrix: (Units=GPa)
#
#
# Indices 1 2 3 4 5 6 
#
# 1 98.4847 20.7841 33.5006 0.0000 13.8828 0.0000
# 2 20.7841 117.4531 50.8167 0.0000 7.8629 0.0000
# 3 33.5006 50.8167 117.2902 0.0000 13.2387 0.0000
# 4 0.0000 0.0000 0.0000 39.4379 0.0000 13.2868
# 5 13.8828 7.8629 13.2387 0.0000 36.1709 0.0000
# 6 0.0000 0.0000 0.0000 13.2868 0.0000 23.4481
#
#
#
# Elastic Compliance Matrix: (Units=1/GPa)
#
#
# Indices 1 2 3 4 5 6 
#
# 1 0.011677 -0.000692 -0.002656 0.000000 -0.003359 0.000000
# 2 -0.000692 0.010534 -0.004316 0.000000 -0.000444 0.000000
# 3 -0.002656 -0.004316 0.011405 0.000000 -0.002216 0.000000
# 4 0.000000 0.000000 0.000000 0.031339 0.000000 -0.017758
# 5 -0.003359 -0.000444 -0.002216 0.000000 0.029844 0.000000
# 6 0.000000 0.000000 0.000000 -0.017758 0.000000 0.052710
#
#
# Mechanical properties :
#
#
# Convention : Reuss Voigt Hill
#
# Bulk Modulus (GPa) = 54.68467 60.38118 57.53292
# Shear Modulus (GPa) = 29.59771 35.01981 32.30876
#
# Velocity S-wave (km/s) = 3.53925 3.84980 3.69779
# Velocity P-wave (km/s) = 6.31230 6.73169 6.52537
#
# Compressibility (1/GPa) = 0.01828666
#
# Stress axis : x y z
#
# Youngs Moduli (GPa) = 85.63866 94.93462 87.68434
#
# Poissons Ratio (x) = 0.06572 0.23290
# Poissons Ratio (y) = 0.05928 0.37843
# Poissons Ratio (z) = 0.22747 0.40972
#
# Static dielectric constant tensor:
#      x y z
#    x 4.003960 0.000000 0.132710 
#    y 0.000000 4.657010 0.000000 
#    z 0.132710 0.000000 4.533720 
# 
# 
# High freq. dielectric constant tensor:
#      x y z
#    x 1.916720 0.000000 0.021110 
#    y 0.000000 1.958030 0.000000 
#    z 0.021110 0.000000 1.949960 
# 
# From -- ./inp_files/13312.got.cif
#   From: 2010.03.12/outbox.cif.g09.slc.cpg/sg4_7_cif.got.tgz:13312.got - 2010.03.31 09:31:35.
