data_PCOD8047924
_publ_section_title
;
Structure prediction by ZEFSAII (Michael W. Deem and Ramdas Pophale) SiO2 
 PCOD8047924
Probable space group: P 21
;
_chemical_formula_sum "Si O2"
_cell_formula_units_Z 16
_cell_length_a 12.013022
_cell_length_b 8.694212
_cell_length_c 17.083268
_cell_angle_alpha 90.000000
_cell_angle_beta 157.070954
_cell_angle_gamma 90.000000
_cell_volume 695.123946
_symmetry_space_group_name_H-M "P 21"
_symmetry_group_IT_number 4
_symmetry_cell_setting 'monoclinic'
loop_
_space_group_symop_operation_xyz
x,y,z
-x,1/2+y,-z
loop_
_atom_site_type_symbol
_atom_site_label
_atom_site_fract_x
_atom_site_fract_y
_atom_site_fract_z
Si Si1 0.716101 0.082210 0.850946
Si Si2 0.815022 0.335879 0.320714
Si Si3 0.853358 0.643683 0.589590
Si Si4 0.276671 0.708824 0.422368
Si Si5 0.749415 0.883002 0.652364
Si Si6 0.219887 0.618075 0.560774
Si Si7 0.196617 0.425723 0.925171
Si Si8 0.202606 0.930430 0.062490
O O1 0.407415 0.040778 0.613645
O O2 0.716679 0.267106 0.848803
O O3 0.747733 0.013489 0.957783
O O4 0.971992 0.017821 0.965468
O O5 0.807456 0.267527 0.402992
O O6 0.963435 0.212220 0.361857
O O7 0.976127 0.497811 0.425518
O O8 0.493906 0.364935 0.082871
O O9 0.731357 0.782644 0.562682
O O10 0.058666 0.537807 0.772866
O O11 0.557488 0.814867 0.598397
O O12 0.376806 0.549254 0.449178
O O13 0.175759 0.682085 0.445198
O O14 0.018908 0.781632 0.204062
O O15 0.074069 0.898860 0.892850
O O16 0.525659 0.539038 0.769927
#
# Coordination Sequence:
#
# PCOD8047924 Si02
#       8
#     2   2   2   2   2   2   2   2
#     4  12  27  50  76 119 156 205 252 327 397 464
#     4  12  29  51  78 109 156 212 266 313 387 465
#     4  12  27  54  76 114 158 202 260 328 385 467
#     4  12  27  49  76 118 156 197 264 325 395 469
#     4  12  25  46  80 113 158 201 248 330 401 461
#     4  12  29  51  78 114 154 212 261 328 384 467
#     4  12  30  48  79 111 153 211 263 310 394 466
#     4  12  26  45  79 114 159 196 264 317 397 473
#
# _framework density 23.017475999999998
#
# number of rings (size 3 to 8) (size 9 to 14) (size 15 to 20)
#    0.000    0.000    3.750    4.500   14.000    1.000 
#    0.000    0.000    0.000    0.000    0.000    0.000 
#    0.000    0.000    0.000    0.000    0.000    0.000 
#
# Total GULP energy -198509.724398 kJ/mol
# GULP energy per Si atom -12406.857775 kJ/mol
# Density = 2.296509 g / cm^3
# Si number density = 23.017476 Si / 1000 Ang^3
#
#
#
# Elastic Constant Matrix: (Units=GPa)
#
#
# Indices 1 2 3 4 5 6 
#
# 1 101.1436 51.8353 35.8341 0.0000 -7.1858 0.0000
# 2 51.8353 119.5471 29.1568 0.0000 0.8192 0.0000
# 3 35.8341 29.1568 111.6467 0.0000 -7.2205 0.0000
# 4 0.0000 0.0000 0.0000 29.1805 0.0000 15.9353
# 5 -7.1858 0.8192 -7.2205 0.0000 44.2643 0.0000
# 6 0.0000 0.0000 0.0000 15.9353 0.0000 32.9204
#
#
#
# Elastic Compliance Matrix: (Units=1/GPa)
#
#
# Indices 1 2 3 4 5 6 
#
# 1 0.013750 -0.005263 -0.002919 0.000000 0.001853 0.000000
# 2 -0.005263 0.010962 -0.001255 0.000000 -0.001262 0.000000
# 3 -0.002919 -0.001255 0.010301 0.000000 0.001230 0.000000
# 4 0.000000 0.000000 0.000000 0.046583 0.000000 -0.022549
# 5 0.001853 -0.001262 0.001230 0.000000 0.023116 0.000000
# 6 0.000000 0.000000 0.000000 -0.022549 0.000000 0.041291
#
#
# Mechanical properties :
#
#
# Convention : Reuss Voigt Hill
#
# Bulk Modulus (GPa) = 61.96210 62.88774 62.42492
# Shear Modulus (GPa) = 29.36747 35.64046 32.50396
#
# Velocity S-wave (km/s) = 3.57582 3.93925 3.76193
# Velocity P-wave (km/s) = 6.63526 6.93335 6.78594
#
# Compressibility (1/GPa) = 0.01613890
#
# Stress axis : x y z
#
# Youngs Moduli (GPa) = 72.72812 91.22790 97.07808
#
# Poissons Ratio (x) = 0.48010 0.28336
# Poissons Ratio (y) = 0.38275 0.12185
# Poissons Ratio (z) = 0.21229 0.11450
#
# Static dielectric constant tensor:
#      x y z
#    x 4.215510 0.000000 -0.166850 
#    y 0.000000 4.451060 0.000000 
#    z -0.166850 0.000000 4.684130 
# 
# 
# High freq. dielectric constant tensor:
#      x y z
#    x 1.911720 0.000000 -0.003820 
#    y 0.000000 1.932370 0.000000 
#    z -0.003820 0.000000 1.922100 
# 
# From -- ./inp_files/12907.got.cif
#   From: 2010.03.12/outbox.cif.g09.slc.cpg/sg4_7_cif.got.tgz:12907.got - 2010.03.31 09:31:35.
