data_PCOD8047622
_publ_section_title
;
Structure prediction by ZEFSAII (Michael W. Deem and Ramdas Pophale) SiO2 
 PCOD8047622
Probable space group: P 21
;
_chemical_formula_sum "Si O2"
_cell_formula_units_Z 12
_cell_length_a 7.327868
_cell_length_b 12.080529
_cell_length_c 5.080885
_cell_angle_alpha 90.000000
_cell_angle_beta 91.577320
_cell_angle_gamma 90.000000
_cell_volume 449.612488
_symmetry_space_group_name_H-M "P 21"
_symmetry_group_IT_number 4
_symmetry_cell_setting 'monoclinic'
loop_
_space_group_symop_operation_xyz
x,y,z
-x,1/2+y,-z
loop_
_atom_site_type_symbol
_atom_site_label
_atom_site_fract_x
_atom_site_fract_y
_atom_site_fract_z
Si Si1 0.938489 0.290900 0.641386
Si Si2 0.883539 0.598483 0.124599
Si Si3 0.276605 0.542398 0.016966
Si Si4 0.741304 0.361489 0.156699
Si Si5 0.547400 0.737468 0.107099
Si Si6 0.707835 0.906616 0.470118
O O1 0.774850 0.294448 0.426911
O O2 0.028945 0.168400 0.629781
O O3 0.078215 0.385646 0.560685
O O4 0.875165 0.319324 0.933546
O O5 0.767247 0.492270 0.212519
O O6 0.731016 0.681706 0.988132
O O7 0.059713 0.565919 0.958316
O O8 0.380169 0.651207 0.126943
O O9 0.313265 0.446604 0.233085
O O10 0.354801 0.501813 0.740099
O O11 0.529433 0.336280 0.081924
O O12 0.595267 0.794137 0.392173
#
# Coordination Sequence:
#
# PCOD8047622 Si02
#       6
#     2   2   2   2   2   2
#     4  11  24  45  75 105 144 195 249 299 369 444
#     4  11  25  49  79 109 149 205 248 308 378 450
#     4  12  25  49  78 109 150 200 252 309 375 453
#     4  12  25  47  73 109 149 193 247 313 368 441
#     4  11  28  47  75 117 152 194 256 317 373 446
#     4  11  25  49  74 109 150 197 254 304 375 450
#
# _framework density 26.68965
#
# number of rings (size 3 to 8) (size 9 to 14) (size 15 to 20)
#    0.000    0.667    5.000    1.000    2.333    5.333 
#    0.000   10.000    0.000    0.000    0.000    0.000 
#    0.000    0.000    0.000    0.000    0.000    0.000 
#
# Total GULP energy -148673.653071 kJ/mol
# GULP energy per Si atom -12389.471089 kJ/mol
# Density = 2.662890 g / cm^3
# Si number density = 26.689650 Si / 1000 Ang^3
#
#
#
# Elastic Constant Matrix: (Units=GPa)
#
#
# Indices 1 2 3 4 5 6 
#
# 1 141.0365 67.4765 21.5036 0.0000 24.2516 0.0000
# 2 67.4765 116.7784 28.0951 0.0000 7.5858 0.0000
# 3 21.5036 28.0951 85.5224 0.0000 10.0391 0.0000
# 4 0.0000 0.0000 0.0000 21.6050 0.0000 11.6188
# 5 24.2516 7.5858 10.0391 0.0000 34.7594 0.0000
# 6 0.0000 0.0000 0.0000 11.6188 0.0000 61.0833
#
#
#
# Elastic Compliance Matrix: (Units=1/GPa)
#
#
# Indices 1 2 3 4 5 6 
#
# 1 0.011047 -0.005951 -0.000073 0.000000 -0.006388 0.000000
# 2 -0.005951 0.012551 -0.002891 0.000000 0.002247 0.000000
# 3 -0.000073 -0.002891 0.013022 0.000000 -0.003079 0.000000
# 4 0.000000 0.000000 0.000000 0.051560 0.000000 -0.009807
# 5 -0.006388 0.002247 -0.003079 0.000000 0.033625 0.000000
# 6 0.000000 0.000000 0.000000 -0.009807 0.000000 0.018237
#
#
# Mechanical properties :
#
#
# Convention : Reuss Voigt Hill
#
# Bulk Modulus (GPa) = 53.21532 64.16531 58.69032
# Shear Modulus (GPa) = 30.46299 38.57368 34.51833
#
# Velocity S-wave (km/s) = 3.38209 3.80579 3.60018
# Velocity P-wave (km/s) = 5.93576 6.58829 6.27052
#
# Compressibility (1/GPa) = 0.01879158
#
# Stress axis : x y z
#
# Youngs Moduli (GPa) = 90.52398 79.67469 76.79130
#
# Poissons Ratio (x) = 0.47411 0.00560
# Poissons Ratio (y) = 0.53867 0.22199
# Poissons Ratio (z) = 0.00660 0.23032
#
# Static dielectric constant tensor:
#      x y z
#    x 5.077270 0.000000 0.407340 
#    y 0.000000 5.193670 0.000000 
#    z 0.407340 0.000000 4.428030 
# 
# 
# High freq. dielectric constant tensor:
#      x y z
#    x 2.089170 0.000000 0.023050 
#    y 0.000000 2.092120 0.000000 
#    z 0.023050 0.000000 2.034950 
# 
# From -- ./inp_files/1254.got.cif
#   From: 2010.03.12/outbox.cif.g09.slc.cpg/sg4_1_cif.got.tgz:1254.got - 2010.03.31 09:31:35.
