data_PCOD8047591
_publ_section_title
;
Structure prediction by ZEFSAII (Michael W. Deem and Ramdas Pophale) SiO2 
 PCOD8047591
Probable space group: P 21
;
_chemical_formula_sum "Si O2"
_cell_formula_units_Z 16
_cell_length_a 11.083527
_cell_length_b 11.059858
_cell_length_c 14.128861
_cell_angle_alpha 90.000000
_cell_angle_beta 20.940105
_cell_angle_gamma 90.000000
_cell_volume 618.983821
_symmetry_space_group_name_H-M "P 21"
_symmetry_group_IT_number 4
_symmetry_cell_setting 'monoclinic'
loop_
_space_group_symop_operation_xyz
x,y,z
-x,1/2+y,-z
loop_
_atom_site_type_symbol
_atom_site_label
_atom_site_fract_x
_atom_site_fract_y
_atom_site_fract_z
Si Si1 0.070199 0.033900 0.058214
Si Si2 0.136482 0.889315 0.402702
Si Si3 0.765651 0.619732 0.445496
Si Si4 0.272014 0.854997 0.517295
Si Si5 0.503245 0.113926 0.064030
Si Si6 0.629068 0.638055 0.341842
Si Si7 0.484005 0.810999 0.794756
Si Si8 0.330004 0.208276 0.005905
O O1 0.124207 0.057369 0.905742
O O2 0.356918 0.117118 0.898323
O O3 0.156844 0.892879 0.012616
O O4 0.715262 0.070438 0.369256
O O5 0.127309 0.846418 0.517517
O O6 0.328745 0.776538 0.214166
O O7 0.794968 0.900743 0.592345
O O8 0.336912 0.015064 0.253710
O O9 0.577648 0.488682 0.569917
O O10 0.836150 0.668764 0.286612
O O11 0.550144 0.719793 0.658628
O O12 0.110658 0.578391 0.246065
O O13 0.566384 0.760770 0.328387
O O14 0.949707 0.810725 0.814812
O O15 0.558396 0.239024 0.077560
O O16 0.262717 0.126306 0.148765
#
# Coordination Sequence:
#
# PCOD8047591 Si02
#       8
#     2   2   2   2   2   2   2   2
#     4  11  29  50  76 107 151 204 255 314 378 462
#     4  12  24  43  72 107 151 193 247 319 394 465
#     4  12  28  48  74 113 145 204 260 322 380 455
#     4  11  24  48  72 104 147 198 253 315 383 463
#     4  12  27  43  72 111 156 193 252 321 393 465
#     4  11  29  53  78 109 152 209 262 310 381 453
#     4  12  29  43  74 113 156 197 252 324 393 465
#     4  11  24  44  72 106 146 198 245 311 394 458
#
# _framework density 25.848818999999999
#
# number of rings (size 3 to 8) (size 9 to 14) (size 15 to 20)
#    0.000    0.500    6.250    0.000   14.000    0.000 
#    0.000    0.000    0.000    0.000    0.000    0.000 
#    0.000    0.000    0.000    0.000    0.000    0.000 
#
# Total GULP energy -198263.828159 kJ/mol
# GULP energy per Si atom -12391.489260 kJ/mol
# Density = 2.578999 g / cm^3
# Si number density = 25.848819 Si / 1000 Ang^3
#
#
#
# Elastic Constant Matrix: (Units=GPa)
#
#
# Indices 1 2 3 4 5 6 
#
# 1 114.4307 27.9704 -1.6294 0.0000 23.2614 0.0000
# 2 27.9704 128.4617 22.7244 0.0000 6.6864 0.0000
# 3 -1.6294 22.7244 65.0876 0.0000 12.5691 0.0000
# 4 0.0000 0.0000 0.0000 38.8589 0.0000 5.7787
# 5 23.2614 6.6864 12.5691 0.0000 37.7562 0.0000
# 6 0.0000 0.0000 0.0000 5.7787 0.0000 35.3036
#
#
#
# Elastic Compliance Matrix: (Units=1/GPa)
#
#
# Indices 1 2 3 4 5 6 
#
# 1 0.010799 -0.002423 0.002477 0.000000 -0.007049 0.000000
# 2 -0.002423 0.008851 -0.003352 0.000000 0.001041 0.000000
# 3 0.002477 -0.003352 0.017929 0.000000 -0.006901 0.000000
# 4 0.000000 0.000000 0.000000 0.026376 0.000000 -0.004317
# 5 -0.007049 0.001041 -0.006901 0.000000 0.032942 0.000000
# 6 0.000000 0.000000 0.000000 -0.004317 0.000000 0.029032
#
#
# Mechanical properties :
#
#
# Convention : Reuss Voigt Hill
#
# Bulk Modulus (GPa) = 32.27391 45.12342 38.69867
# Shear Modulus (GPa) = 35.00139 39.64471 37.32305
#
# Velocity S-wave (km/s) = 3.68378 3.92052 3.80399
# Velocity P-wave (km/s) = 5.53230 6.16348 5.85640
#
# Compressibility (1/GPa) = 0.03098478
#
# Stress axis : x y z
#
# Youngs Moduli (GPa) = 92.59841 112.98594 55.77604
#
# Poissons Ratio (x) = 0.27373 -0.13818
# Poissons Ratio (y) = 0.22434 0.18695
# Poissons Ratio (z) = -0.22941 0.37870
#
# Static dielectric constant tensor:
#      x y z
#    x 4.732250 0.000000 -0.132480 
#    y 0.000000 4.649940 0.000000 
#    z -0.132480 0.000000 4.520280 
# 
# 
# High freq. dielectric constant tensor:
#      x y z
#    x 2.041920 0.000000 -0.001310 
#    y 0.000000 2.042700 0.000000 
#    z -0.001310 0.000000 2.022270 
# 
# From -- ./inp_files/2715.got.cif
#   From: 2010.03.12/outbox.cif.g09.slc.cpg/sg4_2_cif.got.tgz:2715.got - 2010.03.31 09:31:35.
