data_PCOD8047797
_publ_section_title
;
Structure prediction by ZEFSAII (Michael W. Deem and Ramdas Pophale) SiO2 
 PCOD8047797
Probable space group: P 21
;
_chemical_formula_sum "Si O2"
_cell_formula_units_Z 14
_cell_length_a 8.518204
_cell_length_b 13.884904
_cell_length_c 5.304090
_cell_angle_alpha 90.000000
_cell_angle_beta 117.813766
_cell_angle_gamma 90.000000
_cell_volume 554.861213
_symmetry_space_group_name_H-M "P 21"
_symmetry_group_IT_number 4
_symmetry_cell_setting 'monoclinic'
loop_
_space_group_symop_operation_xyz
x,y,z
-x,1/2+y,-z
loop_
_atom_site_type_symbol
_atom_site_label
_atom_site_fract_x
_atom_site_fract_y
_atom_site_fract_z
Si Si1 0.755891 0.068840 0.888245
Si Si2 0.252428 0.270570 0.393040
Si Si3 0.911292 0.570214 0.203157
Si Si4 0.903217 0.224203 0.320078
Si Si5 0.254443 0.911631 0.633363
Si Si6 0.361505 0.378769 0.970665
Si Si7 0.614305 0.572420 0.614675
O O1 0.601495 0.069748 0.556351
O O2 0.950099 0.056710 0.917685
O O3 0.750125 0.165346 0.056922
O O4 0.736215 0.979740 0.060941
O O5 0.289905 0.336577 0.659970
O O6 0.329059 0.163871 0.512969
O O7 0.037114 0.267945 0.208604
O O8 0.335814 0.311241 0.197267
O O9 0.900958 0.470726 0.346271
O O10 0.971772 0.657880 0.417772
O O11 0.708820 0.591583 0.954400
O O12 0.819835 0.302899 0.449666
O O13 0.307463 0.969143 0.419371
O O14 0.432798 0.901225 0.930644
#
# Coordination Sequence:
#
# PCOD8047797 Si02
#       7
#     2   2   2   2   2   2   2
#     4  11  27  48  76 114 154 216 261 336 399 480
#     4  12  25  49  75 119 154 212 263 332 398 480
#     4  12  25  49  78 114 158 210 267 339 395 482
#     4  12  27  47  78 114 157 214 266 335 402 485
#     4  11  27  49  75 112 160 212 269 330 411 479
#     4  11  29  47  80 113 164 211 267 331 402 486
#     4  11  26  49  76 112 161 207 269 333 401 480
#
# _framework density 25.231535999999998
#
# number of rings (size 3 to 8) (size 9 to 14) (size 15 to 20)
#    0.000    0.571    2.857    2.571   12.000    2.286 
#    0.000    0.000    0.000    0.000    0.000    0.000 
#    0.000    0.000    0.000    0.000    0.000    0.000 
#
# Total GULP energy -173521.207807 kJ/mol
# GULP energy per Si atom -12394.371986 kJ/mol
# Density = 2.517411 g / cm^3
# Si number density = 25.231536 Si / 1000 Ang^3
#
#
#
# Elastic Constant Matrix: (Units=GPa)
#
#
# Indices 1 2 3 4 5 6 
#
# 1 65.7454 40.6582 27.6639 0.0000 5.2757 0.0000
# 2 40.6582 134.4237 29.5394 0.0000 2.6559 0.0000
# 3 27.6639 29.5394 116.7205 0.0000 14.6245 0.0000
# 4 0.0000 0.0000 0.0000 32.3710 0.0000 10.2634
# 5 5.2757 2.6559 14.6245 0.0000 35.1842 0.0000
# 6 0.0000 0.0000 0.0000 10.2634 0.0000 37.4510
#
#
#
# Elastic Compliance Matrix: (Units=1/GPa)
#
#
# Indices 1 2 3 4 5 6 
#
# 1 0.019946 -0.005299 -0.003230 0.000000 -0.001248 0.000000
# 2 -0.005299 0.009287 -0.001167 0.000000 0.000579 0.000000
# 3 -0.003230 -0.001167 0.010082 0.000000 -0.003618 0.000000
# 4 0.000000 0.000000 0.000000 0.033831 0.000000 -0.009271
# 5 -0.001248 0.000579 -0.003618 0.000000 0.030069 0.000000
# 6 0.000000 0.000000 0.000000 -0.009271 0.000000 0.029242
#
#
# Mechanical properties :
#
#
# Convention : Reuss Voigt Hill
#
# Bulk Modulus (GPa) = 50.19196 56.95696 53.57446
# Shear Modulus (GPa) = 31.54771 35.60310 33.57540
#
# Velocity S-wave (km/s) = 3.53983 3.76048 3.65182
# Velocity P-wave (km/s) = 6.05334 6.44031 6.24982
#
# Compressibility (1/GPa) = 0.01992351
#
# Stress axis : x y z
#
# Youngs Moduli (GPa) = 50.13486 107.67994 99.18961
#
# Poissons Ratio (x) = 0.57054 0.32039
# Poissons Ratio (y) = 0.26564 0.11575
# Poissons Ratio (z) = 0.16194 0.12566
#
# Static dielectric constant tensor:
#      x y z
#    x 4.948740 0.000000 0.180250 
#    y 0.000000 4.995880 0.000000 
#    z 0.180250 0.000000 4.259250 
# 
# 
# High freq. dielectric constant tensor:
#      x y z
#    x 2.009000 0.000000 0.014570 
#    y 0.000000 2.025570 0.000000 
#    z 0.014570 0.000000 1.993110 
# 
# From -- ./inp_files/1856.got.cif
#   From: 2010.03.12/outbox.cif.g09.slc.cpg/sg4_1_cif.got.tgz:1856.got - 2010.03.31 09:31:35.
