data_PCOD8047799
_publ_section_title
;
Structure prediction by ZEFSAII (Michael W. Deem and Ramdas Pophale) SiO2 
 PCOD8047799
Probable space group: P 21
;
_chemical_formula_sum "Si O2"
_cell_formula_units_Z 12
_cell_length_a 7.459395
_cell_length_b 7.623909
_cell_length_c 7.965568
_cell_angle_alpha 90.000000
_cell_angle_beta 117.284871
_cell_angle_gamma 90.000000
_cell_volume 402.598321
_symmetry_space_group_name_H-M "P 21"
_symmetry_group_IT_number 4
_symmetry_cell_setting 'monoclinic'
loop_
_space_group_symop_operation_xyz
x,y,z
-x,1/2+y,-z
loop_
_atom_site_type_symbol
_atom_site_label
_atom_site_fract_x
_atom_site_fract_y
_atom_site_fract_z
Si Si1 0.437751 0.153660 0.810266
Si Si2 0.121205 0.227570 0.097159
Si Si3 0.787183 0.985621 0.368660
Si Si4 0.124364 0.877641 0.288575
Si Si5 0.546926 0.913409 0.586312
Si Si6 0.767421 0.311650 0.154468
O O1 0.332460 0.341733 0.791649
O O2 0.446312 0.091252 0.619412
O O3 0.324473 0.004892 0.869749
O O4 0.663286 0.185041 0.971257
O O5 0.137859 0.024895 0.150415
O O6 0.350005 0.307845 0.212665
O O7 0.994780 0.327175 0.188100
O O8 0.021941 0.237068 0.867708
O O9 0.725865 0.959498 0.534468
O O10 0.748902 0.191964 0.315365
O O11 0.023062 0.943606 0.422619
O O12 0.354824 0.813369 0.418656
#
# Coordination Sequence:
#
# PCOD8047799 Si02
#       6
#     2   2   2   2   2   2
#     4  12  26  49  84 120 161 225 276 348 417 498
#     4  11  27  51  78 121 163 216 276 342 424 497
#     4  11  27  51  76 120 166 213 285 344 414 504
#     4  11  28  53  82 119 167 221 276 349 420 500
#     4  12  28  51  83 123 163 216 283 340 422 495
#     4  11  26  49  81 119 166 219 280 345 417 500
#
# _framework density 29.806387000000001
#
# number of rings (size 3 to 8) (size 9 to 14) (size 15 to 20)
#    0.000    0.667    1.667    4.000    9.333    1.333 
#    0.000    0.000    0.000    0.000    0.000    0.000 
#    0.000    0.000    0.000    0.000    0.000    0.000 
#
# Total GULP energy -148709.483164 kJ/mol
# GULP energy per Si atom -12392.456930 kJ/mol
# Density = 2.973855 g / cm^3
# Si number density = 29.806387 Si / 1000 Ang^3
#
#
#
# Elastic Constant Matrix: (Units=GPa)
#
#
# Indices 1 2 3 4 5 6 
#
# 1 109.0274 4.2462 40.0820 0.0000 14.6200 0.0000
# 2 4.2462 115.1502 4.2826 0.0000 24.7410 0.0000
# 3 40.0820 4.2826 98.5532 0.0000 27.0943 0.0000
# 4 0.0000 0.0000 0.0000 36.9659 0.0000 -4.0166
# 5 14.6200 24.7410 27.0943 0.0000 55.2977 0.0000
# 6 0.0000 0.0000 0.0000 -4.0166 0.0000 41.0100
#
#
#
# Elastic Compliance Matrix: (Units=1/GPa)
#
#
# Indices 1 2 3 4 5 6 
#
# 1 0.010817 -0.000077 -0.004182 0.000000 -0.000776 0.000000
# 2 -0.000077 0.009675 0.000919 0.000000 -0.004759 0.000000
# 3 -0.004182 0.000919 0.013425 0.000000 -0.005883 0.000000
# 4 0.000000 0.000000 0.000000 0.027343 0.000000 0.002678
# 5 -0.000776 -0.004759 -0.005883 0.000000 0.023301 0.000000
# 6 0.000000 0.000000 0.000000 0.002678 0.000000 0.024647
#
#
# Mechanical properties :
#
#
# Convention : Reuss Voigt Hill
#
# Bulk Modulus (GPa) = 36.71391 46.66137 41.68764
# Shear Modulus (GPa) = 40.01046 44.92938 42.46992
#
# Velocity S-wave (km/s) = 3.66778 3.88670 3.77883
# Velocity P-wave (km/s) = 5.50282 5.98588 5.74942
#
# Compressibility (1/GPa) = 0.02723763
#
# Stress axis : x y z
#
# Youngs Moduli (GPa) = 92.44975 103.35417 74.48585
#
# Poissons Ratio (x) = 0.00791 0.31153
# Poissons Ratio (y) = 0.00708 -0.06846
# Poissons Ratio (z) = 0.38667 -0.09499
#
# Static dielectric constant tensor:
#      x y z
#    x 5.498470 0.000000 0.144640 
#    y 0.000000 5.328140 0.000000 
#    z 0.144640 0.000000 5.240570 
# 
# 
# High freq. dielectric constant tensor:
#      x y z
#    x 2.232620 0.000000 -0.000650 
#    y 0.000000 2.220390 0.000000 
#    z -0.000650 0.000000 2.204790 
# 
# From -- ./inp_files/5278.got.cif
#   From: 2010.03.12/outbox.cif.g09.slc.cpg/sg4_3_cif.got.tgz:5278.got - 2010.03.31 09:31:35.
