data_PCOD8047094
_publ_section_title
;
Structure prediction by ZEFSAII (Michael W. Deem and Ramdas Pophale) SiO2 
 PCOD8047094
Probable space group: P 21
;
_chemical_formula_sum "Si O2"
_cell_formula_units_Z 16
_cell_length_a 13.271911
_cell_length_b 9.987033
_cell_length_c 5.190229
_cell_angle_alpha 90.000000
_cell_angle_beta 105.768926
_cell_angle_gamma 90.000000
_cell_volume 662.058736
_symmetry_space_group_name_H-M "P 21"
_symmetry_group_IT_number 4
_symmetry_cell_setting 'monoclinic'
loop_
_space_group_symop_operation_xyz
x,y,z
-x,1/2+y,-z
loop_
_atom_site_type_symbol
_atom_site_label
_atom_site_fract_x
_atom_site_fract_y
_atom_site_fract_z
Si Si1 0.171419 0.159280 0.822935
Si Si2 0.184843 0.819175 0.312367
Si Si3 0.335128 0.955401 0.771702
Si Si4 0.828510 0.145658 0.200296
Si Si5 0.518311 0.338336 0.773337
Si Si6 0.058935 0.078085 0.235671
Si Si7 0.680923 0.906351 0.057964
Si Si8 0.519433 0.055242 0.623831
O O1 0.118157 0.160554 0.503680
O O2 0.247875 0.029620 0.884148
O O3 0.083676 0.148522 0.981223
O O4 0.234787 0.292232 0.942632
O O5 0.289364 0.899878 0.469805
O O6 0.152856 0.721695 0.521471
O O7 0.089753 0.923347 0.229701
O O8 0.205837 0.745359 0.055670
O O9 0.432757 0.055040 0.790779
O O10 0.386939 0.828192 0.954633
O O11 0.935522 0.075469 0.190853
O O12 0.741711 0.034954 0.210677
O O13 0.538835 0.213465 0.592281
O O14 0.532569 0.484420 0.655666
O O15 0.401233 0.338846 0.805497
O O16 0.620806 0.964363 0.764392
#
# Coordination Sequence:
#
# PCOD8047094 Si02
#       8
#     2   2   2   2   2   2   2   2
#     4  11  25  49  76 108 145 194 245 301 375 443
#     4  11  26  48  72 109 141 194 247 299 376 439
#     4  10  24  44  74  98 149 189 247 298 369 447
#     4  12  28  46  77 106 150 188 248 312 371 440
#     4  11  26  46  71 112 149 198 250 306 375 444
#     4  11  27  47  78 106 143 196 243 312 371 447
#     4  11  28  46  70 112 147 195 247 307 373 443
#     4  11  26  42  74 105 150 196 247 305 374 443
#
# _framework density 24.16704
#
# number of rings (size 3 to 8) (size 9 to 14) (size 15 to 20)
#    0.000    1.000    1.250    3.000   15.750    1.000 
#    0.000    0.000    0.000    0.000    0.000    0.000 
#    0.000    0.000    0.000    0.000    0.000    0.000 
#
# Total GULP energy -198328.468809 kJ/mol
# GULP energy per Si atom -12395.529301 kJ/mol
# Density = 2.411204 g / cm^3
# Si number density = 24.167040 Si / 1000 Ang^3
#
#
#
# Elastic Constant Matrix: (Units=GPa)
#
#
# Indices 1 2 3 4 5 6 
#
# 1 44.3706 0.1874 8.5626 0.0000 12.9757 0.0000
# 2 0.1874 118.0987 25.8096 0.0000 13.6777 0.0000
# 3 8.5626 25.8096 78.2355 0.0000 1.1199 0.0000
# 4 0.0000 0.0000 0.0000 37.6226 0.0000 -0.3628
# 5 12.9757 13.6777 1.1199 0.0000 34.6678 0.0000
# 6 0.0000 0.0000 0.0000 -0.3628 0.0000 32.2602
#
#
#
# Elastic Compliance Matrix: (Units=1/GPa)
#
#
# Indices 1 2 3 4 5 6 
#
# 1 0.026235 0.001902 -0.003349 0.000000 -0.010462 0.000000
# 2 0.001902 0.009710 -0.003348 0.000000 -0.004435 0.000000
# 3 -0.003349 -0.003348 0.014223 0.000000 0.002115 0.000000
# 4 0.000000 0.000000 0.000000 0.026583 0.000000 0.000299
# 5 -0.010462 -0.004435 0.002115 0.000000 0.034442 0.000000
# 6 0.000000 0.000000 0.000000 0.000299 0.000000 0.031001
#
#
# Mechanical properties :
#
#
# Convention : Reuss Voigt Hill
#
# Bulk Modulus (GPa) = 24.64422 34.42488 29.53455
# Shear Modulus (GPa) = 30.24630 34.65312 32.44971
#
# Velocity S-wave (km/s) = 3.54157 3.79080 3.66830
# Velocity P-wave (km/s) = 5.19068 5.78236 5.49449
#
# Compressibility (1/GPa) = 0.04057746
#
# Stress axis : x y z
#
# Youngs Moduli (GPa) = 38.11688 102.98961 70.31042
#
# Poissons Ratio (x) = -0.19588 0.23547
# Poissons Ratio (y) = -0.07249 0.23539
# Poissons Ratio (z) = 0.12765 0.34480
#
# Static dielectric constant tensor:
#      x y z
#    x 4.416230 0.000000 0.103820 
#    y 0.000000 4.312740 0.000000 
#    z 0.103820 0.000000 4.226940 
# 
# 
# High freq. dielectric constant tensor:
#      x y z
#    x 1.972230 0.000000 0.006540 
#    y 0.000000 1.961420 0.000000 
#    z 0.006540 0.000000 1.953620 
# 
# From -- ./inp_files/3506.got.cif
#   From: 2010.03.12/outbox.cif.g09.slc.cpg/sg4_2_cif.got.tgz:3506.got - 2010.03.31 09:31:35.
