data_PCOD8047076
_publ_section_title
;
Structure prediction by ZEFSAII (Michael W. Deem and Ramdas Pophale) SiO2 
 PCOD8047076
Probable space group: P 21
;
_chemical_formula_sum "Si O2"
_cell_formula_units_Z 14
_cell_length_a 11.718781
_cell_length_b 8.526746
_cell_length_c 9.864316
_cell_angle_alpha 90.000000
_cell_angle_beta 144.364900
_cell_angle_gamma 90.000000
_cell_volume 574.273606
_symmetry_space_group_name_H-M "P 21"
_symmetry_group_IT_number 4
_symmetry_cell_setting 'monoclinic'
loop_
_space_group_symop_operation_xyz
x,y,z
-x,1/2+y,-z
loop_
_atom_site_type_symbol
_atom_site_label
_atom_site_fract_x
_atom_site_fract_y
_atom_site_fract_z
Si Si1 0.750000 0.457500 0.500000
Si Si2 0.892556 0.772306 0.246399
Si Si3 0.392555 0.272306 0.246398
Si Si4 0.073880 0.199347 0.132320
Si Si5 0.043733 0.509501 0.232469
Si Si6 0.573880 0.699347 0.132319
Si Si7 0.456268 0.509501 0.767531
O O1 0.606843 0.351345 0.455098
O O2 0.890128 0.558991 0.729782
O O3 0.609871 0.558991 0.270217
O O4 0.893156 0.351345 0.544902
O O5 0.909332 0.588150 0.218394
O O6 0.785732 0.771000 0.288842
O O7 0.750001 0.859374 0.000001
O O8 0.285732 0.271000 0.288842
O O9 0.409331 0.088150 0.218394
O O10 0.960767 0.342722 0.097510
O O11 0.946859 0.136960 0.882488
O O12 0.250000 0.477343 0.500000
O O13 0.460767 0.842722 0.097510
O O14 0.446860 0.636960 0.882488
#
# Coordination Sequence:
#
# PCOD8047076 Si02
#       7
#     2   2   2   2   2   2   2
#     4  12  24  42  72 102 136 182 224 280 340 406
#     4  10  24  44  67  99 138 178 229 279 336 404
#     4  10  24  44  67  99 138 178 229 279 336 404
#     4  11  25  44  70 102 137 182 226 278 348 397
#     4  11  23  46  70 101 138 175 231 282 329 411
#     4  11  25  44  70 102 137 182 226 278 348 397
#     4  11  23  46  70 101 138 175 231 282 329 411
#
# _framework density 24.378620999999999
#
# number of rings (size 3 to 8) (size 9 to 14) (size 15 to 20)
#    0.000    1.143    2.857    3.429    4.000    0.000 
#    0.000   12.857    0.000    0.000    0.000    0.000 
#    0.000    0.000    0.000    0.000    0.000    0.000 
#
# Total GULP energy -173510.952218 kJ/mol
# GULP energy per Si atom -12393.639444 kJ/mol
# Density = 2.432313 g / cm^3
# Si number density = 24.378621 Si / 1000 Ang^3
#
#
#
# Elastic Constant Matrix: (Units=GPa)
#
#
# Indices 1 2 3 4 5 6 
#
# 1 70.5248 30.6655 -8.1235 0.0000 -0.5524 0.0000
# 2 30.6655 139.4700 16.8321 0.0000 1.1298 0.0000
# 3 -8.1235 16.8321 65.7926 0.0000 -5.6107 0.0000
# 4 0.0000 0.0000 0.0000 42.2279 0.0000 -5.0008
# 5 -0.5524 1.1298 -5.6107 0.0000 29.2964 0.0000
# 6 0.0000 0.0000 0.0000 -5.0008 0.0000 32.6283
#
#
#
# Elastic Compliance Matrix: (Units=1/GPa)
#
#
# Indices 1 2 3 4 5 6 
#
# 1 0.016269 -0.003961 0.003112 0.000000 0.001055 0.000000
# 2 -0.003961 0.008375 -0.002710 0.000000 -0.000917 0.000000
# 3 0.003112 -0.002710 0.016561 0.000000 0.003335 0.000000
# 4 0.000000 0.000000 0.000000 0.024119 0.000000 0.003697
# 5 0.001055 -0.000917 0.003335 0.000000 0.034828 0.000000
# 6 0.000000 0.000000 0.000000 0.003697 0.000000 0.031215
#
#
# Mechanical properties :
#
#
# Convention : Reuss Voigt Hill
#
# Bulk Modulus (GPa) = 29.33658 39.39285 34.36472
# Shear Modulus (GPa) = 33.36735 36.59138 34.97937
#
# Velocity S-wave (km/s) = 3.70363 3.87843 3.79203
# Velocity P-wave (km/s) = 5.50899 6.02081 5.77058
#
# Compressibility (1/GPa) = 0.03408713
#
# Stress axis : x y z
#
# Youngs Moduli (GPa) = 61.46840 119.39690 60.38200
#
# Poissons Ratio (x) = 0.47295 -0.18791
# Poissons Ratio (y) = 0.24348 0.16363
# Poissons Ratio (z) = -0.19130 0.32356
#
# Static dielectric constant tensor:
#      x y z
#    x 4.309290 0.000000 -0.013950 
#    y 0.000000 4.443860 0.000000 
#    z -0.013950 0.000000 4.383520 
# 
# 
# High freq. dielectric constant tensor:
#      x y z
#    x 1.947190 0.000000 -0.008490 
#    y 0.000000 1.969340 0.000000 
#    z -0.008490 0.000000 1.965300 
# 
# From -- ./inp_files/12574.got.cif
#   From: 2010.03.12/outbox.cif.g09.slc.cpg/sg4_7_cif.got.tgz:12574.got - 2010.03.31 09:31:35.
