data_PCOD8047370
_publ_section_title
;
Structure prediction by ZEFSAII (Michael W. Deem and Ramdas Pophale) SiO2 
 PCOD8047370
Probable space group: P 21
;
_chemical_formula_sum "Si O2"
_cell_formula_units_Z 12
_cell_length_a 16.600324
_cell_length_b 7.723373
_cell_length_c 9.858910
_cell_angle_alpha 90.000000
_cell_angle_beta 26.651095
_cell_angle_gamma 90.000000
_cell_volume 566.982210
_symmetry_space_group_name_H-M "P 21"
_symmetry_group_IT_number 4
_symmetry_cell_setting 'monoclinic'
loop_
_space_group_symop_operation_xyz
x,y,z
-x,1/2+y,-z
loop_
_atom_site_type_symbol
_atom_site_label
_atom_site_fract_x
_atom_site_fract_y
_atom_site_fract_z
Si Si1 0.481149 0.261100 0.962535
Si Si2 0.165865 0.984469 0.860429
Si Si3 0.178565 0.796331 0.110203
Si Si4 0.119510 0.768836 0.678781
Si Si5 0.512115 0.118458 0.192920
Si Si6 0.145086 0.040215 0.403093
O O1 0.676360 0.201657 0.614848
O O2 0.427923 0.446072 0.978968
O O3 0.483961 0.269700 0.123351
O O4 0.343001 0.114722 0.125888
O O5 0.330005 0.091146 0.549783
O O6 0.068497 0.866824 0.894205
O O7 0.015884 0.112887 0.144271
O O8 0.240153 0.866578 0.870956
O O9 0.996524 0.691749 0.366533
O O10 0.135953 0.960020 0.268091
O O11 0.333119 0.672379 0.935979
O O12 0.102626 0.895499 0.577342
#
# Coordination Sequence:
#
# PCOD8047370 Si02
#       6
#     2   2   2   2   2   2
#     4  11  22  44  72  97 129 181 238 265 324 417
#     4  11  26  42  68 101 142 171 225 284 348 391
#     4  12  26  42  67 103 141 174 222 289 342 395
#     4  11  24  44  69 101 130 186 226 277 334 408
#     4  11  24  45  69 103 135 179 229 279 340 399
#     4  12  24  43  69 101 133 183 230 274 336 406
#
# _framework density 21.164684000000001
#
# number of rings (size 3 to 8) (size 9 to 14) (size 15 to 20)
#    0.000    0.667    5.000    3.000    2.333    5.333 
#    0.000    0.000    0.000    0.000    0.000    0.000 
#    0.000    0.000    0.000    0.000    0.000    0.000 
#
# Total GULP energy -148862.384043 kJ/mol
# GULP energy per Si atom -12405.198670 kJ/mol
# Density = 2.111651 g / cm^3
# Si number density = 21.164684 Si / 1000 Ang^3
#
#
#
# Elastic Constant Matrix: (Units=GPa)
#
#
# Indices 1 2 3 4 5 6 
#
# 1 154.0565 116.4931 108.3088 0.0000 2.0631 0.0000
# 2 116.4931 178.3417 129.1107 0.0000 -7.9161 0.0000
# 3 108.3088 129.1107 166.9729 0.0000 -7.1323 0.0000
# 4 0.0000 0.0000 0.0000 30.8950 0.0000 9.5121
# 5 2.0631 -7.9161 -7.1323 0.0000 37.8638 0.0000
# 6 0.0000 0.0000 0.0000 9.5121 0.0000 52.5730
#
#
#
# Elastic Compliance Matrix: (Units=1/GPa)
#
#
# Indices 1 2 3 4 5 6 
#
# 1 0.014585 -0.006174 -0.004814 0.000000 -0.002992 0.000000
# 2 -0.006174 0.015377 -0.007796 0.000000 0.002083 0.000000
# 3 -0.004814 -0.007796 0.015203 0.000000 0.001496 0.000000
# 4 0.000000 0.000000 0.000000 0.034277 0.000000 -0.006202
# 5 -0.002992 0.002083 0.001496 0.000000 0.027291 0.000000
# 6 0.000000 0.000000 0.000000 -0.006202 0.000000 0.020143
#
#
# Mechanical properties :
#
#
# Convention : Reuss Voigt Hill
#
# Bulk Modulus (GPa) = 131.64056 134.13294 132.88675
# Shear Modulus (GPa) = 29.94442 33.96358 31.95400
#
# Velocity S-wave (km/s) = 3.76550 4.01025 3.88980
# Velocity P-wave (km/s) = 9.01325 9.21717 9.11578
#
# Compressibility (1/GPa) = 0.00759644
#
# Stress axis : x y z
#
# Youngs Moduli (GPa) = 68.56591 65.03410 65.77433
#
# Poissons Ratio (x) = 0.40155 0.31663
# Poissons Ratio (y) = 0.42336 0.51276
# Poissons Ratio (z) = 0.33007 0.50699
#
# Static dielectric constant tensor:
#      x y z
#    x 3.987290 0.000000 -0.001320 
#    y 0.000000 3.851570 0.000000 
#    z -0.001320 0.000000 3.861820 
# 
# 
# High freq. dielectric constant tensor:
#      x y z
#    x 1.841980 0.000000 0.000770 
#    y 0.000000 1.835190 0.000000 
#    z 0.000770 0.000000 1.833340 
# 
# From -- ./inp_files/5209.got.cif
#   From: 2010.03.12/outbox.cif.g09.slc.cpg/sg4_3_cif.got.tgz:5209.got - 2010.03.31 09:31:35.
