data_PCOD8047297
_publ_section_title
;
Structure prediction by ZEFSAII (Michael W. Deem and Ramdas Pophale) SiO2 
 PCOD8047297
Probable space group: P 21
;
_chemical_formula_sum "Si O2"
_cell_formula_units_Z 16
_cell_length_a 14.142021
_cell_length_b 10.049492
_cell_length_c 14.796133
_cell_angle_alpha 90.000000
_cell_angle_beta 160.141986
_cell_angle_gamma 90.000000
_cell_volume 714.310631
_symmetry_space_group_name_H-M "P 21"
_symmetry_group_IT_number 4
_symmetry_cell_setting 'monoclinic'
loop_
_space_group_symop_operation_xyz
x,y,z
-x,1/2+y,-z
loop_
_atom_site_type_symbol
_atom_site_label
_atom_site_fract_x
_atom_site_fract_y
_atom_site_fract_z
Si Si1 0.304278 0.974130 0.490535
Si Si2 0.657272 0.880181 0.425755
Si Si3 0.326169 0.533866 0.871768
Si Si4 0.048892 0.282667 0.715195
Si Si5 0.937313 0.332939 0.041325
Si Si6 0.084957 0.536347 0.022754
Si Si7 0.425610 0.615565 0.770346
Si Si8 0.232825 0.156073 0.596115
O O1 0.183366 0.837000 0.422983
O O2 0.613910 0.973235 0.728824
O O3 0.287309 0.085823 0.550200
O O4 0.101857 0.006160 0.229035
O O5 0.740302 0.810956 0.404955
O O6 0.870659 0.852728 0.698444
O O7 0.619838 0.034135 0.363805
O O8 0.370514 0.820390 0.199652
O O9 0.222314 0.392523 0.815422
O O10 0.448854 0.522899 0.880849
O O11 0.074464 0.636828 0.643514
O O12 0.556301 0.599769 0.141442
O O13 0.854002 0.204202 0.469231
O O14 0.282906 0.195534 0.976741
O O15 0.977792 0.461492 0.015147
O O16 0.959194 0.195494 0.003128
#
# Coordination Sequence:
#
# PCOD8047297 Si02
#       8
#     2   2   2   2   2   2   2   2
#     4  11  22  44  73  95 131 181 237 278 358 414
#     4  12  26  46  70 102 143 191 224 297 357 432
#     4  11  25  41  69 100 133 187 230 292 340 412
#     4  11  25  46  65 104 138 181 240 295 346 434
#     4  12  26  46  71 107 147 181 253 288 373 432
#     4  12  24  44  72 105 136 187 234 308 347 442
#     4  12  27  43  68 101 148 182 235 296 358 415
#     4  11  21  44  72  96 132 178 237 280 333 427
#
# _framework density 22.399218000000001
#
# number of rings (size 3 to 8) (size 9 to 14) (size 15 to 20)
#    0.000    0.500    2.500    6.750    3.500    3.000 
#    0.000    0.000    0.000    0.000    0.000    0.000 
#    0.000    0.000    0.000    0.000    0.000    0.000 
#
# Total GULP energy -198306.255803 kJ/mol
# GULP energy per Si atom -12394.140988 kJ/mol
# Density = 2.234824 g / cm^3
# Si number density = 22.399218 Si / 1000 Ang^3
#
#
#
# Elastic Constant Matrix: (Units=GPa)
#
#
# Indices 1 2 3 4 5 6 
#
# 1 73.2767 39.8980 36.3043 0.0000 -15.4473 0.0000
# 2 39.8980 126.3177 47.3823 0.0000 -10.9654 0.0000
# 3 36.3043 47.3823 193.0231 0.0000 -13.1930 0.0000
# 4 0.0000 0.0000 0.0000 46.0802 0.0000 -8.1266
# 5 -15.4473 -10.9654 -13.1930 0.0000 38.4735 0.0000
# 6 0.0000 0.0000 0.0000 -8.1266 0.0000 29.8262
#
#
#
# Elastic Compliance Matrix: (Units=1/GPa)
#
#
# Indices 1 2 3 4 5 6 
#
# 1 0.018221 -0.004562 -0.001941 0.000000 0.005350 0.000000
# 2 -0.004562 0.009984 -0.001560 0.000000 0.000479 0.000000
# 3 -0.001941 -0.001560 0.005985 0.000000 0.000828 0.000000
# 4 0.000000 0.000000 0.000000 0.022797 0.000000 0.006211
# 5 0.005350 0.000479 0.000828 0.000000 0.028560 0.000000
# 6 0.000000 0.000000 0.000000 0.006211 0.000000 0.035220
#
#
# Mechanical properties :
#
#
# Convention : Reuss Voigt Hill
#
# Bulk Modulus (GPa) = 55.36281 71.08740 63.22510
# Shear Modulus (GPa) = 34.98551 40.81149 37.89850
#
# Velocity S-wave (km/s) = 3.95639 4.27313 4.11780
# Velocity P-wave (km/s) = 6.75579 7.49344 7.13415
#
# Compressibility (1/GPa) = 0.01806267
#
# Stress axis : x y z
#
# Youngs Moduli (GPa) = 54.88268 100.15643 167.07206
#
# Poissons Ratio (x) = 0.45696 0.32435
# Poissons Ratio (y) = 0.25040 0.26064
# Poissons Ratio (z) = 0.10655 0.15625
#
# Static dielectric constant tensor:
#      x y z
#    x 3.878630 0.000000 0.114530 
#    y 0.000000 4.055720 0.000000 
#    z 0.114530 0.000000 4.107930 
# 
# 
# High freq. dielectric constant tensor:
#      x y z
#    x 1.879540 0.000000 -0.001270 
#    y 0.000000 1.887860 0.000000 
#    z -0.001270 0.000000 1.907140 
# 
# From -- ./inp_files/14223.got.cif
#   From: 2010.03.12/outbox.cif.g09.slc.cpg/sg4_8_cif.got.tgz:14223.got - 2010.03.31 09:31:35.
