data_PCOD8047471
_publ_section_title
;
Structure prediction by ZEFSAII (Michael W. Deem and Ramdas Pophale) SiO2 
 PCOD8047471
Probable space group: P 21
;
_chemical_formula_sum "Si O2"
_cell_formula_units_Z 14
_cell_length_a 12.021213
_cell_length_b 8.438307
_cell_length_c 7.247451
_cell_angle_alpha 90.000000
_cell_angle_beta 62.535965
_cell_angle_gamma 90.000000
_cell_volume 652.318400
_symmetry_space_group_name_H-M "P 21"
_symmetry_group_IT_number 4
_symmetry_cell_setting 'monoclinic'
loop_
_space_group_symop_operation_xyz
x,y,z
-x,1/2+y,-z
loop_
_atom_site_type_symbol
_atom_site_label
_atom_site_fract_x
_atom_site_fract_y
_atom_site_fract_z
Si Si1 0.436997 0.440640 0.845228
Si Si2 0.620453 0.713716 0.776206
Si Si3 0.286321 0.430574 0.602297
Si Si4 0.080474 0.873603 0.731335
Si Si5 0.007301 0.524851 0.851545
Si Si6 0.181238 0.951694 0.294196
Si Si7 0.671443 0.258960 0.570546
O O1 0.491160 0.614993 0.851501
O O2 0.320029 0.443556 0.793722
O O3 0.540053 0.345369 0.648264
O O4 0.400549 0.355431 0.063392
O O5 0.662579 0.775309 0.541383
O O6 0.731832 0.606583 0.770634
O O7 0.136610 0.440449 0.698407
O O8 0.349893 0.574277 0.441474
O O9 0.002828 0.709665 0.802365
O O10 0.228130 0.829652 0.656164
O O11 0.072689 0.956237 0.536205
O O12 0.022979 0.003776 0.910602
O O13 0.891896 0.435475 0.840438
O O14 0.270069 0.798195 0.269182
#
# Coordination Sequence:
#
# PCOD8047471 Si02
#       7
#     2   2   2   2   2   2   2
#     4  11  23  44  65  97 127 170 218 265 325 383
#     4  11  25  42  69  95 130 173 216 266 325 382
#     4  11  24  40  66  98 131 166 215 271 318 381
#     4   9  23  41  62  94 127 167 218 257 323 377
#     4  11  24  41  67  97 129 175 211 264 325 385
#     4   9  23  43  61  92 135 169 212 266 310 386
#     4   8  20  47  58  93 129 166 214 265 318 378
#
# _framework density 21.461914
#
# number of rings (size 3 to 8) (size 9 to 14) (size 15 to 20)
#    0.857    1.143    0.000    1.714    6.000    0.000 
#   23.143    0.000    0.000    0.000    0.000    0.000 
#    0.000    0.000    0.000    0.000    0.000    0.000 
#
# Total GULP energy -173486.646682 kJ/mol
# GULP energy per Si atom -12391.903334 kJ/mol
# Density = 2.141307 g / cm^3
# Si number density = 21.461914 Si / 1000 Ang^3
#
#
#
# Elastic Constant Matrix: (Units=GPa)
#
#
# Indices 1 2 3 4 5 6 
#
# 1 89.6867 18.5328 9.4930 0.0000 19.7647 0.0000
# 2 18.5328 55.0669 19.8890 0.0000 2.0153 0.0000
# 3 9.4930 19.8890 71.0368 0.0000 3.6040 0.0000
# 4 0.0000 0.0000 0.0000 45.9672 0.0000 -10.9011
# 5 19.7647 2.0153 3.6040 0.0000 30.7755 0.0000
# 6 0.0000 0.0000 0.0000 -10.9011 0.0000 22.9643
#
#
#
# Elastic Compliance Matrix: (Units=1/GPa)
#
#
# Indices 1 2 3 4 5 6 
#
# 1 0.013973 -0.004305 -0.000222 0.000000 -0.008666 0.000000
# 2 -0.004305 0.021543 -0.005558 0.000000 0.002005 0.000000
# 3 -0.000222 -0.005558 0.015731 0.000000 -0.001335 0.000000
# 4 0.000000 0.000000 0.000000 0.024514 0.000000 0.011637
# 5 -0.008666 0.002005 -0.001335 0.000000 0.038084 0.000000
# 6 0.000000 0.000000 0.000000 0.011637 0.000000 0.049070
#
#
# Mechanical properties :
#
#
# Convention : Reuss Voigt Hill
#
# Bulk Modulus (GPa) = 32.17965 34.62447 33.40206
# Shear Modulus (GPa) = 25.84736 31.13310 28.49023
#
# Velocity S-wave (km/s) = 3.47412 3.81283 3.64741
# Velocity P-wave (km/s) = 5.57845 5.96252 5.77368
#
# Compressibility (1/GPa) = 0.03107554
#
# Stress axis : x y z
#
# Youngs Moduli (GPa) = 71.56778 46.41952 63.56961
#
# Poissons Ratio (x) = 0.19984 0.01413
# Poissons Ratio (y) = 0.30811 0.35332
# Poissons Ratio (z) = 0.01591 0.25800
#
# Static dielectric constant tensor:
#      x y z
#    x 3.703220 0.000000 -0.141720 
#    y 0.000000 3.775450 0.000000 
#    z -0.141720 0.000000 3.666330 
# 
# 
# High freq. dielectric constant tensor:
#      x y z
#    x 1.834190 0.000000 -0.012350 
#    y 0.000000 1.837720 0.000000 
#    z -0.012350 0.000000 1.834430 
# 
# From -- ./inp_files/2380.got.cif
#   From: 2010.03.12/outbox.cif.g09.slc.cpg/sg4_2_cif.got.tgz:2380.got - 2010.03.31 09:31:35.
