data_PCOD8047616
_publ_section_title
;
Structure prediction by ZEFSAII (Michael W. Deem and Ramdas Pophale) SiO2 
 PCOD8047616
Probable space group: P 21
;
_chemical_formula_sum "Si O2"
_cell_formula_units_Z 14
_cell_length_a 7.962507
_cell_length_b 14.418362
_cell_length_c 8.932853
_cell_angle_alpha 90.000000
_cell_angle_beta 146.705073
_cell_angle_gamma 90.000000
_cell_volume 562.973289
_symmetry_space_group_name_H-M "P 21"
_symmetry_group_IT_number 4
_symmetry_cell_setting 'monoclinic'
loop_
_space_group_symop_operation_xyz
x,y,z
-x,1/2+y,-z
loop_
_atom_site_type_symbol
_atom_site_label
_atom_site_fract_x
_atom_site_fract_y
_atom_site_fract_z
Si Si1 0.702289 0.588780 0.186781
Si Si2 0.715900 0.183426 0.348656
Si Si3 0.619130 0.257547 0.596510
Si Si4 0.660767 0.077858 0.794949
Si Si5 0.556924 0.427473 0.885767
Si Si6 0.063620 0.308133 0.384145
Si Si7 0.764233 0.466823 0.733623
O O1 0.582889 0.611297 0.263535
O O2 0.075069 0.592685 0.454773
O O3 0.571502 0.662795 0.970225
O O4 0.568189 0.487742 0.044777
O O5 0.585047 0.236193 0.395254
O O6 0.970726 0.241386 0.449084
O O7 0.783724 0.169576 0.799545
O O8 0.286202 0.264204 0.425291
O O9 0.801428 0.354951 0.746914
O O10 0.513308 0.002806 0.573623
O O11 0.934188 0.024563 0.084346
O O12 0.220756 0.395349 0.585249
O O13 0.696972 0.490596 0.857012
O O14 0.763259 0.336702 0.067592
#
# Coordination Sequence:
#
# PCOD8047616 Si02
#       7
#     2   2   2   2   2   2   2
#     4  12  26  46  73 107 147 197 243 309 370 439
#     4  12  26  45  72 105 143 192 244 291 386 432
#     4  11  27  48  78 107 153 193 252 309 371 445
#     4  12  26  46  72 108 153 185 254 305 366 442
#     4  11  24  45  72  97 151 181 249 300 370 430
#     4  11  25  45  71 108 140 191 236 313 360 441
#     4  11  26  45  72 110 137 203 242 301 375 437
#
# _framework density 24.867961999999999
#
# number of rings (size 3 to 8) (size 9 to 14) (size 15 to 20)
#    0.000    0.571    1.429    6.000    6.000    4.571 
#    0.000    0.000    0.000    0.000    0.000    0.000 
#    0.000    0.000    0.000    0.000    0.000    0.000 
#
# Total GULP energy -173611.000161 kJ/mol
# GULP energy per Si atom -12400.785726 kJ/mol
# Density = 2.481136 g / cm^3
# Si number density = 24.867962 Si / 1000 Ang^3
#
#
#
# Elastic Constant Matrix: (Units=GPa)
#
#
# Indices 1 2 3 4 5 6 
#
# 1 109.0995 26.0770 1.7579 0.0000 -24.1518 0.0000
# 2 26.0770 121.5457 17.9924 0.0000 -13.5225 0.0000
# 3 1.7579 17.9924 81.7347 0.0000 -12.9125 0.0000
# 4 0.0000 0.0000 0.0000 40.2018 0.0000 -4.2335
# 5 -24.1518 -13.5225 -12.9125 0.0000 30.9393 0.0000
# 6 0.0000 0.0000 0.0000 -4.2335 0.0000 34.4212
#
#
#
# Elastic Compliance Matrix: (Units=1/GPa)
#
#
# Indices 1 2 3 4 5 6 
#
# 1 0.011516 -0.001709 0.001532 0.000000 0.008882 0.000000
# 2 -0.001709 0.009054 -0.001651 0.000000 0.001934 0.000000
# 3 0.001532 -0.001651 0.013532 0.000000 0.006122 0.000000
# 4 0.000000 0.000000 0.000000 0.025201 0.000000 0.003099
# 5 0.008882 0.001934 0.006122 0.000000 0.042655 0.000000
# 6 0.000000 0.000000 0.000000 0.003099 0.000000 0.029433
#
#
# Mechanical properties :
#
#
# Convention : Reuss Voigt Hill
#
# Bulk Modulus (GPa) = 32.84572 44.89273 38.86923
# Shear Modulus (GPa) = 34.43625 38.88262 36.65943
#
# Velocity S-wave (km/s) = 3.72528 3.95848 3.84365
# Velocity P-wave (km/s) = 5.63385 6.24375 5.94663
#
# Compressibility (1/GPa) = 0.03044537
#
# Stress axis : x y z
#
# Youngs Moduli (GPa) = 86.83538 110.45363 73.89728
#
# Poissons Ratio (x) = 0.18880 -0.11319
# Poissons Ratio (y) = 0.14843 0.12198
# Poissons Ratio (z) = -0.13301 0.18233
#
# Static dielectric constant tensor:
#      x y z
#    x 4.368510 0.000000 -0.151210 
#    y 0.000000 4.419280 0.000000 
#    z -0.151210 0.000000 4.303900 
# 
# 
# High freq. dielectric constant tensor:
#      x y z
#    x 1.989580 0.000000 -0.012330 
#    y 0.000000 1.995820 0.000000 
#    z -0.012330 0.000000 1.994730 
# 
# From -- ./inp_files/6517.got.cif
#   From: 2010.03.12/outbox.cif.g09.slc.cpg/sg4_4_cif.got.tgz:6517.got - 2010.03.31 09:31:35.
