data_PCOD8047697
_publ_section_title
;
Structure prediction by ZEFSAII (Michael W. Deem and Ramdas Pophale) SiO2 
 PCOD8047697
Probable space group: P 21
;
_chemical_formula_sum "Si O2"
_cell_formula_units_Z 14
_cell_length_a 4.898964
_cell_length_b 9.043474
_cell_length_c 13.811540
_cell_angle_alpha 90.000000
_cell_angle_beta 65.084555
_cell_angle_gamma 90.000000
_cell_volume 554.952290
_symmetry_space_group_name_H-M "P 21"
_symmetry_group_IT_number 4
_symmetry_cell_setting 'monoclinic'
loop_
_space_group_symop_operation_xyz
x,y,z
-x,1/2+y,-z
loop_
_atom_site_type_symbol
_atom_site_label
_atom_site_fract_x
_atom_site_fract_y
_atom_site_fract_z
Si Si1 0.673203 0.518940 0.734034
Si Si2 0.391804 0.474820 0.434264
Si Si3 0.806422 0.528071 0.200554
Si Si4 0.017695 0.550742 0.869565
Si Si5 0.814591 0.641524 0.514327
Si Si6 0.667073 0.224121 0.823415
Si Si7 0.876080 0.825929 0.995197
O O1 0.768782 0.581422 0.825492
O O2 0.855418 0.593888 0.620465
O O3 0.717058 0.340816 0.727946
O O4 0.331292 0.565161 0.767139
O O5 0.655490 0.448762 0.315874
O O6 0.543793 0.551237 0.505004
O O7 0.241568 0.317521 0.486471
O O8 0.140105 0.586072 0.424776
O O9 0.535559 0.583135 0.173542
O O10 0.999644 0.671595 0.200054
O O11 0.033787 0.416104 0.113961
O O12 0.006694 0.662348 0.961676
O O13 0.987098 0.390398 0.925222
O O14 0.487743 0.313381 0.936416
#
# Coordination Sequence:
#
# PCOD8047697 Si02
#       7
#     2   2   2   2   2   2   2
#     4  11  26  46  75 104 151 195 259 312 390 464
#     4  12  29  50  84 119 157 211 266 338 400 480
#     4  12  27  47  75 111 156 197 263 317 388 466
#     4  11  25  43  72 106 147 194 252 307 389 459
#     4  12  28  53  82 117 159 209 267 335 409 468
#     4  11  26  43  75 111 148 204 249 319 390 463
#     4  11  25  46  73 110 150 198 250 316 382 470
#
# _framework density 25.227394
#
# number of rings (size 3 to 8) (size 9 to 14) (size 15 to 20)
#    0.000    0.571    1.429    5.143   10.000    5.714 
#    0.000    0.000    0.000    0.000    0.000    0.000 
#    0.000    0.000    0.000    0.000    0.000    0.000 
#
# Total GULP energy -173554.646080 kJ/mol
# GULP energy per Si atom -12396.760434 kJ/mol
# Density = 2.516998 g / cm^3
# Si number density = 25.227394 Si / 1000 Ang^3
#
#
#
# Elastic Constant Matrix: (Units=GPa)
#
#
# Indices 1 2 3 4 5 6 
#
# 1 109.9320 49.1373 28.4799 0.0000 -0.3913 0.0000
# 2 49.1373 123.1337 32.7800 0.0000 -4.0614 0.0000
# 3 28.4799 32.7800 97.3132 0.0000 -6.7649 0.0000
# 4 0.0000 0.0000 0.0000 40.9616 0.0000 -4.6592
# 5 -0.3913 -4.0614 -6.7649 0.0000 33.0839 0.0000
# 6 0.0000 0.0000 0.0000 -4.6592 0.0000 42.6671
#
#
#
# Elastic Compliance Matrix: (Units=1/GPa)
#
#
# Indices 1 2 3 4 5 6 
#
# 1 0.011429 -0.004044 -0.002037 0.000000 -0.000778 0.000000
# 2 -0.004044 0.010360 -0.002253 0.000000 0.000763 0.000000
# 3 -0.002037 -0.002253 0.011778 0.000000 0.002108 0.000000
# 4 0.000000 0.000000 0.000000 0.024720 0.000000 0.002699
# 5 -0.000778 0.000763 0.002108 0.000000 0.030742 0.000000
# 6 0.000000 0.000000 0.000000 0.002699 0.000000 0.023732
#
#
# Mechanical properties :
#
#
# Convention : Reuss Voigt Hill
#
# Bulk Modulus (GPa) = 59.17602 61.24148 60.20875
# Shear Modulus (GPa) = 37.02008 38.00796 37.51402
#
# Velocity S-wave (km/s) = 3.83489 3.88572 3.86039
# Velocity P-wave (km/s) = 6.56632 6.66785 6.61728
#
# Compressibility (1/GPa) = 0.01689874
#
# Stress axis : x y z
#
# Youngs Moduli (GPa) = 87.49585 96.52350 84.90687
#
# Poissons Ratio (x) = 0.39037 0.17292
# Poissons Ratio (y) = 0.35386 0.19131
# Poissons Ratio (z) = 0.17819 0.21748
#
# Static dielectric constant tensor:
#      x y z
#    x 4.313160 0.000000 -0.280210 
#    y 0.000000 4.623850 0.000000 
#    z -0.280210 0.000000 4.554880 
# 
# 
# High freq. dielectric constant tensor:
#      x y z
#    x 2.006610 0.000000 -0.013790 
#    y 0.000000 2.008990 0.000000 
#    z -0.013790 0.000000 2.011730 
# 
# From -- ./inp_files/13284.got.cif
#   From: 2010.03.12/outbox.cif.g09.slc.cpg/sg4_7_cif.got.tgz:13284.got - 2010.03.31 09:31:35.
