data_PCOD8047817
_publ_section_title
;
Structure prediction by ZEFSAII (Michael W. Deem and Ramdas Pophale) SiO2 
 PCOD8047817
Probable space group: P 21
;
_chemical_formula_sum "Si O2"
_cell_formula_units_Z 14
_cell_length_a 14.243499
_cell_length_b 4.951003
_cell_length_c 10.019925
_cell_angle_alpha 90.000000
_cell_angle_beta 52.206510
_cell_angle_gamma 90.000000
_cell_volume 558.373656
_symmetry_space_group_name_H-M "P 21"
_symmetry_group_IT_number 4
_symmetry_cell_setting 'monoclinic'
loop_
_space_group_symop_operation_xyz
x,y,z
-x,1/2+y,-z
loop_
_atom_site_type_symbol
_atom_site_label
_atom_site_fract_x
_atom_site_fract_y
_atom_site_fract_z
Si Si1 0.678782 0.816550 0.110011
Si Si2 0.470661 0.756619 0.110686
Si Si3 0.817827 0.302013 0.909641
Si Si4 0.270210 0.422034 0.625473
Si Si5 0.732022 0.434254 0.538791
Si Si6 0.012838 0.037282 0.564640
Si Si7 0.987441 0.934585 0.079024
O O1 0.544398 0.746144 0.185246
O O2 0.767200 0.604799 0.961527
O O3 0.685709 0.845922 0.264488
O O4 0.707032 0.102712 0.017185
O O5 0.336024 0.847821 0.265727
O O6 0.469748 0.462093 0.045912
O O7 0.906437 0.234253 0.711668
O O8 0.901601 0.257693 0.964970
O O9 0.298685 0.723986 0.553784
O O10 0.128344 0.394915 0.732006
O O11 0.322706 0.212656 0.471366
O O12 0.872587 0.466976 0.444690
O O13 0.050432 0.250261 0.415136
O O14 0.971385 0.748720 0.959798
#
# Coordination Sequence:
#
# PCOD8047817 Si02
#       7
#     2   2   2   2   2   2   2
#     4  12  27  45  76 111 141 198 243 298 368 441
#     4  12  30  55  76 101 142 196 256 309 364 438
#     4  12  24  42  69 108 149 186 241 293 368 437
#     4  12  24  44  73 111 149 184 242 301 375 448
#     4  12  28  48  74 106 148 194 240 310 376 429
#     4  12  28  44  70 109 153 198 249 306 370 441
#     4  12  21  38  64 106 150 186 217 283 367 444
#
# _framework density 25.072817000000001
#
# number of rings (size 3 to 8) (size 9 to 14) (size 15 to 20)
#    0.000    0.000    4.286    5.143    8.000    1.143 
#    0.000    0.000    0.000    0.000    0.000    0.000 
#    0.000    0.000    0.000    0.000    0.000    0.000 
#
# Total GULP energy -173447.037712 kJ/mol
# GULP energy per Si atom -12389.074122 kJ/mol
# Density = 2.501575 g / cm^3
# Si number density = 25.072817 Si / 1000 Ang^3
#
#
#
# Elastic Constant Matrix: (Units=GPa)
#
#
# Indices 1 2 3 4 5 6 
#
# 1 86.3483 21.8799 7.8139 0.0000 1.6477 0.0000
# 2 21.8799 134.0283 3.2351 0.0000 12.0061 0.0000
# 3 7.8139 3.2351 68.3008 0.0000 -2.4582 0.0000
# 4 0.0000 0.0000 0.0000 48.5576 0.0000 6.2681
# 5 1.6477 12.0061 -2.4582 0.0000 24.8764 0.0000
# 6 0.0000 0.0000 0.0000 6.2681 0.0000 28.0213
#
#
#
# Elastic Compliance Matrix: (Units=1/GPa)
#
#
# Indices 1 2 3 4 5 6 
#
# 1 0.012195 -0.001960 -0.001302 0.000000 0.000010 0.000000
# 2 -0.001960 0.008131 -0.000298 0.000000 -0.003824 0.000000
# 3 -0.001302 -0.000298 0.014865 0.000000 0.001699 0.000000
# 4 0.000000 0.000000 0.000000 0.021206 0.000000 -0.004744
# 5 0.000010 -0.003824 0.001699 0.000000 0.042212 0.000000
# 6 0.000000 0.000000 0.000000 -0.004744 0.000000 0.036748
#
#
# Mechanical properties :
#
#
# Convention : Reuss Voigt Hill
#
# Bulk Modulus (GPa) = 35.62519 39.39278 37.50899
# Shear Modulus (GPa) = 32.93024 37.34096 35.13560
#
# Velocity S-wave (km/s) = 3.62800 3.86333 3.74751
# Velocity P-wave (km/s) = 5.63820 5.97042 5.80669
#
# Compressibility (1/GPa) = 0.02807002
#
# Stress axis : x y z
#
# Youngs Moduli (GPa) = 81.99832 122.98799 67.27048
#
# Poissons Ratio (x) = 0.24110 0.08759
# Poissons Ratio (y) = 0.16074 0.02008
# Poissons Ratio (z) = 0.10676 0.03671
#
# Static dielectric constant tensor:
#      x y z
#    x 4.442760 0.000000 0.042940 
#    y 0.000000 4.733390 0.000000 
#    z 0.042940 0.000000 4.269280 
# 
# 
# High freq. dielectric constant tensor:
#      x y z
#    x 1.992690 0.000000 0.003830 
#    y 0.000000 2.024270 0.000000 
#    z 0.003830 0.000000 1.984100 
# 
# From -- ./inp_files/8564.got.cif
#   From: 2010.03.12/outbox.cif.g09.slc.cpg/sg4_5_cif.got.tgz:8564.got - 2010.03.31 09:31:35.
