data_PCOD8047666
_publ_section_title
;
Structure prediction by ZEFSAII (Michael W. Deem and Ramdas Pophale) SiO2 
 PCOD8047666
Probable space group: P 21
;
_chemical_formula_sum "Si O2"
_cell_formula_units_Z 10
_cell_length_a 6.223189
_cell_length_b 9.589148
_cell_length_c 9.361279
_cell_angle_alpha 90.000000
_cell_angle_beta 50.152826
_cell_angle_gamma 90.000000
_cell_volume 428.895563
_symmetry_space_group_name_H-M "P 21"
_symmetry_group_IT_number 4
_symmetry_cell_setting 'monoclinic'
loop_
_space_group_symop_operation_xyz
x,y,z
-x,1/2+y,-z
loop_
_atom_site_type_symbol
_atom_site_label
_atom_site_fract_x
_atom_site_fract_y
_atom_site_fract_z
Si Si1 0.661574 0.944580 0.082193
Si Si2 0.711084 0.435829 0.192330
Si Si3 0.181505 0.619399 0.363718
Si Si4 0.742369 0.378734 0.503336
Si Si5 0.578104 0.226680 0.007727
O O1 0.542007 0.893126 0.283755
O O2 0.473524 0.073287 0.101832
O O3 0.664653 0.820242 0.962450
O O4 0.978840 0.999395 0.959868
O O5 0.491282 0.555433 0.248578
O O6 0.655890 0.382494 0.376101
O O7 0.694591 0.302895 0.097131
O O8 0.117148 0.728941 0.518745
O O9 0.951247 0.500609 0.460269
O O10 0.177844 0.705358 0.215913
#
# Coordination Sequence:
#
# PCOD8047666 Si02
#       5
#     2   2   2   2   2
#     4  11  27  46  78 103 147 197 240 304 366 427
#     4  12  26  48  75 108 144 192 255 294 358 440
#     4  11  27  51  71 108 152 190 245 301 371 422
#     4  11  28  47  75 108 146 192 244 305 361 437
#     4  11  24  48  73 103 149 189 238 302 366 422
#
# _framework density 23.3157
#
# number of rings (size 3 to 8) (size 9 to 14) (size 15 to 20)
#    0.000    0.800    4.000    0.000   14.000    3.200 
#    0.000    0.000    0.000    0.000    0.000    0.000 
#    0.000    0.000    0.000    0.000    0.000    0.000 
#
# Total GULP energy -124007.890559 kJ/mol
# GULP energy per Si atom -12400.789056 kJ/mol
# Density = 2.326263 g / cm^3
# Si number density = 23.315700 Si / 1000 Ang^3
#
#
#
# Elastic Constant Matrix: (Units=GPa)
#
#
# Indices 1 2 3 4 5 6 
#
# 1 71.3747 15.0156 67.5389 0.0000 30.3992 0.0000
# 2 15.0156 110.5555 46.3152 0.0000 34.5661 0.0000
# 3 67.5389 46.3152 122.7652 0.0000 33.3210 0.0000
# 4 0.0000 0.0000 0.0000 48.8532 0.0000 5.6169
# 5 30.3992 34.5661 33.3210 0.0000 28.1479 0.0000
# 6 0.0000 0.0000 0.0000 5.6169 0.0000 32.7672
#
#
#
# Elastic Compliance Matrix: (Units=1/GPa)
#
#
# Indices 1 2 3 4 5 6 
#
# 1 0.056059 0.020153 -0.022534 0.000000 -0.058615 0.000000
# 2 0.020153 0.022003 -0.009057 0.000000 -0.038064 0.000000
# 3 -0.022534 -0.009057 0.021122 0.000000 0.010455 0.000000
# 4 0.000000 0.000000 0.000000 0.020881 0.000000 -0.003579
# 5 -0.058615 -0.038064 0.010455 0.000000 0.133196 0.000000
# 6 0.000000 0.000000 0.000000 -0.003579 0.000000 0.031132
#
#
# Mechanical properties :
#
#
# Convention : Reuss Voigt Hill
#
# Bulk Modulus (GPa) = 13.10490 62.49279 37.79885
# Shear Modulus (GPa) = 15.02832 33.67537 24.35185
#
# Velocity S-wave (km/s) = 2.54157 3.80455 3.23529
# Velocity P-wave (km/s) = 3.77433 6.79415 5.49573
#
# Compressibility (1/GPa) = 0.07630731
#
# Stress axis : x y z
#
# Youngs Moduli (GPa) = 17.83849 45.44799 47.34402
#
# Poissons Ratio (x) = -0.91590 1.06686
# Poissons Ratio (y) = -0.35949 0.42878
# Poissons Ratio (z) = 0.40198 0.41161
#
# Static dielectric constant tensor:
#      x y z
#    x 4.008270 0.000000 0.243170 
#    y 0.000000 4.405790 0.000000 
#    z 0.243170 0.000000 4.331910 
# 
# 
# High freq. dielectric constant tensor:
#      x y z
#    x 1.903340 0.000000 0.020140 
#    y 0.000000 1.938870 0.000000 
#    z 0.020140 0.000000 1.932110 
# 
# From -- ./inp_files/907.got.cif
#   From: 2010.03.12/outbox.cif.g09.slc.cpg/sg4_1_cif.got.tgz:907.got - 2010.03.31 09:31:35.
