data_PCOD8047677
_publ_section_title
;
Structure prediction by ZEFSAII (Michael W. Deem and Ramdas Pophale) SiO2 
 PCOD8047677
Probable space group: P 21
;
_chemical_formula_sum "Si O2"
_cell_formula_units_Z 14
_cell_length_a 11.256241
_cell_length_b 10.418195
_cell_length_c 5.421995
_cell_angle_alpha 90.000000
_cell_angle_beta 119.449283
_cell_angle_gamma 90.000000
_cell_volume 553.680244
_symmetry_space_group_name_H-M "P 21"
_symmetry_group_IT_number 4
_symmetry_cell_setting 'monoclinic'
loop_
_space_group_symop_operation_xyz
x,y,z
-x,1/2+y,-z
loop_
_atom_site_type_symbol
_atom_site_label
_atom_site_fract_x
_atom_site_fract_y
_atom_site_fract_z
Si Si1 0.527221 0.086460 0.607868
Si Si2 0.917745 0.669029 0.000832
Si Si3 0.212499 0.718892 0.178335
Si Si4 0.541965 0.849860 0.287228
Si Si5 0.103245 0.927353 0.753570
Si Si6 0.344607 0.903203 0.691771
Si Si7 0.165010 0.304930 0.588346
O O1 0.692562 0.098474 0.804646
O O2 0.456842 0.229189 0.516443
O O3 0.503263 0.989508 0.356568
O O4 0.453707 0.017191 0.761359
O O5 0.882040 0.518323 0.990965
O O6 0.843262 0.733330 0.158779
O O7 0.081416 0.680306 0.207116
O O8 0.867147 0.717807 0.685608
O O9 0.314127 0.814905 0.426156
O O10 0.153221 0.784904 0.873544
O O11 0.685019 0.862583 0.289929
O O12 0.417446 0.815147 0.975056
O O13 0.203216 0.970940 0.635090
O O14 0.945428 0.920744 0.508176
#
# Coordination Sequence:
#
# PCOD8047677 Si02
#       7
#     2   2   2   2   2   2   2
#     4  12  26  47  73 110 157 200 254 326 390 469
#     4  11  26  46  81 107 155 200 263 324 390 466
#     4  11  25  50  72 116 150 201 258 330 393 468
#     4  12  29  46  75 116 152 210 260 329 392 477
#     4  11  24  49  72 109 147 205 257 324 391 466
#     4  12  25  47  79 105 159 198 269 317 403 468
#     4  11  27  47  74 113 150 200 265 320 391 466
#
# _framework density 25.285350999999999
#
# number of rings (size 3 to 8) (size 9 to 14) (size 15 to 20)
#    0.000    0.571    4.286    1.714   10.000    0.000 
#    5.143    0.000    0.000    0.000    0.000    0.000 
#    0.000    0.000    0.000    0.000    0.000    0.000 
#
# Total GULP energy -173486.727138 kJ/mol
# GULP energy per Si atom -12391.909081 kJ/mol
# Density = 2.522780 g / cm^3
# Si number density = 25.285351 Si / 1000 Ang^3
#
#
#
# Elastic Constant Matrix: (Units=GPa)
#
#
# Indices 1 2 3 4 5 6 
#
# 1 197.3275 39.2407 15.6797 0.0000 9.2645 0.0000
# 2 39.2407 74.3235 3.9840 0.0000 -1.6520 0.0000
# 3 15.6797 3.9840 54.9942 0.0000 -2.7660 0.0000
# 4 0.0000 0.0000 0.0000 23.6132 0.0000 3.7558
# 5 9.2645 -1.6520 -2.7660 0.0000 35.7496 0.0000
# 6 0.0000 0.0000 0.0000 3.7558 0.0000 51.2952
#
#
#
# Elastic Compliance Matrix: (Units=1/GPa)
#
#
# Indices 1 2 3 4 5 6 
#
# 1 0.005884 -0.003063 -0.001545 0.000000 -0.001786 0.000000
# 2 -0.003063 0.015113 -0.000147 0.000000 0.001481 0.000000
# 3 -0.001545 -0.000147 0.018728 0.000000 0.001843 0.000000
# 4 0.000000 0.000000 0.000000 0.042848 0.000000 -0.003137
# 5 -0.001786 0.001481 0.001843 0.000000 0.028646 0.000000
# 6 0.000000 0.000000 0.000000 -0.003137 0.000000 0.019725
#
#
# Mechanical properties :
#
#
# Convention : Reuss Voigt Hill
#
# Bulk Modulus (GPa) = 33.09855 49.38378 41.24117
# Shear Modulus (GPa) = 33.21705 39.98097 36.59901
#
# Velocity S-wave (km/s) = 3.62842 3.98073 3.80865
# Velocity P-wave (km/s) = 5.53826 6.37976 5.97384
#
# Compressibility (1/GPa) = 0.03021280
#
# Stress axis : x y z
#
# Youngs Moduli (GPa) = 169.96672 66.16929 53.39691
#
# Poissons Ratio (x) = 0.20269 0.08252
# Poissons Ratio (y) = 0.52064 0.00785
# Poissons Ratio (z) = 0.26266 0.00973
#
# Static dielectric constant tensor:
#      x y z
#    x 5.264710 0.000000 0.150490 
#    y 0.000000 4.482920 0.000000 
#    z 0.150490 0.000000 4.024550 
# 
# 
# High freq. dielectric constant tensor:
#      x y z
#    x 2.052240 0.000000 0.003680 
#    y 0.000000 1.993300 0.000000 
#    z 0.003680 0.000000 1.979930 
# 
# From -- ./inp_files/2687.got.cif
#   From: 2010.03.12/outbox.cif.g09.slc.cpg/sg4_2_cif.got.tgz:2687.got - 2010.03.31 09:31:35.
