data_PCOD8047944
_publ_section_title
;
Structure prediction by ZEFSAII (Michael W. Deem and Ramdas Pophale) SiO2 
 PCOD8047944
Probable space group: P 21
;
_chemical_formula_sum "Si O2"
_cell_formula_units_Z 16
_cell_length_a 6.785812
_cell_length_b 14.743733
_cell_length_c 8.573867
_cell_angle_alpha 90.000000
_cell_angle_beta 123.212501
_cell_angle_gamma 90.000000
_cell_volume 717.673899
_symmetry_space_group_name_H-M "P 21"
_symmetry_group_IT_number 4
_symmetry_cell_setting 'monoclinic'
loop_
_space_group_symop_operation_xyz
x,y,z
-x,1/2+y,-z
loop_
_atom_site_type_symbol
_atom_site_label
_atom_site_fract_x
_atom_site_fract_y
_atom_site_fract_z
Si Si1 0.932500 0.887570 0.837899
Si Si2 0.252701 0.963710 0.437485
Si Si3 0.537344 0.792825 0.496768
Si Si4 0.067736 0.044510 0.662224
Si Si5 0.439635 0.607015 0.605198
Si Si6 0.252406 0.468522 0.937369
Si Si7 0.537219 0.639346 0.996623
Si Si8 0.560017 0.325204 0.894561
O O1 0.792308 0.810216 0.683519
O O2 0.761410 0.928036 0.895630
O O3 0.000017 0.965890 0.749692
O O4 0.164754 0.844842 0.015785
O O5 0.343401 0.860623 0.484955
O O6 0.000094 0.966098 0.250114
O O7 0.239077 0.004322 0.604489
O O8 0.439107 0.018868 0.415071
O O9 0.462491 0.690283 0.497001
O O10 0.562291 0.803274 0.322124
O O11 0.835568 0.087363 0.484485
O O12 0.207677 0.121725 0.816961
O O13 0.561819 0.629063 0.821803
O O14 0.343143 0.571608 0.984759
O O15 0.438920 0.413312 0.915151
O O16 0.462837 0.741893 0.997373
#
# Coordination Sequence:
#
# PCOD8047944 Si02
#       8
#     2   2   2   2   2   2   2   2
#     4  12  26  47  76 101 144 191 235 293 357 422
#     4  12  25  49  74 105 146 189 237 297 353 422
#     4  12  27  47  74 105 146 185 240 294 355 425
#     4  12  26  47  76 101 144 191 235 293 357 422
#     4  12  28  48  70 111 141 189 240 293 357 424
#     4  12  25  49  74 105 146 189 237 297 353 422
#     4  12  27  47  74 105 146 185 240 294 355 425
#     4  12  28  48  70 111 141 189 240 293 357 424
#
# _framework density 22.294246000000001
#
# number of rings (size 3 to 8) (size 9 to 14) (size 15 to 20)
#    0.000    0.000    5.000    4.500    7.000    2.000 
#    0.000    0.000    0.000    0.000    0.000    0.000 
#    0.000    0.000    0.000    0.000    0.000    0.000 
#
# Total GULP energy -198562.144031 kJ/mol
# GULP energy per Si atom -12410.134002 kJ/mol
# Density = 2.224350 g / cm^3
# Si number density = 22.294246 Si / 1000 Ang^3
#
#
#
# Elastic Constant Matrix: (Units=GPa)
#
#
# Indices 1 2 3 4 5 6 
#
# 1 94.1668 9.4691 28.7248 0.0000 0.2268 0.0000
# 2 9.4691 79.3095 0.0451 0.0000 8.7045 0.0000
# 3 28.7248 0.0451 103.5632 0.0000 -1.0580 0.0000
# 4 0.0000 0.0000 0.0000 35.2625 0.0000 -1.8335
# 5 0.2268 8.7045 -1.0580 0.0000 56.3714 0.0000
# 6 0.0000 0.0000 0.0000 -1.8335 0.0000 36.2802
#
#
#
# Elastic Compliance Matrix: (Units=1/GPa)
#
#
# Indices 1 2 3 4 5 6 
#
# 1 0.011755 -0.001414 -0.003259 0.000000 0.000110 0.000000
# 2 -0.001414 0.012996 0.000366 0.000000 -0.001994 0.000000
# 3 -0.003259 0.000366 0.010561 0.000000 0.000155 0.000000
# 4 0.000000 0.000000 0.000000 0.028433 0.000000 0.001437
# 5 0.000110 -0.001994 0.000155 0.000000 0.018050 0.000000
# 6 0.000000 0.000000 0.000000 0.001437 0.000000 0.027636
#
#
# Mechanical properties :
#
#
# Convention : Reuss Voigt Hill
#
# Bulk Modulus (GPa) = 37.45311 39.27972 38.36642
# Shear Modulus (GPa) = 39.38714 41.50287 40.44501
#
# Velocity S-wave (km/s) = 4.20777 4.31930 4.26390
# Velocity P-wave (km/s) = 6.35948 6.52167 6.44109
#
# Compressibility (1/GPa) = 0.02670005
#
# Stress axis : x y z
#
# Youngs Moduli (GPa) = 85.06714 76.94502 94.68591
#
# Poissons Ratio (x) = 0.10878 0.30856
# Poissons Ratio (y) = 0.12026 -0.03466
# Poissons Ratio (z) = 0.27722 -0.02817
#
# Static dielectric constant tensor:
#      x y z
#    x 4.267460 0.000000 0.123580 
#    y 0.000000 4.040020 0.000000 
#    z 0.123580 0.000000 4.275060 
# 
# 
# High freq. dielectric constant tensor:
#      x y z
#    x 1.883410 0.000000 0.000520 
#    y 0.000000 1.880950 0.000000 
#    z 0.000520 0.000000 1.901310 
# 
# From -- ./inp_files/1842.got.cif
#   From: 2010.03.12/outbox.cif.g09.slc.cpg/sg4_1_cif.got.tgz:1842.got - 2010.03.31 09:31:35.
