data_PCOD8047567
_publ_section_title
;
Structure prediction by ZEFSAII (Michael W. Deem and Ramdas Pophale) SiO2 
 PCOD8047567
Probable space group: P 21
;
_chemical_formula_sum "Si O2"
_cell_formula_units_Z 16
_cell_length_a 12.075407
_cell_length_b 6.470510
_cell_length_c 11.002589
_cell_angle_alpha 90.000000
_cell_angle_beta 53.137544
_cell_angle_gamma 90.000000
_cell_volume 687.808386
_symmetry_space_group_name_H-M "P 21"
_symmetry_group_IT_number 4
_symmetry_cell_setting 'monoclinic'
loop_
_space_group_symop_operation_xyz
x,y,z
-x,1/2+y,-z
loop_
_atom_site_type_symbol
_atom_site_label
_atom_site_fract_x
_atom_site_fract_y
_atom_site_fract_z
Si Si1 0.777453 0.926340 0.593861
Si Si2 0.600070 0.562775 0.767245
Si Si3 0.414235 0.754475 0.416687
Si Si4 0.069132 0.306272 0.715823
Si Si5 0.859160 0.974894 0.818227
Si Si6 0.165172 0.067479 0.012697
Si Si7 0.696667 0.577654 0.330359
Si Si8 0.641646 0.312166 0.971636
O O1 0.717018 0.693617 0.621654
O O2 0.915962 0.937102 0.419160
O O3 0.672489 0.101515 0.613860
O O4 0.822162 0.935821 0.703417
O O5 0.522960 0.435463 0.711526
O O6 0.656900 0.391289 0.823849
O O7 0.511877 0.735767 0.897373
O O8 0.541760 0.638093 0.394259
O O9 0.316841 0.864307 0.583385
O O10 0.229344 0.271248 0.650897
O O11 0.008182 0.081067 0.727253
O O12 0.969602 0.426194 0.874092
O O13 0.740787 0.126179 0.943054
O O14 0.865112 0.787745 0.908196
O O15 0.311257 0.000059 0.975120
O O16 0.193287 0.052240 0.851628
#
# Coordination Sequence:
#
# PCOD8047567 Si02
#       8
#     2   2   2   2   2   2   2   2
#     4  12  25  47  75 110 147 190 250 319 395 444
#     4  12  24  43  74 113 150 190 245 318 390 452
#     4  12  28  49  77 109 150 202 250 326 378 453
#     4  11  29  45  71 109 139 205 251 304 373 451
#     4  11  25  47  73 108 145 194 247 317 380 443
#     4  11  27  48  72 103 153 200 249 313 371 450
#     4  12  28  51  73 106 151 202 259 303 374 456
#     4  11  24  42  71 110 145 187 247 306 389 453
#
# _framework density 23.262294000000001
#
# number of rings (size 3 to 8) (size 9 to 14) (size 15 to 20)
#    0.000    0.500    3.750    3.000    8.750    0.000 
#    2.250    0.000    0.000    0.000    0.000    0.000 
#    0.000    0.000    0.000    0.000    0.000    0.000 
#
# Total GULP energy -198269.547885 kJ/mol
# GULP energy per Si atom -12391.846743 kJ/mol
# Density = 2.320935 g / cm^3
# Si number density = 23.262294 Si / 1000 Ang^3
#
#
#
# Elastic Constant Matrix: (Units=GPa)
#
#
# Indices 1 2 3 4 5 6 
#
# 1 66.6969 29.9725 26.4291 0.0000 6.5388 0.0000
# 2 29.9725 104.4652 40.1725 0.0000 0.9539 0.0000
# 3 26.4291 40.1725 125.6091 0.0000 4.6674 0.0000
# 4 0.0000 0.0000 0.0000 41.2782 0.0000 -1.8210
# 5 6.5388 0.9539 4.6674 0.0000 30.5995 0.0000
# 6 0.0000 0.0000 0.0000 -1.8210 0.0000 35.6280
#
#
#
# Elastic Compliance Matrix: (Units=1/GPa)
#
#
# Indices 1 2 3 4 5 6 
#
# 1 0.018175 -0.004289 -0.002326 0.000000 -0.003395 0.000000
# 2 -0.004289 0.011928 -0.002949 0.000000 0.000995 0.000000
# 3 -0.002326 -0.002949 0.009425 0.000000 -0.000849 0.000000
# 4 0.000000 0.000000 0.000000 0.024281 0.000000 0.001241
# 5 -0.003395 0.000995 -0.000849 0.000000 0.033504 0.000000
# 6 0.000000 0.000000 0.000000 0.001241 0.000000 0.028131
#
#
# Mechanical properties :
#
#
# Convention : Reuss Voigt Hill
#
# Bulk Modulus (GPa) = 49.02103 54.43549 51.72826
# Shear Modulus (GPa) = 33.03057 34.84760 33.93909
#
# Velocity S-wave (km/s) = 3.77227 3.87464 3.82380
# Velocity P-wave (km/s) = 6.33185 6.59307 6.46378
#
# Compressibility (1/GPa) = 0.02039941
#
# Stress axis : x y z
#
# Youngs Moduli (GPa) = 55.01951 83.83419 106.09527
#
# Poissons Ratio (x) = 0.35958 0.24681
# Poissons Ratio (y) = 0.23599 0.31292
# Poissons Ratio (z) = 0.12799 0.24726
#
# Static dielectric constant tensor:
#      x y z
#    x 4.184320 0.000000 0.136540 
#    y 0.000000 4.303610 0.000000 
#    z 0.136540 0.000000 4.250290 
# 
# 
# High freq. dielectric constant tensor:
#      x y z
#    x 1.918350 0.000000 0.011190 
#    y 0.000000 1.928220 0.000000 
#    z 0.011190 0.000000 1.932260 
# 
# From -- ./inp_files/11579.got.cif
#   From: 2010.03.12/outbox.cif.g09.slc.cpg/sg4_6_cif.got.tgz:11579.got - 2010.03.31 09:31:35.
