data_PCOD8047307
_publ_section_title
;
Structure prediction by ZEFSAII (Michael W. Deem and Ramdas Pophale) SiO2 
 PCOD8047307
Probable space group: P 21
;
_chemical_formula_sum "Si O2"
_cell_formula_units_Z 14
_cell_length_a 8.317829
_cell_length_b 9.112461
_cell_length_c 12.225250
_cell_angle_alpha 90.000000
_cell_angle_beta 139.726459
_cell_angle_gamma 90.000000
_cell_volume 599.004341
_symmetry_space_group_name_H-M "P 21"
_symmetry_group_IT_number 4
_symmetry_cell_setting 'monoclinic'
loop_
_space_group_symop_operation_xyz
x,y,z
-x,1/2+y,-z
loop_
_atom_site_type_symbol
_atom_site_label
_atom_site_fract_x
_atom_site_fract_y
_atom_site_fract_z
Si Si1 0.813000 0.297450 0.863423
Si Si2 0.312150 0.453564 0.185718
Si Si3 0.312639 0.882499 0.443655
Si Si4 0.935107 0.097150 0.352617
Si Si5 0.545504 0.879765 0.139616
Si Si6 0.961720 0.656944 0.361811
Si Si7 0.705362 0.388845 0.202915
O O1 0.688098 0.359803 0.687316
O O2 0.676278 0.380860 0.889998
O O3 0.784582 0.121472 0.859881
O O4 0.100509 0.344699 0.028552
O O5 0.413822 0.406213 0.359969
O O6 0.546844 0.435805 0.226965
O O7 0.201966 0.730638 0.433394
O O8 0.144351 0.025446 0.383583
O O9 0.925066 0.273175 0.341316
O O10 0.979433 0.057076 0.501999
O O11 0.658527 0.041346 0.179112
O O12 0.769447 0.780636 0.299282
O O13 0.462753 0.819062 0.979056
O O14 0.835348 0.534811 0.217824
#
# Coordination Sequence:
#
# PCOD8047307 Si02
#       7
#     2   2   2   2   2   2   2
#     4  12  30  48  71 107 160 199 241 296 384 454
#     4  12  27  51  72 109 150 201 246 304 368 454
#     4  11  26  50  73 109 149 189 244 306 372 444
#     4  11  22  43  76 103 135 183 249 310 354 427
#     4  11  25  43  68 105 140 191 235 304 363 431
#     4  11  21  45  73 104 134 185 250 301 363 421
#     4  12  23  44  75 103 138 182 253 305 356 423
#
# _framework density 23.372116999999999
#
# number of rings (size 3 to 8) (size 9 to 14) (size 15 to 20)
#    0.000    0.571    4.286    3.429    6.000    2.286 
#    2.571    0.000    0.000    0.000    0.000    0.000 
#    0.000    0.000    0.000    0.000    0.000    0.000 
#
# Total GULP energy -173532.534154 kJ/mol
# GULP energy per Si atom -12395.181011 kJ/mol
# Density = 2.331892 g / cm^3
# Si number density = 23.372117 Si / 1000 Ang^3
#
#
#
# Elastic Constant Matrix: (Units=GPa)
#
#
# Indices 1 2 3 4 5 6 
#
# 1 51.1721 26.9878 23.9574 0.0000 -12.8849 0.0000
# 2 26.9878 127.9318 38.1609 0.0000 3.5102 0.0000
# 3 23.9574 38.1609 137.8932 0.0000 -10.7314 0.0000
# 4 0.0000 0.0000 0.0000 39.3851 0.0000 0.6804
# 5 -12.8849 3.5102 -10.7314 0.0000 38.1898 0.0000
# 6 0.0000 0.0000 0.0000 0.6804 0.0000 25.8003
#
#
#
# Elastic Compliance Matrix: (Units=1/GPa)
#
#
# Indices 1 2 3 4 5 6 
#
# 1 0.025321 -0.004851 -0.002410 0.000000 0.008312 0.000000
# 2 -0.004851 0.009532 -0.002035 0.000000 -0.003085 0.000000
# 3 -0.002410 -0.002035 0.008368 0.000000 0.001725 0.000000
# 4 0.000000 0.000000 0.000000 0.025402 0.000000 -0.000670
# 5 0.008312 -0.003085 0.001725 0.000000 0.029758 0.000000
# 6 0.000000 0.000000 0.000000 -0.000670 0.000000 0.038777
#
#
# Mechanical properties :
#
#
# Convention : Reuss Voigt Hill
#
# Bulk Modulus (GPa) = 40.60203 55.02328 47.81266
# Shear Modulus (GPa) = 30.49538 35.86778 33.18158
#
# Velocity S-wave (km/s) = 3.61609 3.92170 3.77199
# Velocity P-wave (km/s) = 5.90292 6.64076 6.28268
#
# Compressibility (1/GPa) = 0.02462931
#
# Stress axis : x y z
#
# Youngs Moduli (GPa) = 39.49234 104.91360 119.50031
#
# Poissons Ratio (x) = 0.50892 0.28800
# Poissons Ratio (y) = 0.19157 0.24319
# Poissons Ratio (z) = 0.09518 0.21351
#
# Static dielectric constant tensor:
#      x y z
#    x 3.909040 0.000000 -0.014780 
#    y 0.000000 4.211880 0.000000 
#    z -0.014780 0.000000 4.318780 
# 
# 
# High freq. dielectric constant tensor:
#      x y z
#    x 1.900060 0.000000 -0.001900 
#    y 0.000000 1.938640 0.000000 
#    z -0.001900 0.000000 1.945170 
# 
# From -- ./inp_files/7474.got.cif
#   From: 2010.03.12/outbox.cif.g09.slc.cpg/sg4_4_cif.got.tgz:7474.got - 2010.03.31 09:31:35.
