data_PCOD8047470
_publ_section_title
;
Structure prediction by ZEFSAII (Michael W. Deem and Ramdas Pophale) SiO2 
 PCOD8047470
Probable space group: P 21
;
_chemical_formula_sum "Si O2"
_cell_formula_units_Z 14
_cell_length_a 12.692801
_cell_length_b 7.472153
_cell_length_c 6.654157
_cell_angle_alpha 90.000000
_cell_angle_beta 81.720922
_cell_angle_gamma 90.000000
_cell_volume 624.520205
_symmetry_space_group_name_H-M "P 21"
_symmetry_group_IT_number 4
_symmetry_cell_setting 'monoclinic'
loop_
_space_group_symop_operation_xyz
x,y,z
-x,1/2+y,-z
loop_
_atom_site_type_symbol
_atom_site_label
_atom_site_fract_x
_atom_site_fract_y
_atom_site_fract_z
Si Si1 0.883407 0.040150 0.174958
Si Si2 0.765714 0.520478 0.408890
Si Si3 0.607400 0.202044 0.337836
Si Si4 0.375275 0.345760 0.410564
Si Si5 0.031237 0.170911 0.807155
Si Si6 0.840919 0.215813 0.594381
Si Si7 0.695697 0.035064 0.937511
O O1 0.827557 0.151954 0.366065
O O2 0.942702 0.873677 0.251760
O O3 0.793108 0.966227 0.047866
O O4 0.971518 0.160097 0.036679
O O5 0.679463 0.379299 0.348690
O O6 0.714833 0.709607 0.484756
O O7 0.861103 0.553552 0.221637
O O8 0.828396 0.431772 0.582549
O O9 0.488044 0.257345 0.423679
O O10 0.638105 0.033601 0.469635
O O11 0.612783 0.140204 0.102900
O O12 0.360470 0.374688 0.172779
O O13 0.948168 0.126994 0.650866
O O14 0.739787 0.165980 0.755097
#
# Coordination Sequence:
#
# PCOD8047470 Si02
#       7
#     2   2   2   2   2   2   2
#     4  11  23  44  65 103 153 184 242 303 363 451
#     4  12  24  47  77 101 149 200 239 314 376 434
#     4  12  26  50  75 106 151 190 256 312 374 454
#     4  12  27  49  76 108 143 196 251 315 380 454
#     4  11  25  39  70 106 142 198 246 294 367 450
#     4  11  23  44  70 103 147 190 239 300 369 447
#     4  11  24  45  71 103 147 184 241 310 369 442
#
# _framework density 22.417211000000002
#
# number of rings (size 3 to 8) (size 9 to 14) (size 15 to 20)
#    0.000    0.571    4.286    3.429    2.000    6.857 
#    5.143    0.000    0.000    0.000    0.000    0.000 
#    0.000    0.000    0.000    0.000    0.000    0.000 
#
# Total GULP energy -173475.370072 kJ/mol
# GULP energy per Si atom -12391.097862 kJ/mol
# Density = 2.236619 g / cm^3
# Si number density = 22.417211 Si / 1000 Ang^3
#
#
#
# Elastic Constant Matrix: (Units=GPa)
#
#
# Indices 1 2 3 4 5 6 
#
# 1 109.9198 39.2389 41.1405 0.0000 -15.0900 0.0000
# 2 39.2389 98.5473 38.1720 0.0000 4.5917 0.0000
# 3 41.1405 38.1720 133.5995 0.0000 -4.2913 0.0000
# 4 0.0000 0.0000 0.0000 36.2444 0.0000 0.6783
# 5 -15.0900 4.5917 -4.2913 0.0000 31.7200 0.0000
# 6 0.0000 0.0000 0.0000 0.6783 0.0000 49.2191
#
#
#
# Elastic Compliance Matrix: (Units=1/GPa)
#
#
# Indices 1 2 3 4 5 6 
#
# 1 0.012370 -0.004290 -0.002385 0.000000 0.006183 0.000000
# 2 -0.004290 0.013039 -0.002542 0.000000 -0.004272 0.000000
# 3 -0.002385 -0.002542 0.008960 0.000000 0.000445 0.000000
# 4 0.000000 0.000000 0.000000 0.027598 0.000000 -0.000380
# 5 0.006183 -0.004272 0.000445 0.000000 0.035146 0.000000
# 6 0.000000 0.000000 0.000000 -0.000380 0.000000 0.020323
#
#
# Mechanical properties :
#
#
# Convention : Reuss Voigt Hill
#
# Bulk Modulus (GPa) = 62.74969 64.35214 63.55091
# Shear Modulus (GPa) = 35.41549 38.33771 36.87660
#
# Velocity S-wave (km/s) = 3.97903 4.13993 4.06028
# Velocity P-wave (km/s) = 7.01161 7.18477 7.09872
#
# Compressibility (1/GPa) = 0.01593633
#
# Stress axis : x y z
#
# Youngs Moduli (GPa) = 80.83790 76.69240 111.60668
#
# Poissons Ratio (x) = 0.32900 0.26619
# Poissons Ratio (y) = 0.34678 0.28367
# Poissons Ratio (z) = 0.19280 0.19493
#
# Static dielectric constant tensor:
#      x y z
#    x 4.183320 0.000000 -0.079100 
#    y 0.000000 4.025490 0.000000 
#    z -0.079100 0.000000 4.157650 
# 
# 
# High freq. dielectric constant tensor:
#      x y z
#    x 1.899240 0.000000 -0.011150 
#    y 0.000000 1.880830 0.000000 
#    z -0.011150 0.000000 1.881090 
# 
# From -- ./inp_files/2613.got.cif
#   From: 2010.03.12/outbox.cif.g09.slc.cpg/sg4_2_cif.got.tgz:2613.got - 2010.03.31 09:31:35.
