data_PCOD8047264
_publ_section_title
;
Structure prediction by ZEFSAII (Michael W. Deem and Ramdas Pophale) SiO2 
 PCOD8047264
Probable space group: P 21
;
_chemical_formula_sum "Si O2"
_cell_formula_units_Z 14
_cell_length_a 15.433493
_cell_length_b 4.889245
_cell_length_c 17.469818
_cell_angle_alpha 90.000000
_cell_angle_beta 152.112287
_cell_angle_gamma 90.000000
_cell_volume 616.593841
_symmetry_space_group_name_H-M "P 21"
_symmetry_group_IT_number 4
_symmetry_cell_setting 'monoclinic'
loop_
_space_group_symop_operation_xyz
x,y,z
-x,1/2+y,-z
loop_
_atom_site_type_symbol
_atom_site_label
_atom_site_fract_x
_atom_site_fract_y
_atom_site_fract_z
Si Si1 0.922250 0.841450 0.479560
Si Si2 0.854432 0.014875 0.100184
Si Si3 0.031973 0.514518 0.313715
Si Si4 0.018083 0.982407 0.066907
Si Si5 0.410563 0.192996 0.395213
Si Si6 0.568979 0.230061 0.360246
Si Si7 0.531260 0.735793 0.228893
O O1 0.701424 0.788120 0.303960
O O2 0.030420 0.560471 0.548895
O O3 0.990828 0.958785 0.614125
O O4 0.002561 0.237951 0.243266
O O5 0.646500 0.121727 0.954917
O O6 0.882398 0.737730 0.169647
O O7 0.871400 0.960535 0.021968
O O8 0.237035 0.621060 0.455467
O O9 0.207966 0.078133 0.254359
O O10 0.051117 0.689909 0.052736
O O11 0.437320 0.466198 0.464951
O O12 0.425559 0.267114 0.317470
O O13 0.478544 0.020314 0.229046
O O14 0.603973 0.522311 0.349012
#
# Coordination Sequence:
#
# PCOD8047264 Si02
#       7
#     2   2   2   2   2   2   2
#     4  11  23  44  70  95 121 157 203 251 310 387
#     4  12  23  41  62  96 129 163 211 257 305 365
#     4  11  23  40  66  92 124 164 203 258 312 363
#     4  12  24  40  60  89 130 175 211 258 309 352
#     4  12  23  37  58  88 122 164 214 267 304 344
#     4  11  21  40  60  88 121 168 216 248 298 373
#     4  11  23  40  66  90 121 163 202 249 306 376
#
# _framework density 22.705383000000001
#
# number of rings (size 3 to 8) (size 9 to 14) (size 15 to 20)
#    0.000    0.571    0.000   11.143    0.000    0.000 
#    0.000    2.857    0.000    1.714    0.000    0.000 
#    0.000    0.000    0.000    0.000    0.000    0.000 
#
# Total GULP energy -173719.567758 kJ/mol
# GULP energy per Si atom -12408.540554 kJ/mol
# Density = 2.265370 g / cm^3
# Si number density = 22.705383 Si / 1000 Ang^3
#
#
#
# Elastic Constant Matrix: (Units=GPa)
#
#
# Indices 1 2 3 4 5 6 
#
# 1 75.7891 9.8723 15.6931 0.0000 9.3232 0.0000
# 2 9.8723 75.0375 -12.3036 0.0000 -6.0125 0.0000
# 3 15.6931 -12.3036 65.1338 0.0000 -3.1916 0.0000
# 4 0.0000 0.0000 0.0000 46.3593 0.0000 -13.3640
# 5 9.3232 -6.0125 -3.1916 0.0000 21.0317 0.0000
# 6 0.0000 0.0000 0.0000 -13.3640 0.0000 43.7752
#
#
#
# Elastic Compliance Matrix: (Units=1/GPa)
#
#
# Indices 1 2 3 4 5 6 
#
# 1 0.015751 -0.003577 -0.004899 0.000000 -0.008748 0.000000
# 2 -0.003577 0.014973 0.004007 0.000000 0.006474 0.000000
# 3 -0.004899 0.004007 0.017584 0.000000 0.005986 0.000000
# 4 0.000000 0.000000 0.000000 0.023652 0.000000 0.007221
# 5 -0.008748 0.006474 0.005986 0.000000 0.054184 0.000000
# 6 0.000000 0.000000 0.000000 0.007221 0.000000 0.025048
#
#
# Mechanical properties :
#
#
# Convention : Reuss Voigt Hill
#
# Bulk Modulus (GPa) = 25.39959 26.94268 26.17113
# Shear Modulus (GPa) = 28.85948 35.74648 32.30298
#
# Velocity S-wave (km/s) = 3.56903 3.97213 3.77596
# Velocity P-wave (km/s) = 5.30989 5.73838 5.52829
#
# Compressibility (1/GPa) = 0.03937072
#
# Stress axis : x y z
#
# Youngs Moduli (GPa) = 63.48795 66.78680 56.87080
#
# Poissons Ratio (x) = 0.23887 0.27863
# Poissons Ratio (y) = 0.22707 -0.22790
# Poissons Ratio (z) = 0.31104 -0.26764
#
# Static dielectric constant tensor:
#      x y z
#    x 3.842120 0.000000 0.023020 
#    y 0.000000 4.353140 0.000000 
#    z 0.023020 0.000000 3.940160 
# 
# 
# High freq. dielectric constant tensor:
#      x y z
#    x 1.881190 0.000000 0.006340 
#    y 0.000000 1.919260 0.000000 
#    z 0.006340 0.000000 1.894540 
# 
# From -- ./inp_files/14100.got.cif
#   From: 2010.03.12/outbox.cif.g09.slc.cpg/sg4_8_cif.got.tgz:14100.got - 2010.03.31 09:31:35.
