data_PCOD8047939
_publ_section_title
;
Structure prediction by ZEFSAII (Michael W. Deem and Ramdas Pophale) SiO2 
 PCOD8047939
Probable space group: P 21
;
_chemical_formula_sum "Si O2"
_cell_formula_units_Z 16
_cell_length_a 11.290408
_cell_length_b 11.839919
_cell_length_c 10.890631
_cell_angle_alpha 90.000000
_cell_angle_beta 154.098718
_cell_angle_gamma 90.000000
_cell_volume 635.939543
_symmetry_space_group_name_H-M "P 21"
_symmetry_group_IT_number 4
_symmetry_cell_setting 'monoclinic'
loop_
_space_group_symop_operation_xyz
x,y,z
-x,1/2+y,-z
loop_
_atom_site_type_symbol
_atom_site_label
_atom_site_fract_x
_atom_site_fract_y
_atom_site_fract_z
Si Si1 0.238595 0.713590 0.955135
Si Si2 0.333597 0.462004 0.059358
Si Si3 0.608273 0.256164 0.630292
Si Si4 0.595187 0.777403 0.061684
Si Si5 0.628873 0.541823 0.951111
Si Si6 0.904173 0.888680 0.539532
Si Si7 0.129488 0.139850 0.067175
Si Si8 0.806016 0.457310 0.686275
O O1 0.214310 0.581378 0.896017
O O2 0.958717 0.788923 0.694269
O O3 0.396285 0.727256 0.230493
O O4 0.401779 0.775307 0.998987
O O5 0.479766 0.381199 0.097794
O O6 0.066865 0.398017 0.864612
O O7 0.563780 0.490921 0.371058
O O8 0.331957 0.239040 0.297563
O O9 0.685145 0.386179 0.685906
O O10 0.832101 0.186339 0.760147
O O11 0.881969 0.818205 0.389770
O O12 0.585264 0.659996 0.980604
O O13 0.357815 0.467801 0.677969
O O14 0.757441 0.566379 0.938523
O O15 0.841878 0.473075 0.231659
O O16 0.083383 0.070968 0.150032
#
# Coordination Sequence:
#
# PCOD8047939 Si02
#       8
#     2   2   2   2   2   2   2   2
#     4  12  28  51  78 115 159 208 261 324 394 476
#     4  12  29  51  79 114 156 203 265 325 398 462
#     4  12  26  46  78 112 154 197 256 316 396 464
#     4  12  30  50  80 113 156 213 262 327 395 469
#     4  12  28  51  79 115 156 201 272 328 390 477
#     4  12  29  49  77 114 151 211 257 326 392 468
#     4  12  25  50  74 114 147 201 250 318 393 453
#     4  12  25  48  77 111 149 198 251 324 386 467
#
# _framework density 25.159624999999998
#
# number of rings (size 3 to 8) (size 9 to 14) (size 15 to 20)
#    0.000    0.000    3.750    4.500    8.750    1.000 
#    0.000    0.000    0.000    0.000    0.000    0.000 
#    0.000    0.000    0.000    0.000    0.000    0.000 
#
# Total GULP energy -198271.837399 kJ/mol
# GULP energy per Si atom -12391.989837 kJ/mol
# Density = 2.510236 g / cm^3
# Si number density = 25.159625 Si / 1000 Ang^3
#
#
#
# Elastic Constant Matrix: (Units=GPa)
#
#
# Indices 1 2 3 4 5 6 
#
# 1 112.5334 36.5680 28.5626 0.0000 2.7806 0.0000
# 2 36.5680 121.1733 29.8806 0.0000 -7.6226 0.0000
# 3 28.5626 29.8806 99.5010 0.0000 0.0323 0.0000
# 4 0.0000 0.0000 0.0000 43.7703 0.0000 3.3847
# 5 2.7806 -7.6226 0.0323 0.0000 34.5154 0.0000
# 6 0.0000 0.0000 0.0000 3.3847 0.0000 30.5178
#
#
#
# Elastic Compliance Matrix: (Units=1/GPa)
#
#
# Indices 1 2 3 4 5 6 
#
# 1 0.010340 -0.002676 -0.002164 0.000000 -0.001422 0.000000
# 2 -0.002676 0.009741 -0.002158 0.000000 0.002369 0.000000
# 3 -0.002164 -0.002158 0.011320 0.000000 -0.000313 0.000000
# 4 0.000000 0.000000 0.000000 0.023044 0.000000 -0.002556
# 5 -0.001422 0.002369 -0.000313 0.000000 0.029611 0.000000
# 6 0.000000 0.000000 0.000000 -0.002556 0.000000 0.033051
#
#
# Mechanical properties :
#
#
# Convention : Reuss Voigt Hill
#
# Bulk Modulus (GPa) = 57.45603 58.13667 57.79635
# Shear Modulus (GPa) = 36.52152 37.64047 37.08099
#
# Velocity S-wave (km/s) = 3.81411 3.87210 3.84321
# Velocity P-wave (km/s) = 6.50252 6.56872 6.53571
#
# Compressibility (1/GPa) = 0.01740461
#
# Stress axis : x y z
#
# Youngs Moduli (GPa) = 96.70848 102.65385 88.34309
#
# Poissons Ratio (x) = 0.27474 0.19118
# Poissons Ratio (y) = 0.25882 0.19064
# Poissons Ratio (z) = 0.20929 0.22152
#
# Static dielectric constant tensor:
#      x y z
#    x 4.517760 0.000000 -0.046430 
#    y 0.000000 4.722290 0.000000 
#    z -0.046430 0.000000 4.718080 
# 
# 
# High freq. dielectric constant tensor:
#      x y z
#    x 1.998200 0.000000 0.000700 
#    y 0.000000 2.023730 0.000000 
#    z 0.000700 0.000000 2.009290 
# 
# From -- ./inp_files/12294.got.cif
#   From: 2010.03.12/outbox.cif.g09.slc.cpg/sg4_7_cif.got.tgz:12294.got - 2010.03.31 09:31:35.
