data_PCOD8047721
_publ_section_title
;
Structure prediction by ZEFSAII (Michael W. Deem and Ramdas Pophale) SiO2 
 PCOD8047721
Probable space group: P 21
;
_chemical_formula_sum "Si O2"
_cell_formula_units_Z 16
_cell_length_a 10.404387
_cell_length_b 9.428795
_cell_length_c 8.880196
_cell_angle_alpha 90.000000
_cell_angle_beta 125.902172
_cell_angle_gamma 90.000000
_cell_volume 705.652150
_symmetry_space_group_name_H-M "P 21"
_symmetry_group_IT_number 4
_symmetry_cell_setting 'monoclinic'
loop_
_space_group_symop_operation_xyz
x,y,z
-x,1/2+y,-z
loop_
_atom_site_type_symbol
_atom_site_label
_atom_site_fract_x
_atom_site_fract_y
_atom_site_fract_z
Si Si1 0.168209 0.390160 0.234201
Si Si2 0.045797 0.340106 0.833448
Si Si3 0.710192 0.196831 0.632200
Si Si4 0.064011 0.905701 0.681026
Si Si5 0.287108 0.150702 0.833538
Si Si6 0.564412 0.099127 0.234553
Si Si7 0.422521 0.293070 0.632046
Si Si8 0.881420 0.082943 0.319199
O O1 0.243759 0.543714 0.276454
O O2 0.280763 0.289512 0.412206
O O3 0.992533 0.404277 0.185105
O O4 0.144736 0.322677 0.054562
O O5 0.132340 0.244811 0.766045
O O6 0.049144 0.505127 0.781308
O O7 0.863085 0.298451 0.729963
O O8 0.631808 0.200568 0.412325
O O9 0.584542 0.242730 0.669763
O O10 0.064115 0.744636 0.623947
O O11 0.232996 0.985422 0.781181
O O12 0.931315 0.994130 0.500307
O O13 0.366209 0.194335 0.730743
O O14 0.409190 0.167782 0.054776
O O15 0.690841 0.081524 0.185700
O O16 0.528887 0.946957 0.278286
#
# Coordination Sequence:
#
# PCOD8047721 Si02
#       8
#     2   2   2   2   2   2   2   2
#     4  11  25  46  72 104 151 187 242 307 355 440
#     4  12  26  46  77 108 143 195 247 300 369 437
#     4  11  25  49  71 104 152 193 239 300 371 432
#     4  12  25  47  74 105 145 191 243 304 366 432
#     4  12  26  46  77 108 143 195 247 300 369 437
#     4  11  25  46  72 104 151 187 242 307 355 440
#     4  11  25  49  71 104 152 193 239 300 371 432
#     4  12  25  47  74 105 145 191 243 304 366 432
#
# _framework density 22.674060999999998
#
# number of rings (size 3 to 8) (size 9 to 14) (size 15 to 20)
#    0.000    0.500    5.000    3.000    7.000    0.000 
#   13.500    0.000    0.000    0.000    0.000    0.000 
#    0.000    0.000    0.000    0.000    0.000    0.000 
#
# Total GULP energy -198419.830724 kJ/mol
# GULP energy per Si atom -12401.239420 kJ/mol
# Density = 2.262245 g / cm^3
# Si number density = 22.674061 Si / 1000 Ang^3
#
#
#
# Elastic Constant Matrix: (Units=GPa)
#
#
# Indices 1 2 3 4 5 6 
#
# 1 164.9143 50.6865 50.3895 0.0000 -27.4428 0.0000
# 2 50.6865 125.5487 45.2348 0.0000 -12.7968 0.0000
# 3 50.3895 45.2348 119.0552 0.0000 -5.5286 0.0000
# 4 0.0000 0.0000 0.0000 16.2986 0.0000 -2.2018
# 5 -27.4428 -12.7968 -5.5286 0.0000 9.2791 0.0000
# 6 0.0000 0.0000 0.0000 -2.2018 0.0000 34.1172
#
#
#
# Elastic Compliance Matrix: (Units=1/GPa)
#
#
# Indices 1 2 3 4 5 6 
#
# 1 0.013567 -0.000253 -0.003907 0.000000 0.037447 0.000000
# 2 -0.000253 0.010456 -0.003323 0.000000 0.011693 0.000000
# 3 -0.003907 -0.003323 0.010867 0.000000 -0.009663 0.000000
# 4 0.000000 0.000000 0.000000 0.061895 0.000000 0.003994
# 5 0.037447 0.011693 -0.009663 0.000000 0.228887 0.000000
# 6 0.000000 0.000000 0.000000 0.003994 0.000000 0.029568
#
#
# Mechanical properties :
#
#
# Convention : Reuss Voigt Hill
#
# Bulk Modulus (GPa) = 50.18932 78.01554 64.10243
# Shear Modulus (GPa) = 13.26802 29.48613 21.37708
#
# Velocity S-wave (km/s) = 2.42164 3.61007 3.07383
# Velocity P-wave (km/s) = 5.47743 7.20131 6.39770
#
# Compressibility (1/GPa) = 0.01992456
#
# Stress axis : x y z
#
# Youngs Moduli (GPa) = 73.71042 95.63810 92.02239
#
# Poissons Ratio (x) = 0.02415 0.35954
# Poissons Ratio (y) = 0.01861 0.30578
# Poissons Ratio (z) = 0.28799 0.31779
#
# Static dielectric constant tensor:
#      x y z
#    x 4.267570 0.000000 -0.014810 
#    y 0.000000 4.562830 0.000000 
#    z -0.014810 0.000000 4.090310 
# 
# 
# High freq. dielectric constant tensor:
#      x y z
#    x 1.904390 0.000000 -0.000970 
#    y 0.000000 1.892710 0.000000 
#    z -0.000970 0.000000 1.896120 
# 
# From -- ./inp_files/7757.got.cif
#   From: 2010.03.12/outbox.cif.g09.slc.cpg/sg4_4_cif.got.tgz:7757.got - 2010.03.31 09:31:35.
