data_PCOD8047126
_publ_section_title
;
Structure prediction by ZEFSAII (Michael W. Deem and Ramdas Pophale) SiO2 
 PCOD8047126
Probable space group: P 21
;
_chemical_formula_sum "Si O2"
_cell_formula_units_Z 16
_cell_length_a 13.198461
_cell_length_b 5.304299
_cell_length_c 20.349347
_cell_angle_alpha 90.000000
_cell_angle_beta 27.220166
_cell_angle_gamma 90.000000
_cell_volume 651.640872
_symmetry_space_group_name_H-M "P 21"
_symmetry_group_IT_number 4
_symmetry_cell_setting 'monoclinic'
loop_
_space_group_symop_operation_xyz
x,y,z
-x,1/2+y,-z
loop_
_atom_site_type_symbol
_atom_site_label
_atom_site_fract_x
_atom_site_fract_y
_atom_site_fract_z
Si Si1 0.930055 0.916110 0.456829
Si Si2 0.005293 0.681307 0.284237
Si Si3 0.426258 0.450912 0.076304
Si Si4 0.757362 0.061551 0.095380
Si Si5 0.865526 0.241472 0.171556
Si Si6 0.468851 0.175153 0.483658
Si Si7 0.785155 0.416771 0.964356
Si Si8 0.277015 0.911611 0.368690
O O1 0.992572 0.914853 0.343118
O O2 0.779755 0.670764 0.560197
O O3 0.157089 0.911876 0.367356
O O4 0.794252 0.170089 0.548000
O O5 0.758677 0.576257 0.416809
O O6 0.159164 0.473447 0.233013
O O7 0.114736 0.738267 0.150518
O O8 0.547106 0.517903 0.075725
O O9 0.483799 0.164014 0.025359
O O10 0.783546 0.075098 0.158138
O O11 0.724920 0.310771 0.071005
O O12 0.543031 0.887379 0.204754
O O13 0.999692 0.976867 0.932306
O O14 0.638440 0.320645 0.337639
O O15 0.028647 0.124217 0.131805
O O16 0.412098 0.412277 0.564053
#
# Coordination Sequence:
#
# PCOD8047126 Si02
#       8
#     2   2   2   2   2   2   2   2
#     4  10  24  46  73 113 143 197 243 309 374 456
#     4  11  25  48  75 109 154 193 249 307 385 444
#     4  10  26  44  73 111 152 193 243 304 377 453
#     4  12  27  47  76 105 149 203 254 315 371 446
#     4  12  27  47  74 106 147 201 259 307 371 443
#     4  12  28  49  76 106 149 197 246 308 373 442
#     4  11  26  48  70 111 150 195 249 312 374 441
#     4  10  25  47  75 105 152 191 251 304 377 439
#
# _framework density 24.553398000000001
#
# number of rings (size 3 to 8) (size 9 to 14) (size 15 to 20)
#    0.000    1.000    2.500    1.500    8.750    9.000 
#    0.000    0.000    0.000    0.000    0.000    0.000 
#    0.000    0.000    0.000    0.000    0.000    0.000 
#
# Total GULP energy -198227.623832 kJ/mol
# GULP energy per Si atom -12389.226490 kJ/mol
# Density = 2.449751 g / cm^3
# Si number density = 24.553398 Si / 1000 Ang^3
#
#
#
# Elastic Constant Matrix: (Units=GPa)
#
#
# Indices 1 2 3 4 5 6 
#
# 1 124.4394 7.4645 30.2297 0.0000 -21.1209 0.0000
# 2 7.4645 89.1414 11.1847 0.0000 -7.6240 0.0000
# 3 30.2297 11.1847 107.6742 0.0000 -29.9968 0.0000
# 4 0.0000 0.0000 0.0000 26.7504 0.0000 1.5563
# 5 -21.1209 -7.6240 -29.9968 0.0000 45.1213 0.0000
# 6 0.0000 0.0000 0.0000 1.5563 0.0000 20.3093
#
#
#
# Elastic Compliance Matrix: (Units=1/GPa)
#
#
# Indices 1 2 3 4 5 6 
#
# 1 0.008970 -0.000284 -0.001635 0.000000 0.003064 0.000000
# 2 -0.000284 0.011447 -0.000746 0.000000 0.001306 0.000000
# 3 -0.001635 -0.000746 0.011752 0.000000 0.006921 0.000000
# 4 0.000000 0.000000 0.000000 0.037550 0.000000 -0.002878
# 5 0.003064 0.001306 0.006921 0.000000 0.028419 0.000000
# 6 0.000000 0.000000 0.000000 -0.002878 0.000000 0.049459
#
#
# Mechanical properties :
#
#
# Convention : Reuss Voigt Hill
#
# Bulk Modulus (GPa) = 37.25843 46.55699 41.90771
# Shear Modulus (GPa) = 30.88828 36.59461 33.74145
#
# Velocity S-wave (km/s) = 3.55068 3.86477 3.71105
# Velocity P-wave (km/s) = 5.65837 6.23843 5.95547
#
# Compressibility (1/GPa) = 0.02683956
#
# Stress axis : x y z
#
# Youngs Moduli (GPa) = 111.47824 87.35821 85.09134
#
# Poissons Ratio (x) = 0.02480 0.13916
# Poissons Ratio (y) = 0.03165 0.06345
# Poissons Ratio (z) = 0.18231 0.06514
#
# Static dielectric constant tensor:
#      x y z
#    x 5.506420 0.000000 0.069920 
#    y 0.000000 4.089070 0.000000 
#    z 0.069920 0.000000 4.728080 
# 
# 
# High freq. dielectric constant tensor:
#      x y z
#    x 1.996300 0.000000 -0.015860 
#    y 0.000000 1.953240 0.000000 
#    z -0.015860 0.000000 1.983790 
# 
# From -- ./inp_files/11587.got.cif
#   From: 2010.03.12/outbox.cif.g09.slc.cpg/sg4_6_cif.got.tgz:11587.got - 2010.03.31 09:31:35.
