data_PCOD8047357
_publ_section_title
;
Structure prediction by ZEFSAII (Michael W. Deem and Ramdas Pophale) SiO2 
 PCOD8047357
Probable space group: P 21
;
_chemical_formula_sum "Si O2"
_cell_formula_units_Z 14
_cell_length_a 9.409115
_cell_length_b 5.248019
_cell_length_c 12.026146
_cell_angle_alpha 90.000000
_cell_angle_beta 101.627340
_cell_angle_gamma 90.000000
_cell_volume 581.655528
_symmetry_space_group_name_H-M "P 21"
_symmetry_group_IT_number 4
_symmetry_cell_setting 'monoclinic'
loop_
_space_group_symop_operation_xyz
x,y,z
-x,1/2+y,-z
loop_
_atom_site_type_symbol
_atom_site_label
_atom_site_fract_x
_atom_site_fract_y
_atom_site_fract_z
Si Si1 0.793559 0.026950 0.699340
Si Si2 0.447131 0.143477 0.375330
Si Si3 0.725213 0.992775 0.929475
Si Si4 0.101237 0.899269 0.693821
Si Si5 0.727458 0.359982 0.491719
Si Si6 0.218174 0.406482 0.827113
Si Si7 0.557127 0.473791 0.858646
O O1 0.822956 0.059641 0.835961
O O2 0.797795 0.273244 0.619981
O O3 0.634536 0.904284 0.667449
O O4 0.928044 0.863931 0.672792
O O5 0.622125 0.162578 0.410465
O O6 0.417056 0.939715 0.271233
O O7 0.384889 0.078146 0.487612
O O8 0.634844 0.250028 0.938673
O O9 0.616491 0.752169 0.900718
O O10 0.831463 0.943401 0.051602
O O11 0.148216 0.951413 0.573011
O O12 0.159017 0.627649 0.740339
O O13 0.162283 0.132359 0.776739
O O14 0.390122 0.434805 0.859427
#
# Coordination Sequence:
#
# PCOD8047357 Si02
#       7
#     2   2   2   2   2   2   2
#     4  11  28  46  69 106 138 193 232 291 354 424
#     4  11  24  42  74 102 140 181 241 292 351 415
#     4  11  24  45  76 102 140 182 243 294 348 410
#     4  12  31  44  72 103 152 187 231 283 361 428
#     4  12  25  45  72 104 141 188 232 298 348 425
#     4  12  26  47  70 105 143 190 232 292 352 421
#     4  11  22  43  71 110 138 177 237 298 352 409
#
# _framework density 24.069227000000001
#
# number of rings (size 3 to 8) (size 9 to 14) (size 15 to 20)
#    0.000    0.571    4.286    2.571   10.000    1.143 
#    0.000    0.000    0.000    0.000    0.000    0.000 
#    0.000    0.000    0.000    0.000    0.000    0.000 
#
# Total GULP energy -173483.742099 kJ/mol
# GULP energy per Si atom -12391.695864 kJ/mol
# Density = 2.401444 g / cm^3
# Si number density = 24.069227 Si / 1000 Ang^3
#
#
#
# Elastic Constant Matrix: (Units=GPa)
#
#
# Indices 1 2 3 4 5 6 
#
# 1 79.7850 -0.5983 12.5660 0.0000 -22.1486 0.0000
# 2 -0.5983 93.5125 8.9560 0.0000 2.3310 0.0000
# 3 12.5660 8.9560 130.4343 0.0000 -33.6100 0.0000
# 4 0.0000 0.0000 0.0000 40.0270 0.0000 1.0673
# 5 -22.1486 2.3310 -33.6100 0.0000 24.5944 0.0000
# 6 0.0000 0.0000 0.0000 1.0673 0.0000 20.8135
#
#
#
# Elastic Compliance Matrix: (Units=1/GPa)
#
#
# Indices 1 2 3 4 5 6 
#
# 1 0.017872 -0.000790 0.003857 0.000000 0.021441 0.000000
# 2 -0.000790 0.010958 -0.001740 0.000000 -0.004127 0.000000
# 3 0.003857 -0.001740 0.012892 0.000000 0.021256 0.000000
# 4 0.000000 0.000000 0.000000 0.025017 0.000000 -0.001283
# 5 0.021441 -0.004127 0.021256 0.000000 0.089408 0.000000
# 6 0.000000 0.000000 0.000000 -0.001283 0.000000 0.048112
#
#
# Mechanical properties :
#
#
# Convention : Reuss Voigt Hill
#
# Bulk Modulus (GPa) = 22.53357 38.39769 30.46563
# Shear Modulus (GPa) = 23.10577 35.94085 29.52331
#
# Velocity S-wave (km/s) = 3.10170 3.86842 3.50608
# Velocity P-wave (km/s) = 4.71272 5.99505 5.39214
#
# Compressibility (1/GPa) = 0.04437823
#
# Stress axis : x y z
#
# Youngs Moduli (GPa) = 55.95210 91.25568 77.56885
#
# Poissons Ratio (x) = 0.07205 -0.29921
# Poissons Ratio (y) = 0.04418 0.13496
# Poissons Ratio (z) = -0.21582 0.15877
#
# Static dielectric constant tensor:
#      x y z
#    x 4.387740 0.000000 -0.259040 
#    y 0.000000 4.075000 0.000000 
#    z -0.259040 0.000000 5.017180 
# 
# 
# High freq. dielectric constant tensor:
#      x y z
#    x 1.944240 0.000000 -0.014600 
#    y 0.000000 1.948040 0.000000 
#    z -0.014600 0.000000 1.975300 
# 
# From -- ./inp_files/7142.got.cif
#   From: 2010.03.12/outbox.cif.g09.slc.cpg/sg4_4_cif.got.tgz:7142.got - 2010.03.31 09:31:35.
