data_PCOD8047945
_publ_section_title
;
Structure prediction by ZEFSAII (Michael W. Deem and Ramdas Pophale) SiO2 
 PCOD8047945
Probable space group: P 21
;
_chemical_formula_sum "Si O2"
_cell_formula_units_Z 16
_cell_length_a 8.340509
_cell_length_b 9.317751
_cell_length_c 17.382844
_cell_angle_alpha 90.000000
_cell_angle_beta 29.573950
_cell_angle_gamma 90.000000
_cell_volume 666.733932
_symmetry_space_group_name_H-M "P 21"
_symmetry_group_IT_number 4
_symmetry_cell_setting 'monoclinic'
loop_
_space_group_symop_operation_xyz
x,y,z
-x,1/2+y,-z
loop_
_atom_site_type_symbol
_atom_site_label
_atom_site_fract_x
_atom_site_fract_y
_atom_site_fract_z
Si Si1 0.944753 0.656220 0.134807
Si Si2 0.027786 0.149727 0.624151
Si Si3 0.808333 0.944045 0.850994
Si Si4 0.060729 0.925745 0.173981
Si Si5 0.731586 0.199802 0.290750
Si Si6 0.536951 0.220101 0.201726
Si Si7 0.310773 0.492586 0.354962
Si Si8 0.092170 0.959355 0.332967
O O1 0.626856 0.592417 0.227992
O O2 0.153608 0.528627 0.084805
O O3 0.870791 0.778265 0.231275
O O4 0.149158 0.732459 0.982495
O O5 0.410713 0.177155 0.476885
O O6 0.982414 0.087105 0.557276
O O7 0.798069 0.292803 0.722461
O O8 0.904012 0.045421 0.741522
O O9 0.031295 0.802926 0.759793
O O10 0.436808 0.894802 0.999393
O O11 0.988307 0.994165 0.289134
O O12 0.911882 0.054506 0.186926
O O13 0.635169 0.260155 0.248273
O O14 0.322118 0.364992 0.284456
O O15 0.352036 0.071123 0.259833
O O16 0.219402 0.450454 0.480557
#
# Coordination Sequence:
#
# PCOD8047945 Si02
#       8
#     2   2   2   2   2   2   2   2
#     4  12  27  47  75 110 147 203 254 314 383 449
#     4  12  28  48  77 106 152 202 250 316 378 451
#     4  12  26  52  74 111 153 197 259 311 382 452
#     4  12  29  46  76 112 148 200 252 317 379 452
#     4  12  29  48  75 112 152 198 255 309 381 453
#     4  12  27  48  74 109 154 198 254 314 373 457
#     4  12  27  50  75 111 151 199 258 312 381 452
#     4  12  25  49  74 109 149 195 252 309 379 448
#
# _framework density 23.997581
#
# number of rings (size 3 to 8) (size 9 to 14) (size 15 to 20)
#    0.000    0.000    6.250    1.500   10.500    1.000 
#    0.000    0.000    0.000    0.000    0.000    0.000 
#    0.000    0.000    0.000    0.000    0.000    0.000 
#
# Total GULP energy -198291.218356 kJ/mol
# GULP energy per Si atom -12393.201147 kJ/mol
# Density = 2.394296 g / cm^3
# Si number density = 23.997581 Si / 1000 Ang^3
#
#
#
# Elastic Constant Matrix: (Units=GPa)
#
#
# Indices 1 2 3 4 5 6 
#
# 1 65.3667 44.7548 41.2418 0.0000 -5.0916 0.0000
# 2 44.7548 159.0465 38.5988 0.0000 -19.3631 0.0000
# 3 41.2418 38.5988 113.4155 0.0000 6.6013 0.0000
# 4 0.0000 0.0000 0.0000 36.4373 0.0000 -2.2914
# 5 -5.0916 -19.3631 6.6013 0.0000 32.7567 0.0000
# 6 0.0000 0.0000 0.0000 -2.2914 0.0000 52.6952
#
#
#
# Elastic Compliance Matrix: (Units=1/GPa)
#
#
# Indices 1 2 3 4 5 6 
#
# 1 0.022933 -0.004486 -0.006947 0.000000 0.002313 0.000000
# 2 -0.004486 0.008483 -0.001525 0.000000 0.004624 0.000000
# 3 -0.006947 -0.001525 0.012120 0.000000 -0.004424 0.000000
# 4 0.000000 0.000000 0.000000 0.027520 0.000000 0.001197
# 5 0.002313 0.004624 -0.004424 0.000000 0.034513 0.000000
# 6 0.000000 0.000000 0.000000 0.001197 0.000000 0.019029
#
#
# Mechanical properties :
#
#
# Convention : Reuss Voigt Hill
#
# Bulk Modulus (GPa) = 56.75402 65.22441 60.98921
# Shear Modulus (GPa) = 31.97218 38.59339 35.28278
#
# Velocity S-wave (km/s) = 3.65404 4.01461 3.83856
# Velocity P-wave (km/s) = 6.44235 6.98055 6.71684
#
# Compressibility (1/GPa) = 0.01761990
#
# Stress axis : x y z
#
# Youngs Moduli (GPa) = 43.60560 117.88578 82.50896
#
# Poissons Ratio (x) = 0.52878 0.57321
# Poissons Ratio (y) = 0.19559 0.12583
# Poissons Ratio (z) = 0.30294 0.17978
#
# Static dielectric constant tensor:
#      x y z
#    x 4.349960 0.000000 0.113400 
#    y 0.000000 4.531740 0.000000 
#    z 0.113400 0.000000 4.080950 
# 
# 
# High freq. dielectric constant tensor:
#      x y z
#    x 1.955730 0.000000 0.012640 
#    y 0.000000 1.976220 0.000000 
#    z 0.012640 0.000000 1.944310 
# 
# From -- ./inp_files/14961.got.cif
#   From: 2010.03.12/outbox.cif.g09.slc.cpg/sg4_8_cif.got.tgz:14961.got - 2010.03.31 09:31:35.
