data_PCOD8047280
_publ_section_title
;
Structure prediction by ZEFSAII (Michael W. Deem and Ramdas Pophale) SiO2 
 PCOD8047280
Probable space group: P 21
;
_chemical_formula_sum "Si O2"
_cell_formula_units_Z 16
_cell_length_a 16.935428
_cell_length_b 6.527788
_cell_length_c 11.439228
_cell_angle_alpha 90.000000
_cell_angle_beta 35.295190
_cell_angle_gamma 90.000000
_cell_volume 730.681791
_symmetry_space_group_name_H-M "P 21"
_symmetry_group_IT_number 4
_symmetry_cell_setting 'monoclinic'
loop_
_space_group_symop_operation_xyz
x,y,z
-x,1/2+y,-z
loop_
_atom_site_type_symbol
_atom_site_label
_atom_site_fract_x
_atom_site_fract_y
_atom_site_fract_z
Si Si1 0.663361 0.032580 0.394430
Si Si2 0.596569 0.780006 0.956193
Si Si3 0.629777 0.389525 0.280863
Si Si4 0.341064 0.530710 0.325757
Si Si5 0.158477 0.976329 0.293907
Si Si6 0.705093 0.106794 0.990205
Si Si7 0.185377 0.281266 0.963806
Si Si8 0.056843 0.711108 0.604469
O O1 0.689079 0.267604 0.322673
O O2 0.519100 0.975367 0.508239
O O3 0.656697 0.998322 0.539112
O O4 0.781973 0.886179 0.199705
O O5 0.610869 0.825319 0.800044
O O6 0.702667 0.606888 0.868051
O O7 0.615984 0.997323 0.998086
O O8 0.442692 0.714772 0.170397
O O9 0.733657 0.568799 0.120934
O O10 0.612586 0.238455 0.190806
O O11 0.188282 0.575007 0.470082
O O12 0.185489 0.755552 0.202539
O O13 0.101051 0.927576 0.493177
O O14 0.043664 0.093195 0.361377
O O15 0.779268 0.927851 0.971210
O O16 0.022631 0.243986 0.175795
#
# Coordination Sequence:
#
# PCOD8047280 Si02
#       8
#     2   2   2   2   2   2   2   2
#     4  11  25  44  69 102 136 189 249 299 362 432
#     4  12  26  48  72 108 149 194 240 305 372 452
#     4  11  22  43  76 100 132 185 253 305 348 431
#     4  12  28  46  69 110 152 186 237 304 386 428
#     4  12  23  46  75 105 148 192 252 294 368 454
#     4  11  21  42  77 105 135 183 246 307 349 435
#     4  11  23  44  69 101 136 189 249 299 351 431
#     4  12  24  45  69 107 144 192 238 301 368 441
#
# _framework density 21.897355000000001
#
# number of rings (size 3 to 8) (size 9 to 14) (size 15 to 20)
#    0.000    0.500    5.000    3.750    3.500    0.000 
#    4.500    0.000    0.000    0.000    0.000    0.000 
#    0.000    0.000    0.000    0.000    0.000    0.000 
#
# Total GULP energy -198411.278746 kJ/mol
# GULP energy per Si atom -12400.704922 kJ/mol
# Density = 2.184752 g / cm^3
# Si number density = 21.897355 Si / 1000 Ang^3
#
#
#
# Elastic Constant Matrix: (Units=GPa)
#
#
# Indices 1 2 3 4 5 6 
#
# 1 76.2167 30.9070 37.7501 0.0000 21.4565 0.0000
# 2 30.9070 112.3641 42.9876 0.0000 10.6667 0.0000
# 3 37.7501 42.9876 153.0078 0.0000 13.5099 0.0000
# 4 0.0000 0.0000 0.0000 37.2932 0.0000 10.0275
# 5 21.4565 10.6667 13.5099 0.0000 41.9822 0.0000
# 6 0.0000 0.0000 0.0000 10.0275 0.0000 22.4899
#
#
#
# Elastic Compliance Matrix: (Units=1/GPa)
#
#
# Indices 1 2 3 4 5 6 
#
# 1 0.017905 -0.003115 -0.002886 0.000000 -0.007431 0.000000
# 2 -0.003115 0.010630 -0.002182 0.000000 -0.000406 0.000000
# 3 -0.002886 -0.002182 0.007906 0.000000 -0.000515 0.000000
# 4 0.000000 0.000000 0.000000 0.030467 0.000000 -0.013584
# 5 -0.007431 -0.000406 -0.000515 0.000000 0.027886 0.000000
# 6 0.000000 0.000000 0.000000 -0.013584 0.000000 0.050521
#
#
# Mechanical properties :
#
#
# Convention : Reuss Voigt Hill
#
# Bulk Modulus (GPa) = 49.81530 62.76423 56.28977
# Shear Modulus (GPa) = 29.69568 35.68266 32.68917
#
# Velocity S-wave (km/s) = 3.68656 4.04114 3.86792
# Velocity P-wave (km/s) = 6.39686 7.10630 6.76089
#
# Compressibility (1/GPa) = 0.02007415
#
# Stress axis : x y z
#
# Youngs Moduli (GPa) = 55.84938 94.07409 126.48358
#
# Poissons Ratio (x) = 0.29309 0.36506
# Poissons Ratio (y) = 0.17400 0.27598
# Poissons Ratio (z) = 0.16119 0.20526
#
# Static dielectric constant tensor:
#      x y z
#    x 3.721030 0.000000 0.176710 
#    y 0.000000 4.216650 0.000000 
#    z 0.176710 0.000000 4.333630 
# 
# 
# High freq. dielectric constant tensor:
#      x y z
#    x 1.833070 0.000000 0.013080 
#    y 0.000000 1.871160 0.000000 
#    z 0.013080 0.000000 1.882690 
# 
# From -- ./inp_files/12794.got.cif
#   From: 2010.03.12/outbox.cif.g09.slc.cpg/sg4_7_cif.got.tgz:12794.got - 2010.03.31 09:31:35.
