data_PCOD8047449
_publ_section_title
;
Structure prediction by ZEFSAII (Michael W. Deem and Ramdas Pophale) SiO2 
 PCOD8047449
Probable space group: P 21
;
_chemical_formula_sum "Si O2"
_cell_formula_units_Z 16
_cell_length_a 11.432932
_cell_length_b 8.428307
_cell_length_c 14.510043
_cell_angle_alpha 90.000000
_cell_angle_beta 151.545449
_cell_angle_gamma 90.000000
_cell_volume 666.184435
_symmetry_space_group_name_H-M "P 21"
_symmetry_group_IT_number 4
_symmetry_cell_setting 'monoclinic'
loop_
_space_group_symop_operation_xyz
x,y,z
-x,1/2+y,-z
loop_
_atom_site_type_symbol
_atom_site_label
_atom_site_fract_x
_atom_site_fract_y
_atom_site_fract_z
Si Si1 0.167117 0.960470 0.937806
Si Si2 0.318486 0.090307 0.228107
Si Si3 0.865280 0.121212 0.027684
Si Si4 0.492984 0.032989 0.622935
Si Si5 0.237510 0.781911 0.539604
Si Si6 0.777020 0.920562 0.142457
Si Si7 0.363880 0.359683 0.454887
Si Si8 0.409594 0.664779 0.849486
O O1 0.258084 0.779759 0.017348
O O2 0.896608 0.948480 0.704504
O O3 0.158096 0.064519 0.025060
O O4 0.365469 0.044965 0.011341
O O5 0.559621 0.195141 0.381347
O O6 0.146017 0.161997 0.190504
O O7 0.422703 0.920249 0.329845
O O8 0.855388 0.976661 0.094155
O O9 0.742768 0.074860 0.847065
O O10 0.354135 0.172933 0.472197
O O11 0.312444 0.967884 0.579012
O O12 0.557186 0.894176 0.594971
O O13 0.242098 0.707759 0.644807
O O14 0.961942 0.782728 0.307700
O O15 0.765596 0.076896 0.198872
O O16 0.513856 0.832632 0.957596
#
# Coordination Sequence:
#
# PCOD8047449 Si02
#       8
#     2   2   2   2   2   2   2   2
#     4  11  23  43  67 104 143 188 242 304 363 434
#     4  11  24  41  71 105 148 192 237 294 371 442
#     4  12  24  44  70 105 153 196 237 298 376 445
#     4  12  24  42  68 105 150 198 240 300 365 456
#     4  11  25  48  71 108 144 187 247 305 367 438
#     4  12  26  50  77 104 147 194 242 315 372 431
#     4  12  23  40  67 104 146 193 241 293 366 444
#     4  11  27  48  77 105 137 192 254 309 368 436
#
# _framework density 24.017374
#
# number of rings (size 3 to 8) (size 9 to 14) (size 15 to 20)
#    0.000    0.500    3.750    5.250    0.000    2.000 
#    2.250    1.250    0.000    0.000    0.000    0.000 
#    0.000    0.000    0.000    0.000    0.000    0.000 
#
# Total GULP energy -198302.505443 kJ/mol
# GULP energy per Si atom -12393.906590 kJ/mol
# Density = 2.396271 g / cm^3
# Si number density = 24.017374 Si / 1000 Ang^3
#
#
#
# Elastic Constant Matrix: (Units=GPa)
#
#
# Indices 1 2 3 4 5 6 
#
# 1 89.5345 38.5651 43.1844 0.0000 -9.0084 0.0000
# 2 38.5651 100.8059 26.8584 0.0000 -10.7543 0.0000
# 3 43.1844 26.8584 108.1653 0.0000 -11.2877 0.0000
# 4 0.0000 0.0000 0.0000 48.0703 0.0000 7.3465
# 5 -9.0084 -10.7543 -11.2877 0.0000 25.7775 0.0000
# 6 0.0000 0.0000 0.0000 7.3465 0.0000 44.1176
#
#
#
# Elastic Compliance Matrix: (Units=1/GPa)
#
#
# Indices 1 2 3 4 5 6 
#
# 1 0.015658 -0.004512 -0.004984 0.000000 0.001407 0.000000
# 2 -0.004512 0.012221 -0.000907 0.000000 0.003125 0.000000
# 3 -0.004984 -0.000907 0.011777 0.000000 0.003037 0.000000
# 4 0.000000 0.000000 0.000000 0.021346 0.000000 -0.003555
# 5 0.001407 0.003125 0.003037 0.000000 0.041919 0.000000
# 6 0.000000 0.000000 0.000000 -0.003555 0.000000 0.023259
#
#
# Mechanical properties :
#
#
# Convention : Reuss Voigt Hill
#
# Bulk Modulus (GPa) = 53.05160 57.30238 55.17699
# Shear Modulus (GPa) = 32.62227 36.25294 34.43761
#
# Velocity S-wave (km/s) = 3.68948 3.88937 3.79075
# Velocity P-wave (km/s) = 6.34716 6.63929 6.49487
#
# Compressibility (1/GPa) = 0.01884957
#
# Stress axis : x y z
#
# Youngs Moduli (GPa) = 63.86556 81.82434 84.91026
#
# Poissons Ratio (x) = 0.36920 0.42320
# Poissons Ratio (y) = 0.28817 0.07702
# Poissons Ratio (z) = 0.31831 0.07422
#
# Static dielectric constant tensor:
#      x y z
#    x 3.987720 0.000000 -0.034710 
#    y 0.000000 4.364280 0.000000 
#    z -0.034710 0.000000 4.442270 
# 
# 
# High freq. dielectric constant tensor:
#      x y z
#    x 1.933210 0.000000 -0.011050 
#    y 0.000000 1.960530 0.000000 
#    z -0.011050 0.000000 1.965310 
# 
# From -- ./inp_files/13911.got.cif
#   From: 2010.03.12/outbox.cif.g09.slc.cpg/sg4_7_cif.got.tgz:13911.got - 2010.03.31 09:31:35.
