data_PCOD8047832
_publ_section_title
;
Structure prediction by ZEFSAII (Michael W. Deem and Ramdas Pophale) SiO2 
 PCOD8047832
Probable space group: P 21
;
_chemical_formula_sum "Si O2"
_cell_formula_units_Z 14
_cell_length_a 12.717608
_cell_length_b 4.939278
_cell_length_c 9.669836
_cell_angle_alpha 90.000000
_cell_angle_beta 97.253070
_cell_angle_gamma 90.000000
_cell_volume 602.558048
_symmetry_space_group_name_H-M "P 21"
_symmetry_group_IT_number 4
_symmetry_cell_setting 'monoclinic'
loop_
_space_group_symop_operation_xyz
x,y,z
-x,1/2+y,-z
loop_
_atom_site_type_symbol
_atom_site_label
_atom_site_fract_x
_atom_site_fract_y
_atom_site_fract_z
Si Si1 0.279264 0.287300 0.570086
Si Si2 0.034508 0.732276 0.094939
Si Si3 0.565320 0.362229 0.045069
Si Si4 0.646698 0.722731 0.691610
Si Si5 0.408085 0.790167 0.652789
Si Si6 0.039845 0.223747 0.595075
Si Si7 0.280431 0.708436 0.146231
O O1 0.274805 0.370319 0.407350
O O2 0.345303 0.509670 0.665254
O O3 0.166121 0.256392 0.621660
O O4 0.340422 0.000909 0.551964
O O5 0.156640 0.654410 0.120934
O O6 0.994756 0.737092 0.248891
O O7 0.975882 0.518962 0.985004
O O8 0.679016 0.317246 0.993681
O O9 0.501559 0.586125 0.949633
O O10 0.587478 0.457325 0.203306
O O11 0.525343 0.726789 0.615070
O O12 0.685548 0.421038 0.730463
O O13 0.658422 0.922826 0.824351
O O14 0.986676 0.444111 0.485925
#
# Coordination Sequence:
#
# PCOD8047832 Si02
#       7
#     2   2   2   2   2   2   2
#     4  12  26  41  70  96 133 170 217 277 331 382
#     4  12  28  47  71 106 139 177 234 300 346 394
#     4  12  23  42  64  95 130 175 215 261 317 405
#     4  12  23  44  65  99 132 177 213 262 326 415
#     4  12  24  41  64 100 136 166 216 267 334 389
#     4  12  26  50  74 100 136 186 240 282 340 418
#     4  12  24  43  70  92 134 177 217 263 336 399
#
# _framework density 23.234278
#
# number of rings (size 3 to 8) (size 9 to 14) (size 15 to 20)
#    0.000    0.000    2.857    7.714    4.000    0.000 
#    0.000    0.000    0.000    0.000    0.000    0.000 
#    0.000    0.000    0.000    0.000    0.000    0.000 
#
# Total GULP energy -173568.440349 kJ/mol
# GULP energy per Si atom -12397.745739 kJ/mol
# Density = 2.318140 g / cm^3
# Si number density = 23.234278 Si / 1000 Ang^3
#
#
#
# Elastic Constant Matrix: (Units=GPa)
#
#
# Indices 1 2 3 4 5 6 
#
# 1 153.2733 24.6570 16.8064 0.0000 -4.1568 0.0000
# 2 24.6570 105.0633 5.8806 0.0000 9.9927 0.0000
# 3 16.8064 5.8806 99.6317 0.0000 -20.4909 0.0000
# 4 0.0000 0.0000 0.0000 36.7273 0.0000 5.0836
# 5 -4.1568 9.9927 -20.4909 0.0000 41.8990 0.0000
# 6 0.0000 0.0000 0.0000 5.0836 0.0000 33.9163
#
#
#
# Elastic Compliance Matrix: (Units=1/GPa)
#
#
# Indices 1 2 3 4 5 6 
#
# 1 0.006906 -0.001626 -0.000943 0.000000 0.000612 0.000000
# 2 -0.001626 0.010246 -0.000963 0.000000 -0.003076 0.000000
# 3 -0.000943 -0.000963 0.011431 0.000000 0.005726 0.000000
# 4 0.000000 0.000000 0.000000 0.027805 0.000000 -0.004168
# 5 0.000612 -0.003076 0.005726 0.000000 0.027462 0.000000
# 6 0.000000 0.000000 0.000000 -0.004168 0.000000 0.030109
#
#
# Mechanical properties :
#
#
# Convention : Reuss Voigt Hill
#
# Bulk Modulus (GPa) = 46.47276 50.29516 48.38396
# Shear Modulus (GPa) = 39.00298 43.21679 41.10989
#
# Velocity S-wave (km/s) = 4.10162 4.31750 4.21094
# Velocity P-wave (km/s) = 6.51738 6.82264 6.67176
#
# Compressibility (1/GPa) = 0.02151798
#
# Stress axis : x y z
#
# Youngs Moduli (GPa) = 144.80394 97.59744 87.48432
#
# Poissons Ratio (x) = 0.15870 0.08251
# Poissons Ratio (y) = 0.23547 0.08426
# Poissons Ratio (z) = 0.13657 0.09400
#
# Static dielectric constant tensor:
#      x y z
#    x 4.112990 0.000000 -0.142300 
#    y 0.000000 4.194750 0.000000 
#    z -0.142300 0.000000 4.198130 
# 
# 
# High freq. dielectric constant tensor:
#      x y z
#    x 1.922600 0.000000 -0.012270 
#    y 0.000000 1.933650 0.000000 
#    z -0.012270 0.000000 1.930780 
# 
# From -- ./inp_files/7397.got.cif
#   From: 2010.03.12/outbox.cif.g09.slc.cpg/sg4_4_cif.got.tgz:7397.got - 2010.03.31 09:31:35.
