data_PCOD8047194
_publ_section_title
;
Structure prediction by ZEFSAII (Michael W. Deem and Ramdas Pophale) SiO2 
 PCOD8047194
Probable space group: P 21
;
_chemical_formula_sum "Si O2"
_cell_formula_units_Z 12
_cell_length_a 4.871356
_cell_length_b 11.056312
_cell_length_c 9.357581
_cell_angle_alpha 90.000000
_cell_angle_beta 75.093188
_cell_angle_gamma 90.000000
_cell_volume 487.030522
_symmetry_space_group_name_H-M "P 21"
_symmetry_group_IT_number 4
_symmetry_cell_setting 'monoclinic'
loop_
_space_group_symop_operation_xyz
x,y,z
-x,1/2+y,-z
loop_
_atom_site_type_symbol
_atom_site_label
_atom_site_fract_x
_atom_site_fract_y
_atom_site_fract_z
Si Si1 0.618738 0.261430 0.237229
Si Si2 0.159382 0.122098 0.136127
Si Si3 0.985424 0.662818 0.266555
Si Si4 0.426440 0.745756 0.423253
Si Si5 0.582180 0.983631 0.912765
Si Si6 0.208104 0.395334 0.814705
O O1 0.128085 0.545480 0.178570
O O2 0.630428 0.270277 0.404773
O O3 0.530460 0.390114 0.187404
O O4 0.935817 0.230049 0.136992
O O5 0.394473 0.158182 0.221803
O O6 0.977042 0.008133 0.215592
O O7 0.333580 0.085083 0.968364
O O8 0.658964 0.638994 0.358825
O O9 0.994804 0.775674 0.152323
O O10 0.134935 0.703746 0.393005
O O11 0.544189 0.870134 0.335331
O O12 0.646238 0.915853 0.051873
#
# Coordination Sequence:
#
# PCOD8047194 Si02
#       6
#     2   2   2   2   2   2
#     4  12  30  48  79 112 156 204 264 312 399 452
#     4  12  28  46  75 117 151 199 257 326 376 471
#     4  10  26  48  78 111 154 202 255 314 392 450
#     4  10  25  51  74 112 153 201 258 316 380 475
#     4  12  29  49  81 116 157 205 257 331 380 470
#     4  10  26  48  79 112 153 201 257 321 389 450
#
# _framework density 24.639113999999999
#
# number of rings (size 3 to 8) (size 9 to 14) (size 15 to 20)
#    1.000    0.000    1.667    2.000   11.667    2.667 
#    0.000    0.000    0.000    0.000    0.000    0.000 
#    0.000    0.000    0.000    0.000    0.000    0.000 
#
# Total GULP energy -148770.318665 kJ/mol
# GULP energy per Si atom -12397.526555 kJ/mol
# Density = 2.458303 g / cm^3
# Si number density = 24.639114 Si / 1000 Ang^3
#
#
#
# Elastic Constant Matrix: (Units=GPa)
#
#
# Indices 1 2 3 4 5 6 
#
# 1 100.3056 8.5204 20.6439 0.0000 -5.2111 0.0000
# 2 8.5204 78.8151 44.3226 0.0000 -2.0474 0.0000
# 3 20.6439 44.3226 109.8601 0.0000 -2.6488 0.0000
# 4 0.0000 0.0000 0.0000 32.2582 0.0000 -4.2893
# 5 -5.2111 -2.0474 -2.6488 0.0000 25.3901 0.0000
# 6 0.0000 0.0000 0.0000 -4.2893 0.0000 44.6141
#
#
#
# Elastic Compliance Matrix: (Units=1/GPa)
#
#
# Indices 1 2 3 4 5 6 
#
# 1 0.010466 -0.000002 -0.001919 0.000000 0.001948 0.000000
# 2 -0.000002 0.016422 -0.006610 0.000000 0.000634 0.000000
# 3 -0.001919 -0.006610 0.012138 0.000000 0.000339 0.000000
# 4 0.000000 0.000000 0.000000 0.031401 0.000000 0.003019
# 5 0.001948 0.000634 0.000339 0.000000 0.039872 0.000000
# 6 0.000000 0.000000 0.000000 0.003019 0.000000 0.022705
#
#
# Mechanical properties :
#
#
# Convention : Reuss Voigt Hill
#
# Bulk Modulus (GPa) = 45.52755 48.43941 46.98348
# Shear Modulus (GPa) = 31.76919 34.81874 33.29396
#
# Velocity S-wave (km/s) = 3.59469 3.76327 3.67994
# Velocity P-wave (km/s) = 5.97887 6.21169 6.09639
#
# Compressibility (1/GPa) = 0.02196472
#
# Stress axis : x y z
#
# Youngs Moduli (GPa) = 95.54926 60.89552 82.38660
#
# Poissons Ratio (x) = 0.00010 0.15810
# Poissons Ratio (y) = 0.00016 0.54454
# Poissons Ratio (z) = 0.18336 0.40250
#
# Static dielectric constant tensor:
#      x y z
#    x 4.808840 0.000000 -0.028590 
#    y 0.000000 4.365380 0.000000 
#    z -0.028590 0.000000 4.050110 
# 
# 
# High freq. dielectric constant tensor:
#      x y z
#    x 2.005540 0.000000 0.008840 
#    y 0.000000 1.971730 0.000000 
#    z 0.008840 0.000000 1.964500 
# 
# From -- ./inp_files/10309.got.cif
#   From: 2010.03.12/outbox.cif.g09.slc.cpg/sg4_6_cif.got.tgz:10309.got - 2010.03.31 09:31:35.
