data_PCOD8047930
_publ_section_title
;
Structure prediction by ZEFSAII (Michael W. Deem and Ramdas Pophale) SiO2 
 PCOD8047930
Probable space group: P 21
;
_chemical_formula_sum "Si O2"
_cell_formula_units_Z 16
_cell_length_a 14.828680
_cell_length_b 9.179749
_cell_length_c 13.882324
_cell_angle_alpha 90.000000
_cell_angle_beta 19.436090
_cell_angle_gamma 90.000000
_cell_volume 628.811269
_symmetry_space_group_name_H-M "P 21"
_symmetry_group_IT_number 4
_symmetry_cell_setting 'monoclinic'
loop_
_space_group_symop_operation_xyz
x,y,z
-x,1/2+y,-z
loop_
_atom_site_type_symbol
_atom_site_label
_atom_site_fract_x
_atom_site_fract_y
_atom_site_fract_z
Si Si1 0.640554 0.437940 0.802983
Si Si2 0.282070 0.184171 0.408099
Si Si3 0.563526 0.075635 0.560573
Si Si4 0.871753 0.944926 0.551445
Si Si5 0.796329 0.135412 0.010278
Si Si6 0.196128 0.705811 0.506915
Si Si7 0.927023 0.393762 0.008727
Si Si8 0.178434 0.327040 0.947559
O O1 0.618387 0.604071 0.788863
O O2 0.633741 0.335475 0.714720
O O3 0.905119 0.401745 0.596702
O O4 0.402604 0.416649 0.116343
O O5 0.140023 0.338209 0.528465
O O6 0.034712 0.085100 0.697471
O O7 0.534330 0.208828 0.225542
O O8 0.590743 0.105400 0.647960
O O9 0.428231 0.226626 0.657019
O O10 0.860579 0.026728 0.223472
O O11 0.369819 0.946036 0.722939
O O12 0.926034 0.106545 0.455714
O O13 0.963195 0.247935 0.909494
O O14 0.694980 0.987823 0.163885
O O15 0.961812 0.761864 0.815175
O O16 0.946390 0.341963 0.099758
#
# Coordination Sequence:
#
# PCOD8047930 Si02
#       8
#     2   2   2   2   2   2   2   2
#     4  12  26  47  72 111 147 200 255 324 393 476
#     4  12  25  47  72 109 149 201 251 317 393 454
#     4  12  28  50  79 115 158 209 261 329 392 482
#     4  12  27  45  76 106 153 196 260 322 389 474
#     4  12  26  47  75 109 153 202 255 318 383 472
#     4  12  27  50  77 115 154 208 261 324 409 463
#     4  12  28  50  77 116 157 207 267 320 394 464
#     4  12  29  50  82 113 161 211 264 332 389 485
#
# _framework density 25.444835999999999
#
# number of rings (size 3 to 8) (size 9 to 14) (size 15 to 20)
#    0.000    0.000    2.500    6.750    5.250    1.000 
#    0.000    0.000    0.000    0.000    0.000    0.000 
#    0.000    0.000    0.000    0.000    0.000    0.000 
#
# Total GULP energy -198364.110896 kJ/mol
# GULP energy per Si atom -12397.756931 kJ/mol
# Density = 2.538692 g / cm^3
# Si number density = 25.444836 Si / 1000 Ang^3
#
#
#
# Elastic Constant Matrix: (Units=GPa)
#
#
# Indices 1 2 3 4 5 6 
#
# 1 121.7059 37.0728 33.1384 0.0000 -17.0304 0.0000
# 2 37.0728 118.3789 6.2073 0.0000 -0.8824 0.0000
# 3 33.1384 6.2073 109.0980 0.0000 -21.6423 0.0000
# 4 0.0000 0.0000 0.0000 28.6909 0.0000 -8.7476
# 5 -17.0304 -0.8824 -21.6423 0.0000 34.2123 0.0000
# 6 0.0000 0.0000 0.0000 -8.7476 0.0000 51.2745
#
#
#
# Elastic Compliance Matrix: (Units=1/GPa)
#
#
# Indices 1 2 3 4 5 6 
#
# 1 0.010265 -0.003071 -0.002224 0.000000 0.003623 0.000000
# 2 -0.003071 0.009392 0.000164 0.000000 -0.001183 0.000000
# 3 -0.002224 0.000164 0.010993 0.000000 0.005851 0.000000
# 4 0.000000 0.000000 0.000000 0.036767 0.000000 0.006273
# 5 0.003623 -0.001183 0.005851 0.000000 0.034704 0.000000
# 6 0.000000 0.000000 0.000000 0.006273 0.000000 0.020573
#
#
# Mechanical properties :
#
#
# Convention : Reuss Voigt Hill
#
# Bulk Modulus (GPa) = 49.05216 55.77998 52.41607
# Shear Modulus (GPa) = 35.77783 41.01983 38.39883
#
# Velocity S-wave (km/s) = 3.75386 4.01946 3.88893
# Velocity P-wave (km/s) = 6.17319 6.59628 6.38824
#
# Compressibility (1/GPa) = 0.02038646
#
# Stress axis : x y z
#
# Youngs Moduli (GPa) = 97.42187 106.47621 90.96610
#
# Poissons Ratio (x) = 0.32698 0.20234
# Poissons Ratio (y) = 0.29918 -0.01490
# Poissons Ratio (z) = 0.21670 -0.01744
#
# Static dielectric constant tensor:
#      x y z
#    x 4.673620 0.000000 -0.064890 
#    y 0.000000 4.711370 0.000000 
#    z -0.064890 0.000000 4.233830 
# 
# 
# High freq. dielectric constant tensor:
#      x y z
#    x 2.024670 0.000000 -0.008410 
#    y 0.000000 2.031570 0.000000 
#    z -0.008410 0.000000 2.009200 
# 
# From -- ./inp_files/14179.got.cif
#   From: 2010.03.12/outbox.cif.g09.slc.cpg/sg4_8_cif.got.tgz:14179.got - 2010.03.31 09:31:35.
