data_PCOD8047187
_publ_section_title
;
Structure prediction by ZEFSAII (Michael W. Deem and Ramdas Pophale) SiO2 
 PCOD8047187
Probable space group: P 21
;
_chemical_formula_sum "Si O2"
_cell_formula_units_Z 12
_cell_length_a 7.717535
_cell_length_b 9.482380
_cell_length_c 11.985338
_cell_angle_alpha 90.000000
_cell_angle_beta 35.512752
_cell_angle_gamma 90.000000
_cell_volume 509.490117
_symmetry_space_group_name_H-M "P 21"
_symmetry_group_IT_number 4
_symmetry_cell_setting 'monoclinic'
loop_
_space_group_symop_operation_xyz
x,y,z
-x,1/2+y,-z
loop_
_atom_site_type_symbol
_atom_site_label
_atom_site_fract_x
_atom_site_fract_y
_atom_site_fract_z
Si Si1 0.250222 0.108900 0.617649
Si Si2 0.665824 0.561684 0.836995
Si Si3 0.671000 0.115521 0.583985
Si Si4 0.320846 0.739753 0.182452
Si Si5 0.171084 0.914692 0.846728
Si Si6 0.683508 0.101868 0.195807
O O1 0.464018 0.188552 0.596316
O O2 0.443218 0.053432 0.412793
O O3 0.997967 0.215071 0.708470
O O4 0.101105 0.973166 0.757537
O O5 0.578157 0.398355 0.891935
O O6 0.481917 0.632646 0.833476
O O7 0.015517 0.577150 0.634186
O O8 0.574007 0.637836 0.999729
O O9 0.706310 0.217776 0.670606
O O10 0.503683 0.969075 0.707552
O O11 0.150168 0.746674 0.857933
O O12 0.927764 0.978458 0.059339
#
# Coordination Sequence:
#
# PCOD8047187 Si02
#       6
#     2   2   2   2   2   2
#     4  10  25  48  74 107 151 191 245 306 367 443
#     4  12  28  47  79 107 151 201 243 315 365 440
#     4  10  26  45  75 109 141 201 239 305 375 426
#     4  12  27  49  71 113 150 190 255 301 369 446
#     4  10  27  44  73 112 145 195 241 306 367 441
#     4  12  25  49  76 110 152 194 251 303 375 444
#
# _framework density 23.552959999999999
#
# number of rings (size 3 to 8) (size 9 to 14) (size 15 to 20)
#    1.000    0.000    3.333    1.000    7.000    2.667 
#    0.000    0.000    0.000    0.000    0.000    0.000 
#    0.000    0.000    0.000    0.000    0.000    0.000 
#
# Total GULP energy -148795.194613 kJ/mol
# GULP energy per Si atom -12399.599551 kJ/mol
# Density = 2.349935 g / cm^3
# Si number density = 23.552960 Si / 1000 Ang^3
#
#
#
# Elastic Constant Matrix: (Units=GPa)
#
#
# Indices 1 2 3 4 5 6 
#
# 1 109.5694 9.2708 22.0850 0.0000 0.9346 0.0000
# 2 9.2708 92.9415 53.3389 0.0000 1.5182 0.0000
# 3 22.0850 53.3389 163.3129 0.0000 -0.5058 0.0000
# 4 0.0000 0.0000 0.0000 24.3338 0.0000 -0.6005
# 5 0.9346 1.5182 -0.5058 0.0000 35.4822 0.0000
# 6 0.0000 0.0000 0.0000 -0.6005 0.0000 26.5204
#
#
#
# Elastic Compliance Matrix: (Units=1/GPa)
#
#
# Indices 1 2 3 4 5 6 
#
# 1 0.009390 -0.000250 -0.001189 0.000000 -0.000254 0.000000
# 2 -0.000250 0.013262 -0.004300 0.000000 -0.000622 0.000000
# 3 -0.001189 -0.004300 0.007689 0.000000 0.000325 0.000000
# 4 0.000000 0.000000 0.000000 0.041118 0.000000 0.000931
# 5 -0.000254 -0.000622 0.000325 0.000000 0.028221 0.000000
# 6 0.000000 0.000000 0.000000 0.000931 0.000000 0.037728
#
#
# Mechanical properties :
#
#
# Convention : Reuss Voigt Hill
#
# Bulk Modulus (GPa) = 53.01175 59.46815 56.23995
# Shear Modulus (GPa) = 32.22208 36.00922 34.11565
#
# Velocity S-wave (km/s) = 3.70275 3.91431 3.81000
# Velocity P-wave (km/s) = 6.39037 6.76259 6.57911
#
# Compressibility (1/GPa) = 0.01886374
#
# Stress axis : x y z
#
# Youngs Moduli (GPa) = 106.50089 75.40293 130.05164
#
# Poissons Ratio (x) = 0.01886 0.15461
# Poissons Ratio (y) = 0.02664 0.55917
# Poissons Ratio (z) = 0.12661 0.32420
#
# Static dielectric constant tensor:
#      x y z
#    x 4.269940 0.000000 -0.011730 
#    y 0.000000 3.814820 0.000000 
#    z -0.011730 0.000000 4.457020 
# 
# 
# High freq. dielectric constant tensor:
#      x y z
#    x 1.934750 0.000000 -0.005080 
#    y 0.000000 1.905800 0.000000 
#    z -0.005080 0.000000 1.954190 
# 
# From -- ./inp_files/10980.got.cif
#   From: 2010.03.12/outbox.cif.g09.slc.cpg/sg4_6_cif.got.tgz:10980.got - 2010.03.31 09:31:35.
