data_PCOD8047006
_publ_section_title
;
Structure prediction by ZEFSAII (Michael W. Deem and Ramdas Pophale) SiO2 
 PCOD8047006
Probable space group: P 21
;
_chemical_formula_sum "Si O2"
_cell_formula_units_Z 16
_cell_length_a 8.513492
_cell_length_b 12.698209
_cell_length_c 8.360475
_cell_angle_alpha 90.000000
_cell_angle_beta 50.412670
_cell_angle_gamma 90.000000
_cell_volume 696.531391
_symmetry_space_group_name_H-M "P 21"
_symmetry_group_IT_number 4
_symmetry_cell_setting 'monoclinic'
loop_
_space_group_symop_operation_xyz
x,y,z
-x,1/2+y,-z
loop_
_atom_site_type_symbol
_atom_site_label
_atom_site_fract_x
_atom_site_fract_y
_atom_site_fract_z
Si Si1 0.061721 0.641000 0.107696
Si Si2 0.499332 0.180321 0.178161
Si Si3 0.833989 0.066888 0.610956
Si Si4 0.869048 0.438897 0.187564
Si Si5 0.572762 0.894097 0.632570
Si Si6 0.216121 0.318526 0.795465
Si Si7 0.759600 0.474833 0.621383
Si Si8 0.419051 0.755955 0.223889
O O1 0.122634 0.582235 0.230800
O O2 0.941285 0.554499 0.081390
O O3 0.907710 0.737013 0.235206
O O4 0.273298 0.679122 0.891976
O O5 0.377636 0.276521 0.337062
O O6 0.401995 0.068656 0.286204
O O7 0.502329 0.197872 0.985977
O O8 0.759851 0.179711 0.586358
O O9 0.658370 0.980561 0.698846
O O10 0.046756 0.019912 0.402707
O O11 0.669335 0.409374 0.217600
O O12 0.819527 0.433488 0.407196
O O13 0.059243 0.363048 0.027234
O O14 0.683899 0.905653 0.387420
O O15 0.399549 0.260952 0.767606
O O16 0.666150 0.371740 0.768913
#
# Coordination Sequence:
#
# PCOD8047006 Si02
#       8
#     2   2   2   2   2   2   2   2
#     4  10  23  47  69 102 150 189 242 303 379 434
#     4  11  26  45  78 105 151 197 246 314 377 453
#     4  10  26  43  74 103 148 198 243 305 368 450
#     4  11  24  46  74 107 146 198 240 314 368 442
#     4  12  25  46  74 112 146 196 252 300 384 447
#     4  12  25  48  75 110 150 190 250 318 366 448
#     4  11  25  48  75 107 155 199 249 306 383 443
#     4  11  26  47  75 112 148 195 260 312 377 445
#
# _framework density 22.970967999999999
#
# number of rings (size 3 to 8) (size 9 to 14) (size 15 to 20)
#    0.000    1.000    2.500    3.000   12.250    0.000 
#    4.500    0.000    0.000    0.000    0.000    0.000 
#    0.000    0.000    0.000    0.000    0.000    0.000 
#
# Total GULP energy -198336.214405 kJ/mol
# GULP energy per Si atom -12396.013400 kJ/mol
# Density = 2.291868 g / cm^3
# Si number density = 22.970968 Si / 1000 Ang^3
#
#
#
# Elastic Constant Matrix: (Units=GPa)
#
#
# Indices 1 2 3 4 5 6 
#
# 1 113.5842 56.0522 40.0946 0.0000 -30.6401 0.0000
# 2 56.0522 159.9875 39.1376 0.0000 -18.1558 0.0000
# 3 40.0946 39.1376 78.3167 0.0000 -9.0319 0.0000
# 4 0.0000 0.0000 0.0000 38.2302 0.0000 -13.4752
# 5 -30.6401 -18.1558 -9.0319 0.0000 37.4561 0.0000
# 6 0.0000 0.0000 0.0000 -13.4752 0.0000 52.1559
#
#
#
# Elastic Compliance Matrix: (Units=1/GPa)
#
#
# Indices 1 2 3 4 5 6 
#
# 1 0.014415 -0.002798 -0.004915 0.000000 0.009251 0.000000
# 2 -0.002798 0.007933 -0.002420 0.000000 0.000973 0.000000
# 3 -0.004915 -0.002420 0.016350 0.000000 -0.001251 0.000000
# 4 0.000000 0.000000 0.000000 0.028778 0.000000 0.007435
# 5 0.009251 0.000973 -0.001251 0.000000 0.034435 0.000000
# 6 0.000000 0.000000 0.000000 0.007435 0.000000 0.021094
#
#
# Mechanical properties :
#
#
# Convention : Reuss Voigt Hill
#
# Bulk Modulus (GPa) = 54.25135 69.16190 61.70662
# Shear Modulus (GPa) = 33.46377 40.00872 36.73625
#
# Velocity S-wave (km/s) = 3.82093 4.17791 4.00340
# Velocity P-wave (km/s) = 6.56769 7.31074 6.94916
#
# Compressibility (1/GPa) = 0.01843272
#
# Stress axis : x y z
#
# Youngs Moduli (GPa) = 69.37091 126.05204 61.16314
#
# Poissons Ratio (x) = 0.35274 0.30060
# Poissons Ratio (y) = 0.19413 0.14800
# Poissons Ratio (z) = 0.34094 0.30501
#
# Static dielectric constant tensor:
#      x y z
#    x 4.265690 0.000000 -0.487540 
#    y 0.000000 4.495960 0.000000 
#    z -0.487540 0.000000 4.087540 
# 
# 
# High freq. dielectric constant tensor:
#      x y z
#    x 1.910670 0.000000 -0.026290 
#    y 0.000000 1.921140 0.000000 
#    z -0.026290 0.000000 1.891780 
# 
# From -- ./inp_files/6398.got.cif
#   From: 2010.03.12/outbox.cif.g09.slc.cpg/sg4_4_cif.got.tgz:6398.got - 2010.03.31 09:31:35.
