data_PCOD8047874
_publ_section_title
;
Structure prediction by ZEFSAII (Michael W. Deem and Ramdas Pophale) SiO2 
 PCOD8047874
Probable space group: P 21
;
_chemical_formula_sum "Si O2"
_cell_formula_units_Z 16
_cell_length_a 20.029525
_cell_length_b 5.188166
_cell_length_c 13.261132
_cell_angle_alpha 90.000000
_cell_angle_beta 153.157704
_cell_angle_gamma 90.000000
_cell_volume 622.239832
_symmetry_space_group_name_H-M "P 21"
_symmetry_group_IT_number 4
_symmetry_cell_setting 'monoclinic'
loop_
_space_group_symop_operation_xyz
x,y,z
-x,1/2+y,-z
loop_
_atom_site_type_symbol
_atom_site_label
_atom_site_fract_x
_atom_site_fract_y
_atom_site_fract_z
Si Si1 0.715430 0.612490 0.273187
Si Si2 0.744396 0.111908 0.440220
Si Si3 0.022053 0.343539 0.146834
Si Si4 0.462324 0.169888 0.158944
Si Si5 0.155860 0.473915 0.968855
Si Si6 0.003033 0.951717 0.446770
Si Si7 0.769196 0.642799 0.741168
Si Si8 0.571492 0.161816 0.766913
O O1 0.722711 0.328913 0.329107
O O2 0.861440 0.637621 0.403039
O O3 0.701199 0.829635 0.339053
O O4 0.577595 0.631311 0.011938
O O5 0.641061 0.172879 0.398160
O O6 0.915954 0.095359 0.708838
O O7 0.159396 0.290447 0.256990
O O8 0.987941 0.124909 0.182769
O O9 0.868050 0.380923 0.878611
O O10 0.395227 0.437805 0.107286
O O11 0.406693 0.941035 0.155429
O O12 0.107054 0.373667 0.792685
O O13 0.200915 0.256961 0.108171
O O14 0.306113 0.645690 0.156853
O O15 0.933481 0.176970 0.425524
O O16 0.594274 0.606801 0.496743
#
# Coordination Sequence:
#
# PCOD8047874 Si02
#       8
#     2   2   2   2   2   2   2   2
#     4  12  24  45  74 112 149 203 258 322 385 461
#     4  12  25  45  77 110 152 196 262 324 389 453
#     4  12  27  49  79 112 151 208 265 332 391 466
#     4  12  26  49  75 113 160 201 259 313 399 468
#     4  12  29  51  78 115 154 207 265 322 395 476
#     4  12  26  47  75 108 155 202 253 314 386 465
#     4  12  29  49  80 110 156 207 265 330 392 464
#     4  12  30  49  78 112 161 206 255 323 391 471
#
# _framework density 25.713557000000002
#
# number of rings (size 3 to 8) (size 9 to 14) (size 15 to 20)
#    0.000    0.000    3.750    5.250    8.750    0.000 
#    0.000    0.000    0.000    0.000    0.000    0.000 
#    0.000    0.000    0.000    0.000    0.000    0.000 
#
# Total GULP energy -198312.901116 kJ/mol
# GULP energy per Si atom -12394.556320 kJ/mol
# Density = 2.565503 g / cm^3
# Si number density = 25.713557 Si / 1000 Ang^3
#
#
#
# Elastic Constant Matrix: (Units=GPa)
#
#
# Indices 1 2 3 4 5 6 
#
# 1 95.8490 10.0221 33.4023 0.0000 -2.8947 0.0000
# 2 10.0221 94.8874 13.0553 0.0000 -16.2944 0.0000
# 3 33.4023 13.0553 103.6379 0.0000 -8.5176 0.0000
# 4 0.0000 0.0000 0.0000 37.4959 0.0000 -3.3835
# 5 -2.8947 -16.2944 -8.5176 0.0000 40.1350 0.0000
# 6 0.0000 0.0000 0.0000 -3.3835 0.0000 33.6142
#
#
#
# Elastic Compliance Matrix: (Units=1/GPa)
#
#
# Indices 1 2 3 4 5 6 
#
# 1 0.011806 -0.000778 -0.003728 0.000000 -0.000255 0.000000
# 2 -0.000778 0.011497 -0.000833 0.000000 0.004435 0.000000
# 3 -0.003728 -0.000833 0.011099 0.000000 0.001748 0.000000
# 4 0.000000 0.000000 0.000000 0.026914 0.000000 0.002709
# 5 -0.000255 0.004435 0.001748 0.000000 0.027069 0.000000
# 6 0.000000 0.000000 0.000000 0.002709 0.000000 0.030022
#
#
# Mechanical properties :
#
#
# Convention : Reuss Voigt Hill
#
# Bulk Modulus (GPa) = 42.15114 45.25928 43.70521
# Shear Modulus (GPa) = 36.49814 38.10867 37.30341
#
# Velocity S-wave (km/s) = 3.77160 3.85391 3.81298
# Velocity P-wave (km/s) = 5.94935 6.11907 6.03481
#
# Compressibility (1/GPa) = 0.02372415
#
# Stress axis : x y z
#
# Youngs Moduli (GPa) = 84.70360 86.97805 90.09699
#
# Poissons Ratio (x) = 0.06766 0.33588
# Poissons Ratio (y) = 0.06589 0.07506
# Poissons Ratio (z) = 0.31578 0.07246
#
# Static dielectric constant tensor:
#      x y z
#    x 4.900880 0.000000 0.276190 
#    y 0.000000 4.379610 0.000000 
#    z 0.276190 0.000000 4.938550 
# 
# 
# High freq. dielectric constant tensor:
#      x y z
#    x 2.038960 0.000000 0.008490 
#    y 0.000000 2.023400 0.000000 
#    z 0.008490 0.000000 2.041830 
# 
# From -- ./inp_files/12844.got.cif
#   From: 2010.03.12/outbox.cif.g09.slc.cpg/sg4_7_cif.got.tgz:12844.got - 2010.03.31 09:31:35.
