data_PCOD8047613
_publ_section_title
;
Structure prediction by ZEFSAII (Michael W. Deem and Ramdas Pophale) SiO2 
 PCOD8047613
Probable space group: P 21
;
_chemical_formula_sum "Si O2"
_cell_formula_units_Z 16
_cell_length_a 12.505675
_cell_length_b 10.989287
_cell_length_c 6.447199
_cell_angle_alpha 90.000000
_cell_angle_beta 51.234736
_cell_angle_gamma 90.000000
_cell_volume 690.852168
_symmetry_space_group_name_H-M "P 21"
_symmetry_group_IT_number 4
_symmetry_cell_setting 'monoclinic'
loop_
_space_group_symop_operation_xyz
x,y,z
-x,1/2+y,-z
loop_
_atom_site_type_symbol
_atom_site_label
_atom_site_fract_x
_atom_site_fract_y
_atom_site_fract_z
Si Si1 0.948574 0.177100 0.334118
Si Si2 0.383065 0.130375 0.840521
Si Si3 0.246902 0.865264 0.565017
Si Si4 0.380944 0.706139 0.732480
Si Si5 0.184421 0.260898 0.328672
Si Si6 0.271603 0.516779 0.189795
Si Si7 0.457477 0.895344 0.957290
Si Si8 0.166706 0.133779 0.762764
O O1 0.891592 0.312368 0.365254
O O2 0.814288 0.100373 0.551706
O O3 0.062853 0.181448 0.374451
O O4 0.014702 0.121488 0.044802
O O5 0.531375 0.152284 0.563054
O O6 0.269711 0.174413 0.815660
O O7 0.341118 0.215227 0.087204
O O8 0.367884 0.991232 0.931977
O O9 0.273229 0.798610 0.754860
O O10 0.378588 0.848625 0.256647
O O11 0.221390 0.007715 0.609027
O O12 0.308025 0.592315 0.937421
O O13 0.475229 0.778508 0.784556
O O14 0.174272 0.400425 0.263515
O O15 0.165388 0.241940 0.596473
O O16 0.403950 0.465219 0.149509
#
# Coordination Sequence:
#
# PCOD8047613 Si02
#       8
#     2   2   2   2   2   2   2   2
#     4  11  29  45  70 109 141 198 252 302 371 440
#     4  11  24  45  71 109 142 192 243 301 381 443
#     4  12  25  48  75 106 145 199 250 311 379 443
#     4  12  27  45  76 110 152 195 246 315 387 450
#     4  11  27  48  72 101 153 196 252 308 369 446
#     4  12  28  47  73 110 151 193 248 312 373 454
#     4  12  25  47  75 109 153 191 248 318 377 451
#     4  11  25  47  74 102 145 198 249 305 369 443
#
# _framework density 23.159801000000002
#
# number of rings (size 3 to 8) (size 9 to 14) (size 15 to 20)
#    0.000    0.500    3.750    3.000    8.750    0.000 
#    2.250    0.000    0.000    0.000    0.000    0.000 
#    0.000    0.000    0.000    0.000    0.000    0.000 
#
# Total GULP energy -198359.407261 kJ/mol
# GULP energy per Si atom -12397.462954 kJ/mol
# Density = 2.310709 g / cm^3
# Si number density = 23.159801 Si / 1000 Ang^3
#
#
#
# Elastic Constant Matrix: (Units=GPa)
#
#
# Indices 1 2 3 4 5 6 
#
# 1 78.7402 23.3727 43.9478 0.0000 -2.1349 0.0000
# 2 23.3727 99.6199 33.9201 0.0000 11.9347 0.0000
# 3 43.9478 33.9201 144.3529 0.0000 -2.1843 0.0000
# 4 0.0000 0.0000 0.0000 48.6193 0.0000 -1.6373
# 5 -2.1349 11.9347 -2.1843 0.0000 31.3134 0.0000
# 6 0.0000 0.0000 0.0000 -1.6373 0.0000 36.6049
#
#
#
# Elastic Compliance Matrix: (Units=1/GPa)
#
#
# Indices 1 2 3 4 5 6 
#
# 1 0.015836 -0.002490 -0.004210 0.000000 0.001735 0.000000
# 2 -0.002490 0.011926 -0.002118 0.000000 -0.004863 0.000000
# 3 -0.004210 -0.002118 0.008724 0.000000 0.001129 0.000000
# 4 0.000000 0.000000 0.000000 0.020599 0.000000 0.000921
# 5 0.001735 -0.004863 0.001129 0.000000 0.033986 0.000000
# 6 0.000000 0.000000 0.000000 0.000921 0.000000 0.027360
#
#
# Mechanical properties :
#
#
# Convention : Reuss Voigt Hill
#
# Bulk Modulus (GPa) = 53.04891 58.35489 55.70190
# Shear Modulus (GPa) = 35.12495 38.07237 36.59866
#
# Velocity S-wave (km/s) = 3.89862 4.05890 3.97957
# Velocity P-wave (km/s) = 6.57427 6.87150 6.72453
#
# Compressibility (1/GPa) = 0.01885053
#
# Stress axis : x y z
#
# Youngs Moduli (GPa) = 63.14826 83.85005 114.62770
#
# Poissons Ratio (x) = 0.20877 0.48256
# Poissons Ratio (y) = 0.15723 0.24278
# Poissons Ratio (z) = 0.26584 0.17759
#
# Static dielectric constant tensor:
#      x y z
#    x 4.055500 0.000000 0.017530 
#    y 0.000000 4.265030 0.000000 
#    z 0.017530 0.000000 4.345170 
# 
# 
# High freq. dielectric constant tensor:
#      x y z
#    x 1.909980 0.000000 0.002100 
#    y 0.000000 1.920800 0.000000 
#    z 0.002100 0.000000 1.926980 
# 
# From -- ./inp_files/2920.got.cif
#   From: 2010.03.12/outbox.cif.g09.slc.cpg/sg4_2_cif.got.tgz:2920.got - 2010.03.31 09:31:35.
