data_PCOD8047703
_publ_section_title
;
Structure prediction by ZEFSAII (Michael W. Deem and Ramdas Pophale) SiO2 
 PCOD8047703
Probable space group: P 21
;
_chemical_formula_sum "Si O2"
_cell_formula_units_Z 16
_cell_length_a 14.300214
_cell_length_b 9.645270
_cell_length_c 5.567133
_cell_angle_alpha 90.000000
_cell_angle_beta 126.450098
_cell_angle_gamma 90.000000
_cell_volume 617.656308
_symmetry_space_group_name_H-M "P 21"
_symmetry_group_IT_number 4
_symmetry_cell_setting 'monoclinic'
loop_
_space_group_symop_operation_xyz
x,y,z
-x,1/2+y,-z
loop_
_atom_site_type_symbol
_atom_site_label
_atom_site_fract_x
_atom_site_fract_y
_atom_site_fract_z
Si Si1 0.005083 0.132970 0.773995
Si Si2 0.828429 0.245564 0.182968
Si Si3 0.787003 0.551137 0.177777
Si Si4 0.044302 0.346929 0.204753
Si Si5 0.496066 0.424314 0.319490
Si Si6 0.323843 0.135423 0.501259
Si Si7 0.628691 0.132279 0.566507
Si Si8 0.700217 0.911421 0.336248
O O1 0.874331 0.172673 0.495206
O O2 0.001685 0.999242 0.944011
O O3 0.077971 0.091113 0.648233
O O4 0.070045 0.259201 0.005389
O O5 0.943008 0.272266 0.198177
O O6 0.765474 0.386989 0.163026
O O7 0.735833 0.144070 0.916659
O O8 0.723337 0.597795 0.834180
O O9 0.758195 0.619582 0.388877
O O10 0.166024 0.375034 0.528059
O O11 0.569001 0.534079 0.269650
O O12 0.569185 0.283062 0.461001
O O13 0.467630 0.516585 0.511521
O O14 0.373742 0.386314 0.014887
O O15 0.350879 0.300579 0.542306
O O16 0.683243 0.070182 0.404012
#
# Coordination Sequence:
#
# PCOD8047703 Si02
#       8
#     2   2   2   2   2   2   2   2
#     4  11  25  44  75 114 157 213 267 338 418 493
#     4  11  26  47  80 111 164 209 276 337 420 489
#     4  11  27  48  82 113 161 213 276 338 410 492
#     4  11  25  46  73 116 155 210 267 343 408 502
#     4  12  29  49  79 112 161 212 277 335 417 482
#     4  12  27  51  80 113 156 216 273 340 406 489
#     4  12  28  52  76 120 156 214 276 344 409 498
#     4  12  27  45  79 109 164 203 282 329 420 477
#
# _framework density 25.904374000000001
#
# number of rings (size 3 to 8) (size 9 to 14) (size 15 to 20)
#    0.000    0.500    2.500    3.750    8.750    7.000 
#    0.000    0.000    0.000    0.000    0.000    0.000 
#    0.000    0.000    0.000    0.000    0.000    0.000 
#
# Total GULP energy -198259.448194 kJ/mol
# GULP energy per Si atom -12391.215512 kJ/mol
# Density = 2.584541 g / cm^3
# Si number density = 25.904374 Si / 1000 Ang^3
#
#
#
# Elastic Constant Matrix: (Units=GPa)
#
#
# Indices 1 2 3 4 5 6 
#
# 1 80.1338 46.2087 6.3647 0.0000 13.8160 0.0000
# 2 46.2087 161.7858 24.0018 0.0000 3.4485 0.0000
# 3 6.3647 24.0018 96.1049 0.0000 12.0817 0.0000
# 4 0.0000 0.0000 0.0000 41.2564 0.0000 5.5049
# 5 13.8160 3.4485 12.0817 0.0000 38.0989 0.0000
# 6 0.0000 0.0000 0.0000 5.5049 0.0000 40.5306
#
#
#
# Elastic Compliance Matrix: (Units=1/GPa)
#
#
# Indices 1 2 3 4 5 6 
#
# 1 0.016028 -0.004575 0.000791 0.000000 -0.005649 0.000000
# 2 -0.004575 0.007725 -0.001819 0.000000 0.001537 0.000000
# 3 0.000791 -0.001819 0.011272 0.000000 -0.003697 0.000000
# 4 0.000000 0.000000 0.000000 0.024686 0.000000 -0.003353
# 5 -0.005649 0.001537 -0.003697 0.000000 0.029329 0.000000
# 6 0.000000 0.000000 0.000000 -0.003353 0.000000 0.025128
#
#
# Mechanical properties :
#
#
# Convention : Reuss Voigt Hill
#
# Bulk Modulus (GPa) = 41.98328 54.57496 48.27912
# Shear Modulus (GPa) = 37.50523 41.40714 39.45618
#
# Velocity S-wave (km/s) = 3.80917 4.00241 3.90699
# Velocity P-wave (km/s) = 5.96562 6.51711 6.24745
#
# Compressibility (1/GPa) = 0.02381901
#
# Stress axis : x y z
#
# Youngs Moduli (GPa) = 62.38925 129.45210 88.71510
#
# Poissons Ratio (x) = 0.59224 -0.07020
# Poissons Ratio (y) = 0.28543 0.16141
# Poissons Ratio (z) = -0.04937 0.23553
#
# Static dielectric constant tensor:
#      x y z
#    x 4.679090 0.000000 0.340090 
#    y 0.000000 5.301970 0.000000 
#    z 0.340090 0.000000 4.383690 
# 
# 
# High freq. dielectric constant tensor:
#      x y z
#    x 2.033660 0.000000 0.018890 
#    y 0.000000 2.067600 0.000000 
#    z 0.018890 0.000000 2.022820 
# 
# From -- ./inp_files/2617.got.cif
#   From: 2010.03.12/outbox.cif.g09.slc.cpg/sg4_2_cif.got.tgz:2617.got - 2010.03.31 09:31:35.
