data_PCOD8047235
_publ_section_title
;
Structure prediction by ZEFSAII (Michael W. Deem and Ramdas Pophale) SiO2 
 PCOD8047235
Probable space group: P 21
;
_chemical_formula_sum "Si O2"
_cell_formula_units_Z 14
_cell_length_a 8.377228
_cell_length_b 11.278301
_cell_length_c 11.190432
_cell_angle_alpha 90.000000
_cell_angle_beta 139.382358
_cell_angle_gamma 90.000000
_cell_volume 688.299062
_symmetry_space_group_name_H-M "P 21"
_symmetry_group_IT_number 4
_symmetry_cell_setting 'monoclinic'
loop_
_space_group_symop_operation_xyz
x,y,z
-x,1/2+y,-z
loop_
_atom_site_type_symbol
_atom_site_label
_atom_site_fract_x
_atom_site_fract_y
_atom_site_fract_z
Si Si1 0.354867 0.484720 0.590222
Si Si2 0.621793 0.145328 0.171231
Si Si3 0.259596 0.549863 0.012226
Si Si4 0.266455 0.789111 0.116717
Si Si5 0.002058 0.812390 0.715123
Si Si6 0.230643 0.288419 0.059023
Si Si7 0.276390 0.141052 0.310557
O O1 0.299282 0.570852 0.668299
O O2 0.516410 0.377044 0.731298
O O3 0.098731 0.436102 0.393020
O O4 0.492513 0.552040 0.558531
O O5 0.346482 0.200580 0.024384
O O6 0.805683 0.257211 0.268179
O O7 0.641368 0.061595 0.066825
O O8 0.374909 0.656348 0.157705
O O9 0.334746 0.421547 0.102716
O O10 0.965457 0.563364 0.854303
O O11 0.128271 0.831087 0.916264
O O12 0.066665 0.786629 0.111305
O O13 0.772773 0.717981 0.597637
O O14 0.330904 0.238946 0.240476
#
# Coordination Sequence:
#
# PCOD8047235 Si02
#       7
#     2   2   2   2   2   2   2
#     4  11  19  40  62  79 117 151 190 238 285 338
#     4   9  21  34  57  82 121 151 180 244 286 334
#     4   9  17  33  55  84 118 141 188 235 282 334
#     4   9  20  36  60  88 101 155 196 230 284 337
#     4   9  21  41  53  85 121 141 192 237 282 337
#     4   9  16  34  58  79 115 147 183 235 286 327
#     4   8  18  36  57  83 109 146 191 243 275 323
#
# _framework density 20.339995999999999
#
# number of rings (size 3 to 8) (size 9 to 14) (size 15 to 20)
#    0.000    3.429    1.429    0.000    4.000    0.000 
#    7.714    5.714    0.000    0.000    0.000    0.000 
#    0.000    0.000    0.000    0.000    0.000    0.000 
#
# Total GULP energy -173437.011909 kJ/mol
# GULP energy per Si atom -12388.357994 kJ/mol
# Density = 2.029370 g / cm^3
# Si number density = 20.339996 Si / 1000 Ang^3
#
#
#
# Elastic Constant Matrix: (Units=GPa)
#
#
# Indices 1 2 3 4 5 6 
#
# 1 113.0629 31.5769 17.6177 0.0000 1.4374 0.0000
# 2 31.5769 86.3640 24.1776 0.0000 -5.0664 0.0000
# 3 17.6177 24.1776 34.3116 0.0000 1.3404 0.0000
# 4 0.0000 0.0000 0.0000 36.9041 0.0000 9.7667
# 5 1.4374 -5.0664 1.3404 0.0000 11.1163 0.0000
# 6 0.0000 0.0000 0.0000 9.7667 0.0000 32.3121
#
#
#
# Elastic Compliance Matrix: (Units=1/GPa)
#
#
# Indices 1 2 3 4 5 6 
#
# 1 0.010187 -0.003018 -0.003013 0.000000 -0.002329 0.000000
# 2 -0.003018 0.016031 -0.010095 0.000000 0.008914 0.000000
# 3 -0.003013 -0.010095 0.038150 0.000000 -0.008811 0.000000
# 4 0.000000 0.000000 0.000000 0.029453 0.000000 -0.008903
# 5 -0.002329 0.008914 -0.008811 0.000000 0.095384 0.000000
# 6 0.000000 0.000000 0.000000 -0.008903 0.000000 0.033639
#
#
# Mechanical properties :
#
#
# Convention : Reuss Voigt Hill
#
# Bulk Modulus (GPa) = 31.13748 42.27587 36.70668
# Shear Modulus (GPa) = 18.81107 26.75759 22.78433
#
# Velocity S-wave (km/s) = 3.04440 3.63094 3.35053
# Velocity P-wave (km/s) = 5.26304 6.19742 5.74924
#
# Compressibility (1/GPa) = 0.03211564
#
# Stress axis : x y z
#
# Youngs Moduli (GPa) = 98.16899 62.37802 26.21260
#
# Poissons Ratio (x) = 0.18823 0.07898
# Poissons Ratio (y) = 0.29623 0.26462
# Poissons Ratio (z) = 0.29579 0.62972
#
# Static dielectric constant tensor:
#      x y z
#    x 4.007820 0.000000 0.123580 
#    y 0.000000 3.852250 0.000000 
#    z 0.123580 0.000000 3.091260 
# 
# 
# High freq. dielectric constant tensor:
#      x y z
#    x 1.810280 0.000000 0.007640 
#    y 0.000000 1.805460 0.000000 
#    z 0.007640 0.000000 1.730910 
# 
# From -- ./inp_files/5894.got.cif
#   From: 2010.03.12/outbox.cif.g09.slc.cpg/sg4_3_cif.got.tgz:5894.got - 2010.03.31 09:31:35.
