data_PCOD8047387
_publ_section_title
;
Structure prediction by ZEFSAII (Michael W. Deem and Ramdas Pophale) SiO2 
 PCOD8047387
Probable space group: P 21
;
_chemical_formula_sum "Si O2"
_cell_formula_units_Z 14
_cell_length_a 15.541396
_cell_length_b 8.547690
_cell_length_c 10.579597
_cell_angle_alpha 90.000000
_cell_angle_beta 23.785426
_cell_angle_gamma 90.000000
_cell_volume 566.825854
_symmetry_space_group_name_H-M "P 21"
_symmetry_group_IT_number 4
_symmetry_cell_setting 'monoclinic'
loop_
_space_group_symop_operation_xyz
x,y,z
-x,1/2+y,-z
loop_
_atom_site_type_symbol
_atom_site_label
_atom_site_fract_x
_atom_site_fract_y
_atom_site_fract_z
Si Si1 0.349332 0.525210 0.427079
Si Si2 0.759245 0.680874 0.831901
Si Si3 0.972571 0.715270 0.802756
Si Si4 0.406387 0.242962 0.503917
Si Si5 0.907449 0.574915 0.376635
Si Si6 0.255114 0.746675 0.758246
Si Si7 0.445834 0.957843 0.307807
O O1 0.323908 0.341665 0.492411
O O2 0.359084 0.592493 0.557068
O O3 0.174553 0.609400 0.573038
O O4 0.579877 0.548172 0.054343
O O5 0.899211 0.645780 0.767195
O O6 0.911068 0.664236 0.506310
O O7 0.639101 0.848856 0.002582
O O8 0.799434 0.685994 0.143135
O O9 0.995622 0.900820 0.748954
O O10 0.582800 0.323091 0.357395
O O11 0.535712 0.090234 0.280500
O O12 0.663682 0.549451 0.660478
O O13 0.027892 0.696070 0.120553
O O14 0.249968 0.865540 0.644286
#
# Coordination Sequence:
#
# PCOD8047387 Si02
#       7
#     2   2   2   2   2   2   2
#     4  11  24  48  77 112 150 203 259 319 389 454
#     4  11  27  51  73 109 161 200 253 320 390 472
#     4  12  24  48  78 113 157 202 263 322 385 471
#     4  12  24  44  81 114 155 197 261 330 380 456
#     4  12  26  47  79 114 154 204 261 317 397 467
#     4  11  22  46  77 116 149 198 262 322 386 447
#     4  11  25  48  75 112 154 196 259 324 381 459
#
# _framework density 24.698941000000001
#
# number of rings (size 3 to 8) (size 9 to 14) (size 15 to 20)
#    0.000    0.571    7.143    2.571    0.000    2.286 
#    7.714    1.429    0.000    0.000    0.000    0.000 
#    0.000    0.000    0.000    0.000    0.000    0.000 
#
# Total GULP energy -173450.007934 kJ/mol
# GULP energy per Si atom -12389.286281 kJ/mol
# Density = 2.464272 g / cm^3
# Si number density = 24.698941 Si / 1000 Ang^3
#
#
#
# Elastic Constant Matrix: (Units=GPa)
#
#
# Indices 1 2 3 4 5 6 
#
# 1 118.7924 46.6059 43.9748 0.0000 -6.1046 0.0000
# 2 46.6059 99.2422 24.1511 0.0000 14.3314 0.0000
# 3 43.9748 24.1511 58.3484 0.0000 12.6536 0.0000
# 4 0.0000 0.0000 0.0000 31.8652 0.0000 4.3096
# 5 -6.1046 14.3314 12.6536 0.0000 46.5014 0.0000
# 6 0.0000 0.0000 0.0000 4.3096 0.0000 36.5272
#
#
#
# Elastic Compliance Matrix: (Units=1/GPa)
#
#
# Indices 1 2 3 4 5 6 
#
# 1 0.014580 -0.005283 -0.010170 0.000000 0.006310 0.000000
# 2 -0.005283 0.013362 -0.000537 0.000000 -0.004665 0.000000
# 3 -0.010170 -0.000537 0.026864 0.000000 -0.008480 0.000000
# 4 0.000000 0.000000 0.000000 0.031891 0.000000 -0.003763
# 5 0.006310 -0.004665 -0.008480 0.000000 0.026078 0.000000
# 6 0.000000 0.000000 0.000000 -0.003763 0.000000 0.027821
#
#
# Mechanical properties :
#
#
# Convention : Reuss Voigt Hill
#
# Bulk Modulus (GPa) = 43.81024 56.20519 50.00771
# Shear Modulus (GPa) = 27.74937 33.75550 30.75244
#
# Velocity S-wave (km/s) = 3.35551 3.70087 3.53241
# Velocity P-wave (km/s) = 5.72615 6.40839 6.07685
#
# Compressibility (1/GPa) = 0.02282571
#
# Stress axis : x y z
#
# Youngs Moduli (GPa) = 68.58875 74.83971 37.22441
#
# Poissons Ratio (x) = 0.39539 0.37856
# Poissons Ratio (y) = 0.36237 0.02000
# Poissons Ratio (z) = 0.69752 0.04020
#
# Static dielectric constant tensor:
#      x y z
#    x 4.397930 0.000000 0.011280 
#    y 0.000000 4.552700 0.000000 
#    z 0.011280 0.000000 4.090090 
# 
# 
# High freq. dielectric constant tensor:
#      x y z
#    x 1.992840 0.000000 -0.005220 
#    y 0.000000 1.985230 0.000000 
#    z -0.005220 0.000000 1.960640 
# 
# From -- ./inp_files/12864.got.cif
#   From: 2010.03.12/outbox.cif.g09.slc.cpg/sg4_7_cif.got.tgz:12864.got - 2010.03.31 09:31:35.
