data_PCOD8047066
_publ_section_title
;
Structure prediction by ZEFSAII (Michael W. Deem and Ramdas Pophale) SiO2 
 PCOD8047066
Probable space group: P 21
;
_chemical_formula_sum "Si O2"
_cell_formula_units_Z 14
_cell_length_a 16.261245
_cell_length_b 9.535171
_cell_length_c 5.260518
_cell_angle_alpha 90.000000
_cell_angle_beta 48.364912
_cell_angle_gamma 90.000000
_cell_volume 609.619519
_symmetry_space_group_name_H-M "P 21"
_symmetry_group_IT_number 4
_symmetry_cell_setting 'monoclinic'
loop_
_space_group_symop_operation_xyz
x,y,z
-x,1/2+y,-z
loop_
_atom_site_type_symbol
_atom_site_label
_atom_site_fract_x
_atom_site_fract_y
_atom_site_fract_z
Si Si1 0.820639 0.618460 0.287127
Si Si2 0.685309 0.096856 0.774713
Si Si3 0.867338 0.995490 0.748809
Si Si4 0.670514 0.372481 0.555901
Si Si5 0.328244 0.358311 0.539143
Si Si6 0.947147 0.696768 0.527066
Si Si7 0.443520 0.826202 0.719305
O O1 0.783142 0.459391 0.317253
O O2 0.710328 0.712030 0.500878
O O3 0.870975 0.633504 0.463397
O O4 0.906000 0.658092 0.893161
O O5 0.704151 0.208936 0.508441
O O6 0.805838 0.057891 0.631000
O O7 0.627887 0.957956 0.777890
O O8 0.604324 0.166111 0.154301
O O9 0.949159 0.866888 0.498564
O O10 0.775898 0.934915 0.124325
O O11 0.933946 0.123001 0.743686
O O12 0.598002 0.396665 0.453478
O O13 0.600402 0.417051 0.950202
O O14 0.423748 0.327074 0.547867
#
# Coordination Sequence:
#
# PCOD8047066 Si02
#       7
#     2   2   2   2   2   2   2
#     4  11  25  46  69 105 139 188 235 301 352 421
#     4  10  24  44  70 105 142 185 232 295 349 431
#     4  11  26  46  72 107 143 190 241 297 357 421
#     4  10  24  43  70 105 143 186 237 290 350 434
#     4  11  25  45  73 101 151 182 241 293 356 429
#     4  11  27  45  72 102 142 187 240 294 361 415
#     4  10  25  41  72 105 140 188 228 286 359 423
#
# _framework density 22.965143000000001
#
# number of rings (size 3 to 8) (size 9 to 14) (size 15 to 20)
#    0.857    0.571    1.429    1.714    8.000    2.286 
#    0.000    0.000    0.000    0.000    0.000    0.000 
#    0.000    0.000    0.000    0.000    0.000    0.000 
#
# Total GULP energy -173543.618522 kJ/mol
# GULP energy per Si atom -12395.972752 kJ/mol
# Density = 2.291287 g / cm^3
# Si number density = 22.965143 Si / 1000 Ang^3
#
#
#
# Elastic Constant Matrix: (Units=GPa)
#
#
# Indices 1 2 3 4 5 6 
#
# 1 169.1208 50.1985 29.4181 0.0000 6.6558 0.0000
# 2 50.1985 77.7640 17.7227 0.0000 -10.6799 0.0000
# 3 29.4181 17.7227 68.1792 0.0000 7.4248 0.0000
# 4 0.0000 0.0000 0.0000 21.4104 0.0000 -0.1229
# 5 6.6558 -10.6799 7.4248 0.0000 41.2310 0.0000
# 6 0.0000 0.0000 0.0000 -0.1229 0.0000 35.7354
#
#
#
# Elastic Compliance Matrix: (Units=1/GPa)
#
#
# Indices 1 2 3 4 5 6 
#
# 1 0.007774 -0.004900 -0.001842 0.000000 -0.002192 0.000000
# 2 -0.004900 0.017534 -0.003085 0.000000 0.005888 0.000000
# 3 -0.001842 -0.003085 0.016645 0.000000 -0.003499 0.000000
# 4 0.000000 0.000000 0.000000 0.046707 0.000000 0.000161
# 5 -0.002192 0.005888 -0.003499 0.000000 0.026763 0.000000
# 6 0.000000 0.000000 0.000000 0.000161 0.000000 0.027984
#
#
# Mechanical properties :
#
#
# Convention : Reuss Voigt Hill
#
# Bulk Modulus (GPa) = 44.84335 56.63807 50.74071
# Shear Modulus (GPa) = 29.32668 34.19032 31.75850
#
# Velocity S-wave (km/s) = 3.57740 3.86267 3.72277
# Velocity P-wave (km/s) = 6.05251 6.67906 6.37349
#
# Compressibility (1/GPa) = 0.02229985
#
# Stress axis : x y z
#
# Youngs Moduli (GPa) = 128.63562 57.03227 60.07812
#
# Poissons Ratio (x) = 0.27943 0.11066
# Poissons Ratio (y) = 0.63025 0.18534
# Poissons Ratio (z) = 0.23694 0.17594
#
# Static dielectric constant tensor:
#      x y z
#    x 4.066790 0.000000 0.064730 
#    y 0.000000 4.294570 0.000000 
#    z 0.064730 0.000000 3.758980 
# 
# 
# High freq. dielectric constant tensor:
#      x y z
#    x 1.914730 0.000000 0.009280 
#    y 0.000000 1.909810 0.000000 
#    z 0.009280 0.000000 1.887740 
# 
# From -- ./inp_files/3609.got.cif
#   From: 2010.03.12/outbox.cif.g09.slc.cpg/sg4_2_cif.got.tgz:3609.got - 2010.03.31 09:31:35.
