data_PCOD8047231
_publ_section_title
;
Structure prediction by ZEFSAII (Michael W. Deem and Ramdas Pophale) SiO2 
 PCOD8047231
Probable space group: P 21
;
_chemical_formula_sum "Si O2"
_cell_formula_units_Z 14
_cell_length_a 9.382685
_cell_length_b 15.207310
_cell_length_c 6.634552
_cell_angle_alpha 90.000000
_cell_angle_beta 135.000119
_cell_angle_gamma 90.000000
_cell_volume 669.383862
_symmetry_space_group_name_H-M "P 21"
_symmetry_group_IT_number 4
_symmetry_cell_setting 'monoclinic'
loop_
_space_group_symop_operation_xyz
x,y,z
-x,1/2+y,-z
loop_
_atom_site_type_symbol
_atom_site_label
_atom_site_fract_x
_atom_site_fract_y
_atom_site_fract_z
Si Si1 0.948922 0.299700 0.334558
Si Si2 0.114380 0.590898 0.063309
Si Si3 0.249994 0.153478 0.499980
Si Si4 0.250035 0.737119 0.500051
Si Si5 0.614347 0.090897 0.063257
Si Si6 0.448921 0.799699 0.334561
Si Si7 0.749999 0.945298 0.499995
O O1 0.086826 0.213567 0.449120
O O2 0.066230 0.387700 0.396942
O O3 0.897451 0.301321 0.521595
O O4 0.750015 0.292352 0.999992
O O5 0.137756 0.677029 0.224583
O O6 0.169305 0.502894 0.235523
O O7 0.249990 0.598241 0.999982
O O8 0.875862 0.589283 0.773359
O O9 0.413201 0.213558 0.550906
O O10 0.375838 0.089261 0.773275
O O11 0.362343 0.677043 0.775557
O O12 0.397488 0.801329 0.521648
O O13 0.669307 0.002908 0.235545
O O14 0.566227 0.887694 0.396905
#
# Coordination Sequence:
#
# PCOD8047231 Si02
#       7
#     2   2   2   2   2   2   2
#     4  11  23  45  66 104 129 174 221 273 323 395
#     4  11  23  45  66 104 129 174 221 273 323 395
#     4  11  20  43  75  93 132 170 232 263 318 396
#     4  11  20  43  75  93 132 170 232 263 318 396
#     4  11  23  45  66 104 129 174 221 273 323 395
#     4  11  23  45  66 104 129 174 221 273 323 395
#     4  10  28  44  68  94 144 170 212 274 344 376
#
# _framework density 20.914753999999999
#
# number of rings (size 3 to 8) (size 9 to 14) (size 15 to 20)
#    0.000    1.143    5.714    0.000    0.000    5.714 
#    0.000    0.000    0.000    0.000    0.000    0.000 
#    0.000    0.000    0.000    0.000    0.000    0.000 
#
# Total GULP energy -173560.135589 kJ/mol
# GULP energy per Si atom -12397.152542 kJ/mol
# Density = 2.086715 g / cm^3
# Si number density = 20.914754 Si / 1000 Ang^3
#
#
#
# Elastic Constant Matrix: (Units=GPa)
#
#
# Indices 1 2 3 4 5 6 
#
# 1 174.1209 71.3628 90.3884 0.0000 -11.4135 0.0000
# 2 71.3628 108.2853 71.3642 0.0000 -0.0006 0.0000
# 3 90.3884 71.3642 174.1201 0.0000 11.4122 0.0000
# 4 0.0000 0.0000 0.0000 26.5204 0.0000 -0.0015
# 5 -11.4135 -0.0006 11.4122 0.0000 45.2629 0.0000
# 6 0.0000 0.0000 0.0000 -0.0015 0.0000 26.5171
#
#
#
# Elastic Compliance Matrix: (Units=1/GPa)
#
#
# Indices 1 2 3 4 5 6 
#
# 1 0.009346 -0.003866 -0.003479 0.000000 0.003234 0.000000
# 2 -0.003866 0.014331 -0.003867 0.000000 0.000000 0.000000
# 3 -0.003479 -0.003867 0.009346 0.000000 -0.003234 0.000000
# 4 0.000000 0.000000 0.000000 0.037707 0.000000 0.000002
# 5 0.003234 0.000000 -0.003234 0.000000 0.023724 0.000000
# 6 0.000000 0.000000 0.000000 0.000002 0.000000 0.037711
#
#
# Mechanical properties :
#
#
# Convention : Reuss Voigt Hill
#
# Bulk Modulus (GPa) = 94.34827 102.52855 98.43841
# Shear Modulus (GPa) = 31.62138 34.55416 33.08777
#
# Velocity S-wave (km/s) = 3.89256 4.06907 3.98179
# Velocity P-wave (km/s) = 8.08773 8.43830 8.26488
#
# Compressibility (1/GPa) = 0.01059903
#
# Stress axis : x y z
#
# Youngs Moduli (GPa) = 107.00289 69.77818 107.00084
#
# Poissons Ratio (x) = 0.26979 0.37223
# Poissons Ratio (y) = 0.41371 0.41373
# Poissons Ratio (z) = 0.37223 0.26981
#
# Static dielectric constant tensor:
#      x y z
#    x 4.189950 0.000000 0.000040 
#    y 0.000000 3.777410 0.000000 
#    z 0.000040 0.000000 4.190000 
# 
# 
# High freq. dielectric constant tensor:
#      x y z
#    x 1.828550 0.000000 0.000000 
#    y 0.000000 1.814210 0.000000 
#    z 0.000000 0.000000 1.828540 
# 
# From -- ./inp_files/411.got.cif
#   From: 2010.03.12/outbox.cif.g09.slc.cpg/sg4_1_cif.got.tgz:411.got - 2010.03.31 09:31:35.
