data_PCOD8047345
_publ_section_title
;
Structure prediction by ZEFSAII (Michael W. Deem and Ramdas Pophale) SiO2 
 PCOD8047345
Probable space group: P 21
;
_chemical_formula_sum "Si O2"
_cell_formula_units_Z 16
_cell_length_a 14.727082
_cell_length_b 7.546297
_cell_length_c 8.879001
_cell_angle_alpha 90.000000
_cell_angle_beta 44.144026
_cell_angle_gamma 90.000000
_cell_volume 687.248222
_symmetry_space_group_name_H-M "P 21"
_symmetry_group_IT_number 4
_symmetry_cell_setting 'monoclinic'
loop_
_space_group_symop_operation_xyz
x,y,z
-x,1/2+y,-z
loop_
_atom_site_type_symbol
_atom_site_label
_atom_site_fract_x
_atom_site_fract_y
_atom_site_fract_z
Si Si1 0.550801 0.060280 0.617270
Si Si2 0.028252 0.479064 0.532823
Si Si3 0.599550 0.910246 0.243490
Si Si4 0.644699 0.260254 0.049500
Si Si5 0.937459 0.395222 0.177575
Si Si6 0.256795 0.713925 0.387146
Si Si7 0.918054 0.241069 0.891159
Si Si8 0.874116 0.761304 0.841804
O O1 0.513492 0.264408 0.628600
O O2 0.656053 0.071857 0.625382
O O3 0.620763 0.980920 0.387185
O O4 0.430045 0.933553 0.802598
O O5 0.140905 0.606848 0.450524
O O6 0.054152 0.427360 0.329576
O O7 0.020817 0.301909 0.641544
O O8 0.889211 0.581042 0.724893
O O9 0.564245 0.076217 0.175350
O O10 0.724699 0.801135 0.040764
O O11 0.663126 0.293932 0.849044
O O12 0.776357 0.217843 0.985826
O O13 0.803362 0.368228 0.434100
O O14 0.019284 0.572074 0.106259
O O15 0.043064 0.243034 0.102173
O O16 0.901606 0.384113 0.044744
#
# Coordination Sequence:
#
# PCOD8047345 Si02
#       8
#     2   2   2   2   2   2   2   2
#     4  12  29  49  76 104 146 201 257 301 367 437
#     4  11  23  41  71 105 144 188 231 302 379 444
#     4  12  25  48  74 105 144 201 246 308 364 436
#     4  12  26  51  75 102 152 195 247 310 362 448
#     4  11  23  41  70 103 146 177 241 305 365 460
#     4  11  26  48  69 109 142 187 248 305 370 443
#     4  12  24  44  70 109 143 195 235 302 386 434
#     4  11  22  42  71 103 143 184 239 299 371 444
#
# _framework density 23.281254000000001
#
# number of rings (size 3 to 8) (size 9 to 14) (size 15 to 20)
#    0.000    0.500    3.750    5.250    3.500    1.000 
#    2.250    0.000    0.000    0.000    0.000    0.000 
#    0.000    0.000    0.000    0.000    0.000    0.000 
#
# Total GULP energy -198327.212763 kJ/mol
# GULP energy per Si atom -12395.450798 kJ/mol
# Density = 2.322827 g / cm^3
# Si number density = 23.281254 Si / 1000 Ang^3
#
#
#
# Elastic Constant Matrix: (Units=GPa)
#
#
# Indices 1 2 3 4 5 6 
#
# 1 75.1208 16.4881 30.9363 0.0000 15.0191 0.0000
# 2 16.4881 88.6578 22.4802 0.0000 -7.5277 0.0000
# 3 30.9363 22.4802 103.9556 0.0000 11.7978 0.0000
# 4 0.0000 0.0000 0.0000 40.7738 0.0000 -1.1869
# 5 15.0191 -7.5277 11.7978 0.0000 18.3100 0.0000
# 6 0.0000 0.0000 0.0000 -1.1869 0.0000 32.4802
#
#
#
# Elastic Compliance Matrix: (Units=1/GPa)
#
#
# Indices 1 2 3 4 5 6 
#
# 1 0.018330 -0.003918 -0.002933 0.000000 -0.014757 0.000000
# 2 -0.003918 0.013689 -0.003018 0.000000 0.010787 0.000000
# 3 -0.002933 -0.003018 0.011882 0.000000 -0.006491 0.000000
# 4 0.000000 0.000000 0.000000 0.024552 0.000000 0.000897
# 5 -0.014757 0.010787 -0.006491 0.000000 0.075337 0.000000
# 6 0.000000 0.000000 0.000000 0.000897 0.000000 0.030821
#
#
# Mechanical properties :
#
#
# Convention : Reuss Voigt Hill
#
# Bulk Modulus (GPa) = 41.38732 45.28260 43.33496
# Shear Modulus (GPa) = 24.70317 31.50143 28.10230
#
# Velocity S-wave (km/s) = 3.26095 3.68242 3.47807
# Velocity P-wave (km/s) = 5.65633 6.12966 5.89775
#
# Compressibility (1/GPa) = 0.02416199
#
# Stress axis : x y z
#
# Youngs Moduli (GPa) = 54.55513 73.05005 84.16329
#
# Poissons Ratio (x) = 0.28623 0.24684
# Poissons Ratio (y) = 0.21376 0.25404
# Poissons Ratio (z) = 0.16000 0.22050
#
# Static dielectric constant tensor:
#      x y z
#    x 4.159210 0.000000 0.343390 
#    y 0.000000 4.502110 0.000000 
#    z 0.343390 0.000000 4.570450 
# 
# 
# High freq. dielectric constant tensor:
#      x y z
#    x 1.906240 0.000000 0.018300 
#    y 0.000000 1.931850 0.000000 
#    z 0.018300 0.000000 1.933240 
# 
# From -- ./inp_files/9136.got.cif
#   From: 2010.03.12/outbox.cif.g09.slc.cpg/sg4_5_cif.got.tgz:9136.got - 2010.03.31 09:31:35.
