data_PCOD8047841
_publ_section_title
;
Structure prediction by ZEFSAII (Michael W. Deem and Ramdas Pophale) SiO2 
 PCOD8047841
Probable space group: P 21
;
_chemical_formula_sum "Si O2"
_cell_formula_units_Z 16
_cell_length_a 15.131995
_cell_length_b 5.655290
_cell_length_c 9.796423
_cell_angle_alpha 90.000000
_cell_angle_beta 47.612730
_cell_angle_gamma 90.000000
_cell_volume 619.199966
_symmetry_space_group_name_H-M "P 21"
_symmetry_group_IT_number 4
_symmetry_cell_setting 'monoclinic'
loop_
_space_group_symop_operation_xyz
x,y,z
-x,1/2+y,-z
loop_
_atom_site_type_symbol
_atom_site_label
_atom_site_fract_x
_atom_site_fract_y
_atom_site_fract_z
Si Si1 0.186568 0.500000 0.292002
Si Si2 0.047314 0.846718 0.619577
Si Si3 0.915983 0.553734 0.956391
Si Si4 0.453468 0.176472 0.711701
Si Si5 0.281918 0.793244 0.944509
Si Si6 0.874314 0.723674 0.282527
Si Si7 0.438077 0.343618 0.019631
Si Si8 0.319244 0.495238 0.649920
O O1 0.139661 0.651076 0.469319
O O2 0.298394 0.330148 0.218270
O O3 0.065585 0.374926 0.364077
O O4 0.254025 0.665153 0.113626
O O5 0.993903 0.775801 0.823397
O O6 0.126368 0.081705 0.571821
O O7 0.992584 0.318934 0.866570
O O8 0.806107 0.520646 0.966081
O O9 0.856976 0.567673 0.165818
O O10 0.382144 0.268422 0.653543
O O11 0.413774 0.910847 0.800263
O O12 0.590369 0.166444 0.522678
O O13 0.440057 0.359277 0.851584
O O14 0.253255 0.630895 0.842478
O O15 0.771841 0.921908 0.376706
O O16 0.499741 0.591610 0.004478
#
# Coordination Sequence:
#
# PCOD8047841 Si02
#       8
#     2   2   2   2   2   2   2   2
#     4  12  27  54  80 114 164 219 286 338 425 504
#     4  12  28  50  78 118 156 212 272 348 415 514
#     4  12  23  44  73 112 156 199 254 326 422 491
#     4  12  26  51  81 112 162 215 275 337 420 498
#     4  12  23  47  79 111 158 215 269 332 411 507
#     4  12  25  45  76 121 160 200 265 340 424 500
#     4  12  30  58  87 123 169 232 288 348 416 503
#     4  12  26  47  80 119 153 208 267 345 415 501
#
# _framework density 25.839797000000001
#
# number of rings (size 3 to 8) (size 9 to 14) (size 15 to 20)
#    0.000    0.000    6.250    3.750    0.000    2.000 
#    9.000    0.000    0.000    0.000    0.000    0.000 
#    0.000    0.000    0.000    0.000    0.000    0.000 
#
# Total GULP energy -198274.520144 kJ/mol
# GULP energy per Si atom -12392.157509 kJ/mol
# Density = 2.578098 g / cm^3
# Si number density = 25.839797 Si / 1000 Ang^3
#
#
#
# Elastic Constant Matrix: (Units=GPa)
#
#
# Indices 1 2 3 4 5 6 
#
# 1 114.8614 32.3530 37.7362 0.0000 -8.3259 0.0000
# 2 32.3530 76.3038 12.4446 0.0000 -11.6655 0.0000
# 3 37.7362 12.4446 104.9441 0.0000 -16.2564 0.0000
# 4 0.0000 0.0000 0.0000 51.6527 0.0000 -2.5683
# 5 -8.3259 -11.6655 -16.2564 0.0000 28.6606 0.0000
# 6 0.0000 0.0000 0.0000 -2.5683 0.0000 45.6017
#
#
#
# Elastic Compliance Matrix: (Units=1/GPa)
#
#
# Indices 1 2 3 4 5 6 
#
# 1 0.011007 -0.004167 -0.003542 0.000000 -0.000508 0.000000
# 2 -0.004167 0.015622 0.000486 0.000000 0.005424 0.000000
# 3 -0.003542 0.000486 0.011639 0.000000 0.005770 0.000000
# 4 0.000000 0.000000 0.000000 0.019414 0.000000 0.001093
# 5 -0.000508 0.005424 0.005770 0.000000 0.040224 0.000000
# 6 0.000000 0.000000 0.000000 0.001093 0.000000 0.021991
#
#
# Mechanical properties :
#
#
# Convention : Reuss Voigt Hill
#
# Bulk Modulus (GPa) = 41.97910 51.24188 46.61049
# Shear Modulus (GPa) = 35.14094 39.42135 37.28114
#
# Velocity S-wave (km/s) = 3.69176 3.91014 3.80252
# Velocity P-wave (km/s) = 5.86969 6.34502 6.11198
#
# Compressibility (1/GPa) = 0.02382138
#
# Stress axis : x y z
#
# Youngs Moduli (GPa) = 90.85281 64.01150 85.91868
#
# Poissons Ratio (x) = 0.26672 0.30436
# Poissons Ratio (y) = 0.37857 -0.04175
# Poissons Ratio (z) = 0.32184 -0.03111
#
# Static dielectric constant tensor:
#      x y z
#    x 4.808920 0.000000 -0.130450 
#    y 0.000000 4.641390 0.000000 
#    z -0.130450 0.000000 4.733030 
# 
# 
# High freq. dielectric constant tensor:
#      x y z
#    x 2.040160 0.000000 -0.006010 
#    y 0.000000 2.034070 0.000000 
#    z -0.006010 0.000000 2.035190 
# 
# From -- ./inp_files/9003.got.cif
#   From: 2010.03.12/outbox.cif.g09.slc.cpg/sg4_5_cif.got.tgz:9003.got - 2010.03.31 09:31:35.
