data_PCOD8047961
_publ_section_title
;
Structure prediction by ZEFSAII (Michael W. Deem and Ramdas Pophale) SiO2 
 PCOD8047961
Probable space group: P 21
;
_chemical_formula_sum "Si O2"
_cell_formula_units_Z 16
_cell_length_a 22.477968
_cell_length_b 5.627955
_cell_length_c 9.213074
_cell_angle_alpha 90.000000
_cell_angle_beta 34.940811
_cell_angle_gamma 90.000000
_cell_volume 667.516629
_symmetry_space_group_name_H-M "P 21"
_symmetry_group_IT_number 4
_symmetry_cell_setting 'monoclinic'
loop_
_space_group_symop_operation_xyz
x,y,z
-x,1/2+y,-z
loop_
_atom_site_type_symbol
_atom_site_label
_atom_site_fract_x
_atom_site_fract_y
_atom_site_fract_z
Si Si1 0.878671 0.977640 0.333983
Si Si2 0.899848 0.634110 0.032381
Si Si3 0.942675 0.750167 0.640984
Si Si4 0.749999 0.266986 0.392572
Si Si5 0.621327 0.556335 0.848672
Si Si6 0.399848 0.399860 0.368228
Si Si7 0.442674 0.283787 0.588318
Si Si8 0.750001 0.766979 0.830850
O O1 0.797291 0.967035 0.629738
O O2 0.848307 0.202741 0.297778
O O3 0.871205 0.752362 0.242276
O O4 0.994010 0.988090 0.164978
O O5 0.911810 0.806979 0.870000
O O6 0.799259 0.471491 0.194074
O O7 0.843720 0.672686 0.742777
O O8 0.010481 0.503975 0.505321
O O9 0.651687 0.331239 0.691011
O O10 0.700742 0.062476 0.391107
O O11 0.702712 0.566932 0.818888
O O12 0.628788 0.781618 0.727115
O O13 0.505991 0.545881 0.141026
O O14 0.411808 0.226984 0.482765
O O15 0.510482 0.529977 0.452755
O O16 0.343719 0.361267 0.882346
#
# Coordination Sequence:
#
# PCOD8047961 Si02
#       8
#     2   2   2   2   2   2   2   2
#     4  12  26  47  78 113 151 207 265 329 382 474
#     4  12  27  48  78 111 158 201 269 323 397 472
#     4  12  32  53  80 115 164 211 264 325 403 475
#     4  12  26  44  80 110 152 202 264 330 392 456
#     4  12  26  47  78 113 151 207 265 329 382 474
#     4  12  27  48  78 111 158 201 269 323 397 472
#     4  12  32  53  80 115 164 211 264 325 403 475
#     4  12  28  52  76 120 158 212 262 330 406 470
#
# _framework density 23.969441
#
# number of rings (size 3 to 8) (size 9 to 14) (size 15 to 20)
#    0.000    0.000    7.500    0.000   14.000    1.000 
#    0.000    0.000    0.000    0.000    0.000    0.000 
#    0.000    0.000    0.000    0.000    0.000    0.000 
#
# Total GULP energy -198223.466046 kJ/mol
# GULP energy per Si atom -12388.966628 kJ/mol
# Density = 2.391489 g / cm^3
# Si number density = 23.969441 Si / 1000 Ang^3
#
#
#
# Elastic Constant Matrix: (Units=GPa)
#
#
# Indices 1 2 3 4 5 6 
#
# 1 127.9291 15.0908 29.5043 0.0000 -3.7984 0.0000
# 2 15.0908 86.5408 18.0134 0.0000 -4.3951 0.0000
# 3 29.5043 18.0134 128.1676 0.0000 3.4372 0.0000
# 4 0.0000 0.0000 0.0000 31.6906 0.0000 -9.3615
# 5 -3.7984 -4.3951 3.4372 0.0000 39.5955 0.0000
# 6 0.0000 0.0000 0.0000 -9.3615 0.0000 25.4652
#
#
#
# Elastic Compliance Matrix: (Units=1/GPa)
#
#
# Indices 1 2 3 4 5 6 
#
# 1 0.008381 -0.001043 -0.001805 0.000000 0.000845 0.000000
# 2 -0.001043 0.012119 -0.001500 0.000000 0.001375 0.000000
# 3 -0.001805 -0.001500 0.008458 0.000000 -0.001074 0.000000
# 4 0.000000 0.000000 0.000000 0.035399 0.000000 0.013013
# 5 0.000845 0.001375 -0.001074 0.000000 0.025582 0.000000
# 6 0.000000 0.000000 0.000000 0.013013 0.000000 0.044053
#
#
# Mechanical properties :
#
#
# Convention : Reuss Voigt Hill
#
# Bulk Modulus (GPa) = 49.35533 51.98382 50.66958
# Shear Modulus (GPa) = 33.45743 38.01885 35.73814
#
# Velocity S-wave (km/s) = 3.74014 3.98696 3.86552
# Velocity P-wave (km/s) = 6.26795 6.55203 6.41156
#
# Compressibility (1/GPa) = 0.02026123
#
# Stress axis : x y z
#
# Youngs Moduli (GPa) = 119.31279 82.51380 118.23754
#
# Poissons Ratio (x) = 0.08604 0.21348
# Poissons Ratio (y) = 0.12442 0.17737
# Poissons Ratio (z) = 0.21542 0.12378
#
# Static dielectric constant tensor:
#      x y z
#    x 4.573560 0.000000 -0.140910 
#    y 0.000000 4.095950 0.000000 
#    z -0.140910 0.000000 4.667210 
# 
# 
# High freq. dielectric constant tensor:
#      x y z
#    x 1.966610 0.000000 -0.004380 
#    y 0.000000 1.926830 0.000000 
#    z -0.004380 0.000000 1.969520 
# 
# From -- ./inp_files/1350.got.cif
#   From: 2010.03.12/outbox.cif.g09.slc.cpg/sg4_1_cif.got.tgz:1350.got - 2010.03.31 09:31:35.
