data_PCOD8047849
_publ_section_title
;
Structure prediction by ZEFSAII (Michael W. Deem and Ramdas Pophale) SiO2 
 PCOD8047849
Probable space group: P 21
;
_chemical_formula_sum "Si O2"
_cell_formula_units_Z 12
_cell_length_a 20.845022
_cell_length_b 4.837642
_cell_length_c 6.504298
_cell_angle_alpha 90.000000
_cell_angle_beta 49.799906
_cell_angle_gamma 90.000000
_cell_volume 500.971833
_symmetry_space_group_name_H-M "P 21"
_symmetry_group_IT_number 4
_symmetry_cell_setting 'monoclinic'
loop_
_space_group_symop_operation_xyz
x,y,z
-x,1/2+y,-z
loop_
_atom_site_type_symbol
_atom_site_label
_atom_site_fract_x
_atom_site_fract_y
_atom_site_fract_z
Si Si1 0.169714 0.692260 0.027582
Si Si2 0.000193 0.201519 0.864207
Si Si3 0.171388 0.193071 0.296605
Si Si4 0.338182 0.662206 0.470171
Si Si5 0.338899 0.157976 0.191388
Si Si6 0.553048 0.363945 0.385747
O O1 0.080119 0.655013 0.109767
O O2 0.170462 0.510479 0.231676
O O3 0.188445 0.004752 0.060555
O O4 0.242225 0.586965 0.724397
O O5 0.082515 0.102423 0.573689
O O6 0.008155 0.520133 0.912151
O O7 0.243188 0.164396 0.316679
O O8 0.368875 0.453842 0.224359
O O9 0.393271 0.679209 0.563862
O O10 0.343806 0.969587 0.378531
O O11 0.395924 0.034425 0.892024
O O12 0.501431 0.613542 0.603912
#
# Coordination Sequence:
#
# PCOD8047849 Si02
#       6
#     2   2   2   2   2   2
#     4  12  24  43  71 102 145 193 242 293 360 427
#     4  12  24  42  64 104 146 188 246 296 346 424
#     4  12  24  43  71 102 145 193 242 293 360 427
#     4  12  26  47  77 109 144 194 243 299 368 447
#     4  12  26  47  77 109 144 194 243 299 368 447
#     4  12  28  50  78 108 150 190 242 316 378 448
#
# _framework density 23.953438999999999
#
# number of rings (size 3 to 8) (size 9 to 14) (size 15 to 20)
#    0.000    0.000    1.667    9.000    2.333    2.667 
#    0.000    0.000    0.000    0.000    0.000    0.000 
#    0.000    0.000    0.000    0.000    0.000    0.000 
#
# Total GULP energy -148802.573127 kJ/mol
# GULP energy per Si atom -12400.214427 kJ/mol
# Density = 2.389892 g / cm^3
# Si number density = 23.953439 Si / 1000 Ang^3
#
#
#
# Elastic Constant Matrix: (Units=GPa)
#
#
# Indices 1 2 3 4 5 6 
#
# 1 101.5506 33.8055 56.9565 0.0000 -11.4555 0.0000
# 2 33.8055 109.6897 32.6629 0.0000 -9.8501 0.0000
# 3 56.9565 32.6629 102.2783 0.0000 -4.5374 0.0000
# 4 0.0000 0.0000 0.0000 42.6410 0.0000 15.2125
# 5 -11.4555 -9.8501 -4.5374 0.0000 28.6974 0.0000
# 6 0.0000 0.0000 0.0000 15.2125 0.0000 44.8006
#
#
#
# Elastic Compliance Matrix: (Units=1/GPa)
#
#
# Indices 1 2 3 4 5 6 
#
# 1 0.015316 -0.002055 -0.007687 0.000000 0.004193 0.000000
# 2 -0.002055 0.010608 -0.002133 0.000000 0.002484 0.000000
# 3 -0.007687 -0.002133 0.014673 0.000000 -0.001481 0.000000
# 4 0.000000 0.000000 0.000000 0.026684 0.000000 -0.009061
# 5 0.004193 0.002484 -0.001481 0.000000 0.037139 0.000000
# 6 0.000000 0.000000 0.000000 -0.009061 0.000000 0.025398
#
#
# Mechanical properties :
#
#
# Convention : Reuss Voigt Hill
#
# Bulk Modulus (GPa) = 59.35554 62.26315 60.80934
# Shear Modulus (GPa) = 31.41042 35.90071 33.65556
#
# Velocity S-wave (km/s) = 3.62513 3.87560 3.75245
# Velocity P-wave (km/s) = 6.50811 6.78799 6.64952
#
# Compressibility (1/GPa) = 0.01684763
#
# Stress axis : x y z
#
# Youngs Moduli (GPa) = 65.29333 94.26711 68.15060
#
# Poissons Ratio (x) = 0.19369 0.52385
# Poissons Ratio (y) = 0.13416 0.14539
# Poissons Ratio (z) = 0.50189 0.20111
#
# Static dielectric constant tensor:
#      x y z
#    x 4.391460 0.000000 -0.318650 
#    y 0.000000 4.482660 0.000000 
#    z -0.318650 0.000000 4.359480 
# 
# 
# High freq. dielectric constant tensor:
#      x y z
#    x 1.957560 0.000000 -0.005140 
#    y 0.000000 1.969680 0.000000 
#    z -0.005140 0.000000 1.949870 
# 
# From -- ./inp_files/4225.got.cif
#   From: 2010.03.12/outbox.cif.g09.slc.cpg/sg4_3_cif.got.tgz:4225.got - 2010.03.31 09:31:35.
