data_PCOD8047821
_publ_section_title
;
Structure prediction by ZEFSAII (Michael W. Deem and Ramdas Pophale) SiO2 
 PCOD8047821
Probable space group: P 21
;
_chemical_formula_sum "Si O2"
_cell_formula_units_Z 14
_cell_length_a 10.708229
_cell_length_b 5.534585
_cell_length_c 16.329965
_cell_angle_alpha 90.000000
_cell_angle_beta 40.315995
_cell_angle_gamma 90.000000
_cell_volume 626.172565
_symmetry_space_group_name_H-M "P 21"
_symmetry_group_IT_number 4
_symmetry_cell_setting 'monoclinic'
loop_
_space_group_symop_operation_xyz
x,y,z
-x,1/2+y,-z
loop_
_atom_site_type_symbol
_atom_site_label
_atom_site_fract_x
_atom_site_fract_y
_atom_site_fract_z
Si Si1 0.759831 0.564910 0.687499
Si Si2 0.500001 0.177123 0.049545
Si Si3 0.759822 0.289348 0.052679
Si Si4 0.499998 0.677121 0.244855
Si Si5 0.811077 0.953197 0.178203
Si Si6 0.388901 0.427101 0.555551
Si Si7 0.188933 0.401052 0.489279
O O1 0.694676 0.725671 0.797683
O O2 0.574855 0.387306 0.776355
O O3 0.771344 0.684502 0.592821
O O4 0.962647 0.445668 0.606494
O O5 0.694672 0.128576 0.007649
O O6 0.528577 0.427121 0.985710
O O7 0.574829 0.466931 0.148800
O O8 0.771346 0.169773 0.135843
O O9 0.962632 0.408613 0.930865
O O10 0.687100 0.728677 0.207497
O O11 0.312948 0.625566 0.394602
O O12 0.741545 0.017089 0.303743
O O13 0.499994 0.677104 0.476186
O O14 0.258441 0.337110 0.545299
#
# Coordination Sequence:
#
# PCOD8047821 Si02
#       7
#     2   2   2   2   2   2   2
#     4  12  26  46  78 108 149 203 252 310 384 456
#     4  12  29  50  73 112 156 202 256 319 374 447
#     4  12  26  46  78 108 149 203 252 310 384 456
#     4  12  21  48  73 106 150 194 252 307 370 461
#     4  12  26  47  76 111 149 198 255 310 383 458
#     4  12  28  50  76 112 154 196 248 322 378 446
#     4  12  26  47  76 111 149 198 255 310 383 458
#
# _framework density 22.358053000000002
#
# number of rings (size 3 to 8) (size 9 to 14) (size 15 to 20)
#    0.000    0.000    7.143    2.571    2.000    0.000 
#    2.571    0.000    0.000    0.000    0.000    0.000 
#    0.000    0.000    0.000    0.000    0.000    0.000 
#
# Total GULP energy -173461.805694 kJ/mol
# GULP energy per Si atom -12390.128978 kJ/mol
# Density = 2.230716 g / cm^3
# Si number density = 22.358053 Si / 1000 Ang^3
#
#
#
# Elastic Constant Matrix: (Units=GPa)
#
#
# Indices 1 2 3 4 5 6 
#
# 1 142.7618 43.9634 81.5274 0.0000 0.6805 0.0000
# 2 43.9634 108.6415 43.9053 0.0000 0.2876 0.0000
# 3 81.5274 43.9053 142.8093 0.0000 -0.9345 0.0000
# 4 0.0000 0.0000 0.0000 39.3124 0.0000 -0.7130
# 5 0.6805 0.2876 -0.9345 0.0000 40.3394 0.0000
# 6 0.0000 0.0000 0.0000 -0.7130 0.0000 39.1876
#
#
#
# Elastic Compliance Matrix: (Units=1/GPa)
#
#
# Indices 1 2 3 4 5 6 
#
# 1 0.010818 -0.002147 -0.005518 0.000000 -0.000295 0.000000
# 2 -0.002147 0.010938 -0.002137 0.000000 -0.000091 0.000000
# 3 -0.005518 -0.002137 0.010812 0.000000 0.000359 0.000000
# 4 0.000000 0.000000 0.000000 0.025446 0.000000 0.000463
# 5 -0.000295 -0.000091 0.000359 0.000000 0.024804 0.000000
# 6 0.000000 0.000000 0.000000 0.000463 0.000000 0.025527
#
#
# Mechanical properties :
#
#
# Convention : Reuss Voigt Hill
#
# Bulk Modulus (GPa) = 77.14327 81.44499 79.29413
# Shear Modulus (GPa) = 37.80158 38.75564 38.27861
#
# Velocity S-wave (km/s) = 4.11632 4.16794 4.14221
# Velocity P-wave (km/s) = 7.56112 7.72457 7.64328
#
# Compressibility (1/GPa) = 0.01296289
#
# Stress axis : x y z
#
# Youngs Moduli (GPa) = 92.43524 91.42852 92.49073
#
# Poissons Ratio (x) = 0.19631 0.51035
# Poissons Ratio (y) = 0.19847 0.19770
# Poissons Ratio (z) = 0.51004 0.19543
#
# Static dielectric constant tensor:
#      x y z
#    x 4.009450 0.000000 0.263210 
#    y 0.000000 4.000270 0.000000 
#    z 0.263210 0.000000 3.965220 
# 
# 
# High freq. dielectric constant tensor:
#      x y z
#    x 1.894630 0.000000 0.003200 
#    y 0.000000 1.874300 0.000000 
#    z 0.003200 0.000000 1.894100 
# 
# From -- ./inp_files/8569.got.cif
#   From: 2010.03.12/outbox.cif.g09.slc.cpg/sg4_5_cif.got.tgz:8569.got - 2010.03.31 09:31:35.
