data_PCOD8047824
_publ_section_title
;
Structure prediction by ZEFSAII (Michael W. Deem and Ramdas Pophale) SiO2 
 PCOD8047824
Probable space group: P 21
;
_chemical_formula_sum "Si O2"
_cell_formula_units_Z 16
_cell_length_a 11.239002
_cell_length_b 12.800917
_cell_length_c 11.240029
_cell_angle_alpha 90.000000
_cell_angle_beta 25.704993
_cell_angle_gamma 90.000000
_cell_volume 701.396090
_symmetry_space_group_name_H-M "P 21"
_symmetry_group_IT_number 4
_symmetry_cell_setting 'monoclinic'
loop_
_space_group_symop_operation_xyz
x,y,z
-x,1/2+y,-z
loop_
_atom_site_type_symbol
_atom_site_label
_atom_site_fract_x
_atom_site_fract_y
_atom_site_fract_z
Si Si1 0.426268 0.510790 0.518684
Si Si2 0.191173 0.671633 0.120474
Si Si3 0.386921 0.142881 0.462705
Si Si4 0.153664 0.297714 0.057275
Si Si5 0.747601 0.401019 0.836683
Si Si6 0.855132 0.564078 0.941736
Si Si7 0.425104 0.806055 0.525010
Si Si8 0.828992 0.952466 0.738618
O O1 0.560074 0.527209 0.532108
O O2 0.454925 0.386023 0.484728
O O3 0.111562 0.546344 0.797889
O O4 0.582179 0.560827 0.266352
O O5 0.194860 0.779582 0.189016
O O6 0.185179 0.575080 0.216889
O O7 0.931690 0.667656 0.266355
O O8 0.463107 0.665457 0.795766
O O9 0.516114 0.197603 0.462889
O O10 0.429148 0.310293 0.733617
O O11 0.131609 0.179522 0.129591
O O12 0.168723 0.381310 0.147753
O O13 0.898502 0.321530 0.201202
O O14 0.865912 0.474704 0.832790
O O15 0.891012 0.431822 0.584170
O O16 0.424326 0.421526 0.116933
#
# Coordination Sequence:
#
# PCOD8047824 Si02
#       8
#     2   2   2   2   2   2   2   2
#     4  12  23  41  68 101 140 180 218 267 332 407
#     4  12  26  46  69 102 139 174 234 282 334 418
#     4  12  22  42  67 102 139 180 212 270 344 400
#     4  12  24  44  67 104 137 177 228 276 335 406
#     4  12  28  47  73  99 132 185 230 291 343 388
#     4  12  24  44  67 104 137 177 228 276 335 406
#     4  12  23  41  68 101 140 180 218 267 332 407
#     4  12  28  47  73  99 132 185 230 291 343 388
#
# _framework density 22.811648999999999
#
# number of rings (size 3 to 8) (size 9 to 14) (size 15 to 20)
#    0.000    0.000    2.500    8.250    3.500    0.000 
#    0.000    0.000    0.000    0.000    0.000    0.000 
#    0.000    0.000    0.000    0.000    0.000    0.000 
#
# Total GULP energy -198481.123668 kJ/mol
# GULP energy per Si atom -12405.070229 kJ/mol
# Density = 2.275973 g / cm^3
# Si number density = 22.811649 Si / 1000 Ang^3
#
#
#
# Elastic Constant Matrix: (Units=GPa)
#
#
# Indices 1 2 3 4 5 6 
#
# 1 81.7290 39.4682 8.1884 0.0000 -6.0272 0.0000
# 2 39.4682 145.1242 7.3806 0.0000 4.2340 0.0000
# 3 8.1884 7.3806 77.4082 0.0000 4.3794 0.0000
# 4 0.0000 0.0000 0.0000 29.7448 0.0000 3.2032
# 5 -6.0272 4.2340 4.3794 0.0000 50.8876 0.0000
# 6 0.0000 0.0000 0.0000 3.2032 0.0000 50.4268
#
#
#
# Elastic Compliance Matrix: (Units=1/GPa)
#
#
# Indices 1 2 3 4 5 6 
#
# 1 0.014413 -0.003918 -0.001272 0.000000 0.002143 0.000000
# 2 -0.003918 0.008003 -0.000286 0.000000 -0.001105 0.000000
# 3 -0.001272 -0.000286 0.013152 0.000000 -0.001259 0.000000
# 4 0.000000 0.000000 0.000000 0.033851 0.000000 -0.002150
# 5 0.002143 -0.001105 -0.001259 0.000000 0.020105 0.000000
# 6 0.000000 0.000000 0.000000 -0.002150 0.000000 0.019967
#
#
# Mechanical properties :
#
#
# Convention : Reuss Voigt Hill
#
# Bulk Modulus (GPa) = 40.62496 46.03731 43.33113
# Shear Modulus (GPa) = 38.86580 42.82678 40.84629
#
# Velocity S-wave (km/s) = 4.13215 4.33761 4.23613
# Velocity P-wave (km/s) = 6.37289 6.73140 6.55460
#
# Compressibility (1/GPa) = 0.02461541
#
# Stress axis : x y z
#
# Youngs Moduli (GPa) = 69.38241 124.95511 76.03632
#
# Poissons Ratio (x) = 0.48952 0.09674
# Poissons Ratio (y) = 0.27181 0.02175
# Poissons Ratio (z) = 0.08828 0.03575
#
# Static dielectric constant tensor:
#      x y z
#    x 3.823630 0.000000 -0.108480 
#    y 0.000000 4.462140 0.000000 
#    z -0.108480 0.000000 4.122620 
# 
# 
# High freq. dielectric constant tensor:
#      x y z
#    x 1.891470 0.000000 -0.005330 
#    y 0.000000 1.928990 0.000000 
#    z -0.005330 0.000000 1.911570 
# 
# From -- ./inp_files/12251.got.cif
#   From: 2010.03.12/outbox.cif.g09.slc.cpg/sg4_7_cif.got.tgz:12251.got - 2010.03.31 09:31:35.
