data_PCOD8047088
_publ_section_title
;
Structure prediction by ZEFSAII (Michael W. Deem and Ramdas Pophale) SiO2 
 PCOD8047088
Probable space group: P 21
;
_chemical_formula_sum "Si O2"
_cell_formula_units_Z 16
_cell_length_a 6.795444
_cell_length_b 9.104329
_cell_length_c 12.198782
_cell_angle_alpha 90.000000
_cell_angle_beta 70.248774
_cell_angle_gamma 90.000000
_cell_volume 710.313005
_symmetry_space_group_name_H-M "P 21"
_symmetry_group_IT_number 4
_symmetry_cell_setting 'monoclinic'
loop_
_space_group_symop_operation_xyz
x,y,z
-x,1/2+y,-z
loop_
_atom_site_type_symbol
_atom_site_label
_atom_site_fract_x
_atom_site_fract_y
_atom_site_fract_z
Si Si1 0.222686 0.495070 0.537076
Si Si2 0.327032 0.059810 0.632484
Si Si3 0.234831 0.347210 0.993769
Si Si4 0.894440 0.700739 0.529562
Si Si5 0.222765 0.848886 0.846745
Si Si6 0.419182 0.108156 0.234300
Si Si7 0.684812 0.869374 0.260064
Si Si8 0.416775 0.048504 0.995961
O O1 0.463442 0.493036 0.458366
O O2 0.090963 0.371573 0.498799
O O3 0.189688 0.458122 0.670690
O O4 0.123418 0.651280 0.525731
O O5 0.174964 0.103022 0.561563
O O6 0.371956 0.204018 0.695814
O O7 0.232972 0.936187 0.729848
O O8 0.181687 0.382871 0.877126
O O9 0.407544 0.216092 0.954584
O O10 0.345863 0.484512 0.036159
O O11 0.020094 0.302694 0.093985
O O12 0.742146 0.694758 0.661813
O O13 0.369951 0.706321 0.818329
O O14 0.282993 0.949303 0.939122
O O15 0.466851 0.954242 0.284359
O O16 0.319107 0.063690 0.136355
#
# Coordination Sequence:
#
# PCOD8047088 Si02
#       8
#     2   2   2   2   2   2   2   2
#     4  11  25  44  72 104 142 185 233 286 358 415
#     4  11  24  48  68 102 145 180 234 293 350 417
#     4  11  26  46  73 103 144 189 237 290 361 417
#     4  11  26  43  69 107 136 188 232 290 350 413
#     4  12  26  45  74 103 145 190 233 291 363 424
#     4  11  24  44  69 103 143 182 237 293 348 419
#     4  10  24  44  70  99 139 187 226 292 339 426
#     4  11  25  46  65 107 142 181 238 293 345 427
#
# _framework density 22.525279999999999
#
# number of rings (size 3 to 8) (size 9 to 14) (size 15 to 20)
#    0.000    1.000    5.000    0.000    7.000    3.000 
#    0.000    1.250    0.000    0.000    0.000    0.000 
#    0.000    0.000    0.000    0.000    0.000    0.000 
#
# Total GULP energy -198317.074313 kJ/mol
# GULP energy per Si atom -12394.817145 kJ/mol
# Density = 2.247401 g / cm^3
# Si number density = 22.525280 Si / 1000 Ang^3
#
#
#
# Elastic Constant Matrix: (Units=GPa)
#
#
# Indices 1 2 3 4 5 6 
#
# 1 67.9686 17.2859 33.2568 0.0000 -11.1983 0.0000
# 2 17.2859 66.4477 13.7348 0.0000 -2.3899 0.0000
# 3 33.2568 13.7348 88.0828 0.0000 -10.0483 0.0000
# 4 0.0000 0.0000 0.0000 35.1181 0.0000 7.8063
# 5 -11.1983 -2.3899 -10.0483 0.0000 21.9980 0.0000
# 6 0.0000 0.0000 0.0000 7.8063 0.0000 36.0176
#
#
#
# Elastic Compliance Matrix: (Units=1/GPa)
#
#
# Indices 1 2 3 4 5 6 
#
# 1 0.019758 -0.003630 -0.006110 0.000000 0.006873 0.000000
# 2 -0.003630 0.016225 -0.001234 0.000000 -0.000648 0.000000
# 3 -0.006110 -0.001234 0.014223 0.000000 0.003253 0.000000
# 4 0.000000 0.000000 0.000000 0.029917 0.000000 -0.006484
# 5 0.006873 -0.000648 0.003253 0.000000 0.050373 0.000000
# 6 0.000000 0.000000 0.000000 -0.006484 0.000000 0.029170
#
#
# Mechanical properties :
#
#
# Convention : Reuss Voigt Hill
#
# Bulk Modulus (GPa) = 35.38564 39.00601 37.19583
# Shear Modulus (GPa) = 26.17378 29.17484 27.67431
#
# Velocity S-wave (km/s) = 3.41247 3.60280 3.50893
# Velocity P-wave (km/s) = 5.59196 5.88736 5.74156
#
# Compressibility (1/GPa) = 0.02826005
#
# Stress axis : x y z
#
# Youngs Moduli (GPa) = 50.61352 61.63197 70.30791
#
# Poissons Ratio (x) = 0.22371 0.42956
# Poissons Ratio (y) = 0.18371 0.08673
# Poissons Ratio (z) = 0.30923 0.07603
#
# Static dielectric constant tensor:
#      x y z
#    x 3.724180 0.000000 0.336590 
#    y 0.000000 4.183240 0.000000 
#    z 0.336590 0.000000 4.335510 
# 
# 
# High freq. dielectric constant tensor:
#      x y z
#    x 1.865530 0.000000 0.022580 
#    y 0.000000 1.899500 0.000000 
#    z 0.022580 0.000000 1.904340 
# 
# From -- ./inp_files/10320.got.cif
#   From: 2010.03.12/outbox.cif.g09.slc.cpg/sg4_6_cif.got.tgz:10320.got - 2010.03.31 09:31:35.
