data_PCOD8047712
_publ_section_title
;
Structure prediction by ZEFSAII (Michael W. Deem and Ramdas Pophale) SiO2 
 PCOD8047712
Probable space group: P 21
;
_chemical_formula_sum "Si O2"
_cell_formula_units_Z 16
_cell_length_a 18.297562
_cell_length_b 4.802373
_cell_length_c 8.536643
_cell_angle_alpha 90.000000
_cell_angle_beta 44.851575
_cell_angle_gamma 90.000000
_cell_volume 529.045807
_symmetry_space_group_name_H-M "P 21"
_symmetry_group_IT_number 4
_symmetry_cell_setting 'monoclinic'
loop_
_space_group_symop_operation_xyz
x,y,z
-x,1/2+y,-z
loop_
_atom_site_type_symbol
_atom_site_label
_atom_site_fract_x
_atom_site_fract_y
_atom_site_fract_z
Si Si1 0.061269 0.039040 0.847210
Si Si2 0.154396 0.836746 0.174090
Si Si3 0.654396 0.927692 0.174090
Si Si4 0.561269 0.725396 0.847210
Si Si5 0.233693 0.287221 0.281194
Si Si6 0.266307 0.977217 0.718806
Si Si7 0.455276 0.656511 0.386761
Si Si8 0.955276 0.107927 0.386762
O O1 0.178710 0.031509 0.725022
O O2 0.056735 0.903897 0.681707
O O3 0.011989 0.351728 0.923800
O O4 0.215765 0.008532 0.211954
O O5 0.075197 0.027237 0.191639
O O6 0.077585 0.619732 0.377888
O O7 0.232982 0.742995 0.908715
O O8 0.715765 0.755906 0.211954
O O9 0.575197 0.737201 0.191639
O O10 0.577585 0.144705 0.377888
O O11 0.732982 0.021443 0.908715
O O12 0.678710 0.732929 0.725022
O O13 0.556735 0.860541 0.681707
O O14 0.488011 0.912708 0.076200
O O15 0.133357 0.384050 0.536556
O O16 0.366643 0.880389 0.463444
#
# Coordination Sequence:
#
# PCOD8047712 Si02
#       8
#     2   2   2   2   2   2   2   2
#     4  12  30  50  77 112 157 202 254 310 374 454
#     4  11  25  45  76 114 147 194 260 309 378 454
#     4  11  25  45  76 114 147 194 260 309 378 454
#     4  12  30  50  77 112 157 202 254 310 374 454
#     4  11  26  48  74 112 148 202 248 315 381 447
#     4  11  26  48  74 112 148 202 248 315 381 447
#     4  12  25  45  77 106 155 198 252 313 380 449
#     4  12  25  45  77 106 155 198 252 313 380 449
#
# _framework density 30.243130000000001
#
# number of rings (size 3 to 8) (size 9 to 14) (size 15 to 20)
#    0.000    0.500    5.000    1.500   10.500    1.000 
#    0.000    0.000    0.000    0.000    0.000    0.000 
#    0.000    0.000    0.000    0.000    0.000    0.000 
#
# Total GULP energy -198424.905332 kJ/mol
# GULP energy per Si atom -12401.556583 kJ/mol
# Density = 3.017430 g / cm^3
# Si number density = 30.243130 Si / 1000 Ang^3
#
#
#
# Elastic Constant Matrix: (Units=GPa)
#
#
# Indices 1 2 3 4 5 6 
#
# 1 169.8737 11.4832 11.0932 0.0000 -19.5672 0.0000
# 2 11.4832 65.4462 -26.0998 0.0000 -16.1788 0.0000
# 3 11.0932 -26.0998 168.1998 0.0000 -18.1690 0.0000
# 4 0.0000 0.0000 0.0000 33.7200 0.0000 9.6736
# 5 -19.5672 -16.1788 -18.1690 0.0000 36.0529 0.0000
# 6 0.0000 0.0000 0.0000 9.6736 0.0000 32.6993
#
#
#
# Elastic Compliance Matrix: (Units=1/GPa)
#
#
# Indices 1 2 3 4 5 6 
#
# 1 0.006287 -0.000367 -0.000128 0.000000 0.003183 0.000000
# 2 -0.000367 0.019703 0.004246 0.000000 0.010782 0.000000
# 3 -0.000128 0.004246 0.007203 0.000000 0.005466 0.000000
# 4 0.000000 0.000000 0.000000 0.032406 0.000000 -0.009587
# 5 0.003183 0.010782 0.005466 0.000000 0.037058 0.000000
# 6 0.000000 0.000000 0.000000 -0.009587 0.000000 0.033418
#
#
# Mechanical properties :
#
#
# Convention : Reuss Voigt Hill
#
# Bulk Modulus (GPa) = 24.57287 44.05257 34.31272
# Shear Modulus (GPa) = 35.17732 47.63065 41.40399
#
# Velocity S-wave (km/s) = 3.41420 3.97284 3.70407
# Velocity P-wave (km/s) = 4.86673 5.97012 5.44644
#
# Compressibility (1/GPa) = 0.04069529
#
# Stress axis : x y z
#
# Youngs Moduli (GPa) = 159.07101 50.75348 138.82902
#
# Poissons Ratio (x) = 0.01864 0.01774
# Poissons Ratio (y) = 0.05841 -0.58951
# Poissons Ratio (z) = 0.02033 -0.21551
#
# Static dielectric constant tensor:
#      x y z
#    x 5.508090 0.000000 -0.150640 
#    y 0.000000 5.944740 0.000000 
#    z -0.150640 0.000000 6.715800 
# 
# 
# High freq. dielectric constant tensor:
#      x y z
#    x 2.255420 0.000000 -0.002470 
#    y 0.000000 2.233370 0.000000 
#    z -0.002470 0.000000 2.301860 
# 
# From -- ./inp_files/9494.got.cif
#   From: 2010.03.12/outbox.cif.g09.slc.cpg/sg4_5_cif.got.tgz:9494.got - 2010.03.31 09:31:35.
