data_PCOD8047858
_publ_section_title
;
Structure prediction by ZEFSAII (Michael W. Deem and Ramdas Pophale) SiO2 
 PCOD8047858
Probable space group: P 21
;
_chemical_formula_sum "Si O2"
_cell_formula_units_Z 16
_cell_length_a 26.406199
_cell_length_b 4.960463
_cell_length_c 31.262652
_cell_angle_alpha 90.000000
_cell_angle_beta 9.594079
_cell_angle_gamma 90.000000
_cell_volume 682.500785
_symmetry_space_group_name_H-M "P 21"
_symmetry_group_IT_number 4
_symmetry_cell_setting 'monoclinic'
loop_
_space_group_symop_operation_xyz
x,y,z
-x,1/2+y,-z
loop_
_atom_site_type_symbol
_atom_site_label
_atom_site_fract_x
_atom_site_fract_y
_atom_site_fract_z
Si Si1 0.645620 0.655240 0.097733
Si Si2 0.276804 0.051575 0.873718
Si Si3 0.941994 0.947107 0.314630
Si Si4 0.165187 0.457672 0.177083
Si Si5 0.848054 0.551466 0.608527
Si Si6 0.388305 0.449140 0.568908
Si Si7 0.730749 0.644632 0.611525
Si Si8 0.812194 0.654720 0.145005
O O1 0.701250 0.730137 0.101362
O O2 0.388590 0.427822 0.306873
O O3 0.539297 0.924299 0.162464
O O4 0.955692 0.551188 0.817357
O O5 0.582688 0.872755 0.614643
O O6 0.263755 0.230147 0.841141
O O7 0.970290 0.873230 0.134558
O O8 0.020897 0.174187 0.283761
O O9 0.126271 0.677704 0.171817
O O10 0.000295 0.551087 0.356932
O O11 0.518508 0.429210 0.893803
O O12 0.867759 0.673674 0.544553
O O13 0.079202 0.301483 0.420808
O O14 0.573697 0.185146 0.427670
O O15 0.514607 0.551868 0.418128
O O16 0.064561 0.419049 0.934205
#
# Coordination Sequence:
#
# PCOD8047858 Si02
#       8
#     2   2   2   2   2   2   2   2
#     4  12  24  44  71 104 137 182 227 291 348 408
#     4  12  26  44  76 103 136 178 254 264 360 426
#     4  12  24  44  71 104 137 182 227 291 348 408
#     4  12  24  46  72 102 145 180 225 290 347 393
#     4  12  26  44  74 103 140 188 234 272 336 420
#     4  12  25  47  70  98 140 184 228 292 348 408
#     4  12  24  46  72 102 145 180 225 290 347 393
#     4  12  25  47  70  98 140 184 228 292 348 408
#
# _framework density 23.443196
#
# number of rings (size 3 to 8) (size 9 to 14) (size 15 to 20)
#    0.000    0.000    7.500    2.250    0.000    5.000 
#    0.000    5.000    0.000    0.000    0.000    0.000 
#    0.000    0.000    0.000    0.000    0.000    0.000 
#
# Total GULP energy -198441.070052 kJ/mol
# GULP energy per Si atom -12402.566878 kJ/mol
# Density = 2.338984 g / cm^3
# Si number density = 23.443196 Si / 1000 Ang^3
#
#
#
# Elastic Constant Matrix: (Units=GPa)
#
#
# Indices 1 2 3 4 5 6 
#
# 1 132.9206 21.6828 62.0279 -0.0034 3.6324 0.0031
# 2 21.6828 111.8891 26.7485 -0.0001 -17.7161 0.0001
# 3 62.0279 26.7485 131.3223 -0.0002 1.8792 0.0002
# 4 -0.0034 -0.0001 -0.0002 23.2623 0.0024 10.8702
# 5 3.6324 -17.7161 1.8792 0.0024 40.9889 -0.0020
# 6 0.0031 0.0001 0.0002 10.8702 -0.0020 26.3288
#
#
#
# Elastic Compliance Matrix: (Units=1/GPa)
#
#
# Indices 1 2 3 4 5 6 
#
# 1 0.009769 -0.001018 -0.004391 0.000003 -0.001104 -0.000002
# 2 -0.001018 0.010264 -0.001676 -0.000001 0.004603 0.000001
# 3 -0.004391 -0.001676 0.010041 -0.000001 -0.000795 0.000001
# 4 0.000003 -0.000001 -0.000001 0.053264 -0.000005 -0.021991
# 5 -0.001104 0.004603 -0.000795 -0.000005 0.026521 0.000004
# 6 -0.000002 0.000001 0.000001 -0.021991 0.000004 0.047060
#
#
# Mechanical properties :
#
#
# Convention : Reuss Voigt Hill
#
# Bulk Modulus (GPa) = 62.87360 66.33894 64.60627
# Shear Modulus (GPa) = 28.34620 35.82750 32.08685
#
# Velocity S-wave (km/s) = 3.48105 3.91355 3.70362
# Velocity P-wave (km/s) = 6.56008 6.98429 6.77551
#
# Compressibility (1/GPa) = 0.01590493
#
# Stress axis : x y z
#
# Youngs Moduli (GPa) = 102.36915 97.42594 99.58705
#
# Poissons Ratio (x) = 0.09920 0.43727
# Poissons Ratio (y) = 0.10424 0.16687
# Poissons Ratio (z) = 0.44948 0.16325
#
# Static dielectric constant tensor:
#      x y z
#    x 4.312280 0.000000 0.085280 
#    y 0.000000 4.109890 0.000000 
#    z 0.085280 0.000000 4.288400 
# 
# 
# High freq. dielectric constant tensor:
#      x y z
#    x 1.941350 0.000000 0.018280 
#    y 0.000000 1.911500 0.000000 
#    z 0.018280 0.000000 1.936160 
# 
# From -- ./inp_files/15395.got.cif
#   From: 2010.03.12/outbox.cif.g09.slc.cpg/sg4_8_cif.got.tgz:15395.got - 2010.03.31 09:31:35.
