data_PCOD8047552
_publ_section_title
;
Structure prediction by ZEFSAII (Michael W. Deem and Ramdas Pophale) SiO2 
 PCOD8047552
Probable space group: P 21
;
_chemical_formula_sum "Si O2"
_cell_formula_units_Z 16
_cell_length_a 21.487309
_cell_length_b 5.250688
_cell_length_c 7.328879
_cell_angle_alpha 90.000000
_cell_angle_beta 59.738655
_cell_angle_gamma 90.000000
_cell_volume 714.194798
_symmetry_space_group_name_H-M "P 21"
_symmetry_group_IT_number 4
_symmetry_cell_setting 'monoclinic'
loop_
_space_group_symop_operation_xyz
x,y,z
-x,1/2+y,-z
loop_
_atom_site_type_symbol
_atom_site_label
_atom_site_fract_x
_atom_site_fract_y
_atom_site_fract_z
Si Si1 0.260521 0.987620 0.448411
Si Si2 0.918277 0.885629 0.536142
Si Si3 0.617311 0.447512 0.436140
Si Si4 0.027079 0.206326 0.176938
Si Si5 0.760249 0.007838 0.735646
Si Si6 0.360536 0.445132 0.827291
Si Si7 0.511570 0.953874 0.101873
Si Si8 0.895353 0.506568 0.264004
O O1 0.320275 0.995581 0.512553
O O2 0.278372 0.766747 0.276430
O O3 0.184554 0.900242 0.650932
O O4 0.254935 0.269962 0.374478
O O5 0.935457 0.877280 0.724838
O O6 0.846625 0.062868 0.626401
O O7 0.897181 0.626784 0.464569
O O8 0.993569 0.964723 0.330631
O O9 0.620312 0.670932 0.283711
O O10 0.540799 0.458477 0.647582
O O11 0.625516 0.170311 0.335625
O O12 0.957747 0.299933 0.167182
O O13 0.089228 0.179765 0.935159
O O14 0.723283 0.948317 0.985517
O O15 0.407897 0.480874 0.939911
O O16 0.504645 0.688424 0.006586
#
# Coordination Sequence:
#
# PCOD8047552 Si02
#       8
#     2   2   2   2   2   2   2   2
#     4  11  24  45  67  93 133 177 223 271 334 405
#     4  11  24  40  65  92 129 169 227 282 345 405
#     4  12  25  44  68 104 139 173 221 277 328 389
#     4  12  22  42  62  94 122 174 220 290 342 410
#     4  11  24  45  67  93 133 177 223 271 334 405
#     4  12  25  44  68 104 139 173 221 277 328 389
#     4  12  24  44  74 102 136 184 222 264 328 394
#     4  11  24  40  65  92 129 169 227 282 345 405
#
# _framework density 22.402850999999998
#
# number of rings (size 3 to 8) (size 9 to 14) (size 15 to 20)
#    0.000    0.500    3.750    5.250    1.750    0.000 
#    4.500    0.000    0.000    0.000    0.000    0.000 
#    0.000    0.000    0.000    0.000    0.000    0.000 
#
# Total GULP energy -198338.790137 kJ/mol
# GULP energy per Si atom -12396.174384 kJ/mol
# Density = 2.235186 g / cm^3
# Si number density = 22.402851 Si / 1000 Ang^3
#
#
#
# Elastic Constant Matrix: (Units=GPa)
#
#
# Indices 1 2 3 4 5 6 
#
# 1 85.3328 7.2074 13.4718 0.0000 -0.9090 0.0000
# 2 7.2074 78.0524 3.2220 0.0000 4.9515 0.0000
# 3 13.4718 3.2220 102.4097 0.0000 -10.8309 0.0000
# 4 0.0000 0.0000 0.0000 46.5408 0.0000 6.0565
# 5 -0.9090 4.9515 -10.8309 0.0000 36.3355 0.0000
# 6 0.0000 0.0000 0.0000 6.0565 0.0000 30.1182
#
#
#
# Elastic Compliance Matrix: (Units=1/GPa)
#
#
# Indices 1 2 3 4 5 6 
#
# 1 0.012053 -0.001048 -0.001555 0.000000 -0.000019 0.000000
# 2 -0.001048 0.013052 -0.000479 0.000000 -0.001948 0.000000
# 3 -0.001555 -0.000479 0.010312 0.000000 0.003100 0.000000
# 4 0.000000 0.000000 0.000000 0.022064 0.000000 -0.004437
# 5 -0.000019 -0.001948 0.003100 0.000000 0.028710 0.000000
# 6 0.000000 0.000000 0.000000 -0.004437 0.000000 0.034095
#
#
# Mechanical properties :
#
#
# Convention : Reuss Voigt Hill
#
# Bulk Modulus (GPa) = 34.18242 34.84413 34.51327
# Shear Modulus (GPa) = 36.71097 38.72513 37.71805
#
# Velocity S-wave (km/s) = 4.05245 4.16213 4.10765
# Velocity P-wave (km/s) = 6.09816 6.21972 6.15924
#
# Compressibility (1/GPa) = 0.02925481
#
# Stress axis : x y z
#
# Youngs Moduli (GPa) = 82.97016 76.61688 96.97309
#
# Poissons Ratio (x) = 0.08026 0.15075
# Poissons Ratio (y) = 0.08692 0.04643
# Poissons Ratio (z) = 0.12898 0.03668
#
# Static dielectric constant tensor:
#      x y z
#    x 4.318790 0.000000 -0.235510 
#    y 0.000000 3.986320 0.000000 
#    z -0.235510 0.000000 4.509890 
# 
# 
# High freq. dielectric constant tensor:
#      x y z
#    x 1.893810 0.000000 -0.007870 
#    y 0.000000 1.881680 0.000000 
#    z -0.007870 0.000000 1.891990 
# 
# From -- ./inp_files/4014.got.cif
#   From: 2010.03.12/outbox.cif.g09.slc.cpg/sg4_3_cif.got.tgz:4014.got - 2010.03.31 09:31:35.
