data_PCOD8047856
_publ_section_title
;
Structure prediction by ZEFSAII (Michael W. Deem and Ramdas Pophale) SiO2 
 PCOD8047856
Probable space group: P 21
;
_chemical_formula_sum "Si O2"
_cell_formula_units_Z 16
_cell_length_a 13.457981
_cell_length_b 4.915352
_cell_length_c 16.771898
_cell_angle_alpha 90.000000
_cell_angle_beta 37.700238
_cell_angle_gamma 90.000000
_cell_volume 678.476402
_symmetry_space_group_name_H-M "P 21"
_symmetry_group_IT_number 4
_symmetry_cell_setting 'monoclinic'
loop_
_space_group_symop_operation_xyz
x,y,z
-x,1/2+y,-z
loop_
_atom_site_type_symbol
_atom_site_label
_atom_site_fract_x
_atom_site_fract_y
_atom_site_fract_z
Si Si1 0.939647 0.977190 0.252868
Si Si2 0.591252 0.222427 0.918672
Si Si3 0.595472 0.335033 0.732402
Si Si4 0.952722 0.256681 0.483330
Si Si5 0.433276 0.420426 0.499944
Si Si6 0.080509 0.485383 0.243107
Si Si7 0.440617 0.842999 0.756152
Si Si8 0.934431 0.368733 0.998855
O O1 0.748221 0.038875 0.376007
O O2 0.969632 0.752353 0.302190
O O3 0.004096 0.848647 0.130341
O O4 0.037745 0.256734 0.204849
O O5 0.633406 0.286165 0.800814
O O6 0.733290 0.081021 0.880018
O O7 0.556876 0.508504 0.984106
O O8 0.763659 0.274016 0.579737
O O9 0.537034 0.640521 0.753704
O O10 0.458365 0.140386 0.783116
O O11 0.995215 0.448124 0.531635
O O12 0.058670 0.355524 0.342928
O O13 0.553516 0.660459 0.450696
O O14 0.481202 0.327646 0.380968
O O15 0.251077 0.770697 0.874517
O O16 0.953597 0.673232 0.019027
#
# Coordination Sequence:
#
# PCOD8047856 Si02
#       8
#     2   2   2   2   2   2   2   2
#     4  12  26  44  73 104 139 182 234 294 345 428
#     4  12  28  46  70 100 148 198 234 288 346 418
#     4  12  26  46  69 104 140 185 237 288 348 410
#     4  12  24  44  68  98 138 188 234 286 346 402
#     4  12  24  46  74 104 140 184 230 294 366 428
#     4  12  26  46  69 104 140 185 237 288 348 410
#     4  12  26  44  73 104 139 182 234 294 345 428
#     4  12  26  48  70 102 138 180 228 290 366 426
#
# _framework density 23.582252
#
# number of rings (size 3 to 8) (size 9 to 14) (size 15 to 20)
#    0.000    0.000    1.250    9.000    7.000    0.000 
#    0.000    0.000    0.000    0.000    0.000    0.000 
#    0.000    0.000    0.000    0.000    0.000    0.000 
#
# Total GULP energy -198552.367854 kJ/mol
# GULP energy per Si atom -12409.522991 kJ/mol
# Density = 2.352858 g / cm^3
# Si number density = 23.582252 Si / 1000 Ang^3
#
#
#
# Elastic Constant Matrix: (Units=GPa)
#
#
# Indices 1 2 3 4 5 6 
#
# 1 95.5347 26.3402 36.3221 0.0000 -6.2928 0.0000
# 2 26.3402 102.0436 8.5943 0.0000 1.5327 0.0000
# 3 36.3221 8.5943 100.2859 0.0000 -4.4341 0.0000
# 4 0.0000 0.0000 0.0000 34.9048 0.0000 1.1596
# 5 -6.2928 1.5327 -4.4341 0.0000 32.3463 0.0000
# 6 0.0000 0.0000 0.0000 1.1596 0.0000 52.2260
#
#
#
# Elastic Compliance Matrix: (Units=1/GPa)
#
#
# Indices 1 2 3 4 5 6 
#
# 1 0.013117 -0.003047 -0.004397 0.000000 0.002093 0.000000
# 2 -0.003047 0.010590 0.000149 0.000000 -0.001074 0.000000
# 3 -0.004397 0.000149 0.011583 0.000000 0.000725 0.000000
# 4 0.000000 0.000000 0.000000 0.028671 0.000000 -0.000637
# 5 0.002093 -0.001074 0.000725 0.000000 0.031473 0.000000
# 6 0.000000 0.000000 0.000000 -0.000637 0.000000 0.019162
#
#
# Mechanical properties :
#
#
# Convention : Reuss Voigt Hill
#
# Bulk Modulus (GPa) = 48.31093 48.93080 48.62086
# Shear Modulus (GPa) = 36.74129 39.00261 37.87195
#
# Velocity S-wave (km/s) = 3.95144 4.07122 4.01178
# Velocity P-wave (km/s) = 6.43033 6.54934 6.49011
#
# Compressibility (1/GPa) = 0.02069925
#
# Stress axis : x y z
#
# Youngs Moduli (GPa) = 76.23590 94.42993 86.33029
#
# Poissons Ratio (x) = 0.28773 0.37961
# Poissons Ratio (y) = 0.23229 -0.01282
# Poissons Ratio (z) = 0.33522 -0.01403
#
# Static dielectric constant tensor:
#      x y z
#    x 4.209090 0.000000 -0.037420 
#    y 0.000000 4.430260 0.000000 
#    z -0.037420 0.000000 4.104280 
# 
# 
# High freq. dielectric constant tensor:
#      x y z
#    x 1.940810 0.000000 -0.003190 
#    y 0.000000 1.951830 0.000000 
#    z -0.003190 0.000000 1.935560 
# 
# From -- ./inp_files/10715.got.cif
#   From: 2010.03.12/outbox.cif.g09.slc.cpg/sg4_6_cif.got.tgz:10715.got - 2010.03.31 09:31:35.
