data_PCOD8047385
_publ_section_title
;
Structure prediction by ZEFSAII (Michael W. Deem and Ramdas Pophale) SiO2 
 PCOD8047385
Probable space group: P 21
;
_chemical_formula_sum "Si O2"
_cell_formula_units_Z 16
_cell_length_a 10.707767
_cell_length_b 12.763585
_cell_length_c 7.514874
_cell_angle_alpha 90.000000
_cell_angle_beta 133.921430
_cell_angle_gamma 90.000000
_cell_volume 739.778505
_symmetry_space_group_name_H-M "P 21"
_symmetry_group_IT_number 4
_symmetry_cell_setting 'monoclinic'
loop_
_space_group_symop_operation_xyz
x,y,z
-x,1/2+y,-z
loop_
_atom_site_type_symbol
_atom_site_label
_atom_site_fract_x
_atom_site_fract_y
_atom_site_fract_z
Si Si1 0.606497 0.898210 0.858536
Si Si2 0.410095 0.558693 0.481047
Si Si3 0.904833 0.583184 0.425464
Si Si4 0.224924 0.866429 0.593157
Si Si5 0.776821 0.965912 0.381653
Si Si6 0.896800 0.221620 0.834829
Si Si7 0.254848 0.173544 0.065858
Si Si8 0.024124 0.786341 0.715818
O O1 0.426130 0.853198 0.753030
O O2 0.715991 0.798224 0.906473
O O3 0.580531 0.975784 0.668386
O O4 0.701422 0.960673 0.108844
O O5 0.371721 0.500181 0.628521
O O6 0.264464 0.644680 0.299070
O O7 0.595698 0.614272 0.678777
O O8 0.830956 0.487646 0.469080
O O9 0.967786 0.667397 0.629416
O O10 0.068619 0.550552 0.465150
O O11 0.758032 0.628928 0.148162
O O12 0.116565 0.798313 0.346718
O O13 0.181877 0.821626 0.745449
O O14 0.852350 0.854786 0.516890
O O15 0.073808 0.155101 0.989803
O O16 0.905078 0.296828 0.014805
#
# Coordination Sequence:
#
# PCOD8047385 Si02
#       8
#     2   2   2   2   2   2   2   2
#     4  12  26  47  73 110 152 188 246 312 362 444
#     4  12  27  47  72 110 146 193 244 304 373 434
#     4  11  22  45  75 103 143 202 242 295 377 427
#     4  11  25  47  71 107 151 190 245 308 365 437
#     4  11  23  46  72 101 146 190 244 301 365 438
#     4  12  25  48  75 105 151 189 245 312 357 444
#     4  12  24  49  74 106 148 193 248 304 367 438
#     4  11  24  43  74 104 139 201 240 298 374 436
#
# _framework density 21.628094999999998
#
# number of rings (size 3 to 8) (size 9 to 14) (size 15 to 20)
#    0.000    0.500    5.000    3.000    1.750    4.000 
#    4.500    0.000    0.000    0.000    0.000    0.000 
#    0.000    0.000    0.000    0.000    0.000    0.000 
#
# Total GULP energy -198504.497762 kJ/mol
# GULP energy per Si atom -12406.531110 kJ/mol
# Density = 2.157887 g / cm^3
# Si number density = 21.628095 Si / 1000 Ang^3
#
#
#
# Elastic Constant Matrix: (Units=GPa)
#
#
# Indices 1 2 3 4 5 6 
#
# 1 87.2431 26.2865 53.3604 0.0000 -0.3836 0.0000
# 2 26.2865 107.0069 41.1895 0.0000 0.0490 0.0000
# 3 53.3604 41.1895 114.3917 0.0000 5.0797 0.0000
# 4 0.0000 0.0000 0.0000 40.9050 0.0000 -0.8362
# 5 -0.3836 0.0490 5.0797 0.0000 43.0301 0.0000
# 6 0.0000 0.0000 0.0000 -0.8362 0.0000 29.2332
#
#
#
# Elastic Compliance Matrix: (Units=1/GPa)
#
#
# Indices 1 2 3 4 5 6 
#
# 1 0.016221 -0.001225 -0.007169 0.000000 0.000992 0.000000
# 2 -0.001225 0.010950 -0.003388 0.000000 0.000377 0.000000
# 3 -0.007169 -0.003388 0.013379 0.000000 -0.001639 0.000000
# 4 0.000000 0.000000 0.000000 0.024461 0.000000 0.000700
# 5 0.000992 0.000377 -0.001639 0.000000 0.023441 0.000000
# 6 0.000000 0.000000 0.000000 0.000700 0.000000 0.034228
#
#
# Mechanical properties :
#
#
# Convention : Reuss Voigt Hill
#
# Bulk Modulus (GPa) = 58.87778 61.14605 60.01191
# Shear Modulus (GPa) = 32.91485 35.15402 34.03444
#
# Velocity S-wave (km/s) = 3.90533 4.03598 3.97119
# Velocity P-wave (km/s) = 6.90054 7.07473 6.98818
#
# Compressibility (1/GPa) = 0.01698434
#
# Stress axis : x y z
#
# Youngs Moduli (GPa) = 61.64934 91.32291 74.74471
#
# Poissons Ratio (x) = 0.11191 0.53587
# Poissons Ratio (y) = 0.07555 0.25323
# Poissons Ratio (z) = 0.44198 0.30940
#
# Static dielectric constant tensor:
#      x y z
#    x 3.877610 0.000000 0.041980 
#    y 0.000000 3.953100 0.000000 
#    z 0.041980 0.000000 3.936870 
# 
# 
# High freq. dielectric constant tensor:
#      x y z
#    x 1.853090 0.000000 0.000240 
#    y 0.000000 1.859360 0.000000 
#    z 0.000240 0.000000 1.855580 
# 
# From -- ./inp_files/8153.got.cif
#   From: 2010.03.12/outbox.cif.g09.slc.cpg/sg4_5_cif.got.tgz:8153.got - 2010.03.31 09:31:35.
