data_PCOD8047983
_publ_section_title
;
Structure prediction by ZEFSAII (Michael W. Deem and Ramdas Pophale) SiO2 
 PCOD8047983
Probable space group: P 21
;
_chemical_formula_sum "Si O2"
_cell_formula_units_Z 16
_cell_length_a 6.753654
_cell_length_b 11.486343
_cell_length_c 9.490084
_cell_angle_alpha 90.000000
_cell_angle_beta 78.123391
_cell_angle_gamma 90.000000
_cell_volume 720.431656
_symmetry_space_group_name_H-M "P 21"
_symmetry_group_IT_number 4
_symmetry_cell_setting 'monoclinic'
loop_
_space_group_symop_operation_xyz
x,y,z
-x,1/2+y,-z
loop_
_atom_site_type_symbol
_atom_site_label
_atom_site_fract_x
_atom_site_fract_y
_atom_site_fract_z
Si Si1 0.477722 0.398460 0.162674
Si Si2 0.352231 0.291306 0.891900
Si Si3 0.832482 0.490386 0.572392
Si Si4 0.853585 0.560971 0.055142
Si Si5 0.903561 0.047357 0.707696
Si Si6 0.517631 0.167685 0.339466
Si Si7 0.865123 0.990324 0.229521
Si Si8 0.341642 0.740472 0.376846
O O1 0.675061 0.479164 0.139005
O O2 0.290206 0.463275 0.263081
O O3 0.513401 0.282135 0.245563
O O4 0.435385 0.370829 0.005324
O O5 0.213348 0.190737 0.977976
O O6 0.235372 0.367879 0.793905
O O7 0.521670 0.220888 0.781206
O O8 0.695064 0.599652 0.639167
O O9 0.698768 0.376520 0.607973
O O10 0.904005 0.491796 0.399781
O O11 0.039829 0.484105 0.629832
O O12 0.031114 0.572792 0.143269
O O13 0.947832 0.507862 0.901931
O O14 0.858079 0.165558 0.627033
O O15 0.699354 0.091795 0.248449
O O16 0.551326 0.196743 0.497682
#
# Coordination Sequence:
#
# PCOD8047983 Si02
#       8
#     2   2   2   2   2   2   2   2
#     4  12  29  48  74 109 149 186 241 304 358 423
#     4  12  26  48  77 103 147 192 240 298 356 430
#     4  12  27  47  75 105 145 192 241 293 364 426
#     4  12  27  47  75 105 145 192 241 293 364 426
#     4  12  27  48  72 109 145 190 240 295 362 431
#     4  12  29  48  74 109 149 186 241 304 358 423
#     4  12  27  48  72 109 145 190 240 295 362 431
#     4  12  26  48  77 103 147 192 240 298 356 430
#
# _framework density 22.208908000000001
#
# number of rings (size 3 to 8) (size 9 to 14) (size 15 to 20)
#    0.000    0.000    5.000    3.750   10.500    2.000 
#    0.000    0.000    0.000    0.000    0.000    0.000 
#    0.000    0.000    0.000    0.000    0.000    0.000 
#
# Total GULP energy -198503.211955 kJ/mol
# GULP energy per Si atom -12406.450747 kJ/mol
# Density = 2.215836 g / cm^3
# Si number density = 22.208908 Si / 1000 Ang^3
#
#
#
# Elastic Constant Matrix: (Units=GPa)
#
#
# Indices 1 2 3 4 5 6 
#
# 1 94.8939 36.6283 20.7572 0.0000 -1.2742 0.0000
# 2 36.6283 116.9185 17.9211 0.0000 0.4053 0.0000
# 3 20.7572 17.9211 87.4356 0.0000 -5.6069 0.0000
# 4 0.0000 0.0000 0.0000 38.1679 0.0000 5.5885
# 5 -1.2742 0.4053 -5.6069 0.0000 45.6853 0.0000
# 6 0.0000 0.0000 0.0000 5.5885 0.0000 25.6093
#
#
#
# Elastic Compliance Matrix: (Units=1/GPa)
#
#
# Indices 1 2 3 4 5 6 
#
# 1 0.012390 -0.003544 -0.002208 0.000000 0.000106 0.000000
# 2 -0.003544 0.009848 -0.001199 0.000000 -0.000333 0.000000
# 3 -0.002208 -0.001199 0.012300 0.000000 0.001459 0.000000
# 4 0.000000 0.000000 0.000000 0.027065 0.000000 -0.005906
# 5 0.000106 -0.000333 0.001459 0.000000 0.022074 0.000000
# 6 0.000000 0.000000 0.000000 -0.005906 0.000000 0.040337
#
#
# Mechanical properties :
#
#
# Convention : Reuss Voigt Hill
#
# Bulk Modulus (GPa) = 48.45490 49.98457 49.21974
# Shear Modulus (GPa) = 34.53160 36.82191 35.67675
#
# Velocity S-wave (km/s) = 3.94744 4.07625 4.01236
# Velocity P-wave (km/s) = 6.53005 6.68654 6.60876
#
# Compressibility (1/GPa) = 0.02063775
#
# Stress axis : x y z
#
# Youngs Moduli (GPa) = 80.70797 101.54384 81.29767
#
# Poissons Ratio (x) = 0.35982 0.17954
# Poissons Ratio (y) = 0.28599 0.09744
# Poissons Ratio (z) = 0.17823 0.12171
#
# Static dielectric constant tensor:
#      x y z
#    x 4.027630 0.000000 0.005910 
#    y 0.000000 4.065520 0.000000 
#    z 0.005910 0.000000 3.982360 
# 
# 
# High freq. dielectric constant tensor:
#      x y z
#    x 1.883480 0.000000 -0.000940 
#    y 0.000000 1.887130 0.000000 
#    z -0.000940 0.000000 1.887630 
# 
# From -- ./inp_files/1355.got.cif
#   From: 2010.03.12/outbox.cif.g09.slc.cpg/sg4_1_cif.got.tgz:1355.got - 2010.03.31 09:31:35.
