data_PCOD8047029
_publ_section_title
;
Structure prediction by ZEFSAII (Michael W. Deem and Ramdas Pophale) SiO2 
 PCOD8047029
Probable space group: P 21
;
_chemical_formula_sum "Si O2"
_cell_formula_units_Z 14
_cell_length_a 7.925818
_cell_length_b 12.884672
_cell_length_c 7.519429
_cell_angle_alpha 90.000000
_cell_angle_beta 121.678003
_cell_angle_gamma 90.000000
_cell_volume 653.489194
_symmetry_space_group_name_H-M "P 21"
_symmetry_group_IT_number 4
_symmetry_cell_setting 'monoclinic'
loop_
_space_group_symop_operation_xyz
x,y,z
-x,1/2+y,-z
loop_
_atom_site_type_symbol
_atom_site_label
_atom_site_fract_x
_atom_site_fract_y
_atom_site_fract_z
Si Si1 0.494432 0.060600 0.526476
Si Si2 0.760707 0.091825 0.999636
Si Si3 0.734662 0.149520 0.377748
Si Si4 0.060078 0.298199 0.510471
Si Si5 0.841483 0.713435 0.792840
Si Si6 0.276232 0.365520 0.962784
Si Si7 0.347535 0.871552 0.643877
O O1 0.585230 0.107831 0.758412
O O2 0.673142 0.056587 0.477664
O O3 0.313597 0.125632 0.348341
O O4 0.410907 0.944817 0.515183
O O5 0.669771 0.123254 0.140974
O O6 0.945714 0.162704 0.049000
O O7 0.837444 0.972430 0.052047
O O8 0.968641 0.182580 0.505999
O O9 0.614705 0.250586 0.387574
O O10 0.883172 0.384642 0.427789
O O11 0.144737 0.297260 0.358980
O O12 0.234145 0.327986 0.740547
O O13 0.784717 0.774932 0.937241
O O14 0.510451 0.392938 0.107660
#
# Coordination Sequence:
#
# PCOD8047029 Si02
#       7
#     2   2   2   2   2   2   2
#     4  11  21  39  65  86 120 160 200 251 305 358
#     4  10  24  40  60  92 122 160 203 248 306 359
#     4   9  20  43  57  85 126 153 202 253 294 358
#     4   9  21  38  59  84 125 154 190 257 298 345
#     4  11  22  37  64  90 120 157 202 248 301 365
#     4  11  21  39  63  90 118 159 207 241 298 372
#     4   9  21  40  58  89 121 151 208 242 296 371
#
# _framework density 21.423461
#
# number of rings (size 3 to 8) (size 9 to 14) (size 15 to 20)
#    0.857    1.143    1.429    1.714    2.000    2.286 
#    0.000    7.143    0.000    0.000    0.000    0.000 
#    0.000    0.000    0.000    0.000    0.000    0.000 
#
# Total GULP energy -173445.975917 kJ/mol
# GULP energy per Si atom -12388.998280 kJ/mol
# Density = 2.137470 g / cm^3
# Si number density = 21.423461 Si / 1000 Ang^3
#
#
#
# Elastic Constant Matrix: (Units=GPa)
#
#
# Indices 1 2 3 4 5 6 
#
# 1 37.8674 5.8657 18.3782 0.0000 -0.5259 0.0000
# 2 5.8657 81.9501 28.2049 0.0000 1.4592 0.0000
# 3 18.3782 28.2049 95.2140 0.0000 -1.4333 0.0000
# 4 0.0000 0.0000 0.0000 33.4679 0.0000 0.0585
# 5 -0.5259 1.4592 -1.4333 0.0000 22.6984 0.0000
# 6 0.0000 0.0000 0.0000 0.0585 0.0000 20.8895
#
#
#
# Elastic Compliance Matrix: (Units=1/GPa)
#
#
# Indices 1 2 3 4 5 6 
#
# 1 0.029142 -0.000176 -0.005568 0.000000 0.000335 0.000000
# 2 -0.000176 0.013618 -0.004017 0.000000 -0.001133 0.000000
# 3 -0.005568 -0.004017 0.012781 0.000000 0.000936 0.000000
# 4 0.000000 0.000000 0.000000 0.029880 0.000000 -0.000084
# 5 0.000335 -0.001133 0.000936 0.000000 0.044196 0.000000
# 6 0.000000 0.000000 0.000000 -0.000084 0.000000 0.047871
#
#
# Mechanical properties :
#
#
# Convention : Reuss Voigt Hill
#
# Bulk Modulus (GPa) = 27.76224 35.54768 31.65496
# Shear Modulus (GPa) = 23.92163 26.25001 25.08582
#
# Velocity S-wave (km/s) = 3.34520 3.50422 3.42563
# Velocity P-wave (km/s) = 5.28274 5.74470 5.51856
#
# Compressibility (1/GPa) = 0.03602015
#
# Stress axis : x y z
#
# Youngs Moduli (GPa) = 34.31462 73.43286 78.23825
#
# Poissons Ratio (x) = 0.01289 0.43563
# Poissons Ratio (y) = 0.00602 0.31430
# Poissons Ratio (z) = 0.19106 0.29499
#
# Static dielectric constant tensor:
#      x y z
#    x 3.795710 0.000000 0.113290 
#    y 0.000000 3.867160 0.000000 
#    z 0.113290 0.000000 3.816900 
# 
# 
# High freq. dielectric constant tensor:
#      x y z
#    x 1.827420 0.000000 0.008570 
#    y 0.000000 1.833040 0.000000 
#    z 0.008570 0.000000 1.840440 
# 
# From -- ./inp_files/1966.got.cif
#   From: 2010.03.12/outbox.cif.g09.slc.cpg/sg4_1_cif.got.tgz:1966.got - 2010.03.31 09:31:35.
