data_PCOD8047943
_publ_section_title
;
Structure prediction by ZEFSAII (Michael W. Deem and Ramdas Pophale) SiO2 
 PCOD8047943
Probable space group: P 21
;
_chemical_formula_sum "Si O2"
_cell_formula_units_Z 16
_cell_length_a 9.480205
_cell_length_b 8.783215
_cell_length_c 8.974496
_cell_angle_alpha 90.000000
_cell_angle_beta 116.069064
_cell_angle_gamma 90.000000
_cell_volume 671.252291
_symmetry_space_group_name_H-M "P 21"
_symmetry_group_IT_number 4
_symmetry_cell_setting 'monoclinic'
loop_
_space_group_symop_operation_xyz
x,y,z
-x,1/2+y,-z
loop_
_atom_site_type_symbol
_atom_site_label
_atom_site_fract_x
_atom_site_fract_y
_atom_site_fract_z
Si Si1 0.658191 0.156180 0.453376
Si Si2 0.438588 0.009492 0.562301
Si Si3 0.625583 0.994741 0.145525
Si Si4 0.994392 0.084413 0.674001
Si Si5 0.907974 0.573894 0.612638
Si Si6 0.425478 0.707365 0.117008
Si Si7 0.068758 0.804599 0.891966
Si Si8 0.081158 0.357145 0.867936
O O1 0.592846 0.330197 0.423043
O O2 0.812272 0.124763 0.624775
O O3 0.522416 0.039286 0.443816
O O4 0.702397 0.100758 0.307924
O O5 0.276451 0.101096 0.482705
O O6 0.550855 0.096001 0.731831
O O7 0.534807 0.855072 0.176473
O O8 0.757735 0.945844 0.087297
O O9 0.517029 0.108816 0.999015
O O10 0.023999 0.120108 0.514872
O O11 0.104736 0.180464 0.837527
O O12 0.046965 0.914058 0.738753
O O13 0.983811 0.654288 0.793111
O O14 0.949899 0.401487 0.680007
O O15 0.246740 0.767268 0.020646
O O16 0.975608 0.876803 0.988643
#
# Coordination Sequence:
#
# PCOD8047943 Si02
#       8
#     2   2   2   2   2   2   2   2
#     4  12  27  50  76 114 153 206 258 326 392 468
#     4  12  29  49  80 113 159 201 263 325 392 476
#     4  12  28  48  75 111 155 205 256 318 397 469
#     4  12  26  47  81 108 155 203 265 324 386 470
#     4  12  26  49  79 113 148 204 263 318 396 468
#     4  12  28  50  74 116 156 208 257 322 397 471
#     4  12  29  48  78 112 158 207 259 331 395 470
#     4  12  25  49  73 113 148 200 261 320 393 466
#
# _framework density 23.836046
#
# number of rings (size 3 to 8) (size 9 to 14) (size 15 to 20)
#    0.000    0.000    3.750    4.500   12.250    1.000 
#    0.000    0.000    0.000    0.000    0.000    0.000 
#    0.000    0.000    0.000    0.000    0.000    0.000 
#
# Total GULP energy -198326.569490 kJ/mol
# GULP energy per Si atom -12395.410593 kJ/mol
# Density = 2.378179 g / cm^3
# Si number density = 23.836046 Si / 1000 Ang^3
#
#
#
# Elastic Constant Matrix: (Units=GPa)
#
#
# Indices 1 2 3 4 5 6 
#
# 1 126.1205 44.6626 42.8464 0.0000 7.5888 0.0000
# 2 44.6626 102.9688 34.7296 0.0000 13.2683 0.0000
# 3 42.8464 34.7296 104.8590 0.0000 5.2640 0.0000
# 4 0.0000 0.0000 0.0000 57.7853 0.0000 -4.8625
# 5 7.5888 13.2683 5.2640 0.0000 40.4546 0.0000
# 6 0.0000 0.0000 0.0000 -4.8625 0.0000 33.4401
#
#
#
# Elastic Compliance Matrix: (Units=1/GPa)
#
#
# Indices 1 2 3 4 5 6 
#
# 1 0.010163 -0.003333 -0.003028 0.000000 -0.000419 0.000000
# 2 -0.003333 0.012436 -0.002601 0.000000 -0.003115 0.000000
# 3 -0.003028 -0.002601 0.011640 0.000000 -0.000094 0.000000
# 4 0.000000 0.000000 0.000000 0.017520 0.000000 0.002548
# 5 -0.000419 -0.003115 -0.000094 0.000000 0.025832 0.000000
# 6 0.000000 0.000000 0.000000 0.002548 0.000000 0.030275
#
#
# Mechanical properties :
#
#
# Convention : Reuss Voigt Hill
#
# Bulk Modulus (GPa) = 61.28891 64.26952 62.77922
# Shear Modulus (GPa) = 38.10217 40.44998 39.27607
#
# Velocity S-wave (km/s) = 4.00248 4.12395 4.06366
# Velocity P-wave (km/s) = 6.86500 7.04965 6.95794
#
# Compressibility (1/GPa) = 0.01631617
#
# Stress axis : x y z
#
# Youngs Moduli (GPa) = 98.39555 80.41259 85.91207
#
# Poissons Ratio (x) = 0.26801 0.26012
# Poissons Ratio (y) = 0.32795 0.22342
# Poissons Ratio (z) = 0.29792 0.20912
#
# Static dielectric constant tensor:
#      x y z
#    x 4.142950 0.000000 0.042160 
#    y 0.000000 4.387240 0.000000 
#    z 0.042160 0.000000 4.129110 
# 
# 
# High freq. dielectric constant tensor:
#      x y z
#    x 1.943990 0.000000 -0.002040 
#    y 0.000000 1.964670 0.000000 
#    z -0.002040 0.000000 1.951150 
# 
# From -- ./inp_files/5512.got.cif
#   From: 2010.03.12/outbox.cif.g09.slc.cpg/sg4_3_cif.got.tgz:5512.got - 2010.03.31 09:31:35.
