data_PCOD8047564
_publ_section_title
;
Structure prediction by ZEFSAII (Michael W. Deem and Ramdas Pophale) SiO2 
 PCOD8047564
Probable space group: P 21
;
_chemical_formula_sum "Si O2"
_cell_formula_units_Z 10
_cell_length_a 8.541649
_cell_length_b 8.149183
_cell_length_c 8.734927
_cell_angle_alpha 90.000000
_cell_angle_beta 149.316923
_cell_angle_gamma 90.000000
_cell_volume 310.263878
_symmetry_space_group_name_H-M "P 21"
_symmetry_group_IT_number 4
_symmetry_cell_setting 'monoclinic'
loop_
_space_group_symop_operation_xyz
x,y,z
-x,1/2+y,-z
loop_
_atom_site_type_symbol
_atom_site_label
_atom_site_fract_x
_atom_site_fract_y
_atom_site_fract_z
Si Si1 0.742815 0.339210 0.538642
Si Si2 0.833132 0.710292 0.859510
Si Si3 0.612826 0.379972 0.799297
Si Si4 0.063931 0.182069 0.424012
Si Si5 0.568277 0.643249 0.991277
O O1 0.048651 0.257237 0.867093
O O2 0.783466 0.511444 0.494783
O O3 0.551859 0.223035 0.264797
O O4 0.467307 0.325931 0.439292
O O5 0.121968 0.734186 0.984559
O O6 0.738424 0.516457 0.777850
O O7 0.257334 0.315568 0.486239
O O8 0.636684 0.455942 0.993401
O O9 0.696512 0.164735 0.100631
O O10 0.131537 0.211461 0.664895
#
# Coordination Sequence:
#
# PCOD8047564 Si02
#       5
#     2   2   2   2   2
#     4  11  24  44  67 102 147 192 249 309 376 452
#     4  11  26  45  70 104 145 197 249 311 377 447
#     4  11  26  47  74 107 151 198 255 313 378 456
#     4  12  24  42  71 103 141 192 248 308 373 444
#     4  11  24  42  68 102 144 193 245 307 372 447
#
# _framework density 32.230628000000003
#
# number of rings (size 3 to 8) (size 9 to 14) (size 15 to 20)
#    0.000    0.800    0.000    7.200    0.000   12.800 
#    0.000    0.000    0.000    0.000    0.000    0.000 
#    0.000    0.000    0.000    0.000    0.000    0.000 
#
# Total GULP energy -123961.843382 kJ/mol
# GULP energy per Si atom -12396.184338 kJ/mol
# Density = 3.215727 g / cm^3
# Si number density = 32.230628 Si / 1000 Ang^3
#
#
#
# Elastic Constant Matrix: (Units=GPa)
#
#
# Indices 1 2 3 4 5 6 
#
# 1 126.6368 23.5481 41.8339 0.0000 17.6045 0.0000
# 2 23.5481 137.4458 33.8023 0.0000 14.7256 0.0000
# 3 41.8339 33.8023 188.8366 0.0000 28.5522 0.0000
# 4 0.0000 0.0000 0.0000 51.4784 0.0000 18.0127
# 5 17.6045 14.7256 28.5522 0.0000 57.5366 0.0000
# 6 0.0000 0.0000 0.0000 18.0127 0.0000 53.7240
#
#
#
# Elastic Compliance Matrix: (Units=1/GPa)
#
#
# Indices 1 2 3 4 5 6 
#
# 1 0.008814 -0.000953 -0.001525 0.000000 -0.001696 0.000000
# 2 -0.000953 0.007816 -0.001005 0.000000 -0.001210 0.000000
# 3 -0.001525 -0.001005 0.006167 0.000000 -0.002336 0.000000
# 4 0.000000 0.000000 0.000000 0.022008 0.000000 -0.007379
# 5 -0.001696 -0.001210 -0.002336 0.000000 0.019368 0.000000
# 6 0.000000 0.000000 0.000000 -0.007379 0.000000 0.021088
#
#
# Mechanical properties :
#
#
# Convention : Reuss Voigt Hill
#
# Bulk Modulus (GPa) = 63.17635 72.36533 67.77084
# Shear Modulus (GPa) = 51.28081 56.13014 53.70547
#
# Velocity S-wave (km/s) = 3.99313 4.17767 4.08645
# Velocity P-wave (km/s) = 6.39563 6.76548 6.58315
#
# Compressibility (1/GPa) = 0.01582871
#
# Stress axis : x y z
#
# Youngs Moduli (GPa) = 113.46228 127.94809 162.16248
#
# Poissons Ratio (x) = 0.12195 0.24738
# Poissons Ratio (y) = 0.10815 0.16296
# Poissons Ratio (z) = 0.17309 0.12858
#
# Static dielectric constant tensor:
#      x y z
#    x 7.553010 0.000000 -0.155520 
#    y 0.000000 5.885320 0.000000 
#    z -0.155520 0.000000 6.391760 
# 
# 
# High freq. dielectric constant tensor:
#      x y z
#    x 2.432340 0.000000 -0.014370 
#    y 0.000000 2.312250 0.000000 
#    z -0.014370 0.000000 2.388540 
# 
# From -- ./inp_files/79.got.cif
#   From: 2010.03.12/outbox.cif.g09.slc.cpg/sg4_1_cif.got.tgz:79.got - 2010.03.31 09:31:35.
