data_PCOD8047700
_publ_section_title
;
Structure prediction by ZEFSAII (Michael W. Deem and Ramdas Pophale) SiO2 
 PCOD8047700
Probable space group: P 21
;
_chemical_formula_sum "Si O2"
_cell_formula_units_Z 12
_cell_length_a 7.250658
_cell_length_b 5.482886
_cell_length_c 14.780549
_cell_angle_alpha 90.000000
_cell_angle_beta 123.365687
_cell_angle_gamma 90.000000
_cell_volume 490.745049
_symmetry_space_group_name_H-M "P 21"
_symmetry_group_IT_number 4
_symmetry_cell_setting 'monoclinic'
loop_
_space_group_symop_operation_xyz
x,y,z
-x,1/2+y,-z
loop_
_atom_site_type_symbol
_atom_site_label
_atom_site_fract_x
_atom_site_fract_y
_atom_site_fract_z
Si Si1 0.885623 0.050980 0.258817
Si Si2 0.825671 0.928450 0.740759
Si Si3 0.322161 0.848773 0.649368
Si Si4 0.505517 0.870789 0.053740
Si Si5 0.080261 0.664726 0.423236
Si Si6 0.945528 0.561175 0.025782
O O1 0.717223 0.238718 0.261591
O O2 0.044834 0.169423 0.225219
O O3 0.728922 0.844876 0.172452
O O4 0.042063 0.938148 0.377624
O O5 0.576057 0.924177 0.709061
O O6 0.966811 0.097610 0.847490
O O7 0.830704 0.011354 0.637822
O O8 0.265625 0.663612 0.551551
O O9 0.150820 0.073376 0.595974
O O10 0.458767 0.603563 0.002112
O O11 0.292641 0.938704 0.053877
O O12 0.912661 0.836873 0.979027
#
# Coordination Sequence:
#
# PCOD8047700 Si02
#       6
#     2   2   2   2   2   2
#     4  11  25  46  71 100 140 185 238 294 361 435
#     4  11  27  45  71 104 139 189 239 295 365 430
#     4  11  25  46  69 105 138 183 237 297 362 431
#     4  12  25  46  74 101 146 191 238 300 365 433
#     4  11  25  44  71 102 142 181 238 295 365 435
#     4  12  27  47  72 110 147 189 250 303 362 438
#
# _framework density 24.452615000000002
#
# number of rings (size 3 to 8) (size 9 to 14) (size 15 to 20)
#    0.000    0.667    3.333    3.000    9.333    1.333 
#    0.000    0.000    0.000    0.000    0.000    0.000 
#    0.000    0.000    0.000    0.000    0.000    0.000 
#
# Total GULP energy -148662.006621 kJ/mol
# GULP energy per Si atom -12388.500552 kJ/mol
# Density = 2.439696 g / cm^3
# Si number density = 24.452615 Si / 1000 Ang^3
#
#
#
# Elastic Constant Matrix: (Units=GPa)
#
#
# Indices 1 2 3 4 5 6 
#
# 1 124.9891 9.3914 6.5934 0.0000 10.0074 0.0000
# 2 9.3914 71.8214 5.6025 0.0000 -8.7818 0.0000
# 3 6.5934 5.6025 78.4269 0.0000 9.9360 0.0000
# 4 0.0000 0.0000 0.0000 -71.0841 0.0000 -22.7276
# 5 10.0074 -8.7818 9.9360 0.0000 26.4201 0.0000
# 6 0.0000 0.0000 0.0000 -22.7276 0.0000 36.2913
#
#
#
# Elastic Compliance Matrix: (Units=1/GPa)
#
#
# Indices 1 2 3 4 5 6 
#
# 1 0.008415 -0.001536 -0.000136 0.000000 -0.003647 0.000000
# 2 -0.001536 0.015021 -0.001733 0.000000 0.006226 0.000000
# 3 -0.000136 -0.001733 0.013600 0.000000 -0.005639 0.000000
# 4 0.000000 0.000000 0.000000 -0.011721 0.000000 -0.007340
# 5 -0.003647 0.006226 -0.005639 0.000000 0.043422 0.000000
# 6 0.000000 0.000000 0.000000 -0.007340 0.000000 0.022958
#
#
# Mechanical properties :
#
#
# Convention : Reuss Voigt Hill
#
# Bulk Modulus (GPa) = 33.08189 35.37909 34.23049
# Shear Modulus (GPa) = 46.04934 15.23546 30.64240
#
# Velocity S-wave (km/s) = 4.34430 2.49883 3.54380
# Velocity P-wave (km/s) = 6.22272 4.77759 5.54742
#
# Compressibility (1/GPa) = 0.03022802
#
# Stress axis : x y z
#
# Youngs Moduli (GPa) = 118.83192 66.57494 73.52743
#
# Poissons Ratio (x) = 0.10224 0.00998
# Poissons Ratio (y) = 0.18249 0.12740
# Poissons Ratio (z) = 0.01613 0.11535
#
# Static dielectric constant tensor:
#      x y z
#    x 4.409270 0.000000 -0.092460 
#    y 0.000000 4.487980 0.000000 
#    z -0.092460 0.000000 5.103630 
# 
# 
# High freq. dielectric constant tensor:
#      x y z
#    x 1.974740 0.000000 -0.001540 
#    y 0.000000 1.969680 0.000000 
#    z -0.001540 0.000000 1.978270 
# 
# From -- ./inp_files/13179.got.cif
#   From: 2010.03.12/outbox.cif.g09.slc.cpg/sg4_7_cif.got.tgz:13179.got - 2010.03.31 09:31:35.
