data_PCOD8047519
_publ_section_title
;
Structure prediction by ZEFSAII (Michael W. Deem and Ramdas Pophale) SiO2 
 PCOD8047519
Probable space group: P 21
;
_chemical_formula_sum "Si O2"
_cell_formula_units_Z 16
_cell_length_a 15.378528
_cell_length_b 5.372006
_cell_length_c 14.825369
_cell_angle_alpha 90.000000
_cell_angle_beta 29.511885
_cell_angle_gamma 90.000000
_cell_volume 603.329806
_symmetry_space_group_name_H-M "P 21"
_symmetry_group_IT_number 4
_symmetry_cell_setting 'monoclinic'
loop_
_space_group_symop_operation_xyz
x,y,z
-x,1/2+y,-z
loop_
_atom_site_type_symbol
_atom_site_label
_atom_site_fract_x
_atom_site_fract_y
_atom_site_fract_z
Si Si1 0.204431 0.740380 0.885194
Si Si2 0.197946 0.490924 0.062506
Si Si3 0.091187 0.586884 0.796733
Si Si4 0.165750 0.936455 0.562745
Si Si5 0.678690 0.472336 0.967378
Si Si6 0.688378 0.020321 0.663795
Si Si7 0.400986 0.322888 0.436113
Si Si8 0.016276 0.810841 0.433531
O O1 0.115443 0.731911 0.868082
O O2 0.410541 0.804622 0.686195
O O3 0.178587 0.488931 0.969820
O O4 0.097111 0.950376 0.036552
O O5 0.271627 0.230351 0.029828
O O6 0.022087 0.584266 0.279287
O O7 0.328182 0.728843 0.960995
O O8 0.085388 0.753987 0.713030
O O9 0.256642 0.395407 0.641863
O O10 0.208132 0.786528 0.430955
O O11 0.338799 0.065231 0.446236
O O12 0.805032 0.421703 0.769193
O O13 0.473019 0.502512 0.119384
O O14 0.833197 0.792904 0.537679
O O15 0.597547 0.024668 0.646091
O O16 0.943989 0.037810 0.563122
#
# Coordination Sequence:
#
# PCOD8047519 Si02
#       8
#     2   2   2   2   2   2   2   2
#     4  12  25  45  69 102 149 196 264 314 389 428
#     4  12  23  45  77 107 148 197 258 305 376 438
#     4  11  27  43  64 100 150 197 251 326 377 443
#     4  11  23  46  71 104 145 202 254 314 374 445
#     4  12  26  48  78 112 146 200 243 312 364 460
#     4  11  26  46  79 108 150 191 262 301 371 460
#     4  11  25  45  71 105 140 201 260 312 376 442
#     4  12  29  50  79 114 154 194 236 306 389 460
#
# _framework density 26.519489
#
# number of rings (size 3 to 8) (size 9 to 14) (size 15 to 20)
#    0.000    0.500    3.750    3.750    3.500    1.000 
#    2.250    0.000    0.000    0.000    0.000    0.000 
#    0.000    0.000    0.000    0.000    0.000    0.000 
#
# Total GULP energy -198337.891160 kJ/mol
# GULP energy per Si atom -12396.118197 kJ/mol
# Density = 2.645913 g / cm^3
# Si number density = 26.519489 Si / 1000 Ang^3
#
#
#
# Elastic Constant Matrix: (Units=GPa)
#
#
# Indices 1 2 3 4 5 6 
#
# 1 24.9129 -1.4557 11.0981 0.0000 -8.0209 0.0000
# 2 -1.4557 105.3621 19.1298 0.0000 -5.6947 0.0000
# 3 11.0981 19.1298 178.2503 0.0000 -32.2109 0.0000
# 4 0.0000 0.0000 0.0000 42.0323 0.0000 0.1869
# 5 -8.0209 -5.6947 -32.2109 0.0000 42.1195 0.0000
# 6 0.0000 0.0000 0.0000 0.1869 0.0000 34.7597
#
#
#
# Elastic Compliance Matrix: (Units=1/GPa)
#
#
# Indices 1 2 3 4 5 6 
#
# 1 0.043221 0.001264 -0.001518 0.000000 0.007240 0.000000
# 2 0.001264 0.009730 -0.000977 0.000000 0.000809 0.000000
# 3 -0.001518 -0.000977 0.006653 0.000000 0.004666 0.000000
# 4 0.000000 0.000000 0.000000 0.023792 0.000000 -0.000128
# 5 0.007240 0.000809 0.004666 0.000000 0.028799 0.000000
# 6 0.000000 0.000000 0.000000 -0.000128 0.000000 0.028770
#
#
# Mechanical properties :
#
#
# Convention : Reuss Voigt Hill
#
# Bulk Modulus (GPa) = 17.50030 40.67441 29.08735
# Shear Modulus (GPa) = 30.77441 42.43249 36.60345
#
# Velocity S-wave (km/s) = 3.41023 4.00440 3.71920
# Velocity P-wave (km/s) = 4.70314 6.06227 5.42544
#
# Compressibility (1/GPa) = 0.05714189
#
# Stress axis : x y z
#
# Youngs Moduli (GPa) = 23.13684 102.77905 150.31503
#
# Poissons Ratio (x) = -0.12993 0.22822
# Poissons Ratio (y) = -0.02925 0.14680
# Poissons Ratio (z) = 0.03513 0.10038
#
# Static dielectric constant tensor:
#      x y z
#    x 4.718070 0.000000 -0.096680 
#    y 0.000000 4.969750 0.000000 
#    z -0.096680 0.000000 5.180520 
# 
# 
# High freq. dielectric constant tensor:
#      x y z
#    x 2.053170 0.000000 -0.008730 
#    y 0.000000 2.075470 0.000000 
#    z -0.008730 0.000000 2.091670 
# 
# From -- ./inp_files/14063.got.cif
#   From: 2010.03.12/outbox.cif.g09.slc.cpg/sg4_8_cif.got.tgz:14063.got - 2010.03.31 09:31:35.
