data_PCOD8047660
_publ_section_title
;
Structure prediction by ZEFSAII (Michael W. Deem and Ramdas Pophale) SiO2 
 PCOD8047660
Probable space group: P 21
;
_chemical_formula_sum "Si O2"
_cell_formula_units_Z 16
_cell_length_a 8.924507
_cell_length_b 7.891464
_cell_length_c 18.263092
_cell_angle_alpha 90.000000
_cell_angle_beta 30.605639
_cell_angle_gamma 90.000000
_cell_volume 654.849508
_symmetry_space_group_name_H-M "P 21"
_symmetry_group_IT_number 4
_symmetry_cell_setting 'monoclinic'
loop_
_space_group_symop_operation_xyz
x,y,z
-x,1/2+y,-z
loop_
_atom_site_type_symbol
_atom_site_label
_atom_site_fract_x
_atom_site_fract_y
_atom_site_fract_z
Si Si1 0.793056 0.857120 0.295217
Si Si2 0.693652 0.544591 0.424898
Si Si3 0.136434 0.650460 0.365806
Si Si4 0.263560 0.274591 0.339491
Si Si5 0.826031 0.793640 0.785426
Si Si6 0.307944 0.319297 0.934539
Si Si7 0.818160 0.051398 0.139458
Si Si8 0.589216 0.471170 0.951783
O O1 0.664653 0.671388 0.368110
O O2 0.138268 0.841791 0.167479
O O3 0.637482 0.998635 0.411853
O O4 0.741630 0.911265 0.233276
O O5 0.877978 0.623011 0.414973
O O6 0.850284 0.368511 0.334460
O O7 0.296004 0.476544 0.321227
O O8 0.377519 0.779000 0.233800
O O9 0.005930 0.732427 0.494053
O O10 0.192301 0.209524 0.287043
O O11 0.558996 0.188288 0.243500
O O12 0.726962 0.658790 0.888787
O O13 0.588345 0.948988 0.896440
O O14 0.130401 0.444628 0.955575
O O15 0.355364 0.429972 0.987063
O O16 0.118215 0.151098 0.031701
#
# Coordination Sequence:
#
# PCOD8047660 Si02
#       8
#     2   2   2   2   2   2   2   2
#     4  12  26  46  74 108 159 195 257 312 375 454
#     4  11  25  48  73 112 150 202 254 314 377 455
#     4  11  24  47  76 110 151 199 254 310 384 454
#     4  11  24  47  76 111 152 195 253 315 379 448
#     4  11  26  45  78 110 145 202 251 309 385 448
#     4  12  27  48  75 113 152 203 251 316 381 451
#     4  12  27  48  76 117 150 199 255 321 380 448
#     4  12  25  47  76 107 155 197 251 307 383 456
#
# _framework density 24.433095000000002
#
# number of rings (size 3 to 8) (size 9 to 14) (size 15 to 20)
#    0.000    0.500    3.750    3.750    8.750    1.000 
#    2.250    0.000    0.000    0.000    0.000    0.000 
#    0.000    0.000    0.000    0.000    0.000    0.000 
#
# Total GULP energy -198445.948418 kJ/mol
# GULP energy per Si atom -12402.871776 kJ/mol
# Density = 2.437748 g / cm^3
# Si number density = 24.433095 Si / 1000 Ang^3
#
#
#
# Elastic Constant Matrix: (Units=GPa)
#
#
# Indices 1 2 3 4 5 6 
#
# 1 96.1168 31.4280 21.2128 0.0000 10.2978 0.0000
# 2 31.4280 67.8195 -3.9630 0.0000 17.3570 0.0000
# 3 21.2128 -3.9630 97.7357 0.0000 11.8803 0.0000
# 4 0.0000 0.0000 0.0000 50.9842 0.0000 4.2528
# 5 10.2978 17.3570 11.8803 0.0000 29.8879 0.0000
# 6 0.0000 0.0000 0.0000 4.2528 0.0000 47.6813
#
#
#
# Elastic Compliance Matrix: (Units=1/GPa)
#
#
# Indices 1 2 3 4 5 6 
#
# 1 0.013144 -0.006389 -0.003165 0.000000 0.000439 0.000000
# 2 -0.006389 0.020813 0.003606 0.000000 -0.011319 0.000000
# 3 -0.003165 0.003606 0.011755 0.000000 -0.005676 0.000000
# 4 0.000000 0.000000 0.000000 0.019761 0.000000 -0.001763
# 5 0.000439 -0.011319 -0.005676 0.000000 0.042137 0.000000
# 6 0.000000 0.000000 0.000000 -0.001763 0.000000 0.021130
#
#
# Mechanical properties :
#
#
# Convention : Reuss Voigt Hill
#
# Bulk Modulus (GPa) = 29.57043 39.89196 34.73119
# Shear Modulus (GPa) = 32.91469 39.91031 36.41250
#
# Velocity S-wave (km/s) = 3.67432 4.04598 3.86462
# Velocity P-wave (km/s) = 5.48905 6.17973 5.84460
#
# Compressibility (1/GPa) = 0.03381757
#
# Stress axis : x y z
#
# Youngs Moduli (GPa) = 76.07764 48.04623 85.07073
#
# Poissons Ratio (x) = 0.30695 0.26928
# Poissons Ratio (y) = 0.48604 -0.30681
# Poissons Ratio (z) = 0.24081 -0.17328
#
# Static dielectric constant tensor:
#      x y z
#    x 4.169010 0.000000 0.151330 
#    y 0.000000 4.372430 0.000000 
#    z 0.151330 0.000000 4.655200 
# 
# 
# High freq. dielectric constant tensor:
#      x y z
#    x 1.958280 0.000000 0.008010 
#    y 0.000000 1.975380 0.000000 
#    z 0.008010 0.000000 1.990630 
# 
# From -- ./inp_files/14965.got.cif
#   From: 2010.03.12/outbox.cif.g09.slc.cpg/sg4_8_cif.got.tgz:14965.got - 2010.03.31 09:31:35.
