data_PCOD8047008
_publ_section_title
;
Structure prediction by ZEFSAII (Michael W. Deem and Ramdas Pophale) SiO2 
 PCOD8047008
Probable space group: P 21
;
_chemical_formula_sum "Si O2"
_cell_formula_units_Z 16
_cell_length_a 12.718642
_cell_length_b 8.473359
_cell_length_c 6.526568
_cell_angle_alpha 90.000000
_cell_angle_beta 101.872297
_cell_angle_gamma 90.000000
_cell_volume 688.319753
_symmetry_space_group_name_H-M "P 21"
_symmetry_group_IT_number 4
_symmetry_cell_setting 'monoclinic'
loop_
_space_group_symop_operation_xyz
x,y,z
-x,1/2+y,-z
loop_
_atom_site_type_symbol
_atom_site_label
_atom_site_fract_x
_atom_site_fract_y
_atom_site_fract_z
Si Si1 0.596637 0.600770 0.671806
Si Si2 0.745058 0.428298 0.030740
Si Si3 0.551809 0.071949 0.748452
Si Si4 0.539644 0.296435 0.086585
Si Si5 0.880309 0.733156 0.064681
Si Si6 0.922210 0.938311 0.455388
Si Si7 0.053269 0.742688 0.802987
Si Si8 0.740700 0.899460 0.691685
O O1 0.674224 0.466998 0.799277
O O2 0.540332 0.527801 0.450578
O O3 0.498581 0.654226 0.781722
O O4 0.664848 0.749606 0.624452
O O5 0.661722 0.363876 0.171350
O O6 0.803381 0.592193 0.111378
O O7 0.835290 0.291870 0.040740
O O8 0.544365 0.938325 0.922124
O O9 0.670952 0.057868 0.701620
O O10 0.535333 0.241067 0.847070
O O11 0.934992 0.807856 0.284409
O O12 0.813754 0.869200 0.920863
O O13 0.972965 0.674653 0.944523
O O14 0.805292 0.927428 0.509622
O O15 0.009509 0.899541 0.667825
O O16 0.936411 0.110645 0.366904
#
# Coordination Sequence:
#
# PCOD8047008 Si02
#       8
#     2   2   2   2   2   2   2   2
#     4  10  24  45  69 102 142 188 237 290 347 432
#     4  11  24  46  70 101 141 188 231 290 365 408
#     4  11  25  45  70 101 145 180 239 289 353 427
#     4  11  25  44  67 102 140 187 229 297 344 421
#     4  10  23  47  69  98 138 182 236 294 350 421
#     4  11  24  46  75  99 144 179 235 295 355 428
#     4  11  25  46  70 109 135 185 235 294 359 425
#     4   9  24  41  68 100 133 183 228 289 353 410
#
# _framework density 23.245009
#
# number of rings (size 3 to 8) (size 9 to 14) (size 15 to 20)
#    0.000    1.500    1.250    1.500    8.750    1.000 
#    6.750    0.000    0.000    0.000    0.000    0.000 
#    0.000    0.000    0.000    0.000    0.000    0.000 
#
# Total GULP energy -198309.434459 kJ/mol
# GULP energy per Si atom -12394.339654 kJ/mol
# Density = 2.319210 g / cm^3
# Si number density = 23.245009 Si / 1000 Ang^3
#
#
#
# Elastic Constant Matrix: (Units=GPa)
#
#
# Indices 1 2 3 4 5 6 
#
# 1 152.4591 44.5267 60.0936 0.0000 -12.7578 0.0000
# 2 44.5267 75.8793 45.5239 0.0000 -1.3768 0.0000
# 3 60.0936 45.5239 92.3404 0.0000 -9.5232 0.0000
# 4 0.0000 0.0000 0.0000 32.4424 0.0000 0.4763
# 5 -12.7578 -1.3768 -9.5232 0.0000 32.7922 0.0000
# 6 0.0000 0.0000 0.0000 0.4763 0.0000 44.7540
#
#
#
# Elastic Compliance Matrix: (Units=1/GPa)
#
#
# Indices 1 2 3 4 5 6 
#
# 1 0.009309 -0.002733 -0.004484 0.000000 0.002205 0.000000
# 2 -0.002733 0.019638 -0.008173 0.000000 -0.002612 0.000000
# 3 -0.004484 -0.008173 0.018103 0.000000 0.003170 0.000000
# 4 0.000000 0.000000 0.000000 0.030829 0.000000 -0.000328
# 5 0.002205 -0.002612 0.003170 0.000000 0.032164 0.000000
# 6 0.000000 0.000000 0.000000 -0.000328 0.000000 0.022348
#
#
# Mechanical properties :
#
#
# Convention : Reuss Voigt Hill
#
# Bulk Modulus (GPa) = 61.45224 68.99635 65.22429
# Shear Modulus (GPa) = 29.65728 33.36671 31.51200
#
# Velocity S-wave (km/s) = 3.57579 3.79282 3.68590
# Velocity P-wave (km/s) = 6.59867 6.99481 6.79963
#
# Compressibility (1/GPa) = 0.01627280
#
# Stress axis : x y z
#
# Youngs Moduli (GPa) = 107.42330 50.92124 55.23853
#
# Poissons Ratio (x) = 0.13915 0.24766
# Poissons Ratio (y) = 0.29356 0.45144
# Poissons Ratio (z) = 0.48163 0.41616
#
# Static dielectric constant tensor:
#      x y z
#    x 4.403950 0.000000 -0.091650 
#    y 0.000000 4.074290 0.000000 
#    z -0.091650 0.000000 3.972620 
# 
# 
# High freq. dielectric constant tensor:
#      x y z
#    x 1.930120 0.000000 -0.007050 
#    y 0.000000 1.919260 0.000000 
#    z -0.007050 0.000000 1.902020 
# 
# From -- ./inp_files/2630.got.cif
#   From: 2010.03.12/outbox.cif.g09.slc.cpg/sg4_2_cif.got.tgz:2630.got - 2010.03.31 09:31:35.
