data_PCOD8047114
_publ_section_title
;
Structure prediction by ZEFSAII (Michael W. Deem and Ramdas Pophale) SiO2 
 PCOD8047114
Probable space group: P 21
;
_chemical_formula_sum "Si O2"
_cell_formula_units_Z 14
_cell_length_a 12.049021
_cell_length_b 8.713734
_cell_length_c 5.003028
_cell_angle_alpha 90.000000
_cell_angle_beta 102.779784
_cell_angle_gamma 90.000000
_cell_volume 512.265274
_symmetry_space_group_name_H-M "P 21"
_symmetry_group_IT_number 4
_symmetry_cell_setting 'monoclinic'
loop_
_space_group_symop_operation_xyz
x,y,z
-x,1/2+y,-z
loop_
_atom_site_type_symbol
_atom_site_label
_atom_site_fract_x
_atom_site_fract_y
_atom_site_fract_z
Si Si1 0.260588 0.067040 0.812614
Si Si2 0.473646 0.983210 0.636437
Si Si3 0.892811 0.165394 0.884259
Si Si4 0.831784 0.890284 0.223639
Si Si5 0.969326 0.429990 0.309903
Si Si6 0.663067 0.304556 0.802503
Si Si7 0.611983 0.056197 0.203757
O O1 0.221547 0.230989 0.907295
O O2 0.155047 0.967152 0.631813
O O3 0.360256 0.083025 0.645548
O O4 0.305787 0.977333 0.096033
O O5 0.435020 0.822684 0.476213
O O6 0.552086 0.074392 0.462593
O O7 0.541549 0.950657 0.951058
O O8 0.953485 0.306986 0.063468
O O9 0.873454 0.003864 0.020034
O O10 0.769350 0.220439 0.714495
O O11 0.979640 0.102375 0.710234
O O12 0.733505 0.979759 0.335957
O O13 0.943909 0.845360 0.449327
O O14 0.623574 0.218707 0.053223
#
# Coordination Sequence:
#
# PCOD8047114 Si02
#       7
#     2   2   2   2   2   2   2
#     4  11  26  45  75 113 151 201 260 319 392 461
#     4  12  27  49  76 115 154 206 255 320 380 464
#     4  10  24  45  75 111 156 200 257 320 390 465
#     4  11  26  46  72 113 146 205 251 328 381 470
#     4  11  24  47  74 112 151 204 253 324 388 465
#     4  10  26  48  76 114 157 204 261 320 390 454
#     4  11  29  48  80 112 157 208 259 315 393 455
#
# _framework density 27.329588999999999
#
# number of rings (size 3 to 8) (size 9 to 14) (size 15 to 20)
#    0.000    1.143    1.429    1.714    8.000   10.286 
#    0.000    0.000    0.000    0.000    0.000    0.000 
#    0.000    0.000    0.000    0.000    0.000    0.000 
#
# Total GULP energy -173440.250178 kJ/mol
# GULP energy per Si atom -12388.589298 kJ/mol
# Density = 2.726739 g / cm^3
# Si number density = 27.329589 Si / 1000 Ang^3
#
#
#
# Elastic Constant Matrix: (Units=GPa)
#
#
# Indices 1 2 3 4 5 6 
#
# 1 98.8134 4.6104 4.4192 0.0000 2.1176 0.0000
# 2 4.6104 104.4755 -16.3235 0.0000 -1.0528 0.0000
# 3 4.4192 -16.3235 48.8186 0.0000 -16.4586 0.0000
# 4 0.0000 0.0000 0.0000 36.1495 0.0000 7.5064
# 5 2.1176 -1.0528 -16.4586 0.0000 36.6093 0.0000
# 6 0.0000 0.0000 0.0000 7.5064 0.0000 58.2452
#
#
#
# Elastic Compliance Matrix: (Units=1/GPa)
#
#
# Indices 1 2 3 4 5 6 
#
# 1 0.010255 -0.000719 -0.001622 0.000000 -0.001343 0.000000
# 2 -0.000719 0.010293 0.004267 0.000000 0.002256 0.000000
# 3 -0.001622 0.004267 0.026084 0.000000 0.011943 0.000000
# 4 0.000000 0.000000 0.000000 0.028424 0.000000 -0.003663
# 5 -0.001343 0.002256 0.011943 0.000000 0.032827 0.000000
# 6 0.000000 0.000000 0.000000 -0.003663 0.000000 0.017641
#
#
# Mechanical properties :
#
#
# Convention : Reuss Voigt Hill
#
# Bulk Modulus (GPa) = 19.80800 26.39109 23.09955
# Shear Modulus (GPa) = 36.10122 43.49422 39.79772
#
# Velocity S-wave (km/s) = 3.63844 3.99365 3.82018
# Velocity P-wave (km/s) = 4.99145 5.56266 5.28478
#
# Compressibility (1/GPa) = 0.05048465
#
# Stress axis : x y z
#
# Youngs Moduli (GPa) = 97.51382 97.15484 38.33737
#
# Poissons Ratio (x) = 0.06990 0.06217
# Poissons Ratio (y) = 0.07016 -0.16360
# Poissons Ratio (z) = 0.15813 -0.41460
#
# Static dielectric constant tensor:
#      x y z
#    x 5.568970 0.000000 -0.011730 
#    y 0.000000 4.968490 0.000000 
#    z -0.011730 0.000000 3.889730 
# 
# 
# High freq. dielectric constant tensor:
#      x y z
#    x 2.127100 0.000000 0.008550 
#    y 0.000000 2.119760 0.000000 
#    z 0.008550 0.000000 2.070670 
# 
# From -- ./inp_files/2658.got.cif
#   From: 2010.03.12/outbox.cif.g09.slc.cpg/sg4_2_cif.got.tgz:2658.got - 2010.03.31 09:31:35.
