data_PCOD8047851
_publ_section_title
;
Structure prediction by ZEFSAII (Michael W. Deem and Ramdas Pophale) SiO2 
 PCOD8047851
Probable space group: P 21
;
_chemical_formula_sum "Si O2"
_cell_formula_units_Z 14
_cell_length_a 7.080015
_cell_length_b 6.927298
_cell_length_c 13.643738
_cell_angle_alpha 90.000000
_cell_angle_beta 105.053816
_cell_angle_gamma 90.000000
_cell_volume 646.198121
_symmetry_space_group_name_H-M "P 21"
_symmetry_group_IT_number 4
_symmetry_cell_setting 'monoclinic'
loop_
_space_group_symop_operation_xyz
x,y,z
-x,1/2+y,-z
loop_
_atom_site_type_symbol
_atom_site_label
_atom_site_fract_x
_atom_site_fract_y
_atom_site_fract_z
Si Si1 0.418579 0.379790 0.604024
Si Si2 0.140034 0.568990 0.721242
Si Si3 0.344268 0.560285 0.255994
Si Si4 0.034192 0.834746 0.129958
Si Si5 0.597848 0.357709 0.138383
Si Si6 0.738754 0.595381 0.978947
Si Si7 0.273017 0.215965 0.387035
O O1 0.265993 0.438005 0.666239
O O2 0.534497 0.190370 0.652684
O O3 0.298257 0.333033 0.490339
O O4 0.566290 0.551437 0.601708
O O5 0.253800 0.765087 0.763343
O O6 0.105223 0.447337 0.814636
O O7 0.939616 0.620189 0.639761
O O8 0.142075 0.662117 0.200443
O O9 0.467971 0.519459 0.174581
O O10 0.291105 0.356963 0.297169
O O11 0.197342 0.977407 0.108342
O O12 0.901010 0.757431 0.023349
O O13 0.468032 0.189886 0.073055
O O14 0.721841 0.457498 0.070125
#
# Coordination Sequence:
#
# PCOD8047851 Si02
#       7
#     2   2   2   2   2   2   2
#     4  12  26  48  73 107 144 180 236 297 355 423
#     4  12  26  45  73 108 142 184 243 289 352 426
#     4  12  24  45  75  98 146 188 231 299 352 414
#     4  12  24  43  68 103 142 189 239 287 353 413
#     4  12  24  43  68 103 142 189 239 287 353 413
#     4  12  24  42  66 100 148 184 236 294 342 414
#     4  12  26  48  73 107 144 180 236 297 355 423
#
# _framework density 21.665182999999999
#
# number of rings (size 3 to 8) (size 9 to 14) (size 15 to 20)
#    0.000    0.000    4.286    6.857    0.000    3.429 
#    0.000    0.000    0.000    0.000    0.000    0.000 
#    0.000    0.000    0.000    0.000    0.000    0.000 
#
# Total GULP energy -173762.627465 kJ/mol
# GULP energy per Si atom -12411.616248 kJ/mol
# Density = 2.161587 g / cm^3
# Si number density = 21.665183 Si / 1000 Ang^3
#
#
#
# Elastic Constant Matrix: (Units=GPa)
#
#
# Indices 1 2 3 4 5 6 
#
# 1 74.0469 13.1451 14.1813 0.0000 -7.5944 0.0000
# 2 13.1451 79.4958 15.4892 0.0000 -1.2812 0.0000
# 3 14.1813 15.4892 78.7470 0.0000 4.2974 0.0000
# 4 0.0000 0.0000 0.0000 49.6474 0.0000 -4.3767
# 5 -7.5944 -1.2812 4.2974 0.0000 37.0819 0.0000
# 6 0.0000 0.0000 0.0000 -4.3767 0.0000 31.3715
#
#
#
# Elastic Compliance Matrix: (Units=1/GPa)
#
#
# Indices 1 2 3 4 5 6 
#
# 1 0.014638 -0.001893 -0.002439 0.000000 0.003215 0.000000
# 2 -0.001893 0.013347 -0.002303 0.000000 0.000340 0.000000
# 3 -0.002439 -0.002303 0.013709 0.000000 -0.002168 0.000000
# 4 0.000000 0.000000 0.000000 0.020393 0.000000 0.002845
# 5 0.003215 0.000340 -0.002168 0.000000 0.027889 0.000000
# 6 0.000000 0.000000 0.000000 0.002845 0.000000 0.032273
#
#
# Mechanical properties :
#
#
# Convention : Reuss Voigt Hill
#
# Bulk Modulus (GPa) = 35.18247 35.32452 35.25350
# Shear Modulus (GPa) = 34.48428 36.25177 35.36803
#
# Velocity S-wave (km/s) = 3.99393 4.09500 4.04478
# Velocity P-wave (km/s) = 6.12724 6.22084 6.17422
#
# Compressibility (1/GPa) = 0.02842325
#
# Stress axis : x y z
#
# Youngs Moduli (GPa) = 68.31552 74.92584 72.94259
#
# Poissons Ratio (x) = 0.14187 0.17792
# Poissons Ratio (y) = 0.12935 0.16797
# Poissons Ratio (z) = 0.16663 0.17254
#
# Static dielectric constant tensor:
#      x y z
#    x 3.911290 0.000000 0.031360 
#    y 0.000000 4.033280 0.000000 
#    z 0.031360 0.000000 3.960290 
# 
# 
# High freq. dielectric constant tensor:
#      x y z
#    x 1.862330 0.000000 0.001560 
#    y 0.000000 1.865230 0.000000 
#    z 0.001560 0.000000 1.860930 
# 
# From -- ./inp_files/3303.got.cif
#   From: 2010.03.12/outbox.cif.g09.slc.cpg/sg4_2_cif.got.tgz:3303.got - 2010.03.31 09:31:35.
