data_PCOD8047595
_publ_section_title
;
Structure prediction by ZEFSAII (Michael W. Deem and Ramdas Pophale) SiO2 
 PCOD8047595
Probable space group: P 21
;
_chemical_formula_sum "Si O2"
_cell_formula_units_Z 16
_cell_length_a 9.407368
_cell_length_b 12.565429
_cell_length_c 8.169709
_cell_angle_alpha 90.000000
_cell_angle_beta 51.534798
_cell_angle_gamma 90.000000
_cell_volume 756.146747
_symmetry_space_group_name_H-M "P 21"
_symmetry_group_IT_number 4
_symmetry_cell_setting 'monoclinic'
loop_
_space_group_symop_operation_xyz
x,y,z
-x,1/2+y,-z
loop_
_atom_site_type_symbol
_atom_site_label
_atom_site_fract_x
_atom_site_fract_y
_atom_site_fract_z
Si Si1 0.649591 0.279800 0.536617
Si Si2 0.519010 0.109231 0.386397
Si Si3 0.877646 0.215840 0.661084
Si Si4 0.610223 0.850026 0.005402
Si Si5 0.262166 0.148483 0.269129
Si Si6 0.219578 0.967596 0.752108
Si Si7 0.831735 0.040541 0.951073
Si Si8 0.264080 0.926695 0.094468
O O1 0.551897 0.216676 0.462192
O O2 0.765021 0.202269 0.572755
O O3 0.787350 0.364954 0.359795
O O4 0.496345 0.343304 0.746868
O O5 0.419471 0.133262 0.287912
O O6 0.402479 0.032807 0.586019
O O7 0.712724 0.057217 0.200514
O O8 0.790558 0.136925 0.856416
O O9 0.861723 0.337421 0.732018
O O10 0.086732 0.189438 0.489058
O O11 0.678252 0.733271 0.909350
O O12 0.779783 0.928875 0.903342
O O13 0.475887 0.897365 0.963916
O O14 0.217159 0.038364 0.212357
O O15 0.217093 0.929430 0.938988
O O16 0.043549 0.039735 0.844795
#
# Coordination Sequence:
#
# PCOD8047595 Si02
#       8
#     2   2   2   2   2   2   2   2
#     4  11  24  46  70 103 141 181 236 289 349 416
#     4  12  24  46  70 104 139 182 232 293 347 412
#     4  11  26  45  72 103 142 189 231 292 350 423
#     4  11  24  44  74 100 141 190 230 285 361 418
#     4  12  24  46  72 105 142 189 234 287 355 421
#     4  12  25  46  69 106 142 179 237 296 342 417
#     4  12  25  46  71 104 144 185 232 289 356 417
#     4  11  26  47  70 103 145 185 240 287 350 426
#
# _framework density 21.159915000000002
#
# number of rings (size 3 to 8) (size 9 to 14) (size 15 to 20)
#    0.000    0.500    3.750    5.250    5.250    1.000 
#    6.750    0.000    0.000    0.000    0.000    0.000 
#    0.000    0.000    0.000    0.000    0.000    0.000 
#
# Total GULP energy -198509.644345 kJ/mol
# GULP energy per Si atom -12406.852772 kJ/mol
# Density = 2.111175 g / cm^3
# Si number density = 21.159915 Si / 1000 Ang^3
#
#
#
# Elastic Constant Matrix: (Units=GPa)
#
#
# Indices 1 2 3 4 5 6 
#
# 1 64.8577 36.1441 49.9621 0.0000 6.6594 0.0000
# 2 36.1441 128.3875 44.8292 0.0000 4.5779 0.0000
# 3 49.9621 44.8292 108.6252 0.0000 -3.1351 0.0000
# 4 0.0000 0.0000 0.0000 43.0493 0.0000 3.5190
# 5 6.6594 4.5779 -3.1351 0.0000 37.2785 0.0000
# 6 0.0000 0.0000 0.0000 3.5190 0.0000 38.1988
#
#
#
# Elastic Compliance Matrix: (Units=1/GPa)
#
#
# Indices 1 2 3 4 5 6 
#
# 1 0.026144 -0.003418 -0.010763 0.000000 -0.005156 0.000000
# 2 -0.003418 0.009625 -0.002422 0.000000 -0.000775 0.000000
# 3 -0.010763 -0.002422 0.015257 0.000000 0.003503 0.000000
# 4 0.000000 0.000000 0.000000 0.023405 0.000000 -0.002156
# 5 -0.005156 -0.000775 0.003503 0.000000 0.028136 0.000000
# 6 0.000000 0.000000 0.000000 -0.002156 0.000000 0.026377
#
#
# Mechanical properties :
#
#
# Convention : Reuss Voigt Hill
#
# Bulk Modulus (GPa) = 56.12043 62.63792 59.37917
# Shear Modulus (GPa) = 29.74593 35.10101 32.42347
#
# Velocity S-wave (km/s) = 3.75342 4.07731 3.91872
# Velocity P-wave (km/s) = 6.73527 7.19947 6.97124
#
# Compressibility (1/GPa) = 0.01781882
#
# Stress axis : x y z
#
# Youngs Moduli (GPa) = 38.25027 103.90030 65.54324
#
# Poissons Ratio (x) = 0.35514 0.70543
# Poissons Ratio (y) = 0.13074 0.15876
# Poissons Ratio (z) = 0.41168 0.25167
#
# Static dielectric constant tensor:
#      x y z
#    x 3.768320 0.000000 0.011910 
#    y 0.000000 3.934640 0.000000 
#    z 0.011910 0.000000 3.896640 
# 
# 
# High freq. dielectric constant tensor:
#      x y z
#    x 1.825740 0.000000 0.001720 
#    y 0.000000 1.840090 0.000000 
#    z 0.001720 0.000000 1.841160 
# 
# From -- ./inp_files/6391.got.cif
#   From: 2010.03.12/outbox.cif.g09.slc.cpg/sg4_4_cif.got.tgz:6391.got - 2010.03.31 09:31:35.
