data_PCOD8047249
_publ_section_title
;
Structure prediction by ZEFSAII (Michael W. Deem and Ramdas Pophale) SiO2 
 PCOD8047249
Probable space group: P 21
;
_chemical_formula_sum "Si O2"
_cell_formula_units_Z 16
_cell_length_a 10.229011
_cell_length_b 14.370887
_cell_length_c 10.452283
_cell_angle_alpha 90.000000
_cell_angle_beta 152.560837
_cell_angle_gamma 90.000000
_cell_volume 708.022396
_symmetry_space_group_name_H-M "P 21"
_symmetry_group_IT_number 4
_symmetry_cell_setting 'monoclinic'
loop_
_space_group_symop_operation_xyz
x,y,z
-x,1/2+y,-z
loop_
_atom_site_type_symbol
_atom_site_label
_atom_site_fract_x
_atom_site_fract_y
_atom_site_fract_z
Si Si1 0.506109 0.578390 0.202509
Si Si2 0.498826 0.247455 0.973098
Si Si3 0.416297 0.231510 0.519130
Si Si4 0.177037 0.012324 0.100599
Si Si5 0.830461 0.329312 0.032734
Si Si6 0.291412 0.623963 0.429479
Si Si7 0.050695 0.965285 0.279198
Si Si8 0.102190 0.770578 0.453543
O O1 0.480148 0.638291 0.049038
O O2 0.481743 0.651468 0.295762
O O3 0.802612 0.525025 0.480132
O O4 0.274224 0.496953 0.006268
O O5 0.167046 0.273035 0.685593
O O6 0.662767 0.316154 0.019179
O O7 0.616866 0.269188 0.215908
O O8 0.486884 0.198693 0.438091
O O9 0.086583 0.255663 0.248107
O O10 0.611919 0.318783 0.724373
O O11 0.188615 0.983454 0.259964
O O12 0.494918 0.043567 0.335051
O O13 0.069048 0.934383 0.904976
O O14 0.936851 0.090912 0.873950
O O15 0.111994 0.673739 0.384672
O O16 0.087217 0.856718 0.342870
#
# Coordination Sequence:
#
# PCOD8047249 Si02
#       8
#     2   2   2   2   2   2   2   2
#     4  11  22  43  73 100 131 183 233 287 332 423
#     4  11  25  49  66  98 140 186 243 269 346 427
#     4  11  20  41  70 100 133 173 226 283 365 399
#     4  12  24  44  68 110 140 170 237 291 364 427
#     4  11  24  41  72  99 131 185 226 293 334 418
#     4  12  25  43  68 100 150 176 217 299 360 422
#     4  12  23  44  72 105 135 176 238 293 351 413
#     4  12  27  47  67 102 144 189 230 287 346 419
#
# _framework density 22.598154999999998
#
# number of rings (size 3 to 8) (size 9 to 14) (size 15 to 20)
#    0.000    0.500    2.500    7.500    0.000    2.000 
#   13.500    0.000    0.000    0.000    0.000    0.000 
#    0.000    0.000    0.000    0.000    0.000    0.000 
#
# Total GULP energy -198377.012448 kJ/mol
# GULP energy per Si atom -12398.563278 kJ/mol
# Density = 2.254672 g / cm^3
# Si number density = 22.598155 Si / 1000 Ang^3
#
#
#
# Elastic Constant Matrix: (Units=GPa)
#
#
# Indices 1 2 3 4 5 6 
#
# 1 90.5926 42.6401 34.0069 0.0000 3.4831 0.0000
# 2 42.6401 97.8836 36.2638 0.0000 -8.4233 0.0000
# 3 34.0069 36.2638 117.4102 0.0000 6.4082 0.0000
# 4 0.0000 0.0000 0.0000 45.0589 0.0000 -6.2460
# 5 3.4831 -8.4233 6.4082 0.0000 34.0485 0.0000
# 6 0.0000 0.0000 0.0000 -6.2460 0.0000 36.4480
#
#
#
# Elastic Compliance Matrix: (Units=1/GPa)
#
#
# Indices 1 2 3 4 5 6 
#
# 1 0.014727 -0.005759 -0.002351 0.000000 -0.002489 0.000000
# 2 -0.005759 0.014232 -0.002983 0.000000 0.004671 0.000000
# 3 -0.002351 -0.002983 0.010252 0.000000 -0.002427 0.000000
# 4 0.000000 0.000000 0.000000 0.022733 0.000000 0.003896
# 5 -0.002489 0.004671 -0.002427 0.000000 0.031237 0.000000
# 6 0.000000 0.000000 0.000000 0.003896 0.000000 0.028104
#
#
# Mechanical properties :
#
#
# Convention : Reuss Voigt Hill
#
# Bulk Modulus (GPa) = 58.73401 59.07866 58.90634
# Shear Modulus (GPa) = 33.52443 35.97612 34.75028
#
# Velocity S-wave (km/s) = 3.85581 3.99431 3.92567
# Velocity P-wave (km/s) = 6.77274 6.89003 6.83164
#
# Compressibility (1/GPa) = 0.01702591
#
# Stress axis : x y z
#
# Youngs Moduli (GPa) = 67.90190 70.26524 97.54337
#
# Poissons Ratio (x) = 0.40463 0.22934
# Poissons Ratio (y) = 0.39102 0.29094
# Poissons Ratio (z) = 0.15965 0.20958
#
# Static dielectric constant tensor:
#      x y z
#    x 3.830940 0.000000 0.012320 
#    y 0.000000 4.266600 0.000000 
#    z 0.012320 0.000000 4.098960 
# 
# 
# High freq. dielectric constant tensor:
#      x y z
#    x 1.873500 0.000000 0.005890 
#    y 0.000000 1.891590 0.000000 
#    z 0.005890 0.000000 1.908900 
# 
# From -- ./inp_files/12366.got.cif
#   From: 2010.03.12/outbox.cif.g09.slc.cpg/sg4_7_cif.got.tgz:12366.got - 2010.03.31 09:31:35.
