data_PCOD8047602
_publ_section_title
;
Structure prediction by ZEFSAII (Michael W. Deem and Ramdas Pophale) SiO2 
 PCOD8047602
Probable space group: P 21
;
_chemical_formula_sum "Si O2"
_cell_formula_units_Z 14
_cell_length_a 12.062042
_cell_length_b 9.344027
_cell_length_c 9.158684
_cell_angle_alpha 90.000000
_cell_angle_beta 144.460156
_cell_angle_gamma 90.000000
_cell_volume 600.019171
_symmetry_space_group_name_H-M "P 21"
_symmetry_group_IT_number 4
_symmetry_cell_setting 'monoclinic'
loop_
_space_group_symop_operation_xyz
x,y,z
-x,1/2+y,-z
loop_
_atom_site_type_symbol
_atom_site_label
_atom_site_fract_x
_atom_site_fract_y
_atom_site_fract_z
Si Si1 0.081042 0.633670 0.713589
Si Si2 0.150475 0.618897 0.455250
Si Si3 0.835757 0.410304 0.048270
Si Si4 0.663861 0.277521 0.596961
Si Si5 0.464793 0.407084 0.845032
Si Si6 0.412383 0.527520 0.267801
Si Si7 0.340017 0.097416 0.715518
O O1 0.153850 0.665574 0.627896
O O2 0.038117 0.784899 0.744757
O O3 0.879229 0.552687 0.493514
O O4 0.231607 0.537239 0.964648
O O5 0.223109 0.751219 0.434015
O O6 0.292833 0.487742 0.581324
O O7 0.939584 0.563114 0.180732
O O8 0.803795 0.377343 0.843431
O O9 0.630209 0.398532 0.903055
O O10 0.462142 0.361828 0.358872
O O11 0.622843 0.123860 0.627127
O O12 0.390286 0.255750 0.824802
O O13 0.531126 0.486663 0.060210
O O14 0.602602 0.588229 0.392971
#
# Coordination Sequence:
#
# PCOD8047602 Si02
#       7
#     2   2   2   2   2   2   2
#     4  11  24  44  76 111 142 185 251 322 361 433
#     4  12  25  44  77 111 148 190 257 310 377 445
#     4  11  24  48  68 108 152 192 246 309 365 451
#     4  11  27  48  75 106 148 214 240 301 391 454
#     4  12  23  45  75 105 149 189 242 312 372 434
#     4  11  26  50  73 105 157 190 258 307 375 449
#     4  12  25  43  76 110 144 188 246 313 377 434
#
# _framework density 23.332588000000001
#
# number of rings (size 3 to 8) (size 9 to 14) (size 15 to 20)
#    0.000    0.571    7.143    0.857    4.000    2.286 
#    0.000    7.143    0.000    0.000    0.000    0.000 
#    0.000    0.000    0.000    0.000    0.000    0.000 
#
# Total GULP energy -173618.684661 kJ/mol
# GULP energy per Si atom -12401.334619 kJ/mol
# Density = 2.327948 g / cm^3
# Si number density = 23.332588 Si / 1000 Ang^3
#
#
#
# Elastic Constant Matrix: (Units=GPa)
#
#
# Indices 1 2 3 4 5 6 
#
# 1 97.8396 18.7720 59.1549 0.0000 -7.1140 0.0000
# 2 18.7720 81.7159 55.1913 0.0000 -5.0234 0.0000
# 3 59.1549 55.1913 123.6799 0.0000 -6.1268 0.0000
# 4 0.0000 0.0000 0.0000 39.0727 0.0000 1.0418
# 5 -7.1140 -5.0234 -6.1268 0.0000 38.9953 0.0000
# 6 0.0000 0.0000 0.0000 1.0418 0.0000 40.7885
#
#
#
# Elastic Compliance Matrix: (Units=1/GPa)
#
#
# Indices 1 2 3 4 5 6 
#
# 1 0.014705 0.002033 -0.007855 0.000000 0.001710 0.000000
# 2 0.002033 0.017840 -0.008870 0.000000 0.001275 0.000000
# 3 -0.007855 -0.008870 0.015796 0.000000 -0.000094 0.000000
# 4 0.000000 0.000000 0.000000 0.025611 0.000000 -0.000654
# 5 0.001710 0.001275 -0.000094 0.000000 0.026106 0.000000
# 6 0.000000 0.000000 0.000000 -0.000654 0.000000 0.024533
#
#
# Mechanical properties :
#
#
# Convention : Reuss Voigt Hill
#
# Bulk Modulus (GPa) = 52.75603 63.27466 58.01535
# Shear Modulus (GPa) = 31.19268 35.11245 33.15256
#
# Velocity S-wave (km/s) = 3.66029 3.88347 3.77353
# Velocity P-wave (km/s) = 6.36578 6.87647 6.62605
#
# Compressibility (1/GPa) = 0.01895518
#
# Stress axis : x y z
#
# Youngs Moduli (GPa) = 68.00567 56.05462 63.30682
#
# Poissons Ratio (x) = -0.11395 0.49731
# Poissons Ratio (y) = -0.13824 0.56153
# Poissons Ratio (z) = 0.53422 0.49720
#
# Static dielectric constant tensor:
#      x y z
#    x 4.204850 0.000000 0.002960 
#    y 0.000000 4.134020 0.000000 
#    z 0.002960 0.000000 4.210130 
# 
# 
# High freq. dielectric constant tensor:
#      x y z
#    x 1.926670 0.000000 -0.001290 
#    y 0.000000 1.914590 0.000000 
#    z -0.001290 0.000000 1.925380 
# 
# From -- ./inp_files/7604.got.cif
#   From: 2010.03.12/outbox.cif.g09.slc.cpg/sg4_4_cif.got.tgz:7604.got - 2010.03.31 09:31:35.
