data_PCOD8047515
_publ_section_title
;
Structure prediction by ZEFSAII (Michael W. Deem and Ramdas Pophale) SiO2 
 PCOD8047515
Probable space group: P 21
;
_chemical_formula_sum "Si O2"
_cell_formula_units_Z 16
_cell_length_a 9.270649
_cell_length_b 9.113938
_cell_length_c 18.374170
_cell_angle_alpha 90.000000
_cell_angle_beta 29.322261
_cell_angle_gamma 90.000000
_cell_volume 760.278794
_symmetry_space_group_name_H-M "P 21"
_symmetry_group_IT_number 4
_symmetry_cell_setting 'monoclinic'
loop_
_space_group_symop_operation_xyz
x,y,z
-x,1/2+y,-z
loop_
_atom_site_type_symbol
_atom_site_label
_atom_site_fract_x
_atom_site_fract_y
_atom_site_fract_z
Si Si1 0.476397 0.357710 0.198552
Si Si2 0.816762 0.286685 0.505124
Si Si3 0.594765 0.863747 0.036597
Si Si4 0.728683 0.320938 0.243330
Si Si5 0.706289 0.190275 0.713205
Si Si6 0.712279 0.193963 0.957978
Si Si7 0.359015 0.101131 0.634635
Si Si8 0.311659 0.097138 0.488456
O O1 0.678247 0.325511 0.179345
O O2 0.426650 0.530932 0.209073
O O3 0.167852 0.269577 0.340945
O O4 0.656418 0.298928 0.050796
O O5 0.700370 0.213503 0.629868
O O6 0.638372 0.209575 0.518152
O O7 0.739166 0.457354 0.540119
O O8 0.479000 0.819499 0.167308
O O9 0.420526 0.768412 0.054690
O O10 0.934095 0.822965 0.883012
O O11 0.555470 0.036880 0.039755
O O12 0.563918 0.458462 0.352042
O O13 0.608444 0.171953 0.330847
O O14 0.037998 0.206676 0.597009
O O15 0.062589 0.178486 0.794066
O O16 0.327473 0.050967 0.565424
#
# Coordination Sequence:
#
# PCOD8047515 Si02
#       8
#     2   2   2   2   2   2   2   2
#     4  11  25  43  68  98 138 172 223 276 334 400
#     4  11  25  42  71  99 133 178 222 275 342 393
#     4  11  26  44  69  95 135 175 225 271 339 394
#     4  11  25  43  66  99 132 174 220 281 332 396
#     4  11  23  46  67  96 138 176 220 281 329 398
#     4  11  26  44  68  99 134 180 221 274 334 404
#     4  11  24  47  66  97 134 177 223 278 335 401
#     4  11  24  43  69  99 134 172 226 278 333 402
#
# _framework density 21.044909000000001
#
# number of rings (size 3 to 8) (size 9 to 14) (size 15 to 20)
#    0.000    1.000    3.750    1.500   10.500    3.000 
#    0.000    0.000    0.000    0.000    0.000    0.000 
#    0.000    0.000    0.000    0.000    0.000    0.000 
#
# Total GULP energy -198491.017935 kJ/mol
# GULP energy per Si atom -12405.688621 kJ/mol
# Density = 2.099701 g / cm^3
# Si number density = 21.044909 Si / 1000 Ang^3
#
#
#
# Elastic Constant Matrix: (Units=GPa)
#
#
# Indices 1 2 3 4 5 6 
#
# 1 92.5648 20.5732 19.1703 0.0000 12.0679 0.0000
# 2 20.5732 66.8289 12.5573 0.0000 0.8199 0.0000
# 3 19.1703 12.5573 24.1056 0.0000 14.5384 0.0000
# 4 0.0000 0.0000 0.0000 37.2861 0.0000 3.4518
# 5 12.0679 0.8199 14.5384 0.0000 30.2609 0.0000
# 6 0.0000 0.0000 0.0000 3.4518 0.0000 39.8605
#
#
#
# Elastic Compliance Matrix: (Units=1/GPa)
#
#
# Indices 1 2 3 4 5 6 
#
# 1 0.013276 -0.002453 -0.008627 0.000000 -0.001083 0.000000
# 2 -0.002453 0.017646 -0.010620 0.000000 0.005602 0.000000
# 3 -0.008627 -0.010620 0.072692 0.000000 -0.031195 0.000000
# 4 0.000000 0.000000 0.000000 0.027036 0.000000 -0.002341
# 5 -0.001083 0.005602 -0.031195 0.000000 0.048314 0.000000
# 6 0.000000 0.000000 0.000000 -0.002341 0.000000 0.025290
#
#
# Mechanical properties :
#
#
# Convention : Reuss Voigt Hill
#
# Bulk Modulus (GPa) = 16.60766 32.01120 24.30943
# Shear Modulus (GPa) = 18.67586 30.22806 24.45196
#
# Velocity S-wave (km/s) = 2.98221 3.79404 3.41235
# Velocity P-wave (km/s) = 4.44598 5.86830 5.20594
#
# Compressibility (1/GPa) = 0.06021316
#
# Stress axis : x y z
#
# Youngs Moduli (GPa) = 75.32210 56.67166 13.75671
#
# Poissons Ratio (x) = 0.13900 0.11868
# Poissons Ratio (y) = 0.18475 0.14610
# Poissons Ratio (z) = 0.64982 0.60187
#
# Static dielectric constant tensor:
#      x y z
#    x 3.835580 0.000000 -0.031630 
#    y 0.000000 3.854660 0.000000 
#    z -0.031630 0.000000 3.776530 
# 
# 
# High freq. dielectric constant tensor:
#      x y z
#    x 1.839420 0.000000 -0.000250 
#    y 0.000000 1.828460 0.000000 
#    z -0.000250 0.000000 1.823750 
# 
# From -- ./inp_files/5408.got.cif
#   From: 2010.03.12/outbox.cif.g09.slc.cpg/sg4_3_cif.got.tgz:5408.got - 2010.03.31 09:31:35.
