data_PCOD8047791
_publ_section_title
;
Structure prediction by ZEFSAII (Michael W. Deem and Ramdas Pophale) SiO2 
 PCOD8047791
Probable space group: P 21
;
_chemical_formula_sum "Si O2"
_cell_formula_units_Z 16
_cell_length_a 9.399411
_cell_length_b 8.594361
_cell_length_c 9.330560
_cell_angle_alpha 90.000000
_cell_angle_beta 122.292105
_cell_angle_gamma 90.000000
_cell_volume 637.163702
_symmetry_space_group_name_H-M "P 21"
_symmetry_group_IT_number 4
_symmetry_cell_setting 'monoclinic'
loop_
_space_group_symop_operation_xyz
x,y,z
-x,1/2+y,-z
loop_
_atom_site_type_symbol
_atom_site_label
_atom_site_fract_x
_atom_site_fract_y
_atom_site_fract_z
Si Si1 0.295893 0.189340 0.920634
Si Si2 0.093556 0.122714 0.420632
Si Si3 0.382258 0.530500 0.464276
Si Si4 0.032641 0.409704 0.874108
Si Si5 0.428525 0.267151 0.696910
Si Si6 0.159786 0.903968 0.691516
Si Si7 0.511324 0.300319 0.302224
Si Si8 0.195825 0.660565 0.148717
O O1 0.418434 0.252947 0.862976
O O2 0.130274 0.295794 0.819001
O O3 0.242650 0.006958 0.867102
O O4 0.379024 0.222821 0.119487
O O5 0.288601 0.160852 0.546769
O O6 0.963175 0.264895 0.322866
O O7 0.098465 0.013199 0.284238
O O8 0.044252 0.019460 0.533084
O O9 0.380979 0.436549 0.611046
O O10 0.452575 0.456837 0.351659
O O11 0.483360 0.685698 0.558984
O O12 0.193904 0.584090 0.309415
O O13 0.935535 0.302171 0.937344
O O14 0.163304 0.525954 0.017820
O O15 0.618244 0.228794 0.763477
O O16 0.312170 0.828149 0.682618
#
# Coordination Sequence:
#
# PCOD8047791 Si02
#       8
#     2   2   2   2   2   2   2   2
#     4  11  28  52  81 123 162 210 275 337 405 483
#     4  11  26  48  80 118 158 207 267 336 403 478
#     4  12  26  48  77 116 159 215 263 324 404 487
#     4  12  30  50  80 116 168 211 267 340 408 482
#     4  11  28  48  87 114 161 207 274 328 409 481
#     4  11  27  48  80 122 159 209 273 340 409 469
#     4  12  28  49  84 118 165 213 274 333 409 490
#     4  12  29  53  77 115 168 210 271 326 413 486
#
# _framework density 25.111286
#
# number of rings (size 3 to 8) (size 9 to 14) (size 15 to 20)
#    0.000    0.500    2.500    3.750   12.250    1.000 
#    0.000    0.000    0.000    0.000    0.000    0.000 
#    0.000    0.000    0.000    0.000    0.000    0.000 
#
# Total GULP energy -198217.034517 kJ/mol
# GULP energy per Si atom -12388.564657 kJ/mol
# Density = 2.505413 g / cm^3
# Si number density = 25.111286 Si / 1000 Ang^3
#
#
#
# Elastic Constant Matrix: (Units=GPa)
#
#
# Indices 1 2 3 4 5 6 
#
# 1 62.9123 41.0436 21.1222 0.0000 8.0777 0.0000
# 2 41.0436 118.7336 46.3742 0.0000 -6.6792 0.0000
# 3 21.1222 46.3742 121.8388 0.0000 1.7531 0.0000
# 4 0.0000 0.0000 0.0000 63.2091 0.0000 -8.0545
# 5 8.0777 -6.6792 1.7531 0.0000 24.6521 0.0000
# 6 0.0000 0.0000 0.0000 -8.0545 0.0000 32.0080
#
#
#
# Elastic Compliance Matrix: (Units=1/GPa)
#
#
# Indices 1 2 3 4 5 6 
#
# 1 0.022635 -0.008085 -0.000709 0.000000 -0.009557 0.000000
# 2 -0.008085 0.013000 -0.003639 0.000000 0.006430 0.000000
# 3 -0.000709 -0.003639 0.009736 0.000000 -0.001446 0.000000
# 4 0.000000 0.000000 0.000000 0.016345 0.000000 0.004113
# 5 -0.009557 0.006430 -0.001446 0.000000 0.045541 0.000000
# 6 0.000000 0.000000 0.000000 0.004113 0.000000 0.032277
#
#
# Mechanical properties :
#
#
# Convention : Reuss Voigt Hill
#
# Bulk Modulus (GPa) = 48.76865 57.84053 53.30459
# Shear Modulus (GPa) = 29.19958 36.97015 33.08487
#
# Velocity S-wave (km/s) = 3.41370 3.84116 3.63372
# Velocity P-wave (km/s) = 5.91616 6.53883 6.23527
#
# Compressibility (1/GPa) = 0.02050498
#
# Stress axis : x y z
#
# Youngs Moduli (GPa) = 44.17959 76.92304 102.70757
#
# Poissons Ratio (x) = 0.62192 0.07284
# Poissons Ratio (y) = 0.35719 0.37375
# Poissons Ratio (z) = 0.03133 0.27992
#
# Static dielectric constant tensor:
#      x y z
#    x 4.254650 0.000000 0.037170 
#    y 0.000000 5.169030 0.000000 
#    z 0.037170 0.000000 4.727460 
# 
# 
# High freq. dielectric constant tensor:
#      x y z
#    x 1.984050 0.000000 0.005860 
#    y 0.000000 2.025060 0.000000 
#    z 0.005860 0.000000 2.015140 
# 
# From -- ./inp_files/5858.got.cif
#   From: 2010.03.12/outbox.cif.g09.slc.cpg/sg4_3_cif.got.tgz:5858.got - 2010.03.31 09:31:35.
