data_PCOD8047533
_publ_section_title
;
Structure prediction by ZEFSAII (Michael W. Deem and Ramdas Pophale) SiO2 
 PCOD8047533
Probable space group: P 21
;
_chemical_formula_sum "Si O2"
_cell_formula_units_Z 14
_cell_length_a 9.817431
_cell_length_b 8.528477
_cell_length_c 13.019145
_cell_angle_alpha 90.000000
_cell_angle_beta 144.517139
_cell_angle_gamma 90.000000
_cell_volume 632.737616
_symmetry_space_group_name_H-M "P 21"
_symmetry_group_IT_number 4
_symmetry_cell_setting 'monoclinic'
loop_
_space_group_symop_operation_xyz
x,y,z
-x,1/2+y,-z
loop_
_atom_site_type_symbol
_atom_site_label
_atom_site_fract_x
_atom_site_fract_y
_atom_site_fract_z
Si Si1 0.766999 0.592070 0.475030
Si Si2 0.413374 0.555374 0.427632
Si Si3 0.932048 0.290556 0.674325
Si Si4 0.026961 0.330822 0.118291
Si Si5 0.844264 0.473186 0.806798
Si Si6 0.212633 0.772650 0.823955
Si Si7 0.346752 0.097010 0.826209
O O1 0.584164 0.645285 0.451534
O O2 0.822453 0.405937 0.520778
O O3 0.656670 0.632437 0.297181
O O4 0.006911 0.688856 0.634714
O O5 0.265674 0.673505 0.405514
O O6 0.258096 0.437217 0.264697
O O7 0.575334 0.455705 0.604779
O O8 0.012890 0.397144 0.822106
O O9 0.144108 0.193884 0.758088
O O10 0.091540 0.152531 0.138587
O O11 0.881565 0.356698 0.131968
O O12 0.864032 0.381790 0.924544
O O13 0.318974 0.910973 0.820752
O O14 0.407684 0.644957 0.972720
#
# Coordination Sequence:
#
# PCOD8047533 Si02
#       7
#     2   2   2   2   2   2   2
#     4  11  26  47  75 104 143 190 239 299 360 423
#     4  11  24  46  74 107 142 182 239 305 354 423
#     4  11  23  47  73 104 142 189 243 296 354 432
#     4  12  25  45  71 110 144 184 235 295 367 421
#     4  11  25  42  73 105 146 182 234 298 363 424
#     4  12  27  49  70 108 145 189 241 295 350 441
#     4  12  28  48  74 100 150 194 239 292 362 424
#
# _framework density 22.126076999999999
#
# number of rings (size 3 to 8) (size 9 to 14) (size 15 to 20)
#    0.000    0.571    4.286    4.286    4.000    0.000 
#    7.714    0.000    0.000    0.000    0.000    0.000 
#    0.000    0.000    0.000    0.000    0.000    0.000 
#
# Total GULP energy -173633.647717 kJ/mol
# GULP energy per Si atom -12402.403408 kJ/mol
# Density = 2.207572 g / cm^3
# Si number density = 22.126077 Si / 1000 Ang^3
#
#
#
# Elastic Constant Matrix: (Units=GPa)
#
#
# Indices 1 2 3 4 5 6 
#
# 1 73.9948 25.5446 41.3863 0.0000 6.4962 0.0000
# 2 25.5446 102.2028 34.6617 0.0000 -2.9126 0.0000
# 3 41.3863 34.6617 104.3526 0.0000 -4.5214 0.0000
# 4 0.0000 0.0000 0.0000 31.7686 0.0000 -2.5234
# 5 6.4962 -2.9126 -4.5214 0.0000 33.9615 0.0000
# 6 0.0000 0.0000 0.0000 -2.5234 0.0000 42.1560
#
#
#
# Elastic Compliance Matrix: (Units=1/GPa)
#
#
# Indices 1 2 3 4 5 6 
#
# 1 0.018546 -0.002485 -0.006732 0.000000 -0.004657 0.000000
# 2 -0.002485 0.011367 -0.002743 0.000000 0.001085 0.000000
# 3 -0.006732 -0.002743 0.013286 0.000000 0.002821 0.000000
# 4 0.000000 0.000000 0.000000 0.031628 0.000000 0.001893
# 5 -0.004657 0.001085 0.002821 0.000000 0.030805 0.000000
# 6 0.000000 0.000000 0.000000 0.001893 0.000000 0.023835
#
#
# Mechanical properties :
#
#
# Convention : Reuss Voigt Hill
#
# Bulk Modulus (GPa) = 51.86875 53.74836 52.80856
# Shear Modulus (GPa) = 31.28657 33.50774 32.39715
#
# Velocity S-wave (km/s) = 3.76442 3.89575 3.83065
# Velocity P-wave (km/s) = 6.51058 6.67686 6.59424
#
# Compressibility (1/GPa) = 0.01927943
#
# Stress axis : x y z
#
# Youngs Moduli (GPa) = 53.91862 87.97558 75.26664
#
# Poissons Ratio (x) = 0.21863 0.50668
# Poissons Ratio (y) = 0.13400 0.20645
# Poissons Ratio (z) = 0.36297 0.24131
#
# Static dielectric constant tensor:
#      x y z
#    x 3.998310 0.000000 0.023700 
#    y 0.000000 4.199560 0.000000 
#    z 0.023700 0.000000 4.173370 
# 
# 
# High freq. dielectric constant tensor:
#      x y z
#    x 1.868560 0.000000 0.000680 
#    y 0.000000 1.887360 0.000000 
#    z 0.000680 0.000000 1.874480 
# 
# From -- ./inp_files/7923.got.cif
#   From: 2010.03.12/outbox.cif.g09.slc.cpg/sg4_4_cif.got.tgz:7923.got - 2010.03.31 09:31:35.
