data_PCOD8047042
_publ_section_title
;
Structure prediction by ZEFSAII (Michael W. Deem and Ramdas Pophale) SiO2 
 PCOD8047042
Probable space group: P 21
;
_chemical_formula_sum "Si O2"
_cell_formula_units_Z 12
_cell_length_a 8.138901
_cell_length_b 11.442585
_cell_length_c 7.429461
_cell_angle_alpha 90.000000
_cell_angle_beta 123.526205
_cell_angle_gamma 90.000000
_cell_volume 576.796046
_symmetry_space_group_name_H-M "P 21"
_symmetry_group_IT_number 4
_symmetry_cell_setting 'monoclinic'
loop_
_space_group_symop_operation_xyz
x,y,z
-x,1/2+y,-z
loop_
_atom_site_type_symbol
_atom_site_label
_atom_site_fract_x
_atom_site_fract_y
_atom_site_fract_z
Si Si1 0.190224 0.924250 0.533506
Si Si2 0.762130 0.856787 0.260707
Si Si3 0.809776 0.694791 0.966493
Si Si4 0.662169 0.672890 0.486800
Si Si5 0.237870 0.762254 0.239293
Si Si6 0.337831 0.946151 0.013200
O O1 0.245659 0.812734 0.445935
O O2 0.953517 0.937972 0.402743
O O3 0.279590 0.038753 0.496144
O O4 0.280800 0.899585 0.782755
O O5 0.776154 0.749438 0.408668
O O6 0.572546 0.936463 0.184284
O O7 0.754340 0.806307 0.054065
O O8 0.719200 0.719456 0.717245
O O9 0.720410 0.580287 0.003856
O O10 0.046483 0.681069 0.097256
O O11 0.427454 0.682577 0.315717
O O12 0.223845 0.869603 0.091331
#
# Coordination Sequence:
#
# PCOD8047042 Si02
#       6
#     2   2   2   2   2   2
#     4  11  22  42  63  90 121 160 200 246 301 354
#     4  10  24  42  62  88 124 158 200 248 296 356
#     4  11  22  42  63  90 121 160 200 246 301 354
#     4  11  22  42  63  90 121 160 200 246 301 354
#     4  10  24  42  62  88 124 158 200 248 296 356
#     4  11  22  42  63  90 121 160 200 246 301 354
#
# _framework density 20.804583000000001
#
# number of rings (size 3 to 8) (size 9 to 14) (size 15 to 20)
#    0.000    1.333    3.333    2.000    0.000    2.667 
#    6.000    0.000    0.000    0.000    0.000    0.000 
#    0.000    0.000    0.000    0.000    0.000    0.000 
#
# Total GULP energy -148890.117921 kJ/mol
# GULP energy per Si atom -12407.509827 kJ/mol
# Density = 2.075723 g / cm^3
# Si number density = 20.804583 Si / 1000 Ang^3
#
#
#
# Elastic Constant Matrix: (Units=GPa)
#
#
# Indices 1 2 3 4 5 6 
#
# 1 87.9643 17.2736 21.5207 0.0000 12.7553 0.0000
# 2 17.2736 55.1514 14.3843 0.0000 26.3402 0.0000
# 3 21.5207 14.3843 79.2731 0.0000 -7.1787 0.0000
# 4 0.0000 0.0000 0.0000 20.9865 0.0000 13.5597
# 5 12.7553 26.3402 -7.1787 0.0000 51.1332 0.0000
# 6 0.0000 0.0000 0.0000 13.5597 0.0000 22.9252
#
#
#
# Elastic Compliance Matrix: (Units=1/GPa)
#
#
# Indices 1 2 3 4 5 6 
#
# 1 0.012973 -0.001844 -0.003438 0.000000 -0.002769 0.000000
# 2 -0.001844 0.026996 -0.005688 0.000000 -0.014245 0.000000
# 3 -0.003438 -0.005688 0.015115 0.000000 0.005910 0.000000
# 4 0.000000 0.000000 0.000000 0.077123 0.000000 -0.045616
# 5 -0.002769 -0.014245 0.005910 0.000000 0.028415 0.000000
# 6 0.000000 0.000000 0.000000 -0.045616 0.000000 0.070601
#
#
# Mechanical properties :
#
#
# Convention : Reuss Voigt Hill
#
# Bulk Modulus (GPa) = 30.17081 36.52732 33.34907
# Shear Modulus (GPa) = 18.92420 30.28967 24.60693
#
# Velocity S-wave (km/s) = 3.01926 3.81978 3.44287
# Velocity P-wave (km/s) = 5.16605 6.08685 5.64526
#
# Compressibility (1/GPa) = 0.03314462
#
# Stress axis : x y z
#
# Youngs Moduli (GPa) = 77.08329 37.04191 66.15863
#
# Poissons Ratio (x) = 0.06831 0.22745
# Poissons Ratio (y) = 0.14215 0.37631
# Poissons Ratio (z) = 0.26501 0.21069
#
# Static dielectric constant tensor:
#      x y z
#    x 3.987980 0.000000 -0.053530 
#    y 0.000000 3.401710 0.000000 
#    z -0.053530 0.000000 3.854110 
# 
# 
# High freq. dielectric constant tensor:
#      x y z
#    x 1.834240 0.000000 -0.005020 
#    y 0.000000 1.795720 0.000000 
#    z -0.005020 0.000000 1.825840 
# 
# From -- ./inp_files/4575.got.cif
#   From: 2010.03.12/outbox.cif.g09.slc.cpg/sg4_3_cif.got.tgz:4575.got - 2010.03.31 09:31:35.
