data_PCOD8047403
_publ_section_title
;
Structure prediction by ZEFSAII (Michael W. Deem and Ramdas Pophale) SiO2 
 PCOD8047403
Probable space group: P 21
;
_chemical_formula_sum "Si O2"
_cell_formula_units_Z 12
_cell_length_a 9.820480
_cell_length_b 4.995102
_cell_length_c 19.678689
_cell_angle_alpha 90.000000
_cell_angle_beta 31.664852
_cell_angle_gamma 90.000000
_cell_volume 506.746628
_symmetry_space_group_name_H-M "P 21"
_symmetry_group_IT_number 4
_symmetry_cell_setting 'monoclinic'
loop_
_space_group_symop_operation_xyz
x,y,z
-x,1/2+y,-z
loop_
_atom_site_type_symbol
_atom_site_label
_atom_site_fract_x
_atom_site_fract_y
_atom_site_fract_z
Si Si1 0.325375 0.412140 0.806592
Si Si2 0.143365 0.131175 0.420852
Si Si3 0.452384 0.315821 0.909079
Si Si4 0.219152 0.303410 0.237953
Si Si5 0.890846 0.387581 0.170212
Si Si6 0.663288 0.368680 0.410341
O O1 0.600079 0.497337 0.655732
O O2 0.368838 0.349160 0.866403
O O3 0.140764 0.669871 0.876525
O O4 0.193902 0.173501 0.821659
O O5 0.202871 0.282148 0.325806
O O6 0.050072 0.377421 0.508423
O O7 0.675233 0.524351 0.836845
O O8 0.568387 0.024375 0.872930
O O9 0.194697 0.377176 0.062915
O O10 0.936709 0.375820 0.332069
O O11 0.715183 0.310946 0.309183
O O12 0.529283 0.654466 0.475709
#
# Coordination Sequence:
#
# PCOD8047403 Si02
#       6
#     2   2   2   2   2   2
#     4  11  23  41  65 108 137 166 226 275 340 403
#     4  11  23  38  66  99 136 184 221 272 340 398
#     4  11  23  45  71 103 134 171 225 284 340 390
#     4  11  25  45  67  97 138 173 229 283 322 400
#     4  12  25  43  72  99 136 185 216 276 342 397
#     4  12  29  48  67  96 137 181 227 276 328 402
#
# _framework density 23.680474
#
# number of rings (size 3 to 8) (size 9 to 14) (size 15 to 20)
#    0.000    0.667    0.000    9.000    7.000    1.333 
#    0.000    0.000    0.000    0.000    0.000    0.000 
#    0.000    0.000    0.000    0.000    0.000    0.000 
#
# Total GULP energy -148816.970788 kJ/mol
# GULP energy per Si atom -12401.414232 kJ/mol
# Density = 2.362658 g / cm^3
# Si number density = 23.680474 Si / 1000 Ang^3
#
#
#
# Elastic Constant Matrix: (Units=GPa)
#
#
# Indices 1 2 3 4 5 6 
#
# 1 4.1856 -5.3416 34.1050 0.0000 -17.8962 0.0000
# 2 -5.3416 137.7770 45.1907 0.0000 -12.5274 0.0000
# 3 34.1050 45.1907 120.0555 0.0000 -16.8786 0.0000
# 4 0.0000 0.0000 0.0000 52.8198 0.0000 -19.0646
# 5 -17.8962 -12.5274 -16.8786 0.0000 35.0021 0.0000
# 6 0.0000 0.0000 0.0000 -19.0646 0.0000 25.2196
#
#
#
# Elastic Compliance Matrix: (Units=1/GPa)
#
#
# Indices 1 2 3 4 5 6 
#
# 1 -0.069775 -0.012052 0.020099 0.000000 -0.030297 0.000000
# 2 -0.012052 0.006280 0.000547 0.000000 -0.003651 0.000000
# 3 0.020099 0.000547 0.004169 0.000000 0.012482 0.000000
# 4 0.000000 0.000000 0.000000 0.026036 0.000000 0.019682
# 5 -0.030297 -0.003651 0.012482 0.000000 0.017792 0.000000
# 6 0.000000 0.000000 0.000000 0.019682 0.000000 0.054530
#
#
# Mechanical properties :
#
#
# Convention : Reuss Voigt Hill
#
# Bulk Modulus (GPa) = -23.73022 45.54737 10.90858
# Shear Modulus (GPa) = 641.23140 35.14591 338.18866
#
# Velocity S-wave (km/s) = 16.47339 3.85668 11.96342
# Velocity P-wave (km/s) = 18.75600 6.25363 13.98026
#
# Compressibility (1/GPa) = -0.04214036
#
# Stress axis : x y z
#
# Youngs Moduli (GPa) = -14.33171 159.24787 239.86868
#
# Poissons Ratio (x) = 1.91931 -4.82107
# Poissons Ratio (y) = -0.17273 -0.13115
# Poissons Ratio (z) = 0.28805 -0.08707
#
# Static dielectric constant tensor:
#      x y z
#    x 3.996830 0.000000 -0.123210 
#    y 0.000000 4.405430 0.000000 
#    z -0.123210 0.000000 4.773900 
# 
# 
# High freq. dielectric constant tensor:
#      x y z
#    x 1.916450 0.000000 -0.011970 
#    y 0.000000 1.955710 0.000000 
#    z -0.011970 0.000000 1.958440 
# 
# From -- ./inp_files/15537.got.cif
#   From: 2010.03.12/outbox.cif.g09.slc.cpg/sg4_8_cif.got.tgz:15537.got - 2010.03.31 09:31:35.
