data_PCOD8047166
_publ_section_title
;
Structure prediction by ZEFSAII (Michael W. Deem and Ramdas Pophale) SiO2 
 PCOD8047166
Probable space group: P 21
;
_chemical_formula_sum "Si O2"
_cell_formula_units_Z 16
_cell_length_a 8.993023
_cell_length_b 9.374292
_cell_length_c 9.072221
_cell_angle_alpha 90.000000
_cell_angle_beta 126.829908
_cell_angle_gamma 90.000000
_cell_volume 612.174114
_symmetry_space_group_name_H-M "P 21"
_symmetry_group_IT_number 4
_symmetry_cell_setting 'monoclinic'
loop_
_space_group_symop_operation_xyz
x,y,z
-x,1/2+y,-z
loop_
_atom_site_type_symbol
_atom_site_label
_atom_site_fract_x
_atom_site_fract_y
_atom_site_fract_z
Si Si1 0.210648 0.784370 0.930647
Si Si2 0.289473 0.427097 0.677362
Si Si3 0.755701 0.291522 0.719759
Si Si4 0.897594 0.999672 0.716680
Si Si5 0.677994 0.610484 0.323206
Si Si6 0.432178 0.368341 0.307381
Si Si7 0.463572 0.162505 0.067409
Si Si8 0.995522 0.514173 0.712607
O O1 0.367349 0.756473 0.900603
O O2 0.104055 0.933436 0.840925
O O3 0.061021 0.657721 0.830214
O O4 0.308786 0.787742 0.148661
O O5 0.172477 0.517015 0.491375
O O6 0.338211 0.274799 0.635476
O O7 0.476956 0.512854 0.824789
O O8 0.168294 0.419113 0.756355
O O9 0.578051 0.293150 0.505439
O O10 0.879668 0.431680 0.767412
O O11 0.893280 0.158956 0.775948
O O12 0.759708 0.897709 0.726023
O O13 0.507494 0.519111 0.288142
O O14 0.870067 0.546066 0.494305
O O15 0.679242 0.617067 0.145523
O O16 0.378392 0.261348 0.143533
#
# Coordination Sequence:
#
# PCOD8047166 Si02
#       8
#     2   2   2   2   2   2   2   2
#     4  11  25  45  74 106 142 181 236 296 361 425
#     4  11  25  44  72 103 143 188 234 294 360 419
#     4  11  25  45  72  98 146 184 235 295 353 423
#     4  12  26  44  71 102 144 189 233 295 357 420
#     4  11  24  44  74 100 143 186 235 300 342 423
#     4  11  27  46  71 105 141 189 240 290 360 423
#     4  11  25  49  74 109 138 186 243 293 356 433
#     4  10  25  45  72 109 141 187 236 293 359 430
#
# _framework density 26.136355999999999
#
# number of rings (size 3 to 8) (size 9 to 14) (size 15 to 20)
#    0.000    1.000    2.500    2.250    8.750    3.000 
#    0.000    0.000    0.000    0.000    0.000    0.000 
#    0.000    0.000    0.000    0.000    0.000    0.000 
#
# Total GULP energy -198436.026913 kJ/mol
# GULP energy per Si atom -12402.251682 kJ/mol
# Density = 2.607687 g / cm^3
# Si number density = 26.136356 Si / 1000 Ang^3
#
#
#
# Elastic Constant Matrix: (Units=GPa)
#
#
# Indices 1 2 3 4 5 6 
#
# 1 68.4675 14.6089 1.1129 0.0000 -8.5330 0.0000
# 2 14.6089 104.6737 11.3417 0.0000 6.0211 0.0000
# 3 1.1129 11.3417 134.5450 0.0000 -11.1691 0.0000
# 4 0.0000 0.0000 0.0000 39.8806 0.0000 -7.7587
# 5 -8.5330 6.0211 -11.1691 0.0000 28.9297 0.0000
# 6 0.0000 0.0000 0.0000 -7.7587 0.0000 32.2972
#
#
#
# Elastic Compliance Matrix: (Units=1/GPa)
#
#
# Indices 1 2 3 4 5 6 
#
# 1 0.015821 -0.002577 0.000535 0.000000 0.005410 0.000000
# 2 -0.002577 0.010225 -0.001116 0.000000 -0.003319 0.000000
# 3 0.000535 -0.001116 0.007805 0.000000 0.003403 0.000000
# 4 0.000000 0.000000 0.000000 0.026304 0.000000 0.006319
# 5 0.005410 -0.003319 0.003403 0.000000 0.038167 0.000000
# 6 0.000000 0.000000 0.000000 0.006319 0.000000 0.032480
#
#
# Mechanical properties :
#
#
# Convention : Reuss Voigt Hill
#
# Bulk Modulus (GPa) = 36.31785 40.20146 38.25965
# Shear Modulus (GPa) = 34.17723 38.92969 36.55346
#
# Velocity S-wave (km/s) = 3.62007 3.86357 3.74380
# Velocity P-wave (km/s) = 5.60347 5.94287 5.77567
#
# Compressibility (1/GPa) = 0.02753467
#
# Stress axis : x y z
#
# Youngs Moduli (GPa) = 63.20772 97.79884 128.12865
#
# Poissons Ratio (x) = 0.25205 -0.06861
# Poissons Ratio (y) = 0.16290 0.14301
# Poissons Ratio (z) = -0.03385 0.10916
#
# Static dielectric constant tensor:
#      x y z
#    x 4.391330 0.000000 -0.035210 
#    y 0.000000 4.757720 0.000000 
#    z -0.035210 0.000000 4.876980 
# 
# 
# High freq. dielectric constant tensor:
#      x y z
#    x 2.042780 0.000000 -0.002600 
#    y 0.000000 2.057210 0.000000 
#    z -0.002600 0.000000 2.055470 
# 
# From -- ./inp_files/5860.got.cif
#   From: 2010.03.12/outbox.cif.g09.slc.cpg/sg4_3_cif.got.tgz:5860.got - 2010.03.31 09:31:35.
