data_PCOD8047359
_publ_section_title
;
Structure prediction by ZEFSAII (Michael W. Deem and Ramdas Pophale) SiO2 
 PCOD8047359
Probable space group: P 21
;
_chemical_formula_sum "Si O2"
_cell_formula_units_Z 10
_cell_length_a 7.474193
_cell_length_b 7.464870
_cell_length_c 10.370755
_cell_angle_alpha 90.000000
_cell_angle_beta 44.942980
_cell_angle_gamma 90.000000
_cell_volume 408.742032
_symmetry_space_group_name_H-M "P 21"
_symmetry_group_IT_number 4
_symmetry_cell_setting 'monoclinic'
loop_
_space_group_symop_operation_xyz
x,y,z
-x,1/2+y,-z
loop_
_atom_site_type_symbol
_atom_site_label
_atom_site_fract_x
_atom_site_fract_y
_atom_site_fract_z
Si Si1 0.730430 0.211230 0.283287
Si Si2 0.230324 0.841213 0.166133
Si Si3 0.736737 0.959531 0.520679
Si Si4 0.402943 0.129203 0.879848
Si Si5 0.966458 0.058058 0.928117
O O1 0.458883 0.303612 0.415443
O O2 0.965276 0.353773 0.147290
O O3 0.739131 0.117220 0.415266
O O4 0.763617 0.067616 0.149649
O O5 0.503407 0.810675 0.096610
O O6 0.020278 0.881436 0.381961
O O7 0.148188 0.661490 0.134304
O O8 0.248542 0.003743 0.056780
O O9 0.663053 0.034707 0.698857
O O10 0.226765 0.156180 0.843968
#
# Coordination Sequence:
#
# PCOD8047359 Si02
#       5
#     2   2   2   2   2
#     4  11  22  43  77 107 142 186 241 284 365 420
#     4  12  26  46  72 102 146 188 240 292 359 418
#     4  11  23  46  70 108 141 185 240 296 349 429
#     4  11  27  44  70 105 140 188 242 289 357 426
#     4  11  22  47  75 100 143 189 231 295 354 423
#
# _framework density 24.465308
#
# number of rings (size 3 to 8) (size 9 to 14) (size 15 to 20)
#    0.000    0.800    6.000    2.400    2.800    3.200 
#    0.000    0.000    0.000    0.000    0.000    0.000 
#    0.000    0.000    0.000    0.000    0.000    0.000 
#
# Total GULP energy -123982.984504 kJ/mol
# GULP energy per Si atom -12398.298450 kJ/mol
# Density = 2.440962 g / cm^3
# Si number density = 24.465308 Si / 1000 Ang^3
#
#
#
# Elastic Constant Matrix: (Units=GPa)
#
#
# Indices 1 2 3 4 5 6 
#
# 1 47.3565 -4.3720 -15.3565 0.0000 -3.0281 0.0000
# 2 -4.3720 70.1697 14.8615 0.0000 -10.3151 0.0000
# 3 -15.3565 14.8615 126.7893 0.0000 -15.2081 0.0000
# 4 0.0000 0.0000 0.0000 57.5537 0.0000 2.1140
# 5 -3.0281 -10.3151 -15.2081 0.0000 21.6158 0.0000
# 6 0.0000 0.0000 0.0000 2.1140 0.0000 28.7952
#
#
#
# Elastic Compliance Matrix: (Units=1/GPa)
#
#
# Indices 1 2 3 4 5 6 
#
# 1 0.022747 0.001641 0.003319 0.000000 0.006305 0.000000
# 2 0.001641 0.015563 -0.000772 0.000000 0.007113 0.000000
# 3 0.003319 -0.000772 0.009165 0.000000 0.006544 0.000000
# 4 0.000000 0.000000 0.000000 0.017422 0.000000 -0.001279
# 5 0.006305 0.007113 0.006544 0.000000 0.055144 0.000000
# 6 0.000000 0.000000 0.000000 -0.001279 0.000000 0.034822
#
#
# Mechanical properties :
#
#
# Convention : Reuss Voigt Hill
#
# Bulk Modulus (GPa) = 17.90489 26.06459 21.98474
# Shear Modulus (GPa) = 30.28398 38.20510 34.24454
#
# Velocity S-wave (km/s) = 3.52210 3.95600 3.74534
# Velocity P-wave (km/s) = 4.88617 5.61635 5.26394
#
# Compressibility (1/GPa) = 0.05585068
#
# Stress axis : x y z
#
# Youngs Moduli (GPa) = 43.96109 64.25662 109.11577
#
# Poissons Ratio (x) = -0.10546 -0.36216
# Poissons Ratio (y) = -0.07215 0.08426
# Poissons Ratio (z) = -0.14591 0.04962
#
# Static dielectric constant tensor:
#      x y z
#    x 4.141650 0.000000 -0.246770 
#    y 0.000000 4.354330 0.000000 
#    z -0.246770 0.000000 4.879900 
# 
# 
# High freq. dielectric constant tensor:
#      x y z
#    x 1.956640 0.000000 -0.012190 
#    y 0.000000 1.970460 0.000000 
#    z -0.012190 0.000000 1.994780 
# 
# From -- ./inp_files/7434.got.cif
#   From: 2010.03.12/outbox.cif.g09.slc.cpg/sg4_4_cif.got.tgz:7434.got - 2010.03.31 09:31:35.
