data_PCOD8047057
_publ_section_title
;
Structure prediction by ZEFSAII (Michael W. Deem and Ramdas Pophale) SiO2 
 PCOD8047057
Probable space group: P 21
;
_chemical_formula_sum "Si O2"
_cell_formula_units_Z 14
_cell_length_a 19.746970
_cell_length_b 4.992854
_cell_length_c 10.247020
_cell_angle_alpha 90.000000
_cell_angle_beta 37.527071
_cell_angle_gamma 90.000000
_cell_volume 615.405437
_symmetry_space_group_name_H-M "P 21"
_symmetry_group_IT_number 4
_symmetry_cell_setting 'monoclinic'
loop_
_space_group_symop_operation_xyz
x,y,z
-x,1/2+y,-z
loop_
_atom_site_type_symbol
_atom_site_label
_atom_site_fract_x
_atom_site_fract_y
_atom_site_fract_z
Si Si1 0.986493 0.925060 0.605160
Si Si2 0.896458 0.411811 0.061208
Si Si3 0.559484 0.104791 0.363833
Si Si4 0.893047 0.656001 0.342649
Si Si5 0.796577 0.921789 0.087876
Si Si6 0.646240 0.686837 0.786886
Si Si7 0.433699 0.683428 0.946053
O O1 0.001561 0.620271 0.536630
O O2 0.080185 0.985705 0.569278
O O3 0.863716 0.967671 0.851381
O O4 0.909200 0.462485 0.194463
O O5 0.818815 0.624784 0.106767
O O6 0.838593 0.123673 0.135114
O O7 0.019840 0.402864 0.806645
O O8 0.530533 0.364254 0.496116
O O9 0.573709 0.221546 0.197064
O O10 0.668375 0.965891 0.255448
O O11 0.766984 0.757365 0.545125
O O12 0.561874 0.711149 0.794352
O O13 0.641900 0.397413 0.861577
O O14 0.613973 0.893194 0.948771
#
# Coordination Sequence:
#
# PCOD8047057 Si02
#       7
#     2   2   2   2   2   2   2
#     4  11  25  41  65  98 134 173 223 269 347 421
#     4  11  25  46  68 107 137 178 243 281 340 420
#     4  12  27  45  75 101 139 189 234 284 360 412
#     4  11  25  44  74  98 137 188 225 288 350 407
#     4  11  26  45  69 100 144 177 226 301 335 408
#     4  10  24  42  74  96 140 179 228 292 343 399
#     4  10  24  47  63 108 135 176 239 283 339 423
#
# _framework density 22.749229
#
# number of rings (size 3 to 8) (size 9 to 14) (size 15 to 20)
#    0.000    1.143    0.000    5.143    8.000    5.714 
#    0.000    0.000    0.000    0.000    0.000    0.000 
#    0.000    0.000    0.000    0.000    0.000    0.000 
#
# Total GULP energy -173677.020794 kJ/mol
# GULP energy per Si atom -12405.501485 kJ/mol
# Density = 2.269745 g / cm^3
# Si number density = 22.749229 Si / 1000 Ang^3
#
#
#
# Elastic Constant Matrix: (Units=GPa)
#
#
# Indices 1 2 3 4 5 6 
#
# 1 89.3547 -0.4248 41.9413 0.0000 2.4186 0.0000
# 2 -0.4248 63.3216 6.4768 0.0000 0.9276 0.0000
# 3 41.9413 6.4768 87.9728 0.0000 -14.3894 0.0000
# 4 0.0000 0.0000 0.0000 30.7441 0.0000 1.0038
# 5 2.4186 0.9276 -14.3894 0.0000 41.1779 0.0000
# 6 0.0000 0.0000 0.0000 1.0038 0.0000 32.2949
#
#
#
# Elastic Compliance Matrix: (Units=1/GPa)
#
#
# Indices 1 2 3 4 5 6 
#
# 1 0.014950 0.000950 -0.007790 0.000000 -0.003622 0.000000
# 2 0.000950 0.015998 -0.001802 0.000000 -0.001046 0.000000
# 3 -0.007790 -0.001802 0.016222 0.000000 0.006167 0.000000
# 4 0.000000 0.000000 0.000000 0.032560 0.000000 -0.001012
# 5 -0.003622 -0.001046 0.006167 0.000000 0.026676 0.000000
# 6 0.000000 0.000000 0.000000 -0.001012 0.000000 0.030996
#
#
# Mechanical properties :
#
#
# Convention : Reuss Voigt Hill
#
# Bulk Modulus (GPa) = 33.45855 37.40397 35.43126
# Shear Modulus (GPa) = 30.36761 33.68710 32.02736
#
# Velocity S-wave (km/s) = 3.65757 3.85229 3.75619
# Velocity P-wave (km/s) = 5.70759 6.02200 5.86690
#
# Compressibility (1/GPa) = 0.02988772
#
# Stress axis : x y z
#
# Youngs Moduli (GPa) = 66.88806 62.50624 61.64313
#
# Poissons Ratio (x) = -0.05939 0.48020
# Poissons Ratio (y) = -0.06355 0.11107
# Poissons Ratio (z) = 0.52106 0.11263
#
# Static dielectric constant tensor:
#      x y z
#    x 4.014180 0.000000 -0.067150 
#    y 0.000000 4.094790 0.000000 
#    z -0.067150 0.000000 4.069060 
# 
# 
# High freq. dielectric constant tensor:
#      x y z
#    x 1.901920 0.000000 0.000870 
#    y 0.000000 1.906710 0.000000 
#    z 0.000870 0.000000 1.897220 
# 
# From -- ./inp_files/9451.got.cif
#   From: 2010.03.12/outbox.cif.g09.slc.cpg/sg4_5_cif.got.tgz:9451.got - 2010.03.31 09:31:35.
