data_PCOD8047495
_publ_section_title
;
Structure prediction by ZEFSAII (Michael W. Deem and Ramdas Pophale) SiO2 
 PCOD8047495
Probable space group: P 21
;
_chemical_formula_sum "Si O2"
_cell_formula_units_Z 16
_cell_length_a 11.371700
_cell_length_b 8.654261
_cell_length_c 13.735035
_cell_angle_alpha 90.000000
_cell_angle_beta 148.875579
_cell_angle_gamma 90.000000
_cell_volume 698.699145
_symmetry_space_group_name_H-M "P 21"
_symmetry_group_IT_number 4
_symmetry_cell_setting 'monoclinic'
loop_
_space_group_symop_operation_xyz
x,y,z
-x,1/2+y,-z
loop_
_atom_site_type_symbol
_atom_site_label
_atom_site_fract_x
_atom_site_fract_y
_atom_site_fract_z
Si Si1 0.033662 0.187720 0.747360
Si Si2 0.452598 0.587983 0.574163
Si Si3 0.001403 0.670871 0.632067
Si Si4 0.833044 0.485596 0.333000
Si Si5 0.198012 0.662875 0.090775
Si Si6 0.687825 0.992185 0.020740
Si Si7 0.847727 0.502513 0.981593
Si Si8 0.373731 0.249642 0.481130
O O1 0.122948 0.128194 0.707537
O O2 0.134264 0.353697 0.842672
O O3 0.758534 0.200074 0.549373
O O4 0.114270 0.067994 0.885370
O O5 0.585841 0.539905 0.766737
O O6 0.348451 0.433889 0.450689
O O7 0.629580 0.672714 0.627744
O O8 0.242841 0.620177 0.849475
O O9 0.912221 0.539938 0.495311
O O10 0.827131 0.679110 0.597737
O O11 0.020766 0.836056 0.593219
O O12 0.568896 0.438559 0.142869
O O13 0.384541 0.709605 0.301365
O O14 0.102021 0.819916 0.974529
O O15 0.302289 0.556089 0.081341
O O16 0.003177 0.572813 0.008261
#
# Coordination Sequence:
#
# PCOD8047495 Si02
#       8
#     2   2   2   2   2   2   2   2
#     4  12  26  46  69 103 141 183 239 285 349 424
#     4  11  26  43  72 105 143 184 229 288 362 421
#     4  12  26  49  75 102 144 188 238 295 349 413
#     4  12  27  50  72 103 141 189 240 293 345 414
#     4  11  23  45  69 106 142 182 232 288 357 426
#     4  12  27  45  73 103 138 187 239 292 351 416
#     4  11  25  42  70 103 144 184 226 292 358 422
#     4  11  24  46  72 105 145 183 229 293 353 426
#
# _framework density 22.899698000000001
#
# number of rings (size 3 to 8) (size 9 to 14) (size 15 to 20)
#    0.000    0.500    3.750    3.750    5.250    4.000 
#    0.000    0.000    0.000    0.000    0.000    0.000 
#    0.000    0.000    0.000    0.000    0.000    0.000 
#
# Total GULP energy -198529.886720 kJ/mol
# GULP energy per Si atom -12408.117920 kJ/mol
# Density = 2.284758 g / cm^3
# Si number density = 22.899698 Si / 1000 Ang^3
#
#
#
# Elastic Constant Matrix: (Units=GPa)
#
#
# Indices 1 2 3 4 5 6 
#
# 1 95.4991 10.7403 19.8370 0.0000 13.8600 0.0000
# 2 10.7403 75.4146 -0.5284 0.0000 13.2318 0.0000
# 3 19.8370 -0.5284 56.9939 0.0000 11.5226 0.0000
# 4 0.0000 0.0000 0.0000 34.0691 0.0000 0.9914
# 5 13.8600 13.2318 11.5226 0.0000 30.4373 0.0000
# 6 0.0000 0.0000 0.0000 0.9914 0.0000 39.0282
#
#
#
# Elastic Compliance Matrix: (Units=1/GPa)
#
#
# Indices 1 2 3 4 5 6 
#
# 1 0.011823 -0.001070 -0.003390 0.000000 -0.003636 0.000000
# 2 -0.001070 0.014573 0.001830 0.000000 -0.006541 0.000000
# 3 -0.003390 0.001830 0.020132 0.000000 -0.006873 0.000000
# 4 0.000000 0.000000 0.000000 0.029374 0.000000 -0.000746
# 5 -0.003636 -0.006541 -0.006873 0.000000 0.039955 0.000000
# 6 0.000000 0.000000 0.000000 -0.000746 0.000000 0.025641
#
#
# Mechanical properties :
#
#
# Convention : Reuss Voigt Hill
#
# Bulk Modulus (GPa) = 24.23167 32.00059 28.11613
# Shear Modulus (GPa) = 31.14970 33.89751 32.52360
#
# Velocity S-wave (km/s) = 3.69218 3.85159 3.77273
# Velocity P-wave (km/s) = 5.36478 5.81242 5.59308
#
# Compressibility (1/GPa) = 0.04126830
#
# Stress axis : x y z
#
# Youngs Moduli (GPa) = 84.57780 68.62105 49.67165
#
# Poissons Ratio (x) = 0.07341 0.16839
# Poissons Ratio (y) = 0.09048 -0.09089
# Poissons Ratio (z) = 0.28673 -0.12556
#
# Static dielectric constant tensor:
#      x y z
#    x 4.034040 0.000000 -0.044710 
#    y 0.000000 4.201580 0.000000 
#    z -0.044710 0.000000 4.316160 
# 
# 
# High freq. dielectric constant tensor:
#      x y z
#    x 1.904000 0.000000 -0.003380 
#    y 0.000000 1.911590 0.000000 
#    z -0.003380 0.000000 1.922130 
# 
# From -- ./inp_files/12556.got.cif
#   From: 2010.03.12/outbox.cif.g09.slc.cpg/sg4_7_cif.got.tgz:12556.got - 2010.03.31 09:31:35.
