data_PCOD8047302
_publ_section_title
;
Structure prediction by ZEFSAII (Michael W. Deem and Ramdas Pophale) SiO2 
 PCOD8047302
Probable space group: P 21
;
_chemical_formula_sum "Si O2"
_cell_formula_units_Z 16
_cell_length_a 10.797547
_cell_length_b 8.551244
_cell_length_c 13.832088
_cell_angle_alpha 90.000000
_cell_angle_beta 147.192865
_cell_angle_gamma 90.000000
_cell_volume 691.976699
_symmetry_space_group_name_H-M "P 21"
_symmetry_group_IT_number 4
_symmetry_cell_setting 'monoclinic'
loop_
_space_group_symop_operation_xyz
x,y,z
-x,1/2+y,-z
loop_
_atom_site_type_symbol
_atom_site_label
_atom_site_fract_x
_atom_site_fract_y
_atom_site_fract_z
Si Si1 0.531207 0.700620 0.653072
Si Si2 0.358154 0.798608 0.018708
Si Si3 0.335674 0.519156 0.353877
Si Si4 0.178939 0.875403 0.546104
Si Si5 0.011006 0.877976 0.644453
Si Si6 0.188031 0.097886 0.993044
Si Si7 0.803980 0.724543 0.193438
Si Si8 0.578835 0.685640 0.343664
O O1 0.421533 0.561718 0.517878
O O2 0.362756 0.753534 0.627127
O O3 0.752039 0.639615 0.856955
O O4 0.590624 0.843562 0.621662
O O5 0.120529 0.775784 0.804346
O O6 0.368776 0.978463 0.061982
O O7 0.554753 0.745274 0.074361
O O8 0.379881 0.702524 0.132499
O O9 0.452036 0.643047 0.358636
O O10 0.063995 0.524702 0.169687
O O11 0.127185 0.825043 0.621150
O O12 0.951185 0.865665 0.332427
O O13 0.254584 0.053201 0.587252
O O14 0.738389 0.840190 0.462965
O O15 0.069028 0.060590 0.697958
O O16 0.197785 0.245185 0.924971
#
# Coordination Sequence:
#
# PCOD8047302 Si02
#       8
#     2   2   2   2   2   2   2   2
#     4  11  27  47  75 102 144 194 244 307 360 427
#     4  11  25  41  71 107 141 184 242 297 360 438
#     4  11  28  48  73 106 142 196 251 298 360 437
#     4  11  21  45  68 102 146 183 237 299 360 432
#     4  11  23  42  72 102 145 187 233 297 367 431
#     4  11  27  46  76 105 148 192 242 306 363 432
#     4  11  23  45  71 108 143 186 245 290 365 436
#     4  11  26  44  68 102 143 190 238 298 361 427
#
# _framework density 23.122167000000001
#
# number of rings (size 3 to 8) (size 9 to 14) (size 15 to 20)
#    0.000    1.000    3.750    0.750    8.750    3.000 
#    4.500    0.000    0.000    0.000    0.000    0.000 
#    0.000    0.000    0.000    0.000    0.000    0.000 
#
# Total GULP energy -198328.337856 kJ/mol
# GULP energy per Si atom -12395.521116 kJ/mol
# Density = 2.306954 g / cm^3
# Si number density = 23.122167 Si / 1000 Ang^3
#
#
#
# Elastic Constant Matrix: (Units=GPa)
#
#
# Indices 1 2 3 4 5 6 
#
# 1 98.3101 36.0377 34.7130 0.0000 -6.5324 0.0000
# 2 36.0377 72.0885 34.4235 0.0000 -13.1335 0.0000
# 3 34.7130 34.4235 129.2453 0.0000 -31.5349 0.0000
# 4 0.0000 0.0000 0.0000 31.7084 0.0000 -1.2410
# 5 -6.5324 -13.1335 -31.5349 0.0000 43.5115 0.0000
# 6 0.0000 0.0000 0.0000 -1.2410 0.0000 24.6302
#
#
#
# Elastic Compliance Matrix: (Units=1/GPa)
#
#
# Indices 1 2 3 4 5 6 
#
# 1 0.012964 -0.005629 -0.002335 0.000000 -0.001445 0.000000
# 2 -0.005629 0.018497 -0.002744 0.000000 0.002749 0.000000
# 3 -0.002335 -0.002744 0.010700 0.000000 0.006576 0.000000
# 4 0.000000 0.000000 0.000000 0.031600 0.000000 0.001592
# 5 -0.001445 0.002749 0.006576 0.000000 0.028361 0.000000
# 6 0.000000 0.000000 0.000000 0.001592 0.000000 0.040681
#
#
# Mechanical properties :
#
#
# Convention : Reuss Voigt Hill
#
# Bulk Modulus (GPa) = 48.20584 56.66582 52.43583
# Shear Modulus (GPa) = 29.21707 32.93467 31.07587
#
# Velocity S-wave (km/s) = 3.55857 3.77819 3.67002
# Velocity P-wave (km/s) = 6.14639 6.60252 6.37853
#
# Compressibility (1/GPa) = 0.02074437
#
# Stress axis : x y z
#
# Youngs Moduli (GPa) = 77.13772 54.06310 93.46078
#
# Poissons Ratio (x) = 0.30432 0.21826
# Poissons Ratio (y) = 0.43420 0.25644
# Poissons Ratio (z) = 0.18014 0.14834
#
# Static dielectric constant tensor:
#      x y z
#    x 4.293090 0.000000 -0.230210 
#    y 0.000000 3.971340 0.000000 
#    z -0.230210 0.000000 4.653210 
# 
# 
# High freq. dielectric constant tensor:
#      x y z
#    x 1.926470 0.000000 -0.013270 
#    y 0.000000 1.897920 0.000000 
#    z -0.013270 0.000000 1.923190 
# 
# From -- ./inp_files/13913.got.cif
#   From: 2010.03.12/outbox.cif.g09.slc.cpg/sg4_7_cif.got.tgz:13913.got - 2010.03.31 09:31:35.
