data_PCOD8047417
_publ_section_title
;
Structure prediction by ZEFSAII (Michael W. Deem and Ramdas Pophale) SiO2 
 PCOD8047417
Probable space group: P 21
;
_chemical_formula_sum "Si O2"
_cell_formula_units_Z 16
_cell_length_a 9.029038
_cell_length_b 8.696745
_cell_length_c 11.890267
_cell_angle_alpha 90.000000
_cell_angle_beta 53.789645
_cell_angle_gamma 90.000000
_cell_volume 753.328752
_symmetry_space_group_name_H-M "P 21"
_symmetry_group_IT_number 4
_symmetry_cell_setting 'monoclinic'
loop_
_space_group_symop_operation_xyz
x,y,z
-x,1/2+y,-z
loop_
_atom_site_type_symbol
_atom_site_label
_atom_site_fract_x
_atom_site_fract_y
_atom_site_fract_z
Si Si1 0.819057 0.220920 0.521783
Si Si2 0.913529 0.544866 0.735052
Si Si3 0.046453 0.491144 0.351906
Si Si4 0.146395 0.247969 0.642900
Si Si5 0.424052 0.324921 0.713775
Si Si6 0.643288 0.674588 0.029183
Si Si7 0.369325 0.129145 0.330613
Si Si8 0.571566 0.867827 0.860927
O O1 0.877310 0.126748 0.604296
O O2 0.600070 0.217935 0.612019
O O3 0.904752 0.145333 0.371602
O O4 0.893495 0.397097 0.492117
O O5 0.760266 0.555050 0.706936
O O6 0.980954 0.369746 0.711538
O O7 0.829193 0.606400 0.890966
O O8 0.204893 0.377657 0.239740
O O9 0.949250 0.580866 0.290710
O O10 0.285298 0.300259 0.675239
O O11 0.253029 0.221278 0.476741
O O12 0.320001 0.272040 0.874287
O O13 0.488649 0.502531 0.686806
O O14 0.513919 0.532598 0.116231
O O15 0.526146 0.786963 0.999798
O O16 0.491508 0.260409 0.214201
#
# Coordination Sequence:
#
# PCOD8047417 Si02
#       8
#     2   2   2   2   2   2   2   2
#     4  12  21  40  72  97 131 171 226 291 327 400
#     4  11  24  44  70  99 132 178 237 285 335 409
#     4  12  21  40  68 105 129 174 231 282 338 396
#     4  12  27  42  68 105 138 180 225 286 356 403
#     4  12  27  44  65 101 145 178 220 284 354 423
#     4  11  24  44  67 102 136 182 223 281 348 406
#     4  11  23  44  70 102 128 179 233 289 336 393
#     4  11  23  40  72 101 131 174 235 286 328 404
#
# _framework density 21.239066999999999
#
# number of rings (size 3 to 8) (size 9 to 14) (size 15 to 20)
#    0.000    0.500    6.250    3.750    3.500    0.000 
#    2.250    0.000    0.000    0.000    0.000    0.000 
#    0.000    0.000    0.000    0.000    0.000    0.000 
#
# Total GULP energy -198337.617642 kJ/mol
# GULP energy per Si atom -12396.101103 kJ/mol
# Density = 2.119073 g / cm^3
# Si number density = 21.239067 Si / 1000 Ang^3
#
#
#
# Elastic Constant Matrix: (Units=GPa)
#
#
# Indices 1 2 3 4 5 6 
#
# 1 83.1806 34.2308 25.8701 0.0000 10.1468 0.0000
# 2 34.2308 102.9990 22.2817 0.0000 3.0366 0.0000
# 3 25.8701 22.2817 105.4706 0.0000 -0.5300 0.0000
# 4 0.0000 0.0000 0.0000 47.0510 0.0000 -6.0171
# 5 10.1468 3.0366 -0.5300 0.0000 20.4304 0.0000
# 6 0.0000 0.0000 0.0000 -6.0171 0.0000 30.2152
#
#
#
# Elastic Compliance Matrix: (Units=1/GPa)
#
#
# Indices 1 2 3 4 5 6 
#
# 1 0.015598 -0.004335 -0.002946 0.000000 -0.007179 0.000000
# 2 -0.004335 0.011429 -0.001349 0.000000 0.000419 0.000000
# 3 -0.002946 -0.001349 0.010499 0.000000 0.001936 0.000000
# 4 0.000000 0.000000 0.000000 0.021809 0.000000 0.004343
# 5 -0.007179 0.000419 0.001936 0.000000 0.052500 0.000000
# 6 0.000000 0.000000 0.000000 0.004343 0.000000 0.033961
#
#
# Mechanical properties :
#
#
# Convention : Reuss Voigt Hill
#
# Bulk Modulus (GPa) = 49.34541 50.71282 50.02912
# Shear Modulus (GPa) = 29.44456 33.49052 31.46754
#
# Velocity S-wave (km/s) = 3.72740 3.97525 3.85332
# Velocity P-wave (km/s) = 6.46594 6.70814 6.58815
#
# Compressibility (1/GPa) = 0.02026531
#
# Stress axis : x y z
#
# Youngs Moduli (GPa) = 64.11108 87.49697 95.24982
#
# Poissons Ratio (x) = 0.37929 0.28062
# Poissons Ratio (y) = 0.27791 0.12850
# Poissons Ratio (z) = 0.18888 0.11804
#
# Static dielectric constant tensor:
#      x y z
#    x 3.534870 0.000000 -0.189010 
#    y 0.000000 4.205510 0.000000 
#    z -0.189010 0.000000 4.036750 
# 
# 
# High freq. dielectric constant tensor:
#      x y z
#    x 1.788780 0.000000 -0.012040 
#    y 0.000000 1.863140 0.000000 
#    z -0.012040 0.000000 1.835240 
# 
# From -- ./inp_files/10846.got.cif
#   From: 2010.03.12/outbox.cif.g09.slc.cpg/sg4_6_cif.got.tgz:10846.got - 2010.03.31 09:31:35.
