data_PCOD8047142
_publ_section_title
;
Structure prediction by ZEFSAII (Michael W. Deem and Ramdas Pophale) SiO2 
 PCOD8047142
Probable space group: P 21
;
_chemical_formula_sum "Si O2"
_cell_formula_units_Z 16
_cell_length_a 6.652834
_cell_length_b 14.237981
_cell_length_c 8.561616
_cell_angle_alpha 90.000000
_cell_angle_beta 123.368279
_cell_angle_gamma 90.000000
_cell_volume 677.293063
_symmetry_space_group_name_H-M "P 21"
_symmetry_group_IT_number 4
_symmetry_cell_setting 'monoclinic'
loop_
_space_group_symop_operation_xyz
x,y,z
-x,1/2+y,-z
loop_
_atom_site_type_symbol
_atom_site_label
_atom_site_fract_x
_atom_site_fract_y
_atom_site_fract_z
Si Si1 0.619002 0.720860 0.478323
Si Si2 0.121951 0.992233 0.938908
Si Si3 0.827377 0.157586 0.878367
Si Si4 0.153206 0.682078 0.751585
Si Si5 0.967813 0.852434 0.122174
Si Si6 0.495064 0.584569 0.681319
Si Si7 0.424891 0.911032 0.484671
Si Si8 0.429755 0.876882 0.845854
O O1 0.455844 0.674796 0.272982
O O2 0.545975 0.683538 0.618638
O O3 0.575899 0.831837 0.459005
O O4 0.895931 0.700120 0.562025
O O5 0.898142 0.062533 0.813045
O O6 0.266553 0.959665 0.848366
O O7 0.282691 0.056841 0.117878
O O8 0.034717 0.896930 0.983614
O O9 0.986048 0.241571 0.873279
O O10 0.869792 0.145192 0.081412
O O11 0.265500 0.598970 0.694881
O O12 0.309093 0.776046 0.812058
O O13 0.138645 0.898246 0.328239
O O14 0.688690 0.872052 0.044310
O O15 0.462342 0.506619 0.533452
O O16 0.472086 0.907203 0.687395
#
# Coordination Sequence:
#
# PCOD8047142 Si02
#       8
#     2   2   2   2   2   2   2   2
#     4  11  25  49  72 105 148 190 236 299 361 428
#     4  11  25  46  73 109 142 189 242 298 357 431
#     4  11  24  48  73 103 150 187 240 302 358 434
#     4  12  25  48  74 105 144 195 241 297 365 427
#     4  10  24  49  68 105 147 182 238 304 358 422
#     4  11  25  48  71 107 149 186 239 306 355 424
#     4  10  25  49  71 105 150 184 241 305 354 432
#     4  12  25  45  78 105 138 199 241 293 372 428
#
# _framework density 23.623452
#
# number of rings (size 3 to 8) (size 9 to 14) (size 15 to 20)
#    0.000    1.000    3.750    1.500    3.500    1.000 
#    9.000    0.000    0.000    0.000    0.000    0.000 
#    0.000    0.000    0.000    0.000    0.000    0.000 
#
# Total GULP energy -198441.600186 kJ/mol
# GULP energy per Si atom -12402.600012 kJ/mol
# Density = 2.356968 g / cm^3
# Si number density = 23.623452 Si / 1000 Ang^3
#
#
#
# Elastic Constant Matrix: (Units=GPa)
#
#
# Indices 1 2 3 4 5 6 
#
# 1 102.7528 40.1500 41.1892 0.0000 23.3450 0.0000
# 2 40.1500 89.4853 29.0405 0.0000 6.3564 0.0000
# 3 41.1892 29.0405 103.1738 0.0000 26.0398 0.0000
# 4 0.0000 0.0000 0.0000 26.9833 0.0000 -4.5828
# 5 23.3450 6.3564 26.0398 0.0000 39.3820 0.0000
# 6 0.0000 0.0000 0.0000 -4.5828 0.0000 42.6426
#
#
#
# Elastic Compliance Matrix: (Units=1/GPa)
#
#
# Indices 1 2 3 4 5 6 
#
# 1 0.014106 -0.005022 -0.002775 0.000000 -0.005716 0.000000
# 2 -0.005022 0.014091 -0.002567 0.000000 0.002400 0.000000
# 3 -0.002775 -0.002567 0.013207 0.000000 -0.006673 0.000000
# 4 0.000000 0.000000 0.000000 0.037749 0.000000 0.004057
# 5 -0.005716 0.002400 -0.006673 0.000000 0.032806 0.000000
# 6 0.000000 0.000000 0.000000 0.004057 0.000000 0.023887
#
#
# Mechanical properties :
#
#
# Convention : Reuss Voigt Hill
#
# Bulk Modulus (GPa) = 48.36719 57.35237 52.85978
# Shear Modulus (GPa) = 30.58760 34.13707 32.36233
#
# Velocity S-wave (km/s) = 3.60223 3.80551 3.70526
# Velocity P-wave (km/s) = 6.14981 6.60603 6.38199
#
# Compressibility (1/GPa) = 0.02067517
#
# Stress axis : x y z
#
# Youngs Moduli (GPa) = 70.89424 70.96750 75.71749
#
# Poissons Ratio (x) = 0.35642 0.21011
# Poissons Ratio (y) = 0.35605 0.19436
# Poissons Ratio (z) = 0.19673 0.18217
#
# Static dielectric constant tensor:
#      x y z
#    x 4.138420 0.000000 0.173270 
#    y 0.000000 4.382070 0.000000 
#    z 0.173270 0.000000 4.333170 
# 
# 
# High freq. dielectric constant tensor:
#      x y z
#    x 1.924020 0.000000 0.013520 
#    y 0.000000 1.947740 0.000000 
#    z 0.013520 0.000000 1.941800 
# 
# From -- ./inp_files/1876.got.cif
#   From: 2010.03.12/outbox.cif.g09.slc.cpg/sg4_1_cif.got.tgz:1876.got - 2010.03.31 09:31:35.
