data_PCOD8047147
_publ_section_title
;
Structure prediction by ZEFSAII (Michael W. Deem and Ramdas Pophale) SiO2 
 PCOD8047147
Probable space group: P 21
;
_chemical_formula_sum "Si O2"
_cell_formula_units_Z 14
_cell_length_a 13.871954
_cell_length_b 8.500285
_cell_length_c 14.543542
_cell_angle_alpha 90.000000
_cell_angle_beta 19.965537
_cell_angle_gamma 90.000000
_cell_volume 585.564337
_symmetry_space_group_name_H-M "P 21"
_symmetry_group_IT_number 4
_symmetry_cell_setting 'monoclinic'
loop_
_space_group_symop_operation_xyz
x,y,z
-x,1/2+y,-z
loop_
_atom_site_type_symbol
_atom_site_label
_atom_site_fract_x
_atom_site_fract_y
_atom_site_fract_z
Si Si1 0.142570 0.791020 0.930594
Si Si2 0.247629 0.631223 0.443821
Si Si3 0.202786 0.996353 0.720459
Si Si4 0.656890 0.977913 0.455111
Si Si5 0.662581 0.488525 0.933471
Si Si6 0.151609 0.982906 0.558432
Si Si7 0.561692 0.123011 0.053390
O O1 0.056849 0.615666 0.031667
O O2 0.958505 0.914350 0.154505
O O3 0.100691 0.831150 0.858618
O O4 0.470531 0.829335 0.661811
O O5 0.298177 0.607057 0.506791
O O6 0.176854 0.812865 0.488501
O O7 0.994747 0.524083 0.631863
O O8 0.529328 0.586440 0.136544
O O9 0.482566 0.057437 0.525711
O O10 0.281951 0.975200 0.543762
O O11 0.516137 0.538749 0.970997
O O12 0.623553 0.304347 0.982145
O O13 0.312574 0.108879 0.351097
O O14 0.829139 0.034500 0.856346
#
# Coordination Sequence:
#
# PCOD8047147 Si02
#       7
#     2   2   2   2   2   2   2
#     4  10  25  41  67  96 141 188 237 290 350 413
#     4  12  26  47  77 109 143 199 238 307 360 446
#     4  10  28  42  73  97 153 182 249 288 357 420
#     4  10  26  42  70  99 145 185 241 283 358 417
#     4  12  27  51  79 104 151 183 250 297 379 430
#     4  12  28  45  77 109 150 188 252 292 378 422
#     4  12  28  50  75 112 141 195 235 315 360 450
#
# _framework density 23.908560000000001
#
# number of rings (size 3 to 8) (size 9 to 14) (size 15 to 20)
#    0.857    0.000    0.000    5.143   14.000    0.000 
#    0.000    0.000    0.000    0.000    0.000    0.000 
#    0.000    0.000    0.000    0.000    0.000    0.000 
#
# Total GULP energy -173644.916199 kJ/mol
# GULP energy per Si atom -12403.208300 kJ/mol
# Density = 2.385414 g / cm^3
# Si number density = 23.908560 Si / 1000 Ang^3
#
#
#
# Elastic Constant Matrix: (Units=GPa)
#
#
# Indices 1 2 3 4 5 6 
#
# 1 109.7892 14.6298 18.3198 0.0000 7.4226 0.0000
# 2 14.6298 106.5602 -6.1478 0.0000 2.9038 0.0000
# 3 18.3198 -6.1478 68.2598 0.0000 5.3870 0.0000
# 4 0.0000 0.0000 0.0000 32.4095 0.0000 -1.6498
# 5 7.4226 2.9038 5.3870 0.0000 40.9794 0.0000
# 6 0.0000 0.0000 0.0000 -1.6498 0.0000 27.3337
#
#
#
# Elastic Compliance Matrix: (Units=1/GPa)
#
#
# Indices 1 2 3 4 5 6 
#
# 1 0.009839 -0.001469 -0.002668 0.000000 -0.001327 0.000000
# 2 -0.001469 0.009678 0.001313 0.000000 -0.000592 0.000000
# 3 -0.002668 0.001313 0.015615 0.000000 -0.001662 0.000000
# 4 0.000000 0.000000 0.000000 0.030950 0.000000 0.001868
# 5 -0.001327 -0.000592 -0.001662 0.000000 0.024903 0.000000
# 6 0.000000 0.000000 0.000000 0.001868 0.000000 0.036698
#
#
# Mechanical properties :
#
#
# Convention : Reuss Voigt Hill
#
# Bulk Modulus (GPa) = 33.91685 37.57921 35.74803
# Shear Modulus (GPa) = 34.92597 37.33168 36.12883
#
# Velocity S-wave (km/s) = 3.82621 3.95579 3.89154
# Velocity P-wave (km/s) = 5.80833 6.05114 5.93098
#
# Compressibility (1/GPa) = 0.02948387
#
# Stress axis : x y z
#
# Youngs Moduli (GPa) = 101.63627 103.32870 64.03929
#
# Poissons Ratio (x) = 0.15175 0.17087
# Poissons Ratio (y) = 0.14926 -0.08405
# Poissons Ratio (z) = 0.27118 -0.13562
#
# Static dielectric constant tensor:
#      x y z
#    x 4.231950 0.000000 0.091960 
#    y 0.000000 4.139380 0.000000 
#    z 0.091960 0.000000 4.411410 
# 
# 
# High freq. dielectric constant tensor:
#      x y z
#    x 1.945970 0.000000 0.007640 
#    y 0.000000 1.948490 0.000000 
#    z 0.007640 0.000000 1.962060 
# 
# From -- ./inp_files/14167.got.cif
#   From: 2010.03.12/outbox.cif.g09.slc.cpg/sg4_8_cif.got.tgz:14167.got - 2010.03.31 09:31:35.
