data_PCOD8047896
_publ_section_title
;
Structure prediction by ZEFSAII (Michael W. Deem and Ramdas Pophale) SiO2 
 PCOD8047896
Probable space group: P 21
;
_chemical_formula_sum "Si O2"
_cell_formula_units_Z 14
_cell_length_a 8.667902
_cell_length_b 8.142613
_cell_length_c 11.105469
_cell_angle_alpha 90.000000
_cell_angle_beta 136.711404
_cell_angle_gamma 90.000000
_cell_volume 537.442550
_symmetry_space_group_name_H-M "P 21"
_symmetry_group_IT_number 4
_symmetry_cell_setting 'monoclinic'
loop_
_space_group_symop_operation_xyz
x,y,z
-x,1/2+y,-z
loop_
_atom_site_type_symbol
_atom_site_label
_atom_site_fract_x
_atom_site_fract_y
_atom_site_fract_z
Si Si1 0.874870 0.011780 0.780090
Si Si2 0.545321 0.151860 0.764496
Si Si3 0.892224 0.679406 0.629566
Si Si4 0.356391 0.997450 0.131287
Si Si5 0.439936 0.455610 0.012174
Si Si6 0.267013 0.736743 0.663560
Si Si7 0.964624 0.331467 0.698978
O O1 0.664397 0.009173 0.751886
O O2 0.838246 0.172667 0.678120
O O3 0.882492 0.841431 0.708474
O O4 0.097868 0.054254 0.984603
O O5 0.287217 0.178071 0.579871
O O6 0.651436 0.329908 0.798042
O O7 0.605738 0.126940 0.941949
O O8 0.865128 0.508430 0.690157
O O9 0.136307 0.653269 0.702874
O O10 0.548355 0.117264 0.295870
O O11 0.424717 0.984236 0.030722
O O12 0.600269 0.388914 0.208467
O O13 0.231525 0.331208 0.875367
O O14 0.082884 0.814233 0.470341
#
# Coordination Sequence:
#
# PCOD8047896 Si02
#       7
#     2   2   2   2   2   2   2
#     4  12  30  50  78 115 163 217 260 323 406 485
#     4  12  30  49  77 116 164 214 260 328 408 476
#     4  12  27  49  79 115 164 201 270 330 391 472
#     4  12  25  49  79 115 160 203 272 332 390 476
#     4  12  24  49  78 117 156 203 268 332 394 470
#     4  12  25  46  80 122 152 206 266 338 397 459
#     4  12  27  48  79 116 159 204 266 325 398 472
#
# _framework density 26.049296999999999
#
# number of rings (size 3 to 8) (size 9 to 14) (size 15 to 20)
#    0.000    0.000    5.714    3.429    8.000    0.000 
#    2.571    0.000    0.000    0.000    0.000    0.000 
#    0.000    0.000    0.000    0.000    0.000    0.000 
#
# Total GULP energy -173477.244935 kJ/mol
# GULP energy per Si atom -12391.231781 kJ/mol
# Density = 2.599001 g / cm^3
# Si number density = 26.049297 Si / 1000 Ang^3
#
#
#
# Elastic Constant Matrix: (Units=GPa)
#
#
# Indices 1 2 3 4 5 6 
#
# 1 46.5440 13.7990 17.1661 0.0000 12.4498 0.0000
# 2 13.7990 152.6330 12.1213 0.0000 -2.7546 0.0000
# 3 17.1661 12.1213 135.8926 0.0000 10.0974 0.0000
# 4 0.0000 0.0000 0.0000 49.5354 0.0000 -3.6129
# 5 12.4498 -2.7546 10.0974 0.0000 27.3617 0.0000
# 6 0.0000 0.0000 0.0000 -3.6129 0.0000 37.0669
#
#
#
# Elastic Compliance Matrix: (Units=1/GPa)
#
#
# Indices 1 2 3 4 5 6 
#
# 1 0.026027 -0.002378 -0.002239 0.000000 -0.011255 0.000000
# 2 -0.002378 0.006838 -0.000453 0.000000 0.001938 0.000000
# 3 -0.002239 -0.000453 0.007824 0.000000 -0.001914 0.000000
# 4 0.000000 0.000000 0.000000 0.020332 0.000000 0.001982
# 5 -0.011255 0.001938 -0.001914 0.000000 0.042570 0.000000
# 6 0.000000 0.000000 0.000000 0.001982 0.000000 0.027171
#
#
# Mechanical properties :
#
#
# Convention : Reuss Voigt Hill
#
# Bulk Modulus (GPa) = 32.73685 46.80470 39.77078
# Shear Modulus (GPa) = 33.09362 42.25837 37.67600
#
# Velocity S-wave (km/s) = 3.56817 4.03208 3.80720
# Velocity P-wave (km/s) = 5.43786 6.29950 5.88447
#
# Compressibility (1/GPa) = 0.03054661
#
# Stress axis : x y z
#
# Youngs Moduli (GPa) = 38.42217 146.24897 127.80693
#
# Poissons Ratio (x) = 0.34782 0.28619
# Poissons Ratio (y) = 0.09138 0.05796
# Poissons Ratio (z) = 0.08604 0.06632
#
# Static dielectric constant tensor:
#      x y z
#    x 4.290710 0.000000 0.099880 
#    y 0.000000 5.042800 0.000000 
#    z 0.099880 0.000000 4.857640 
# 
# 
# High freq. dielectric constant tensor:
#      x y z
#    x 2.012690 0.000000 0.007570 
#    y 0.000000 2.064120 0.000000 
#    z 0.007570 0.000000 2.063570 
# 
# From -- ./inp_files/7479.got.cif
#   From: 2010.03.12/outbox.cif.g09.slc.cpg/sg4_4_cif.got.tgz:7479.got - 2010.03.31 09:31:35.
