data_PCOD8047539
_publ_section_title
;
Structure prediction by ZEFSAII (Michael W. Deem and Ramdas Pophale) SiO2 
 PCOD8047539
Probable space group: P 21
;
_chemical_formula_sum "Si O2"
_cell_formula_units_Z 16
_cell_length_a 9.185416
_cell_length_b 11.393930
_cell_length_c 8.890392
_cell_angle_alpha 90.000000
_cell_angle_beta 126.028046
_cell_angle_gamma 90.000000
_cell_volume 752.482493
_symmetry_space_group_name_H-M "P 21"
_symmetry_group_IT_number 4
_symmetry_cell_setting 'monoclinic'
loop_
_space_group_symop_operation_xyz
x,y,z
-x,1/2+y,-z
loop_
_atom_site_type_symbol
_atom_site_label
_atom_site_fract_x
_atom_site_fract_y
_atom_site_fract_z
Si Si1 0.159796 0.387010 0.457240
Si Si2 0.656381 0.613174 0.713575
Si Si3 0.190074 0.872792 0.269312
Si Si4 0.355629 0.573080 0.752283
Si Si5 0.214688 0.825520 0.628798
Si Si6 0.828738 0.849587 0.876233
Si Si7 0.498669 0.724263 0.338336
Si Si8 0.467202 0.493126 0.135077
O O1 0.203244 0.512909 0.556458
O O2 0.127304 0.404009 0.259876
O O3 0.325886 0.300696 0.592356
O O4 0.982550 0.334585 0.422877
O O5 0.755781 0.508699 0.687784
O O6 0.551347 0.566206 0.794531
O O7 0.802205 0.709829 0.850415
O O8 0.512957 0.668819 0.512336
O O9 0.201544 0.817868 0.441122
O O10 0.319939 0.804227 0.232277
O O11 0.988004 0.870746 0.088167
O O12 0.302164 0.707434 0.747652
O O13 0.371147 0.500316 0.915704
O O14 0.335196 0.935604 0.755837
O O15 0.648056 0.911692 0.824066
O O16 0.480964 0.625605 0.201858
#
# Coordination Sequence:
#
# PCOD8047539 Si02
#       8
#     2   2   2   2   2   2   2   2
#     4  11  27  44  69 106 142 178 233 286 351 414
#     4  11  23  48  71 100 138 187 229 289 347 414
#     4  12  25  45  76 101 140 186 233 288 349 416
#     4  12  26  44  74  99 145 183 233 290 348 409
#     4  12  27  47  70 107 140 182 234 292 351 409
#     4  11  27  46  71 104 142 184 236 281 352 423
#     4  11  24  45  70  97 139 186 229 287 348 413
#     4  12  27  45  71 100 142 184 235 287 346 414
#
# _framework density 21.262953
#
# number of rings (size 3 to 8) (size 9 to 14) (size 15 to 20)
#    0.000    0.500    5.000    2.250    8.750    2.000 
#    0.000    0.000    0.000    0.000    0.000    0.000 
#    0.000    0.000    0.000    0.000    0.000    0.000 
#
# Total GULP energy -198522.631979 kJ/mol
# GULP energy per Si atom -12407.664499 kJ/mol
# Density = 2.121456 g / cm^3
# Si number density = 21.262953 Si / 1000 Ang^3
#
#
#
# Elastic Constant Matrix: (Units=GPa)
#
#
# Indices 1 2 3 4 5 6 
#
# 1 114.5143 19.1772 25.6146 0.0000 -2.1371 0.0000
# 2 19.1772 80.4824 25.1302 0.0000 -11.7425 0.0000
# 3 25.6146 25.1302 90.8156 0.0000 -2.5573 0.0000
# 4 0.0000 0.0000 0.0000 31.8572 0.0000 -3.5975
# 5 -2.1371 -11.7425 -2.5573 0.0000 31.6296 0.0000
# 6 0.0000 0.0000 0.0000 -3.5975 0.0000 29.8693
#
#
#
# Elastic Compliance Matrix: (Units=1/GPa)
#
#
# Indices 1 2 3 4 5 6 
#
# 1 0.009497 -0.001580 -0.002245 0.000000 -0.000127 0.000000
# 2 -0.001580 0.014616 -0.003457 0.000000 0.005040 0.000000
# 3 -0.002245 -0.003457 0.012589 0.000000 -0.000417 0.000000
# 4 0.000000 0.000000 0.000000 0.031823 0.000000 0.003833
# 5 -0.000127 0.005040 -0.000417 0.000000 0.033445 0.000000
# 6 0.000000 0.000000 0.000000 0.003833 0.000000 0.033941
#
#
# Mechanical properties :
#
#
# Convention : Reuss Voigt Hill
#
# Bulk Modulus (GPa) = 45.17064 47.29515 46.23290
# Shear Modulus (GPa) = 31.67462 33.06390 32.36926
#
# Velocity S-wave (km/s) = 3.86380 3.94763 3.90594
# Velocity P-wave (km/s) = 6.41835 6.56274 6.49095
#
# Compressibility (1/GPa) = 0.02213828
#
# Stress axis : x y z
#
# Youngs Moduli (GPa) = 105.29673 68.41624 79.43235
#
# Poissons Ratio (x) = 0.10813 0.17831
# Poissons Ratio (y) = 0.16642 0.27459
# Poissons Ratio (z) = 0.23638 0.23651
#
# Static dielectric constant tensor:
#      x y z
#    x 3.802440 0.000000 -0.039860 
#    y 0.000000 4.049450 0.000000 
#    z -0.039860 0.000000 3.763900 
# 
# 
# High freq. dielectric constant tensor:
#      x y z
#    x 1.839000 0.000000 -0.001690 
#    y 0.000000 1.846230 0.000000 
#    z -0.001690 0.000000 1.834070 
# 
# From -- ./inp_files/6046.got.cif
#   From: 2010.03.12/outbox.cif.g09.slc.cpg/sg4_4_cif.got.tgz:6046.got - 2010.03.31 09:31:35.
