data_PCOD8047482
_publ_section_title
;
Structure prediction by ZEFSAII (Michael W. Deem and Ramdas Pophale) SiO2 
 PCOD8047482
Probable space group: P 21
;
_chemical_formula_sum "Si O2"
_cell_formula_units_Z 12
_cell_length_a 10.359832
_cell_length_b 10.890293
_cell_length_c 4.940672
_cell_angle_alpha 90.000000
_cell_angle_beta 111.116234
_cell_angle_gamma 90.000000
_cell_volume 519.984997
_symmetry_space_group_name_H-M "P 21"
_symmetry_group_IT_number 4
_symmetry_cell_setting 'monoclinic'
loop_
_space_group_symop_operation_xyz
x,y,z
-x,1/2+y,-z
loop_
_atom_site_type_symbol
_atom_site_label
_atom_site_fract_x
_atom_site_fract_y
_atom_site_fract_z
Si Si1 0.651459 0.900740 0.529297
Si Si2 0.806190 0.418327 0.393539
Si Si3 0.709920 0.755844 0.087664
Si Si4 0.987147 0.254243 0.826805
Si Si5 0.644906 0.497546 0.788832
Si Si6 0.949245 0.985257 0.751526
O O1 0.659736 0.862312 0.846817
O O2 0.516316 0.981558 0.387154
O O3 0.788682 0.976143 0.545165
O O4 0.642314 0.780860 0.329238
O O5 0.853799 0.284376 0.537427
O O6 0.727712 0.492773 0.570294
O O7 0.947514 0.493938 0.428954
O O8 0.707965 0.400752 0.055350
O O9 0.659784 0.627560 0.940030
O O10 0.874723 0.758909 0.249175
O O11 0.967913 0.115211 0.928957
O O12 0.999192 0.362299 0.057317
#
# Coordination Sequence:
#
# PCOD8047482 Si02
#       6
#     2   2   2   2   2   2
#     4  11  26  45  67 106 137 187 237 294 356 424
#     4  12  23  45  71 107 137 188 239 290 351 433
#     4  11  23  44  73  94 146 184 234 297 363 418
#     4  11  23  45  76 111 138 190 244 303 350 421
#     4  12  26  45  71 103 145 189 235 293 370 426
#     4  11  25  46  76 107 145 188 247 297 354 428
#
# _framework density 23.077590000000001
#
# number of rings (size 3 to 8) (size 9 to 14) (size 15 to 20)
#    0.000    0.667    5.000    2.000    0.000    5.333 
#    0.000    1.667    0.000    0.000    0.000    0.000 
#    0.000    0.000    0.000    0.000    0.000    0.000 
#
# Total GULP energy -148729.091580 kJ/mol
# GULP energy per Si atom -12394.090965 kJ/mol
# Density = 2.302506 g / cm^3
# Si number density = 23.077590 Si / 1000 Ang^3
#
#
#
# Elastic Constant Matrix: (Units=GPa)
#
#
# Indices 1 2 3 4 5 6 
#
# 1 143.3531 48.7437 50.5709 0.0000 22.6724 0.0000
# 2 48.7437 124.8399 32.0394 0.0000 -2.1380 0.0000
# 3 50.5709 32.0394 98.1450 0.0000 14.8643 0.0000
# 4 0.0000 0.0000 0.0000 19.9136 0.0000 14.6775
# 5 22.6724 -2.1380 14.8643 0.0000 42.4945 0.0000
# 6 0.0000 0.0000 0.0000 14.6775 0.0000 19.1243
#
#
#
# Elastic Compliance Matrix: (Units=1/GPa)
#
#
# Indices 1 2 3 4 5 6 
#
# 1 0.009904 -0.003049 -0.003468 0.000000 -0.004225 0.000000
# 2 -0.003049 0.009775 -0.002049 0.000000 0.002836 0.000000
# 3 -0.003468 -0.002049 0.013073 0.000000 -0.002826 0.000000
# 4 0.000000 0.000000 0.000000 0.115623 0.000000 -0.088738
# 5 -0.004225 0.002836 -0.002826 0.000000 0.026918 0.000000
# 6 0.000000 0.000000 0.000000 -0.088738 0.000000 0.120394
#
#
# Mechanical properties :
#
#
# Convention : Reuss Voigt Hill
#
# Bulk Modulus (GPa) = 64.02480 69.89401 66.95941
# Shear Modulus (GPa) = 15.72192 31.97206 23.84699
#
# Velocity S-wave (km/s) = 2.61293 3.72616 3.21805
# Velocity P-wave (km/s) = 6.07509 6.99032 6.54872
#
# Compressibility (1/GPa) = 0.01561895
#
# Stress axis : x y z
#
# Youngs Moduli (GPa) = 100.96684 102.29726 76.49386
#
# Poissons Ratio (x) = 0.31195 0.26528
# Poissons Ratio (y) = 0.30789 0.15677
# Poissons Ratio (z) = 0.35016 0.20965
#
# Static dielectric constant tensor:
#      x y z
#    x 4.544470 0.000000 0.430530 
#    y 0.000000 4.095690 0.000000 
#    z 0.430530 0.000000 4.765410 
# 
# 
# High freq. dielectric constant tensor:
#      x y z
#    x 1.914010 0.000000 0.003840 
#    y 0.000000 1.897900 0.000000 
#    z 0.003840 0.000000 1.914170 
# 
# From -- ./inp_files/1250.got.cif
#   From: 2010.03.12/outbox.cif.g09.slc.cpg/sg4_1_cif.got.tgz:1250.got - 2010.03.31 09:31:35.
