data_PCOD8047623
_publ_section_title
;
Structure prediction by ZEFSAII (Michael W. Deem and Ramdas Pophale) SiO2 
 PCOD8047623
Probable space group: P 21
;
_chemical_formula_sum "Si O2"
_cell_formula_units_Z 14
_cell_length_a 11.206391
_cell_length_b 8.154090
_cell_length_c 9.381890
_cell_angle_alpha 90.000000
_cell_angle_beta 44.310713
_cell_angle_gamma 90.000000
_cell_volume 598.864460
_symmetry_space_group_name_H-M "P 21"
_symmetry_group_IT_number 4
_symmetry_cell_setting 'monoclinic'
loop_
_space_group_symop_operation_xyz
x,y,z
-x,1/2+y,-z
loop_
_atom_site_type_symbol
_atom_site_label
_atom_site_fract_x
_atom_site_fract_y
_atom_site_fract_z
Si Si1 0.114192 0.704500 0.509842
Si Si2 0.105190 0.440710 0.749930
Si Si3 0.252742 0.962024 0.854827
Si Si4 0.355928 0.930231 0.454267
Si Si5 0.780423 0.903563 0.764062
Si Si6 0.409368 0.286319 0.324089
Si Si7 0.284234 0.335868 0.864371
O O1 0.100965 0.615846 0.674662
O O2 0.246139 0.853670 0.419822
O O3 0.178662 0.583590 0.331583
O O4 0.937887 0.780297 0.607291
O O5 0.227816 0.321689 0.555944
O O6 0.183690 0.454652 0.841291
O O7 0.910630 0.370663 0.933031
O O8 0.242358 0.948656 0.692786
O O9 0.432311 0.895302 0.758530
O O10 0.217195 0.150901 0.924998
O O11 0.518293 0.816818 0.352344
O O12 0.443780 0.096989 0.323340
O O13 0.618542 0.825877 0.818862
O O14 0.732479 0.922625 0.968960
#
# Coordination Sequence:
#
# PCOD8047623 Si02
#       7
#     2   2   2   2   2   2   2
#     4  11  25  49  75 104 151 199 253 310 383 449
#     4  11  24  45  77 106 144 196 256 308 372 447
#     4  12  24  46  78 108 152 194 258 314 369 447
#     4  12  25  44  77 107 153 195 254 317 369 441
#     4  11  25  49  70 108 154 194 253 310 381 455
#     4  11  26  47  72 109 151 197 245 312 378 451
#     4  12  25  46  73 112 147 197 255 309 378 448
#
# _framework density 23.377575
#
# number of rings (size 3 to 8) (size 9 to 14) (size 15 to 20)
#    0.000    0.571    4.286    3.429    2.000    2.286 
#   12.857    0.000    0.000    0.000    0.000    0.000 
#    0.000    0.000    0.000    0.000    0.000    0.000 
#
# Total GULP energy -173606.844103 kJ/mol
# GULP energy per Si atom -12400.488865 kJ/mol
# Density = 2.332437 g / cm^3
# Si number density = 23.377575 Si / 1000 Ang^3
#
#
#
# Elastic Constant Matrix: (Units=GPa)
#
#
# Indices 1 2 3 4 5 6 
#
# 1 130.5328 35.5379 45.1641 0.0000 15.5100 0.0000
# 2 35.5379 86.7203 25.8252 0.0000 12.2460 0.0000
# 3 45.1641 25.8252 124.8328 0.0000 3.8635 0.0000
# 4 0.0000 0.0000 0.0000 28.2215 0.0000 6.3201
# 5 15.5100 12.2460 3.8635 0.0000 47.0468 0.0000
# 6 0.0000 0.0000 0.0000 6.3201 0.0000 45.9785
#
#
#
# Elastic Compliance Matrix: (Units=1/GPa)
#
#
# Indices 1 2 3 4 5 6 
#
# 1 0.009675 -0.002801 -0.002852 0.000000 -0.002226 0.000000
# 2 -0.002801 0.013536 -0.001711 0.000000 -0.002459 0.000000
# 3 -0.002852 -0.001711 0.009377 0.000000 0.000615 0.000000
# 4 0.000000 0.000000 0.000000 0.036559 0.000000 -0.005025
# 5 -0.002226 -0.002459 0.000615 0.000000 0.022579 0.000000
# 6 0.000000 0.000000 0.000000 -0.005025 0.000000 0.022440
#
#
# Mechanical properties :
#
#
# Convention : Reuss Voigt Hill
#
# Bulk Modulus (GPa) = 55.98899 61.68225 58.83562
# Shear Modulus (GPa) = 37.07887 39.95326 38.51606
#
# Velocity S-wave (km/s) = 3.98689 4.13854 4.06342
# Velocity P-wave (km/s) = 6.72277 7.01991 6.87295
#
# Compressibility (1/GPa) = 0.01786066
#
# Stress axis : x y z
#
# Youngs Moduli (GPa) = 103.36152 73.87728 106.63930
#
# Poissons Ratio (x) = 0.20693 0.30413
# Poissons Ratio (y) = 0.28952 0.18244
# Poissons Ratio (z) = 0.29478 0.12639
#
# Static dielectric constant tensor:
#      x y z
#    x 4.397080 0.000000 0.005190 
#    y 0.000000 4.026560 0.000000 
#    z 0.005190 0.000000 4.187820 
# 
# 
# High freq. dielectric constant tensor:
#      x y z
#    x 1.937390 0.000000 -0.003450 
#    y 0.000000 1.916320 0.000000 
#    z -0.003450 0.000000 1.929140 
# 
# From -- ./inp_files/7940.got.cif
#   From: 2010.03.12/outbox.cif.g09.slc.cpg/sg4_4_cif.got.tgz:7940.got - 2010.03.31 09:31:35.
