data_PCOD8047064
_publ_section_title
;
Structure prediction by ZEFSAII (Michael W. Deem and Ramdas Pophale) SiO2 
 PCOD8047064
Probable space group: P 21
;
_chemical_formula_sum "Si O2"
_cell_formula_units_Z 16
_cell_length_a 8.866840
_cell_length_b 9.885935
_cell_length_c 8.866836
_cell_angle_alpha 90.000000
_cell_angle_beta 113.278766
_cell_angle_gamma 90.000000
_cell_volume 713.967408
_symmetry_space_group_name_H-M "P 21"
_symmetry_group_IT_number 4
_symmetry_cell_setting 'monoclinic'
loop_
_space_group_symop_operation_xyz
x,y,z
-x,1/2+y,-z
loop_
_atom_site_type_symbol
_atom_site_label
_atom_site_fract_x
_atom_site_fract_y
_atom_site_fract_z
Si Si1 0.650453 0.971320 0.118449
Si Si2 0.733775 0.406948 0.700951
Si Si3 0.572162 0.266952 0.130786
Si Si4 0.299048 0.223731 0.266225
Si Si5 0.130787 0.863727 0.572162
Si Si6 0.118449 0.159360 0.650452
Si Si7 0.073329 0.315340 0.926671
Si Si8 0.381819 0.315340 0.618181
O O1 0.815057 0.939661 0.089510
O O2 0.681213 0.947063 0.310785
O O3 0.591404 0.121581 0.059589
O O4 0.501778 0.869895 0.019392
O O5 0.695227 0.565340 0.695226
O O6 0.772066 0.370199 0.545153
O O7 0.579533 0.315976 0.690983
O O8 0.887091 0.367049 0.868075
O O9 0.454847 0.260480 0.227934
O O10 0.751328 0.315340 0.248671
O O11 0.309018 0.314704 0.420466
O O12 0.131925 0.263630 0.112909
O O13 0.980608 0.760785 0.498223
O O14 0.059590 0.009099 0.591404
O O15 0.089510 0.191019 0.815056
O O16 0.310785 0.183617 0.681213
#
# Coordination Sequence:
#
# PCOD8047064 Si02
#       8
#     2   2   2   2   2   2   2   2
#     4  10  24  43  67  95 132 175 223 272 325 395
#     4  11  22  43  65  97 137 171 220 276 334 390
#     4  11  24  41  69  98 132 175 221 272 331 389
#     4  11  22  43  65  97 137 171 220 276 334 390
#     4  11  24  41  69  98 132 175 221 272 331 389
#     4  10  24  43  67  95 132 175 223 272 325 395
#     4   9  24  46  64  93 140 176 216 279 324 396
#     4  11  22  42  68  95 130 174 224 267 332 392
#
# _framework density 22.409987000000001
#
# number of rings (size 3 to 8) (size 9 to 14) (size 15 to 20)
#    0.000    1.500    3.750    0.000   10.500    0.000 
#    6.750    0.000    0.000    0.000    0.000    0.000 
#    0.000    0.000    0.000    0.000    0.000    0.000 
#
# Total GULP energy -198408.107698 kJ/mol
# GULP energy per Si atom -12400.506731 kJ/mol
# Density = 2.235898 g / cm^3
# Si number density = 22.409987 Si / 1000 Ang^3
#
#
#
# Elastic Constant Matrix: (Units=GPa)
#
#
# Indices 1 2 3 4 5 6 
#
# 1 87.0881 36.4172 43.1388 0.0000 18.7201 0.0000
# 2 36.4172 149.5422 50.2005 0.0000 18.9360 0.0000
# 3 43.1388 50.2005 118.5120 0.0000 24.4500 0.0000
# 4 0.0000 0.0000 0.0000 32.6061 0.0000 8.1076
# 5 18.7201 18.9360 24.4500 0.0000 36.6592 0.0000
# 6 0.0000 0.0000 0.0000 8.1076 0.0000 26.7043
#
#
#
# Elastic Compliance Matrix: (Units=1/GPa)
#
#
# Indices 1 2 3 4 5 6 
#
# 1 0.015053 -0.001850 -0.003835 0.000000 -0.004174 0.000000
# 2 -0.001850 0.008167 -0.002447 0.000000 -0.001642 0.000000
# 3 -0.003835 -0.002447 0.011834 0.000000 -0.004670 0.000000
# 4 0.000000 0.000000 0.000000 0.033173 0.000000 -0.010072
# 5 -0.004174 -0.001642 -0.004670 0.000000 0.033372 0.000000
# 6 0.000000 0.000000 0.000000 -0.010072 0.000000 0.040505
#
#
# Mechanical properties :
#
#
# Convention : Reuss Voigt Hill
#
# Bulk Modulus (GPa) = 53.21997 68.29501 60.75749
# Shear Modulus (GPa) = 30.37079 34.21966 32.29522
#
# Velocity S-wave (km/s) = 3.68534 3.91190 3.80031
# Velocity P-wave (km/s) = 6.47371 7.13760 6.81375
#
# Compressibility (1/GPa) = 0.01878994
#
# Stress axis : x y z
#
# Youngs Moduli (GPa) = 66.43267 122.44341 84.50235
#
# Poissons Ratio (x) = 0.22652 0.32403
# Poissons Ratio (y) = 0.12290 0.20681
# Poissons Ratio (z) = 0.25474 0.29967
#
# Static dielectric constant tensor:
#      x y z
#    x 4.079520 0.000000 0.129960 
#    y 0.000000 3.861300 0.000000 
#    z 0.129960 0.000000 4.174130 
# 
# 
# High freq. dielectric constant tensor:
#      x y z
#    x 1.885420 0.000000 0.005170 
#    y 0.000000 1.867170 0.000000 
#    z 0.005170 0.000000 1.889180 
# 
# From -- ./inp_files/5508.got.cif
#   From: 2010.03.12/outbox.cif.g09.slc.cpg/sg4_3_cif.got.tgz:5508.got - 2010.03.31 09:31:35.
