data_PCOD8047279
_publ_section_title
;
Structure prediction by ZEFSAII (Michael W. Deem and Ramdas Pophale) SiO2 
 PCOD8047279
Probable space group: P 21
;
_chemical_formula_sum "Si O2"
_cell_formula_units_Z 16
_cell_length_a 14.220433
_cell_length_b 10.501399
_cell_length_c 5.543855
_cell_angle_alpha 90.000000
_cell_angle_beta 125.757199
_cell_angle_gamma 90.000000
_cell_volume 671.831976
_symmetry_space_group_name_H-M "P 21"
_symmetry_group_IT_number 4
_symmetry_cell_setting 'monoclinic'
loop_
_space_group_symop_operation_xyz
x,y,z
-x,1/2+y,-z
loop_
_atom_site_type_symbol
_atom_site_label
_atom_site_fract_x
_atom_site_fract_y
_atom_site_fract_z
Si Si1 0.499823 0.382890 0.707796
Si Si2 0.095529 0.999793 0.190382
Si Si3 0.541473 0.107414 0.698945
Si Si4 0.665574 0.524740 0.267025
Si Si5 0.281331 0.297402 0.643127
Si Si6 0.112110 0.350984 0.995918
Si Si7 0.970158 0.632549 0.401575
Si Si8 0.212041 0.537963 0.825080
O O1 0.516435 0.253212 0.572737
O O2 0.446144 0.503741 0.491695
O O3 0.410225 0.347895 0.782915
O O4 0.623431 0.425341 0.002433
O O5 0.009471 0.878598 0.048879
O O6 0.230159 0.958875 0.427094
O O7 0.064079 0.081274 0.386024
O O8 0.086607 0.065409 0.917369
O O9 0.441926 0.057996 0.723543
O O10 0.667736 0.113618 0.012974
O O11 0.707290 0.659295 0.208093
O O12 0.216988 0.403701 0.696101
O O13 0.202468 0.268229 0.288739
O O14 0.076069 0.276914 0.694585
O O15 0.175007 0.486779 0.035586
O O16 0.109564 0.627207 0.572398
#
# Coordination Sequence:
#
# PCOD8047279 Si02
#       8
#     2   2   2   2   2   2   2   2
#     4  11  26  42  68 104 141 186 243 298 363 435
#     4  11  25  42  65 102 138 181 235 294 353 432
#     4  11  26  45  70 103 138 191 241 302 365 435
#     4  11  25  42  68  99 142 184 237 297 365 436
#     4  11  21  42  71  95 133 186 239 293 367 436
#     4  11  23  42  69  98 136 184 235 294 369 430
#     4  11  25  43  70 101 138 184 240 293 359 430
#     4  11  23  44  69 100 136 180 240 303 361 436
#
# _framework density 23.815479
#
# number of rings (size 3 to 8) (size 9 to 14) (size 15 to 20)
#    0.000    1.000    5.000    0.750    5.250    0.000 
#    0.000    2.500    0.000    0.000    0.000    0.000 
#    0.000    0.000    0.000    0.000    0.000    0.000 
#
# Total GULP energy -198214.044617 kJ/mol
# GULP energy per Si atom -12388.377789 kJ/mol
# Density = 2.376127 g / cm^3
# Si number density = 23.815479 Si / 1000 Ang^3
#
#
#
# Elastic Constant Matrix: (Units=GPa)
#
#
# Indices 1 2 3 4 5 6 
#
# 1 69.4715 18.9993 30.6140 0.0000 25.8026 0.0000
# 2 18.9993 106.4316 26.4281 0.0000 8.8712 0.0000
# 3 30.6140 26.4281 101.0610 0.0000 29.7522 0.0000
# 4 0.0000 0.0000 0.0000 40.1084 0.0000 2.5442
# 5 25.8026 8.8712 29.7522 0.0000 51.2247 0.0000
# 6 0.0000 0.0000 0.0000 2.5442 0.0000 37.6583
#
#
#
# Elastic Compliance Matrix: (Units=1/GPa)
#
#
# Indices 1 2 3 4 5 6 
#
# 1 0.019070 -0.002025 -0.003043 0.000000 -0.007488 0.000000
# 2 -0.002025 0.010266 -0.002229 0.000000 0.000537 0.000000
# 3 -0.003043 -0.002229 0.013070 0.000000 -0.005672 0.000000
# 4 0.000000 0.000000 0.000000 0.025040 0.000000 -0.001692
# 5 -0.007488 0.000537 -0.005672 0.000000 0.026495 0.000000
# 6 0.000000 0.000000 0.000000 -0.001692 0.000000 0.026669
#
#
# Mechanical properties :
#
#
# Convention : Reuss Voigt Hill
#
# Bulk Modulus (GPa) = 35.95568 47.67188 41.81378
# Shear Modulus (GPa) = 34.60833 39.19312 36.90073
#
# Velocity S-wave (km/s) = 3.81620 4.06112 3.94057
# Velocity P-wave (km/s) = 5.87778 6.48467 6.18867
#
# Compressibility (1/GPa) = 0.02781202
#
# Stress axis : x y z
#
# Youngs Moduli (GPa) = 52.43807 97.40948 76.51286
#
# Poissons Ratio (x) = 0.19721 0.23283
# Poissons Ratio (y) = 0.10616 0.17057
# Poissons Ratio (z) = 0.15957 0.21716
#
# Static dielectric constant tensor:
#      x y z
#    x 4.385880 0.000000 0.359910 
#    y 0.000000 4.469560 0.000000 
#    z 0.359910 0.000000 4.301640 
# 
# 
# High freq. dielectric constant tensor:
#      x y z
#    x 1.950160 0.000000 0.028710 
#    y 0.000000 1.935530 0.000000 
#    z 0.028710 0.000000 1.939220 
# 
# From -- ./inp_files/2717.got.cif
#   From: 2010.03.12/outbox.cif.g09.slc.cpg/sg4_2_cif.got.tgz:2717.got - 2010.03.31 09:31:35.
