data_PCOD8047079
_publ_section_title
;
Structure prediction by ZEFSAII (Michael W. Deem and Ramdas Pophale) SiO2 
 PCOD8047079
Probable space group: P 21
;
_chemical_formula_sum "Si O2"
_cell_formula_units_Z 16
_cell_length_a 9.985092
_cell_length_b 8.683770
_cell_length_c 11.648622
_cell_angle_alpha 90.000000
_cell_angle_beta 48.026020
_cell_angle_gamma 90.000000
_cell_volume 750.906558
_symmetry_space_group_name_H-M "P 21"
_symmetry_group_IT_number 4
_symmetry_cell_setting 'monoclinic'
loop_
_space_group_symop_operation_xyz
x,y,z
-x,1/2+y,-z
loop_
_atom_site_type_symbol
_atom_site_label
_atom_site_fract_x
_atom_site_fract_y
_atom_site_fract_z
Si Si1 0.104337 0.884030 0.137817
Si Si2 0.192501 0.289001 0.305455
Si Si3 0.127697 0.933424 0.381312
Si Si4 0.450590 0.939613 0.354687
Si Si5 0.789039 0.747996 0.188440
Si Si6 0.932055 0.745180 0.864494
Si Si7 0.567280 0.259492 0.197214
Si Si8 0.716508 0.425109 0.314047
O O1 0.142717 0.849972 0.249545
O O2 0.905912 0.823263 0.222304
O O3 0.103685 0.064465 0.115639
O O4 0.250891 0.793875 0.977381
O O5 0.174975 0.323449 0.179696
O O6 0.398200 0.321060 0.221718
O O7 0.063369 0.400566 0.450658
O O8 0.134560 0.116177 0.366262
O O9 0.292927 0.872481 0.363930
O O10 0.582165 0.800419 0.312989
O O11 0.366841 0.997551 0.522835
O O12 0.553627 0.077588 0.230742
O O13 0.806262 0.564360 0.191620
O O14 0.860534 0.809273 0.025520
O O15 0.141020 0.791622 0.735012
O O16 0.566377 0.348127 0.319006
#
# Coordination Sequence:
#
# PCOD8047079 Si02
#       8
#     2   2   2   2   2   2   2   2
#     4  11  25  43  66  98 135 174 218 274 332 397
#     4  10  24  44  68  93 134 172 220 277 331 397
#     4  10  24  45  65  98 130 173 223 272 336 393
#     4  11  26  44  67  98 135 177 221 279 332 399
#     4  12  25  41  69 101 130 177 223 271 340 392
#     4  11  22  46  67  94 135 172 222 275 331 396
#     4  11  24  45  65  97 136 174 222 273 333 397
#     4  12  24  44  69  99 135 173 225 275 335 397
#
# _framework density 21.307579
#
# number of rings (size 3 to 8) (size 9 to 14) (size 15 to 20)
#    0.000    1.000    3.750    1.500    8.750    1.000 
#    0.000    0.000    0.000    0.000    0.000    0.000 
#    0.000    0.000    0.000    0.000    0.000    0.000 
#
# Total GULP energy -198458.382425 kJ/mol
# GULP energy per Si atom -12403.648902 kJ/mol
# Density = 2.125908 g / cm^3
# Si number density = 21.307579 Si / 1000 Ang^3
#
#
#
# Elastic Constant Matrix: (Units=GPa)
#
#
# Indices 1 2 3 4 5 6 
#
# 1 173.7274 28.1094 40.5132 0.0000 11.1412 0.0000
# 2 28.1094 37.6202 25.1800 0.0000 5.0153 0.0000
# 3 40.5132 25.1800 84.1181 0.0000 9.0952 0.0000
# 4 0.0000 0.0000 0.0000 33.2493 0.0000 -2.6339
# 5 11.1412 5.0153 9.0952 0.0000 37.7264 0.0000
# 6 0.0000 0.0000 0.0000 -2.6339 0.0000 26.6765
#
#
#
# Elastic Compliance Matrix: (Units=1/GPa)
#
#
# Indices 1 2 3 4 5 6 
#
# 1 0.006902 -0.003587 -0.002137 0.000000 -0.001046 0.000000
# 2 -0.003587 0.035265 -0.008662 0.000000 -0.001540 0.000000
# 3 -0.002137 -0.008662 0.015728 0.000000 -0.002009 0.000000
# 4 0.000000 0.000000 0.000000 0.030313 0.000000 0.002993
# 5 -0.001046 -0.001540 -0.002009 0.000000 0.027505 0.000000
# 6 0.000000 0.000000 0.000000 0.002993 0.000000 0.037782
#
#
# Mechanical properties :
#
#
# Convention : Reuss Voigt Hill
#
# Bulk Modulus (GPa) = 34.33890 53.67455 44.00672
# Shear Modulus (GPa) = 26.04525 32.97464 29.50995
#
# Velocity S-wave (km/s) = 3.50000 3.93816 3.72553
# Velocity P-wave (km/s) = 5.69949 6.77672 6.26131
#
# Compressibility (1/GPa) = 0.02912149
#
# Stress axis : x y z
#
# Youngs Moduli (GPa) = 144.88432 28.35693 63.58282
#
# Poissons Ratio (x) = 0.10172 0.13590
# Poissons Ratio (y) = 0.51972 0.55075
# Poissons Ratio (z) = 0.30966 0.24563
#
# Static dielectric constant tensor:
#      x y z
#    x 4.250370 0.000000 0.229920 
#    y 0.000000 3.617480 0.000000 
#    z 0.229920 0.000000 3.802310 
# 
# 
# High freq. dielectric constant tensor:
#      x y z
#    x 1.857810 0.000000 0.011280 
#    y 0.000000 1.824900 0.000000 
#    z 0.011280 0.000000 1.835480 
# 
# From -- ./inp_files/5576.got.cif
#   From: 2010.03.12/outbox.cif.g09.slc.cpg/sg4_3_cif.got.tgz:5576.got - 2010.03.31 09:31:35.
