data_PCOD8047555
_publ_section_title
;
Structure prediction by ZEFSAII (Michael W. Deem and Ramdas Pophale) SiO2 
 PCOD8047555
Probable space group: P 21
;
_chemical_formula_sum "Si O2"
_cell_formula_units_Z 14
_cell_length_a 15.264045
_cell_length_b 7.294571
_cell_length_c 7.103079
_cell_angle_alpha 90.000000
_cell_angle_beta 130.446019
_cell_angle_gamma 90.000000
_cell_volume 601.881069
_symmetry_space_group_name_H-M "P 21"
_symmetry_group_IT_number 4
_symmetry_cell_setting 'monoclinic'
loop_
_space_group_symop_operation_xyz
x,y,z
-x,1/2+y,-z
loop_
_atom_site_type_symbol
_atom_site_label
_atom_site_fract_x
_atom_site_fract_y
_atom_site_fract_z
Si Si1 0.745005 0.710610 0.329173
Si Si2 0.982852 0.772610 0.799180
Si Si3 0.607519 0.560862 0.486601
Si Si4 0.275127 0.325291 0.078286
Si Si5 0.985927 0.853626 0.224511
Si Si6 0.634566 0.198479 0.742614
Si Si7 0.841804 0.377521 0.237950
O O1 0.661648 0.608635 0.359649
O O2 0.800934 0.566347 0.265546
O O3 0.846863 0.819422 0.580753
O O4 0.680795 0.838706 0.081882
O O5 0.008914 0.572260 0.759257
O O6 0.069883 0.912183 0.814555
O O7 0.015806 0.776836 0.062378
O O8 0.679334 0.642415 0.759242
O O9 0.609802 0.340557 0.535157
O O10 0.482706 0.653699 0.310630
O O11 0.317658 0.500401 0.261631
O O12 0.139083 0.300510 0.880014
O O13 0.082910 0.769421 0.498965
O O14 0.729589 0.264028 0.023286
#
# Coordination Sequence:
#
# PCOD8047555 Si02
#       7
#     2   2   2   2   2   2   2
#     4  11  26  44  73 107 156 194 245 315 376 450
#     4  11  24  40  68 108 144 195 238 299 374 452
#     4  12  27  53  73 109 145 199 255 315 373 443
#     4  12  24  48  72 110 148 195 250 307 372 448
#     4  11  25  40  71 106 146 191 242 301 375 449
#     4  12  27  50  80 102 151 197 253 316 372 445
#     4  11  25  43  67 110 148 189 239 311 370 445
#
# _framework density 23.260411999999999
#
# number of rings (size 3 to 8) (size 9 to 14) (size 15 to 20)
#    0.000    0.571    7.143    0.000    6.000    2.286 
#    2.571    0.000    0.000    0.000    0.000    0.000 
#    0.000    0.000    0.000    0.000    0.000    0.000 
#
# Total GULP energy -173503.602989 kJ/mol
# GULP energy per Si atom -12393.114499 kJ/mol
# Density = 2.320747 g / cm^3
# Si number density = 23.260412 Si / 1000 Ang^3
#
#
#
# Elastic Constant Matrix: (Units=GPa)
#
#
# Indices 1 2 3 4 5 6 
#
# 1 151.7868 43.1561 54.6657 0.0000 -11.6510 0.0000
# 2 43.1561 76.4242 22.2928 0.0000 1.8133 0.0000
# 3 54.6657 22.2928 76.1247 0.0000 -28.3728 0.0000
# 4 0.0000 0.0000 0.0000 28.1427 0.0000 -0.1776
# 5 -11.6510 1.8133 -28.3728 0.0000 40.6734 0.0000
# 6 0.0000 0.0000 0.0000 -0.1776 0.0000 33.4903
#
#
#
# Elastic Compliance Matrix: (Units=1/GPa)
#
#
# Indices 1 2 3 4 5 6 
#
# 1 0.009883 -0.003599 -0.006660 0.000000 -0.001654 0.000000
# 2 -0.003599 0.016350 -0.003864 0.000000 -0.004455 0.000000
# 3 -0.006660 -0.003864 0.024869 0.000000 0.015613 0.000000
# 4 0.000000 0.000000 0.000000 0.035534 0.000000 0.000188
# 5 -0.001654 -0.004455 0.015613 0.000000 0.035202 0.000000
# 6 0.000000 0.000000 0.000000 0.000188 0.000000 0.029860
#
#
# Mechanical properties :
#
#
# Convention : Reuss Voigt Hill
#
# Bulk Modulus (GPa) = 43.75050 60.50723 52.12886
# Shear Modulus (GPa) = 26.65761 32.74267 29.70014
#
# Velocity S-wave (km/s) = 3.38901 3.75595 3.57719
# Velocity P-wave (km/s) = 5.84497 6.69917 6.28660
#
# Compressibility (1/GPa) = 0.02285688
#
# Stress axis : x y z
#
# Youngs Moduli (GPa) = 101.18477 61.16184 40.21008
#
# Poissons Ratio (x) = 0.22012 0.26778
# Poissons Ratio (y) = 0.36416 0.15538
# Poissons Ratio (z) = 0.67385 0.23634
#
# Static dielectric constant tensor:
#      x y z
#    x 4.116610 0.000000 0.184870 
#    y 0.000000 4.340300 0.000000 
#    z 0.184870 0.000000 4.722910 
# 
# 
# High freq. dielectric constant tensor:
#      x y z
#    x 1.910830 0.000000 0.007660 
#    y 0.000000 1.919680 0.000000 
#    z 0.007660 0.000000 1.932260 
# 
# From -- ./inp_files/3736.got.cif
#   From: 2010.03.12/outbox.cif.g09.slc.cpg/sg4_2_cif.got.tgz:3736.got - 2010.03.31 09:31:35.
