data_PCOD8047461
_publ_section_title
;
Structure prediction by ZEFSAII (Michael W. Deem and Ramdas Pophale) SiO2 
 PCOD8047461
Probable space group: P 21
;
_chemical_formula_sum "Si O2"
_cell_formula_units_Z 12
_cell_length_a 11.716565
_cell_length_b 5.344850
_cell_length_c 19.630105
_cell_angle_alpha 90.000000
_cell_angle_beta 157.657108
_cell_angle_gamma 90.000000
_cell_volume 467.317374
_symmetry_space_group_name_H-M "P 21"
_symmetry_group_IT_number 4
_symmetry_cell_setting 'monoclinic'
loop_
_space_group_symop_operation_xyz
x,y,z
-x,1/2+y,-z
loop_
_atom_site_type_symbol
_atom_site_label
_atom_site_fract_x
_atom_site_fract_y
_atom_site_fract_z
Si Si1 0.801340 0.669900 0.108862
Si Si2 0.226165 0.030606 0.281608
Si Si3 0.120314 0.699361 0.030495
Si Si4 0.224544 0.433439 0.771635
Si Si5 0.817741 0.663434 0.381009
Si Si6 0.192633 0.289489 0.401277
O O1 0.716191 0.887752 0.115478
O O2 0.919591 0.448512 0.221541
O O3 0.514595 0.588023 0.905887
O O4 0.037526 0.774479 0.184989
O O5 0.321883 0.135573 0.408151
O O6 0.541428 0.957058 0.419590
O O7 0.030817 0.223631 0.128478
O O8 0.481123 0.668162 0.226034
O O9 0.970744 0.449287 0.979720
O O10 0.193910 0.188139 0.708004
O O11 0.924492 0.607170 0.602656
O O12 0.991831 0.407358 0.490955
#
# Coordination Sequence:
#
# PCOD8047461 Si02
#       6
#     2   2   2   2   2   2
#     4  11  23  43  72 111 147 196 247 326 399 459
#     4  11  26  45  75 108 157 195 263 321 397 470
#     4  12  31  54  83 116 160 219 271 329 394 476
#     4  11  26  43  76 111 150 198 264 323 399 468
#     4  12  31  55  82 114 160 215 273 333 392 475
#     4  11  23  44  72 112 146 199 248 328 395 466
#
# _framework density 25.678481999999999
#
# number of rings (size 3 to 8) (size 9 to 14) (size 15 to 20)
#    0.000    0.667    3.333    2.000   14.000    1.333 
#    0.000    0.000    0.000    0.000    0.000    0.000 
#    0.000    0.000    0.000    0.000    0.000    0.000 
#
# Total GULP energy -148779.825361 kJ/mol
# GULP energy per Si atom -12398.318780 kJ/mol
# Density = 2.562004 g / cm^3
# Si number density = 25.678482 Si / 1000 Ang^3
#
#
#
# Elastic Constant Matrix: (Units=GPa)
#
#
# Indices 1 2 3 4 5 6 
#
# 1 51.2286 9.2788 29.7380 0.0000 11.2472 0.0000
# 2 9.2788 95.3808 32.1537 0.0000 11.5793 0.0000
# 3 29.7380 32.1537 151.4569 0.0000 27.2721 0.0000
# 4 0.0000 0.0000 0.0000 49.7091 0.0000 2.0969
# 5 11.2472 11.5793 27.2721 0.0000 39.9249 0.0000
# 6 0.0000 0.0000 0.0000 2.0969 0.0000 30.3607
#
#
#
# Elastic Compliance Matrix: (Units=1/GPa)
#
#
# Indices 1 2 3 4 5 6 
#
# 1 0.022546 -0.000513 -0.003650 0.000000 -0.003710 0.000000
# 2 -0.000513 0.011428 -0.002001 0.000000 -0.001803 0.000000
# 3 -0.003650 -0.002001 0.008500 0.000000 -0.004198 0.000000
# 4 0.000000 0.000000 0.000000 0.020176 0.000000 -0.001393
# 5 -0.003710 -0.001803 -0.004198 0.000000 0.029482 0.000000
# 6 0.000000 0.000000 0.000000 -0.001393 0.000000 0.033034
#
#
# Mechanical properties :
#
#
# Convention : Reuss Voigt Hill
#
# Bulk Modulus (GPa) = 33.17071 48.93415 41.05243
# Shear Modulus (GPa) = 33.88885 39.12533 36.50709
#
# Velocity S-wave (km/s) = 3.63676 3.90765 3.77463
# Velocity P-wave (km/s) = 5.52996 6.28152 5.91768
#
# Compressibility (1/GPa) = 0.03014707
#
# Stress axis : x y z
#
# Youngs Moduli (GPa) = 44.35284 87.50807 117.64982
#
# Poissons Ratio (x) = 0.04485 0.42944
# Poissons Ratio (y) = 0.02273 0.23538
# Poissons Ratio (z) = 0.16189 0.17508
#
# Static dielectric constant tensor:
#      x y z
#    x 4.760070 0.000000 0.004300 
#    y 0.000000 4.750130 0.000000 
#    z 0.004300 0.000000 4.699970 
# 
# 
# High freq. dielectric constant tensor:
#      x y z
#    x 2.018830 0.000000 0.014880 
#    y 0.000000 2.031580 0.000000 
#    z 0.014880 0.000000 2.037890 
# 
# From -- ./inp_files/8784.got.cif
#   From: 2010.03.12/outbox.cif.g09.slc.cpg/sg4_5_cif.got.tgz:8784.got - 2010.03.31 09:31:35.
