data_PCOD8047829
_publ_section_title
;
Structure prediction by ZEFSAII (Michael W. Deem and Ramdas Pophale) SiO2 
 PCOD8047829
Probable space group: P 21
;
_chemical_formula_sum "Si O2"
_cell_formula_units_Z 16
_cell_length_a 9.189810
_cell_length_b 12.665970
_cell_length_c 9.189807
_cell_angle_alpha 90.000000
_cell_angle_beta 137.562583
_cell_angle_gamma 90.000000
_cell_volume 721.799324
_symmetry_space_group_name_H-M "P 21"
_symmetry_group_IT_number 4
_symmetry_cell_setting 'monoclinic'
loop_
_space_group_symop_operation_xyz
x,y,z
-x,1/2+y,-z
loop_
_atom_site_type_symbol
_atom_site_label
_atom_site_fract_x
_atom_site_fract_y
_atom_site_fract_z
Si Si1 0.012615 0.722180 0.780662
Si Si2 0.234108 0.781807 0.234108
Si Si3 0.581311 0.926772 0.580248
Si Si4 0.219338 0.341434 0.987385
Si Si5 0.338623 0.111864 0.027708
Si Si6 0.580248 0.636842 0.581311
Si Si7 0.223462 0.531807 0.776538
Si Si8 0.972292 0.951750 0.661377
O O1 0.068384 0.621125 0.726384
O O2 0.762052 0.712063 0.643916
O O3 0.048817 0.829678 0.717190
O O4 0.166681 0.726707 0.034551
O O5 0.419744 0.869278 0.347710
O O6 0.347711 0.694336 0.419744
O O7 0.034551 0.836906 0.166682
O O8 0.791417 0.965867 0.650182
O O9 0.456350 0.031807 0.543651
O O10 0.643917 0.851551 0.762053
O O11 0.273617 0.442489 0.931617
O O12 0.282811 0.233936 0.951183
O O13 0.349817 0.097747 0.208583
O O14 0.558552 0.087746 0.109127
O O15 0.161624 0.031807 0.838376
O O16 0.109126 0.475868 0.558552
#
# Coordination Sequence:
#
# PCOD8047829 Si02
#       8
#     2   2   2   2   2   2   2   2
#     4  12  27  49  73 117 147 193 259 307 366 450
#     4  12  22  44  80 106 146 190 246 318 356 430
#     4  12  24  45  80 112 144 196 254 302 372 434
#     4  12  27  49  73 117 147 193 259 307 366 450
#     4  12  27  48  75 108 151 198 241 309 373 449
#     4  12  24  45  80 112 144 196 254 302 372 434
#     4  12  32  46  74 108 156 200 236 312 380 442
#     4  12  27  48  75 108 151 198 241 309 373 449
#
# _framework density 22.166826
#
# number of rings (size 3 to 8) (size 9 to 14) (size 15 to 20)
#    0.000    0.000    6.250    3.000    5.250    3.000 
#    0.000    0.000    0.000    0.000    0.000    0.000 
#    0.000    0.000    0.000    0.000    0.000    0.000 
#
# Total GULP energy -198424.617674 kJ/mol
# GULP energy per Si atom -12401.538605 kJ/mol
# Density = 2.211637 g / cm^3
# Si number density = 22.166826 Si / 1000 Ang^3
#
#
#
# Elastic Constant Matrix: (Units=GPa)
#
#
# Indices 1 2 3 4 5 6 
#
# 1 96.5667 37.3652 37.5430 0.0000 -0.3179 0.0000
# 2 37.3652 149.5975 37.7027 0.0000 0.1419 0.0000
# 3 37.5430 37.7027 109.9824 0.0000 5.9464 0.0000
# 4 0.0000 0.0000 0.0000 44.6680 0.0000 3.6495
# 5 -0.3179 0.1419 5.9464 0.0000 31.7615 0.0000
# 6 0.0000 0.0000 0.0000 3.6495 0.0000 35.9694
#
#
#
# Elastic Compliance Matrix: (Units=1/GPa)
#
#
# Indices 1 2 3 4 5 6 
#
# 1 0.012621 -0.002251 -0.003580 0.000000 0.000807 0.000000
# 2 -0.002251 0.007724 -0.001896 0.000000 0.000298 0.000000
# 3 -0.003580 -0.001896 0.011078 0.000000 -0.002101 0.000000
# 4 0.000000 0.000000 0.000000 0.022575 0.000000 -0.002290
# 5 0.000807 0.000298 -0.002101 0.000000 0.031885 0.000000
# 6 0.000000 0.000000 0.000000 -0.002290 0.000000 0.028034
#
#
# Mechanical properties :
#
#
# Convention : Reuss Voigt Hill
#
# Bulk Modulus (GPa) = 62.61858 64.59652 63.60755
# Shear Modulus (GPa) = 37.12137 38.71549 37.91843
#
# Velocity S-wave (km/s) = 4.09667 4.18371 4.14042
# Velocity P-wave (km/s) = 7.11948 7.24860 7.18433
#
# Compressibility (1/GPa) = 0.01596970
#
# Stress axis : x y z
#
# Youngs Moduli (GPa) = 79.23273 129.46185 90.26909
#
# Poissons Ratio (x) = 0.29140 0.32319
# Poissons Ratio (y) = 0.17834 0.17112
# Poissons Ratio (z) = 0.28367 0.24542
#
# Static dielectric constant tensor:
#      x y z
#    x 3.808100 0.000000 0.135070 
#    y 0.000000 4.408020 0.000000 
#    z 0.135070 0.000000 4.130050 
# 
# 
# High freq. dielectric constant tensor:
#      x y z
#    x 1.851330 0.000000 0.014320 
#    y 0.000000 1.905780 0.000000 
#    z 0.014320 0.000000 1.885460 
# 
# From -- ./inp_files/2922.got.cif
#   From: 2010.03.12/outbox.cif.g09.slc.cpg/sg4_2_cif.got.tgz:2922.got - 2010.03.31 09:31:35.
