data_PCOD8047355
_publ_section_title
;
Structure prediction by ZEFSAII (Michael W. Deem and Ramdas Pophale) SiO2 
 PCOD8047355
Probable space group: P 21
;
_chemical_formula_sum "Si O2"
_cell_formula_units_Z 16
_cell_length_a 12.588646
_cell_length_b 8.574799
_cell_length_c 11.128488
_cell_angle_alpha 90.000000
_cell_angle_beta 142.672974
_cell_angle_gamma 90.000000
_cell_volume 728.403829
_symmetry_space_group_name_H-M "P 21"
_symmetry_group_IT_number 4
_symmetry_cell_setting 'monoclinic'
loop_
_space_group_symop_operation_xyz
x,y,z
-x,1/2+y,-z
loop_
_atom_site_type_symbol
_atom_site_label
_atom_site_fract_x
_atom_site_fract_y
_atom_site_fract_z
Si Si1 0.836072 0.584760 0.409149
Si Si2 0.696425 0.262972 0.615306
Si Si3 0.853189 0.835296 0.609376
Si Si4 0.735222 0.776219 0.098756
Si Si5 0.799838 0.016840 0.337105
Si Si6 0.646230 0.289465 0.310603
Si Si7 0.330670 0.124713 0.359845
Si Si8 0.955699 0.621148 0.102960
O O1 0.928312 0.692896 0.595105
O O2 0.723545 0.674904 0.209005
O O3 0.698400 0.468860 0.345993
O O4 0.989981 0.499100 0.475335
O O5 0.721059 0.215509 0.499104
O O6 0.533308 0.170001 0.522833
O O7 0.671182 0.448166 0.595051
O O8 0.883981 0.196557 0.832018
O O9 0.736012 0.754837 0.606784
O O10 0.738004 0.931501 0.406119
O O11 0.996766 0.947244 0.804064
O O12 0.903040 0.732601 0.168111
O O13 0.737823 0.951075 0.153046
O O14 0.560590 0.762357 0.864684
O O15 0.731029 0.193819 0.276853
O O16 0.213317 0.118524 0.134596
#
# Coordination Sequence:
#
# PCOD8047355 Si02
#       8
#     2   2   2   2   2   2   2   2
#     4  11  22  43  69 100 137 181 229 280 353 420
#     4  12  25  46  71  98 140 186 228 294 352 405
#     4  11  23  42  70 100 132 180 232 281 345 415
#     4  11  24  40  68 106 137 180 228 286 353 416
#     4  11  23  41  69  99 138 182 228 281 347 424
#     4  12  22  44  67 101 143 180 229 289 345 415
#     4  12  27  46  72 101 137 185 242 288 347 411
#     4  12  24  48  70 103 142 182 236 289 346 418
#
# _framework density 21.965837000000001
#
# number of rings (size 3 to 8) (size 9 to 14) (size 15 to 20)
#    0.000    0.500    5.000    4.500    0.000    0.000 
#    0.000    1.250    0.000    0.000    0.000    0.000 
#    0.000    0.000    0.000    0.000    0.000    0.000 
#
# Total GULP energy -198222.246829 kJ/mol
# GULP energy per Si atom -12388.890427 kJ/mol
# Density = 2.191584 g / cm^3
# Si number density = 21.965837 Si / 1000 Ang^3
#
#
#
# Elastic Constant Matrix: (Units=GPa)
#
#
# Indices 1 2 3 4 5 6 
#
# 1 108.4076 51.4871 35.0837 0.0000 10.6787 0.0000
# 2 51.4871 102.3992 17.5407 0.0000 4.2553 0.0000
# 3 35.0837 17.5407 76.3198 0.0000 13.5197 0.0000
# 4 0.0000 0.0000 0.0000 28.0452 0.0000 3.4450
# 5 10.6787 4.2553 13.5197 0.0000 34.0223 0.0000
# 6 0.0000 0.0000 0.0000 3.4450 0.0000 40.1042
#
#
#
# Elastic Compliance Matrix: (Units=1/GPa)
#
#
# Indices 1 2 3 4 5 6 
#
# 1 0.013771 -0.006059 -0.004633 0.000000 -0.001724 0.000000
# 2 -0.006059 0.012836 -0.000234 0.000000 0.000389 0.000000
# 3 -0.004633 -0.000234 0.016161 0.000000 -0.004939 0.000000
# 4 0.000000 0.000000 0.000000 0.036037 0.000000 -0.003096
# 5 -0.001724 0.000389 -0.004939 0.000000 0.031847 0.000000
# 6 0.000000 0.000000 0.000000 -0.003096 0.000000 0.025201
#
#
# Mechanical properties :
#
#
# Convention : Reuss Voigt Hill
#
# Bulk Modulus (GPa) = 47.80728 55.03885 51.42307
# Shear Modulus (GPa) = 30.36250 32.63535 31.49893
#
# Velocity S-wave (km/s) = 3.72191 3.85870 3.79092
# Velocity P-wave (km/s) = 6.34679 6.70550 6.52861
#
# Compressibility (1/GPa) = 0.02091732
#
# Stress axis : x y z
#
# Youngs Moduli (GPa) = 72.61547 77.90518 61.87763
#
# Poissons Ratio (x) = 0.47203 0.28665
# Poissons Ratio (y) = 0.43998 0.01447
# Poissons Ratio (z) = 0.33640 0.01821
#
# Static dielectric constant tensor:
#      x y z
#    x 3.965450 0.000000 -0.115660 
#    y 0.000000 4.141500 0.000000 
#    z -0.115660 0.000000 3.795380 
# 
# 
# High freq. dielectric constant tensor:
#      x y z
#    x 1.867430 0.000000 -0.005670 
#    y 0.000000 1.876850 0.000000 
#    z -0.005670 0.000000 1.850590 
# 
# From -- ./inp_files/11904.got.cif
#   From: 2010.03.12/outbox.cif.g09.slc.cpg/sg4_6_cif.got.tgz:11904.got - 2010.03.31 09:31:35.
