data_PCOD8047690
_publ_section_title
;
Structure prediction by ZEFSAII (Michael W. Deem and Ramdas Pophale) SiO2 
 PCOD8047690
Probable space group: P 21
;
_chemical_formula_sum "Si O2"
_cell_formula_units_Z 14
_cell_length_a 11.707639
_cell_length_b 8.752814
_cell_length_c 9.388946
_cell_angle_alpha 90.000000
_cell_angle_beta 142.315551
_cell_angle_gamma 90.000000
_cell_volume 588.162016
_symmetry_space_group_name_H-M "P 21"
_symmetry_group_IT_number 4
_symmetry_cell_setting 'monoclinic'
loop_
_space_group_symop_operation_xyz
x,y,z
-x,1/2+y,-z
loop_
_atom_site_type_symbol
_atom_site_label
_atom_site_fract_x
_atom_site_fract_y
_atom_site_fract_z
Si Si1 0.325092 0.917870 0.812554
Si Si2 0.435742 0.615781 0.384149
Si Si3 0.991341 0.299800 0.327152
Si Si4 0.711554 0.774852 0.155104
Si Si5 0.216349 0.034777 0.425677
Si Si6 0.916742 0.332335 0.955813
Si Si7 0.288749 0.289540 0.175075
O O1 0.209338 0.801191 0.795940
O O2 0.299366 0.093045 0.836004
O O3 0.262688 0.902305 0.585655
O O4 0.532930 0.862334 0.034561
O O5 0.591958 0.632363 0.411419
O O6 0.253789 0.717875 0.179149
O O7 0.368658 0.442083 0.328227
O O8 0.549149 0.662449 0.640541
O O9 0.133898 0.352803 0.590274
O O10 0.046525 0.133310 0.321669
O O11 0.979652 0.404327 0.171769
O O12 0.754790 0.812863 0.033949
O O13 0.151499 0.965803 0.212865
O O14 0.095182 0.244852 0.063317
#
# Coordination Sequence:
#
# PCOD8047690 Si02
#       7
#     2   2   2   2   2   2   2
#     4  11  26  47  77 107 147 200 249 315 374 453
#     4  12  25  47  78 107 154 192 257 306 381 445
#     4  11  27  44  75 111 151 195 250 307 375 453
#     4  11  27  49  75 107 153 197 256 302 388 444
#     4  11  24  52  71 111 154 198 250 316 376 445
#     4  12  26  44  78 111 151 196 251 310 388 443
#     4  12  27  47  78 114 152 202 249 322 374 457
#
# _framework density 23.802963999999999
#
# number of rings (size 3 to 8) (size 9 to 14) (size 15 to 20)
#    0.000    0.571    4.286    1.714    6.000    5.714 
#    0.000    1.429    0.000    0.000    0.000    0.000 
#    0.000    0.000    0.000    0.000    0.000    0.000 
#
# Total GULP energy -173524.626876 kJ/mol
# GULP energy per Si atom -12394.616205 kJ/mol
# Density = 2.374879 g / cm^3
# Si number density = 23.802964 Si / 1000 Ang^3
#
#
#
# Elastic Constant Matrix: (Units=GPa)
#
#
# Indices 1 2 3 4 5 6 
#
# 1 165.1275 34.9701 87.2393 0.0000 -3.3748 0.0000
# 2 34.9701 76.1031 42.4119 0.0000 -0.6133 0.0000
# 3 87.2393 42.4119 179.8858 0.0000 -24.3230 0.0000
# 4 0.0000 0.0000 0.0000 32.1439 0.0000 1.3514
# 5 -3.3748 -0.6133 -24.3230 0.0000 46.9316 0.0000
# 6 0.0000 0.0000 0.0000 1.3514 0.0000 32.6382
#
#
#
# Elastic Compliance Matrix: (Units=1/GPa)
#
#
# Indices 1 2 3 4 5 6 
#
# 1 0.008443 -0.001729 -0.003880 0.000000 -0.001426 0.000000
# 2 -0.001729 0.015621 -0.003047 0.000000 -0.001499 0.000000
# 3 -0.003880 -0.003047 0.008728 0.000000 0.004204 0.000000
# 4 0.000000 0.000000 0.000000 0.031164 0.000000 -0.001290
# 5 -0.001426 -0.001499 0.004204 0.000000 0.023364 0.000000
# 6 0.000000 0.000000 0.000000 -0.001290 0.000000 0.030692
#
#
# Mechanical properties :
#
#
# Convention : Reuss Voigt Hill
#
# Bulk Modulus (GPa) = 64.60214 83.37321 73.98768
# Shear Modulus (GPa) = 35.59151 39.44241 37.51696
#
# Velocity S-wave (km/s) = 3.87105 4.07509 3.97438
# Velocity P-wave (km/s) = 6.86872 7.56599 7.22577
#
# Compressibility (1/GPa) = 0.01547936
#
# Stress axis : x y z
#
# Youngs Moduli (GPa) = 118.44735 64.01801 114.58015
#
# Poissons Ratio (x) = 0.11068 0.44453
# Poissons Ratio (y) = 0.20478 0.34915
# Poissons Ratio (z) = 0.45953 0.19508
#
# Static dielectric constant tensor:
#      x y z
#    x 4.591790 0.000000 -0.038270 
#    y 0.000000 3.985670 0.000000 
#    z -0.038270 0.000000 4.889330 
# 
# 
# High freq. dielectric constant tensor:
#      x y z
#    x 1.959280 0.000000 0.002880 
#    y 0.000000 1.915780 0.000000 
#    z 0.002880 0.000000 1.967810 
# 
# From -- ./inp_files/7600.got.cif
#   From: 2010.03.12/outbox.cif.g09.slc.cpg/sg4_4_cif.got.tgz:7600.got - 2010.03.31 09:31:35.
