data_PCOD8047022
_publ_section_title
;
Structure prediction by ZEFSAII (Michael W. Deem and Ramdas Pophale) SiO2 
 PCOD8047022
Probable space group: P 21
;
_chemical_formula_sum "Si O2"
_cell_formula_units_Z 12
_cell_length_a 11.081862
_cell_length_b 7.778732
_cell_length_c 5.171173
_cell_angle_alpha 90.000000
_cell_angle_beta 95.627946
_cell_angle_gamma 90.000000
_cell_volume 443.621020
_symmetry_space_group_name_H-M "P 21"
_symmetry_group_IT_number 4
_symmetry_cell_setting 'monoclinic'
loop_
_space_group_symop_operation_xyz
x,y,z
-x,1/2+y,-z
loop_
_atom_site_type_symbol
_atom_site_label
_atom_site_fract_x
_atom_site_fract_y
_atom_site_fract_z
Si Si1 0.118019 0.890590 0.727615
Si Si2 0.770857 0.960971 0.064060
Si Si3 0.548522 0.790981 0.219793
Si Si4 0.339197 0.581712 0.469898
Si Si5 0.393918 0.912132 0.730487
Si Si6 0.008610 0.745628 0.186631
O O1 0.253990 0.961435 0.732639
O O2 0.080151 0.813113 0.447262
O O3 0.097468 0.749055 0.952675
O O4 0.035308 0.053588 0.779163
O O5 0.749669 0.057076 0.788293
O O6 0.669717 0.810127 0.070513
O O7 0.749903 0.096648 0.296471
O O8 0.900036 0.874368 0.098182
O O9 0.566761 0.922146 0.468785
O O10 0.531822 0.590669 0.303396
O O11 0.435784 0.830194 0.008932
O O12 0.406207 0.771407 0.491093
#
# Coordination Sequence:
#
# PCOD8047022 Si02
#       6
#     2   2   2   2   2   2
#     4  12  29  48  79 114 151 207 258 315 390 459
#     4  10  23  50  74 107 149 197 248 321 373 445
#     4  10  23  49  78 112 156 199 254 322 379 464
#     4  10  24  44  76 110 149 193 250 312 381 450
#     4  12  24  52  76 120 149 209 255 314 391 464
#     4  12  27  49  79 109 158 199 261 320 382 460
#
# _framework density 27.050117
#
# number of rings (size 3 to 8) (size 9 to 14) (size 15 to 20)
#    1.000    0.000    3.333    2.000    7.000    1.333 
#   12.000    0.000    0.000    0.000    0.000    0.000 
#    0.000    0.000    0.000    0.000    0.000    0.000 
#
# Total GULP energy -148897.448419 kJ/mol
# GULP energy per Si atom -12408.120702 kJ/mol
# Density = 2.698855 g / cm^3
# Si number density = 27.050117 Si / 1000 Ang^3
#
#
#
# Elastic Constant Matrix: (Units=GPa)
#
#
# Indices 1 2 3 4 5 6 
#
# 1 116.2521 45.3391 66.0652 0.0000 11.7739 0.0000
# 2 45.3391 115.7858 58.4936 0.0000 -12.1459 0.0000
# 3 66.0652 58.4936 220.3086 0.0000 9.5113 0.0000
# 4 0.0000 0.0000 0.0000 52.1977 0.0000 -3.6945
# 5 11.7739 -12.1459 9.5113 0.0000 50.9166 0.0000
# 6 0.0000 0.0000 0.0000 -3.6945 0.0000 41.3252
#
#
#
# Elastic Compliance Matrix: (Units=1/GPa)
#
#
# Indices 1 2 3 4 5 6 
#
# 1 0.011731 -0.003714 -0.002396 0.000000 -0.003151 0.000000
# 2 -0.003714 0.011593 -0.002138 0.000000 0.004024 0.000000
# 3 -0.002396 -0.002138 0.005871 0.000000 -0.001053 0.000000
# 4 0.000000 0.000000 0.000000 0.019280 0.000000 0.001724
# 5 -0.003151 0.004024 -0.001053 0.000000 0.021525 0.000000
# 6 0.000000 0.000000 0.000000 0.001724 0.000000 0.024352
#
#
# Mechanical properties :
#
#
# Convention : Reuss Voigt Hill
#
# Bulk Modulus (GPa) = 78.74374 88.01582 83.37978
# Shear Modulus (GPa) = 43.44776 47.71781 45.58279
#
# Velocity S-wave (km/s) = 4.01208 4.20462 4.10948
# Velocity P-wave (km/s) = 7.11589 7.49536 7.30809
#
# Compressibility (1/GPa) = 0.01269942
#
# Stress axis : x y z
#
# Youngs Moduli (GPa) = 85.24381 86.25809 170.33913
#
# Poissons Ratio (x) = 0.32035 0.40809
# Poissons Ratio (y) = 0.31658 0.36420
# Poissons Ratio (z) = 0.20422 0.18443
#
# Static dielectric constant tensor:
#      x y z
#    x 5.165450 0.000000 -0.225380 
#    y 0.000000 5.157140 0.000000 
#    z -0.225380 0.000000 4.885040 
# 
# 
# High freq. dielectric constant tensor:
#      x y z
#    x 2.143310 0.000000 -0.022580 
#    y 0.000000 2.115360 0.000000 
#    z -0.022580 0.000000 2.100130 
# 
# From -- ./inp_files/2645.got.cif
#   From: 2010.03.12/outbox.cif.g09.slc.cpg/sg4_2_cif.got.tgz:2645.got - 2010.03.31 09:31:35.
