data_PCOD8047082
_publ_section_title
;
Structure prediction by ZEFSAII (Michael W. Deem and Ramdas Pophale) SiO2 
 PCOD8047082
Probable space group: P 21
;
_chemical_formula_sum "Si O2"
_cell_formula_units_Z 16
_cell_length_a 10.115221
_cell_length_b 7.164689
_cell_length_c 9.718352
_cell_angle_alpha 90.000000
_cell_angle_beta 110.824854
_cell_angle_gamma 90.000000
_cell_volume 658.300777
_symmetry_space_group_name_H-M "P 21"
_symmetry_group_IT_number 4
_symmetry_cell_setting 'monoclinic'
loop_
_space_group_symop_operation_xyz
x,y,z
-x,1/2+y,-z
loop_
_atom_site_type_symbol
_atom_site_label
_atom_site_fract_x
_atom_site_fract_y
_atom_site_fract_z
Si Si1 0.402586 0.608950 0.117914
Si Si2 0.049151 0.791975 0.169440
Si Si3 0.839146 0.894766 0.856146
Si Si4 0.405038 0.643717 0.601515
Si Si5 0.349128 0.889809 0.330011
Si Si6 0.663010 0.360462 0.157739
Si Si7 0.088892 0.101670 0.650830
Si Si8 0.176563 0.352004 0.448420
O O1 0.304468 0.425898 0.109867
O O2 0.422285 0.730252 0.262710
O O3 0.549573 0.528456 0.116597
O O4 0.332573 0.751075 0.984042
O O5 0.122895 0.593269 0.192936
O O6 0.183189 0.931772 0.233036
O O7 0.946992 0.782374 0.265338
O O8 0.963793 0.821374 0.998161
O O9 0.826522 0.774044 0.710766
O O10 0.367160 0.819621 0.492660
O O11 0.571100 0.587743 0.658122
O O12 0.365556 0.703690 0.739801
O O13 0.323360 0.457335 0.527297
O O14 0.815093 0.455482 0.230336
O O15 0.168486 0.171186 0.543451
O O16 0.948695 0.992242 0.554995
#
# Coordination Sequence:
#
# PCOD8047082 Si02
#       8
#     2   2   2   2   2   2   2   2
#     4  11  25  48  65 107 140 185 246 287 364 436
#     4  10  24  44  69 107 136 184 237 290 367 417
#     4  10  24  44  70  99 139 182 237 292 350 429
#     4  12  24  47  71 103 143 189 244 300 369 431
#     4  11  24  47  71 104 143 185 243 299 353 446
#     4  12  28  44  72 103 142 197 238 304 369 429
#     4  11  25  45  73 105 149 186 241 305 368 437
#     4  11  24  47  69 110 142 192 242 301 368 433
#
# _framework density 24.305
#
# number of rings (size 3 to 8) (size 9 to 14) (size 15 to 20)
#    0.000    1.000    3.750    3.000   10.500    2.000 
#    0.000    0.000    0.000    0.000    0.000    0.000 
#    0.000    0.000    0.000    0.000    0.000    0.000 
#
# Total GULP energy -198434.601547 kJ/mol
# GULP energy per Si atom -12402.162597 kJ/mol
# Density = 2.424968 g / cm^3
# Si number density = 24.305000 Si / 1000 Ang^3
#
#
#
# Elastic Constant Matrix: (Units=GPa)
#
#
# Indices 1 2 3 4 5 6 
#
# 1 82.3928 20.6854 27.4407 0.0000 2.2311 0.0000
# 2 20.6854 42.3267 28.1562 0.0000 -3.9612 0.0000
# 3 27.4407 28.1562 108.2081 0.0000 0.9650 0.0000
# 4 0.0000 0.0000 0.0000 50.3144 0.0000 0.3924
# 5 2.2311 -3.9612 0.9650 0.0000 33.5195 0.0000
# 6 0.0000 0.0000 0.0000 0.3924 0.0000 41.7187
#
#
#
# Elastic Compliance Matrix: (Units=1/GPa)
#
#
# Indices 1 2 3 4 5 6 
#
# 1 0.014328 -0.005734 -0.002127 0.000000 -0.001570 0.000000
# 2 -0.005734 0.031305 -0.006730 0.000000 0.004275 0.000000
# 3 -0.002127 -0.006730 0.011541 0.000000 -0.000986 0.000000
# 4 0.000000 0.000000 0.000000 0.019876 0.000000 -0.000187
# 5 -0.001570 0.004275 -0.000986 0.000000 0.030471 0.000000
# 6 0.000000 0.000000 0.000000 -0.000187 0.000000 0.023972
#
#
# Mechanical properties :
#
#
# Convention : Reuss Voigt Hill
#
# Bulk Modulus (GPa) = 35.72537 42.83245 39.27891
# Shear Modulus (GPa) = 29.41095 35.55353 32.48224
#
# Velocity S-wave (km/s) = 3.48239 3.82882 3.65970
# Velocity P-wave (km/s) = 5.55878 6.09980 5.83557
#
# Compressibility (1/GPa) = 0.02799132
#
# Stress axis : x y z
#
# Youngs Moduli (GPa) = 69.79572 31.94424 86.64886
#
# Poissons Ratio (x) = 0.18316 0.18434
# Poissons Ratio (y) = 0.40019 0.58312
# Poissons Ratio (z) = 0.14848 0.21497
#
# Static dielectric constant tensor:
#      x y z
#    x 4.725050 0.000000 -0.027970 
#    y 0.000000 4.162920 0.000000 
#    z -0.027970 0.000000 4.456640 
# 
# 
# High freq. dielectric constant tensor:
#      x y z
#    x 1.975620 0.000000 -0.001020 
#    y 0.000000 1.954320 0.000000 
#    z -0.001020 0.000000 1.974420 
# 
# From -- ./inp_files/5494.got.cif
#   From: 2010.03.12/outbox.cif.g09.slc.cpg/sg4_3_cif.got.tgz:5494.got - 2010.03.31 09:31:35.
