data_PCOD8047140
_publ_section_title
;
Structure prediction by ZEFSAII (Michael W. Deem and Ramdas Pophale) SiO2 
 PCOD8047140
Probable space group: P 21
;
_chemical_formula_sum "Si O2"
_cell_formula_units_Z 16
_cell_length_a 6.645834
_cell_length_b 13.668899
_cell_length_c 8.346285
_cell_angle_alpha 90.000000
_cell_angle_beta 123.426348
_cell_angle_gamma 90.000000
_cell_volume 632.778655
_symmetry_space_group_name_H-M "P 21"
_symmetry_group_IT_number 4
_symmetry_cell_setting 'monoclinic'
loop_
_space_group_symop_operation_xyz
x,y,z
-x,1/2+y,-z
loop_
_atom_site_type_symbol
_atom_site_label
_atom_site_fract_x
_atom_site_fract_y
_atom_site_fract_z
Si Si1 0.336816 0.214040 0.893542
Si Si2 0.118161 0.931975 0.620264
Si Si3 0.119572 0.940068 0.240966
Si Si4 0.370955 0.124223 0.230803
Si Si5 0.652319 0.910301 0.901672
Si Si6 0.871424 0.128388 0.592929
Si Si7 0.338665 0.747671 0.237892
Si Si8 0.222028 0.301698 0.352086
O O1 0.585983 0.211968 0.904727
O O2 0.110310 0.195711 0.671936
O O3 0.327676 0.127016 0.021334
O O4 0.323078 0.316163 0.975362
O O5 0.119073 0.919941 0.429570
O O6 0.386907 0.957422 0.800293
O O7 0.023893 0.832654 0.664114
O O8 0.935747 0.015981 0.595290
O O9 0.151033 0.837980 0.156099
O O10 0.326879 0.016597 0.282531
O O11 0.860582 0.981802 0.064202
O O12 0.650611 0.157205 0.378791
O O13 0.190077 0.198781 0.244045
O O14 0.695654 0.885531 0.735359
O O15 0.774415 0.151109 0.729660
O O16 0.569990 0.792200 0.426732
#
# Coordination Sequence:
#
# PCOD8047140 Si02
#       8
#     2   2   2   2   2   2   2   2
#     4  11  26  47  77 109 149 199 247 316 376 443
#     4  12  28  46  74 109 156 204 248 312 384 439
#     4  12  26  50  75 113 151 200 253 311 372 457
#     4  10  27  50  75 114 152 198 256 312 376 449
#     4  11  26  48  73 111 148 202 253 306 375 449
#     4  11  27  49  73 113 150 197 252 311 379 444
#     4  11  24  48  81 104 152 196 252 310 376 446
#     4  10  24  48  76 105 152 196 253 308 370 451
#
# _framework density 25.285305999999999
#
# number of rings (size 3 to 8) (size 9 to 14) (size 15 to 20)
#    0.000    1.000    2.500    1.500    7.000    1.000 
#    4.500    1.250    0.000    0.000    0.000    0.000 
#    0.000    0.000    0.000    0.000    0.000    0.000 
#
# Total GULP energy -198378.947044 kJ/mol
# GULP energy per Si atom -12398.684190 kJ/mol
# Density = 2.522776 g / cm^3
# Si number density = 25.285306 Si / 1000 Ang^3
#
#
#
# Elastic Constant Matrix: (Units=GPa)
#
#
# Indices 1 2 3 4 5 6 
#
# 1 161.9474 55.2299 59.9193 0.0000 -4.0855 0.0000
# 2 55.2299 70.5893 28.2971 0.0000 -16.5255 0.0000
# 3 59.9193 28.2971 89.5225 0.0000 11.6581 0.0000
# 4 0.0000 0.0000 0.0000 26.3553 0.0000 5.6404
# 5 -4.0855 -16.5255 11.6581 0.0000 41.1912 0.0000
# 6 0.0000 0.0000 0.0000 5.6404 0.0000 48.7900
#
#
#
# Elastic Compliance Matrix: (Units=1/GPa)
#
#
# Indices 1 2 3 4 5 6 
#
# 1 0.009952 -0.005860 -0.004809 0.000000 -0.000003 0.000000
# 2 -0.005860 0.022925 -0.004616 0.000000 0.009922 0.000000
# 3 -0.004809 -0.004616 0.016770 0.000000 -0.007075 0.000000
# 4 0.000000 0.000000 0.000000 0.038906 0.000000 -0.004498
# 5 -0.000003 0.009922 -0.007075 0.000000 0.030260 0.000000
# 6 0.000000 0.000000 0.000000 -0.004498 0.000000 0.021016
#
#
# Mechanical properties :
#
#
# Convention : Reuss Voigt Hill
#
# Bulk Modulus (GPa) = 52.41963 67.66132 60.04048
# Shear Modulus (GPa) = 28.28743 35.17482 31.73112
#
# Velocity S-wave (km/s) = 3.34837 3.73381 3.54633
# Velocity P-wave (km/s) = 5.97704 6.73838 6.36910
#
# Compressibility (1/GPa) = 0.01907682
#
# Stress axis : x y z
#
# Youngs Moduli (GPa) = 100.47843 43.62104 59.63202
#
# Poissons Ratio (x) = 0.25561 0.28676
# Poissons Ratio (y) = 0.58879 0.27528
# Poissons Ratio (z) = 0.48318 0.20137
#
# Static dielectric constant tensor:
#      x y z
#    x 4.750320 0.000000 0.098190 
#    y 0.000000 4.172080 0.000000 
#    z 0.098190 0.000000 4.679980 
# 
# 
# High freq. dielectric constant tensor:
#      x y z
#    x 2.019290 0.000000 0.007750 
#    y 0.000000 1.987830 0.000000 
#    z 0.007750 0.000000 2.014890 
# 
# From -- ./inp_files/4809.got.cif
#   From: 2010.03.12/outbox.cif.g09.slc.cpg/sg4_3_cif.got.tgz:4809.got - 2010.03.31 09:31:35.
