data_PCOD8047465
_publ_section_title
;
Structure prediction by ZEFSAII (Michael W. Deem and Ramdas Pophale) SiO2 
 PCOD8047465
Probable space group: P 21
;
_chemical_formula_sum "Si O2"
_cell_formula_units_Z 12
_cell_length_a 9.129661
_cell_length_b 5.163186
_cell_length_c 15.149030
_cell_angle_alpha 90.000000
_cell_angle_beta 132.838575
_cell_angle_gamma 90.000000
_cell_volume 523.627566
_symmetry_space_group_name_H-M "P 21"
_symmetry_group_IT_number 4
_symmetry_cell_setting 'monoclinic'
loop_
_space_group_symop_operation_xyz
x,y,z
-x,1/2+y,-z
loop_
_atom_site_type_symbol
_atom_site_label
_atom_site_fract_x
_atom_site_fract_y
_atom_site_fract_z
Si Si1 0.779953 0.123550 0.798511
Si Si2 0.474566 0.622719 0.043040
Si Si3 0.130604 0.639221 0.535866
Si Si4 0.199171 0.303063 0.034363
Si Si5 0.480024 0.426088 0.784709
Si Si6 0.363934 0.620282 0.448913
O O1 0.580052 0.281831 0.742519
O O2 0.779319 0.072748 0.694125
O O3 0.784298 0.853385 0.853422
O O4 0.975891 0.270776 0.910743
O O5 0.565267 0.354776 0.042567
O O6 0.264592 0.551823 0.003630
O O7 0.615751 0.726423 0.182056
O O8 0.310926 0.616959 0.679687
O O9 0.219918 0.620774 0.474346
O O10 0.030211 0.915301 0.512091
O O11 0.352261 0.066449 0.084794
O O12 0.528136 0.395361 0.518223
#
# Coordination Sequence:
#
# PCOD8047465 Si02
#       6
#     2   2   2   2   2   2
#     4  11  24  43  77 112 145 188 257 312 380 449
#     4  11  24  44  69 103 147 195 240 289 385 456
#     4  12  29  51  76 111 150 206 257 309 388 446
#     4  11  23  43  75 112 148 191 238 319 385 440
#     4  11  24  48  75 101 157 191 249 318 373 448
#     4  12  26  51  82 109 149 203 263 319 369 447
#
# _framework density 22.91705
#
# number of rings (size 3 to 8) (size 9 to 14) (size 15 to 20)
#    0.000    0.667    5.000    2.000    4.667    1.333 
#    3.000    0.000    0.000    0.000    0.000    0.000 
#    0.000    0.000    0.000    0.000    0.000    0.000 
#
# Total GULP energy -148715.566879 kJ/mol
# GULP energy per Si atom -12392.963907 kJ/mol
# Density = 2.286489 g / cm^3
# Si number density = 22.917050 Si / 1000 Ang^3
#
#
#
# Elastic Constant Matrix: (Units=GPa)
#
#
# Indices 1 2 3 4 5 6 
#
# 1 117.6375 23.3293 22.0635 0.0000 -22.0720 0.0000
# 2 23.3293 82.0478 0.4232 0.0000 -8.3625 0.0000
# 3 22.0635 0.4232 73.0759 0.0000 -3.9957 0.0000
# 4 0.0000 0.0000 0.0000 40.1068 0.0000 4.5055
# 5 -22.0720 -8.3625 -3.9957 0.0000 36.3870 0.0000
# 6 0.0000 0.0000 0.0000 4.5055 0.0000 39.5661
#
#
#
# Elastic Compliance Matrix: (Units=1/GPa)
#
#
# Indices 1 2 3 4 5 6 
#
# 1 0.010558 -0.002423 -0.002871 0.000000 0.005532 0.000000
# 2 -0.002423 0.013037 0.000744 0.000000 0.001608 0.000000
# 3 -0.002871 0.000744 0.014548 0.000000 0.000027 0.000000
# 4 0.000000 0.000000 0.000000 0.025257 0.000000 -0.002876
# 5 0.005532 0.001608 0.000027 0.000000 0.031211 0.000000
# 6 0.000000 0.000000 0.000000 -0.002876 0.000000 0.025602
#
#
# Mechanical properties :
#
#
# Convention : Reuss Voigt Hill
#
# Bulk Modulus (GPa) = 34.43227 40.48813 37.46020
# Shear Modulus (GPa) = 35.97287 38.34164 37.15726
#
# Velocity S-wave (km/s) = 3.96624 4.09475 4.03101
# Velocity P-wave (km/s) = 6.00268 6.32942 6.16821
#
# Compressibility (1/GPa) = 0.02904253
#
# Stress axis : x y z
#
# Youngs Moduli (GPa) = 94.71737 76.70416 68.73589
#
# Poissons Ratio (x) = 0.18588 0.19735
# Poissons Ratio (y) = 0.22953 -0.05115
# Poissons Ratio (z) = 0.27195 -0.05707
#
# Static dielectric constant tensor:
#      x y z
#    x 4.435100 0.000000 -0.222130 
#    y 0.000000 4.440820 0.000000 
#    z -0.222130 0.000000 3.989640 
# 
# 
# High freq. dielectric constant tensor:
#      x y z
#    x 1.915810 0.000000 -0.018520 
#    y 0.000000 1.922810 0.000000 
#    z -0.018520 0.000000 1.890600 
# 
# From -- ./inp_files/13019.got.cif
#   From: 2010.03.12/outbox.cif.g09.slc.cpg/sg4_7_cif.got.tgz:13019.got - 2010.03.31 09:31:35.
