data_PCOD8047678
_publ_section_title
;
Structure prediction by ZEFSAII (Michael W. Deem and Ramdas Pophale) SiO2 
 PCOD8047678
Probable space group: P 21
;
_chemical_formula_sum "Si O2"
_cell_formula_units_Z 14
_cell_length_a 6.441882
_cell_length_b 13.444727
_cell_length_c 8.195442
_cell_angle_alpha 90.000000
_cell_angle_beta 60.913355
_cell_angle_gamma 90.000000
_cell_volume 620.285597
_symmetry_space_group_name_H-M "P 21"
_symmetry_group_IT_number 4
_symmetry_cell_setting 'monoclinic'
loop_
_space_group_symop_operation_xyz
x,y,z
-x,1/2+y,-z
loop_
_atom_site_type_symbol
_atom_site_label
_atom_site_fract_x
_atom_site_fract_y
_atom_site_fract_z
Si Si1 0.420561 0.623980 0.711843
Si Si2 0.673868 0.279586 0.506916
Si Si3 0.843197 0.774604 0.148597
Si Si4 0.661173 0.642393 0.941812
Si Si5 0.156954 0.652490 0.273128
Si Si6 0.209509 0.000904 0.614309
Si Si7 0.013775 0.994765 0.041940
O O1 0.293934 0.717087 0.672516
O O2 0.605742 0.667991 0.774373
O O3 0.550092 0.559271 0.522958
O O4 0.235536 0.553022 0.876913
O O5 0.396840 0.284446 0.656597
O O6 0.835847 0.231505 0.584228
O O7 0.781224 0.388107 0.445187
O O8 0.023367 0.699884 0.168108
O O9 0.790344 0.734102 0.985687
O O10 0.972029 0.879850 0.090935
O O11 0.418904 0.617366 0.128003
O O12 0.827581 0.544107 0.875790
O O13 0.013835 0.554945 0.387921
O O14 0.172431 0.009374 0.821205
#
# Coordination Sequence:
#
# PCOD8047678 Si02
#       7
#     2   2   2   2   2   2   2
#     4  12  26  49  72 109 149 191 244 300 369 433
#     4  11  27  46  75 109 148 195 246 304 362 440
#     4  11  24  49  73 107 146 192 246 302 366 435
#     4  11  25  47  73 104 145 193 233 309 362 431
#     4  11  24  50  73 105 154 185 246 304 360 436
#     4  12  25  48  73 110 143 193 246 295 370 433
#     4  12  27  47  73 106 149 191 243 302 369 438
#
# _framework density 22.570249
#
# number of rings (size 3 to 8) (size 9 to 14) (size 15 to 20)
#    0.000    0.571    5.714    0.857    8.000    0.000 
#    2.571    0.000    0.000    0.000    0.000    0.000 
#    0.000    0.000    0.000    0.000    0.000    0.000 
#
# Total GULP energy -173644.837307 kJ/mol
# GULP energy per Si atom -12403.202665 kJ/mol
# Density = 2.251888 g / cm^3
# Si number density = 22.570249 Si / 1000 Ang^3
#
#
#
# Elastic Constant Matrix: (Units=GPa)
#
#
# Indices 1 2 3 4 5 6 
#
# 1 108.9916 54.8922 26.7393 0.0000 9.0612 0.0000
# 2 54.8922 173.4259 38.8952 0.0000 -2.7396 0.0000
# 3 26.7393 38.8952 83.1102 0.0000 6.2704 0.0000
# 4 0.0000 0.0000 0.0000 40.8224 0.0000 -8.3423
# 5 9.0612 -2.7396 6.2704 0.0000 40.3361 0.0000
# 6 0.0000 0.0000 0.0000 -8.3423 0.0000 32.3641
#
#
#
# Elastic Compliance Matrix: (Units=1/GPa)
#
#
# Indices 1 2 3 4 5 6 
#
# 1 0.011500 -0.003231 -0.002000 0.000000 -0.002492 0.000000
# 2 -0.003231 0.007384 -0.002538 0.000000 0.001622 0.000000
# 3 -0.002000 -0.002538 0.014007 0.000000 -0.001901 0.000000
# 4 0.000000 0.000000 0.000000 0.025858 0.000000 0.006665
# 5 -0.002492 0.001622 -0.001901 0.000000 0.025757 0.000000
# 6 0.000000 0.000000 0.000000 0.006665 0.000000 0.032617
#
#
# Mechanical properties :
#
#
# Convention : Reuss Voigt Hill
#
# Bulk Modulus (GPa) = 57.62892 67.39789 62.51341
# Shear Modulus (GPa) = 36.11537 39.03791 37.57664
#
# Velocity S-wave (km/s) = 4.00450 4.16338 4.08471
# Velocity P-wave (km/s) = 6.85346 7.28271 7.07134
#
# Compressibility (1/GPa) = 0.01735240
#
# Stress axis : x y z
#
# Youngs Moduli (GPa) = 86.95668 135.43390 71.39269
#
# Poissons Ratio (x) = 0.43756 0.14278
# Poissons Ratio (y) = 0.28094 0.18123
# Poissons Ratio (z) = 0.17391 0.34379
#
# Static dielectric constant tensor:
#      x y z
#    x 4.141400 0.000000 -0.097220 
#    y 0.000000 4.213140 0.000000 
#    z -0.097220 0.000000 4.174220 
# 
# 
# High freq. dielectric constant tensor:
#      x y z
#    x 1.892070 0.000000 -0.009720 
#    y 0.000000 1.890090 0.000000 
#    z -0.009720 0.000000 1.902060 
# 
# From -- ./inp_files/1822.got.cif
#   From: 2010.03.12/outbox.cif.g09.slc.cpg/sg4_1_cif.got.tgz:1822.got - 2010.03.31 09:31:35.
