data_PCOD8047457
_publ_section_title
;
Structure prediction by ZEFSAII (Michael W. Deem and Ramdas Pophale) SiO2 
 PCOD8047457
Probable space group: P 21
;
_chemical_formula_sum "Si O2"
_cell_formula_units_Z 12
_cell_length_a 12.217111
_cell_length_b 8.134402
_cell_length_c 8.636512
_cell_angle_alpha 90.000000
_cell_angle_beta 36.334675
_cell_angle_gamma 90.000000
_cell_volume 508.535742
_symmetry_space_group_name_H-M "P 21"
_symmetry_group_IT_number 4
_symmetry_cell_setting 'monoclinic'
loop_
_space_group_symop_operation_xyz
x,y,z
-x,1/2+y,-z
loop_
_atom_site_type_symbol
_atom_site_label
_atom_site_fract_x
_atom_site_fract_y
_atom_site_fract_z
Si Si1 0.461545 0.509070 0.126625
Si Si2 0.071801 0.585762 0.514067
Si Si3 0.781682 0.320864 0.891930
Si Si4 0.863342 0.782401 0.995431
Si Si5 0.824156 0.429318 0.177116
Si Si6 0.510211 0.857249 0.221078
O O1 0.241054 0.492447 0.408737
O O2 0.532310 0.683272 0.109269
O O3 0.568991 0.362791 0.092641
O O4 0.498383 0.498082 0.899774
O O5 0.153090 0.650491 0.258328
O O6 0.905729 0.462610 0.671464
O O7 0.001436 0.736155 0.698705
O O8 0.806538 0.312238 0.047086
O O9 0.796017 0.618300 0.161498
O O10 0.686008 0.880036 0.133218
O O11 0.970884 0.904357 0.988001
O O12 0.673695 0.369191 0.469796
#
# Coordination Sequence:
#
# PCOD8047457 Si02
#       6
#     2   2   2   2   2   2
#     4  12  23  45  71  99 139 181 234 287 341 410
#     4  11  23  43  70  98 140 177 238 280 337 418
#     4  11  25  43  70 103 133 186 228 285 349 403
#     4  11  25  48  68 103 142 185 230 285 349 413
#     4  11  26  46  68 104 145 180 231 286 351 413
#     4  12  26  47  71 105 141 183 237 285 349 415
#
# _framework density 23.597162000000001
#
# number of rings (size 3 to 8) (size 9 to 14) (size 15 to 20)
#    0.000    0.667    6.667    1.000    0.000    9.333 
#    3.000    0.000    0.000    0.000    0.000    0.000 
#    0.000    0.000    0.000    0.000    0.000    0.000 
#
# Total GULP energy -148824.561219 kJ/mol
# GULP energy per Si atom -12402.046768 kJ/mol
# Density = 2.354345 g / cm^3
# Si number density = 23.597162 Si / 1000 Ang^3
#
#
#
# Elastic Constant Matrix: (Units=GPa)
#
#
# Indices 1 2 3 4 5 6 
#
# 1 161.8045 20.6438 39.4807 0.0000 -9.3141 0.0000
# 2 20.6438 39.8301 24.2385 0.0000 11.1533 0.0000
# 3 39.4807 24.2385 95.8990 0.0000 3.5088 0.0000
# 4 0.0000 0.0000 0.0000 27.2654 0.0000 3.8365
# 5 -9.3141 11.1533 3.5088 0.0000 40.6600 0.0000
# 6 0.0000 0.0000 0.0000 3.8365 0.0000 43.4473
#
#
#
# Elastic Compliance Matrix: (Units=1/GPa)
#
#
# Indices 1 2 3 4 5 6 
#
# 1 0.007303 -0.003144 -0.002312 0.000000 0.002735 0.000000
# 2 -0.003144 0.033504 -0.006833 0.000000 -0.009321 0.000000
# 3 -0.002312 -0.006833 0.013099 0.000000 0.000214 0.000000
# 4 0.000000 0.000000 0.000000 0.037138 0.000000 -0.003279
# 5 0.002735 -0.009321 0.000214 0.000000 0.027759 0.000000
# 6 0.000000 0.000000 0.000000 -0.003279 0.000000 0.023306
#
#
# Mechanical properties :
#
#
# Convention : Reuss Voigt Hill
#
# Bulk Modulus (GPa) = 34.09671 51.80661 42.95166
# Shear Modulus (GPa) = 28.33460 36.48590 32.41025
#
# Velocity S-wave (km/s) = 3.46896 3.93644 3.71007
# Velocity P-wave (km/s) = 5.52502 6.53169 6.04933
#
# Compressibility (1/GPa) = 0.02932834
#
# Stress axis : x y z
#
# Youngs Moduli (GPa) = 136.93037 29.84686 76.34386
#
# Poissons Ratio (x) = 0.09384 0.17651
# Poissons Ratio (y) = 0.43050 0.52165
# Poissons Ratio (z) = 0.31658 0.20394
#
# Static dielectric constant tensor:
#      x y z
#    x 4.542060 0.000000 -0.082070 
#    y 0.000000 3.970510 0.000000 
#    z -0.082070 0.000000 4.161010 
# 
# 
# High freq. dielectric constant tensor:
#      x y z
#    x 1.951700 0.000000 -0.009610 
#    y 0.000000 1.918910 0.000000 
#    z -0.009610 0.000000 1.933340 
# 
# From -- ./inp_files/7584.got.cif
#   From: 2010.03.12/outbox.cif.g09.slc.cpg/sg4_4_cif.got.tgz:7584.got - 2010.03.31 09:31:35.
