data_PCOD8047913
_publ_section_title
;
Structure prediction by ZEFSAII (Michael W. Deem and Ramdas Pophale) SiO2 
 PCOD8047913
Probable space group: P 21
;
_chemical_formula_sum "Si O2"
_cell_formula_units_Z 14
_cell_length_a 8.954165
_cell_length_b 5.042648
_cell_length_c 14.406206
_cell_angle_alpha 90.000000
_cell_angle_beta 127.364414
_cell_angle_gamma 90.000000
_cell_volume 516.995416
_symmetry_space_group_name_H-M "P 21"
_symmetry_group_IT_number 4
_symmetry_cell_setting 'monoclinic'
loop_
_space_group_symop_operation_xyz
x,y,z
-x,1/2+y,-z
loop_
_atom_site_type_symbol
_atom_site_label
_atom_site_fract_x
_atom_site_fract_y
_atom_site_fract_z
Si Si1 0.670723 0.118160 0.707944
Si Si2 0.649011 0.147295 0.191653
Si Si3 0.939231 0.563207 0.234594
Si Si4 0.568962 0.100419 0.368273
Si Si5 0.881920 0.200369 0.962909
Si Si6 0.688065 0.891771 0.025580
Si Si7 0.038698 0.784134 0.455207
O O1 0.524715 0.344424 0.615579
O O2 0.738498 0.272883 0.826903
O O3 0.839335 0.037590 0.702765
O O4 0.571035 0.844554 0.693127
O O5 0.844444 0.296313 0.239237
O O6 0.651633 0.029833 0.296360
O O7 0.602552 0.924176 0.096447
O O8 0.466936 0.335734 0.111132
O O9 0.844989 0.662973 0.102103
O O10 0.920615 0.779569 0.313215
O O11 0.751893 0.188021 0.495023
O O12 0.048032 0.405336 0.037325
O O13 0.785361 0.164848 0.027404
O O14 0.950274 0.576021 0.496050
#
# Coordination Sequence:
#
# PCOD8047913 Si02
#       7
#     2   2   2   2   2   2   2
#     4  12  28  47  76 110 155 203 247 309 383 455
#     4  12  26  44  73 108 148 195 256 313 372 450
#     4  12  28  49  74 110 148 200 255 309 385 455
#     4  12  28  50  76 112 151 199 256 314 377 449
#     4  12  25  45  70 105 155 201 246 297 379 456
#     4  12  26  40  74 105 146 194 252 308 371 448
#     4  12  27  51  83 112 147 194 254 320 379 447
#
# _framework density 27.079546000000001
#
# number of rings (size 3 to 8) (size 9 to 14) (size 15 to 20)
#    0.000    0.000    5.714    3.429    6.000    1.143 
#    0.000    0.000    0.000    0.000    0.000    0.000 
#    0.000    0.000    0.000    0.000    0.000    0.000 
#
# Total GULP energy -173557.910783 kJ/mol
# GULP energy per Si atom -12396.993627 kJ/mol
# Density = 2.701791 g / cm^3
# Si number density = 27.079546 Si / 1000 Ang^3
#
#
#
# Elastic Constant Matrix: (Units=GPa)
#
#
# Indices 1 2 3 4 5 6 
#
# 1 109.4331 13.9972 6.2074 0.0000 22.0989 0.0000
# 2 13.9972 76.6490 -21.3112 0.0000 4.7870 0.0000
# 3 6.2074 -21.3112 69.8658 0.0000 -9.4476 0.0000
# 4 0.0000 0.0000 0.0000 25.1552 0.0000 -0.5454
# 5 22.0989 4.7870 -9.4476 0.0000 38.2831 0.0000
# 6 0.0000 0.0000 0.0000 -0.5454 0.0000 49.9424
#
#
#
# Elastic Compliance Matrix: (Units=1/GPa)
#
#
# Indices 1 2 3 4 5 6 
#
# 1 0.010920 -0.002293 -0.002569 0.000000 -0.006651 0.000000
# 2 -0.002293 0.014757 0.004795 0.000000 0.000662 0.000000
# 3 -0.002569 0.004795 0.016680 0.000000 0.005000 0.000000
# 4 0.000000 0.000000 0.000000 0.039763 0.000000 0.000434
# 5 -0.006651 0.000662 0.005000 0.000000 0.031112 0.000000
# 6 0.000000 0.000000 0.000000 0.000434 0.000000 0.020028
#
#
# Mechanical properties :
#
#
# Convention : Reuss Voigt Hill
#
# Bulk Modulus (GPa) = 23.68442 28.19274 25.93858
# Shear Modulus (GPa) = 33.90562 39.81310 36.85936
#
# Velocity S-wave (km/s) = 3.54231 3.83851 3.69338
# Velocity P-wave (km/s) = 5.04934 5.48446 5.27139
#
# Compressibility (1/GPa) = 0.04222185
#
# Stress axis : x y z
#
# Youngs Moduli (GPa) = 91.57422 67.76460 59.95208
#
# Poissons Ratio (x) = 0.15539 0.15402
# Poissons Ratio (y) = 0.20999 -0.28744
# Poissons Ratio (z) = 0.23526 -0.32490
#
# Static dielectric constant tensor:
#      x y z
#    x 5.058190 0.000000 0.146640 
#    y 0.000000 4.563440 0.000000 
#    z 0.146640 0.000000 5.040470 
# 
# 
# High freq. dielectric constant tensor:
#      x y z
#    x 2.101410 0.000000 0.008230 
#    y 0.000000 2.082810 0.000000 
#    z 0.008230 0.000000 2.093700 
# 
# From -- ./inp_files/7119.got.cif
#   From: 2010.03.12/outbox.cif.g09.slc.cpg/sg4_4_cif.got.tgz:7119.got - 2010.03.31 09:31:35.
