data_PCOD8047902
_publ_section_title
;
Structure prediction by ZEFSAII (Michael W. Deem and Ramdas Pophale) SiO2 
 PCOD8047902
Probable space group: P 21
;
_chemical_formula_sum "Si O2"
_cell_formula_units_Z 16
_cell_length_a 9.200860
_cell_length_b 12.245463
_cell_length_c 8.737395
_cell_angle_alpha 90.000000
_cell_angle_beta 45.000836
_cell_angle_gamma 90.000000
_cell_volume 696.108508
_symmetry_space_group_name_H-M "P 21"
_symmetry_group_IT_number 4
_symmetry_cell_setting 'monoclinic'
loop_
_space_group_symop_operation_xyz
x,y,z
-x,1/2+y,-z
loop_
_atom_site_type_symbol
_atom_site_label
_atom_site_fract_x
_atom_site_fract_y
_atom_site_fract_z
Si Si1 0.734577 0.103080 0.035172
Si Si2 0.678725 0.316767 0.271806
Si Si3 0.090828 0.430005 0.445581
Si Si4 0.098781 0.377162 0.097175
Si Si5 0.522537 0.520124 0.213844
Si Si6 0.296510 0.074425 0.237397
Si Si7 0.936954 0.715400 0.378101
Si Si8 0.667547 0.717899 0.288766
O O1 0.734157 0.199928 0.157849
O O2 0.509231 0.057654 0.166973
O O3 0.845974 0.149579 0.796160
O O4 0.849399 0.995897 0.014477
O O5 0.618848 0.402938 0.184777
O O6 0.487562 0.305567 0.526162
O O7 0.861148 0.359013 0.240524
O O8 0.147980 0.375829 0.240916
O O9 0.281002 0.506874 0.355052
O O10 0.039109 0.344835 0.620481
O O11 0.874772 0.489180 0.581275
O O12 0.227333 0.277570 0.931839
O O13 0.546668 0.607978 0.331255
O O14 0.659743 0.569553 0.974584
O O15 0.199344 0.187559 0.370442
O O16 0.831628 0.684963 0.295542
#
# Coordination Sequence:
#
# PCOD8047902 Si02
#       8
#     2   2   2   2   2   2   2   2
#     4  12  25  49  73 111 156 196 253 310 381 448
#     4  12  28  46  80 110 154 204 246 321 376 454
#     4  12  27  49  77 112 153 201 254 312 381 457
#     4  12  28  48  76 118 150 196 259 314 380 456
#     4  12  27  50  74 118 150 198 262 308 385 455
#     4  12  25  47  79 106 149 206 239 322 373 448
#     4  12  24  51  74 110 153 203 253 311 382 447
#     4  12  28  46  81 111 151 204 252 316 380 453
#
# _framework density 22.984922000000001
#
# number of rings (size 3 to 8) (size 9 to 14) (size 15 to 20)
#    0.000    0.000    6.250    2.250    3.500    3.000 
#    0.000    0.000    0.000    0.000    0.000    0.000 
#    0.000    0.000    0.000    0.000    0.000    0.000 
#
# Total GULP energy -198384.871524 kJ/mol
# GULP energy per Si atom -12399.054470 kJ/mol
# Density = 2.293261 g / cm^3
# Si number density = 22.984922 Si / 1000 Ang^3
#
#
#
# Elastic Constant Matrix: (Units=GPa)
#
#
# Indices 1 2 3 4 5 6 
#
# 1 117.9797 54.8919 35.9269 0.0000 -6.6315 0.0000
# 2 54.8919 116.0603 31.8389 0.0000 -4.1826 0.0000
# 3 35.9269 31.8389 112.0738 0.0000 -14.5107 0.0000
# 4 0.0000 0.0000 0.0000 45.5350 0.0000 9.3069
# 5 -6.6315 -4.1826 -14.5107 0.0000 35.4432 0.0000
# 6 0.0000 0.0000 0.0000 9.3069 0.0000 33.4848
#
#
#
# Elastic Compliance Matrix: (Units=1/GPa)
#
#
# Indices 1 2 3 4 5 6 
#
# 1 0.011404 -0.004761 -0.002217 0.000000 0.000664 0.000000
# 2 -0.004761 0.011333 -0.001727 0.000000 -0.000261 0.000000
# 3 -0.002217 -0.001727 0.010606 0.000000 0.003724 0.000000
# 4 0.000000 0.000000 0.000000 0.023284 0.000000 -0.006472
# 5 0.000664 -0.000261 0.003724 0.000000 0.029832 0.000000
# 6 0.000000 0.000000 0.000000 -0.006472 0.000000 0.031663
#
#
# Mechanical properties :
#
#
# Convention : Reuss Voigt Hill
#
# Bulk Modulus (GPa) = 62.76719 65.71435 64.24077
# Shear Modulus (GPa) = 35.50062 37.78966 36.64514
#
# Velocity S-wave (km/s) = 3.93430 4.05916 3.99722
# Velocity P-wave (km/s) = 6.92860 7.11486 7.02235
#
# Compressibility (1/GPa) = 0.01593189
#
# Stress axis : x y z
#
# Youngs Moduli (GPa) = 87.68998 88.24177 94.28567
#
# Poissons Ratio (x) = 0.42016 0.20903
# Poissons Ratio (y) = 0.41753 0.16281
# Poissons Ratio (z) = 0.19441 0.15238
#
# Static dielectric constant tensor:
#      x y z
#    x 4.007450 0.000000 -0.149020 
#    y 0.000000 4.178790 0.000000 
#    z -0.149020 0.000000 4.354500 
# 
# 
# High freq. dielectric constant tensor:
#      x y z
#    x 1.903900 0.000000 -0.009680 
#    y 0.000000 1.916770 0.000000 
#    z -0.009680 0.000000 1.922480 
# 
# From -- ./inp_files/6342.got.cif
#   From: 2010.03.12/outbox.cif.g09.slc.cpg/sg4_4_cif.got.tgz:6342.got - 2010.03.31 09:31:35.
