data_PCOD8047159
_publ_section_title
;
Structure prediction by ZEFSAII (Michael W. Deem and Ramdas Pophale) SiO2 
 PCOD8047159
Probable space group: P 21
;
_chemical_formula_sum "Si O2"
_cell_formula_units_Z 16
_cell_length_a 17.419934
_cell_length_b 8.807567
_cell_length_c 5.323884
_cell_angle_alpha 90.000000
_cell_angle_beta 119.358112
_cell_angle_gamma 90.000000
_cell_volume 711.925500
_symmetry_space_group_name_H-M "P 21"
_symmetry_group_IT_number 4
_symmetry_cell_setting 'monoclinic'
loop_
_space_group_symop_operation_xyz
x,y,z
-x,1/2+y,-z
loop_
_atom_site_type_symbol
_atom_site_label
_atom_site_fract_x
_atom_site_fract_y
_atom_site_fract_z
Si Si1 0.454206 0.121140 0.195167
Si Si2 0.821742 0.120066 0.835523
Si Si3 0.743977 0.640151 0.225375
Si Si4 0.082690 0.150633 0.778976
Si Si5 0.264254 0.492220 0.793092
Si Si6 0.152435 0.944454 0.267952
Si Si7 0.017273 0.466054 0.750014
Si Si8 0.468196 0.475288 0.178533
O O1 0.482937 0.295523 0.219703
O O2 0.494087 0.051216 0.510360
O O3 0.349013 0.105630 0.051208
O O4 0.483513 0.033125 0.993222
O O5 0.820948 0.303777 0.866318
O O6 0.765457 0.088113 0.495725
O O7 0.782792 0.045698 0.026372
O O8 0.921401 0.057793 0.951854
O O9 0.822261 0.593963 0.166878
O O10 0.752373 0.817216 0.308987
O O11 0.759640 0.527831 0.488494
O O12 0.080319 0.330659 0.761141
O O13 0.999171 0.084056 0.499660
O O14 0.086958 0.077803 0.059894
O O15 0.366930 0.521551 0.998720
O O16 0.076683 0.885568 0.337747
#
# Coordination Sequence:
#
# PCOD8047159 Si02
#       8
#     2   2   2   2   2   2   2   2
#     4  11  25  46  75 104 143 183 234 285 359 420
#     4  12  26  43  71 100 141 181 233 289 346 409
#     4  10  25  44  69  99 136 187 228 284 344 423
#     4  11  23  43  65  96 137 181 234 283 345 409
#     4  11  26  47  70 100 138 183 230 282 353 416
#     4  11  26  40  65 102 138 180 237 288 346 407
#     4  11  24  40  68  93 140 185 235 286 347 406
#     4  11  25  47  73 106 139 184 231 291 354 424
#
# _framework density 22.474259
#
# number of rings (size 3 to 8) (size 9 to 14) (size 15 to 20)
#    0.000    1.000    1.250    3.750    8.750    7.000 
#    0.000    0.000    0.000    0.000    0.000    0.000 
#    0.000    0.000    0.000    0.000    0.000    0.000 
#
# Total GULP energy -198276.822111 kJ/mol
# GULP energy per Si atom -12392.301382 kJ/mol
# Density = 2.242311 g / cm^3
# Si number density = 22.474259 Si / 1000 Ang^3
#
#
#
# Elastic Constant Matrix: (Units=GPa)
#
#
# Indices 1 2 3 4 5 6 
#
# 1 75.7202 39.8249 46.7351 0.0000 4.6661 0.0000
# 2 39.8249 173.8586 84.6555 0.0000 0.5236 0.0000
# 3 46.7351 84.6555 166.9359 0.0000 5.7942 0.0000
# 4 0.0000 0.0000 0.0000 47.9815 0.0000 0.9315
# 5 4.6661 0.5236 5.7942 0.0000 46.5854 0.0000
# 6 0.0000 0.0000 0.0000 0.9315 0.0000 30.9004
#
#
#
# Elastic Compliance Matrix: (Units=1/GPa)
#
#
# Indices 1 2 3 4 5 6 
#
# 1 0.016554 -0.002061 -0.003548 0.000000 -0.001194 0.000000
# 2 -0.002061 0.007902 -0.003449 0.000000 0.000547 0.000000
# 3 -0.003548 -0.003449 0.008757 0.000000 -0.000695 0.000000
# 4 0.000000 0.000000 0.000000 0.020854 0.000000 -0.000629
# 5 -0.001194 0.000547 -0.000695 0.000000 0.021666 0.000000
# 6 0.000000 0.000000 0.000000 -0.000629 0.000000 0.032381
#
#
# Mechanical properties :
#
#
# Convention : Reuss Voigt Hill
#
# Bulk Modulus (GPa) = 66.23962 84.32731 75.28346
# Shear Modulus (GPa) = 38.09228 41.44671 39.76950
#
# Velocity S-wave (km/s) = 4.12142 4.29906 4.21117
# Velocity P-wave (km/s) = 7.22396 7.88960 7.56410
#
# Compressibility (1/GPa) = 0.01509671
#
# Stress axis : x y z
#
# Youngs Moduli (GPa) = 60.40947 126.55622 114.19716
#
# Poissons Ratio (x) = 0.26080 0.40516
# Poissons Ratio (y) = 0.12449 0.39387
# Poissons Ratio (z) = 0.21433 0.43650
#
# Static dielectric constant tensor:
#      x y z
#    x 3.986380 0.000000 0.137820 
#    y 0.000000 4.116830 0.000000 
#    z 0.137820 0.000000 4.109500 
# 
# 
# High freq. dielectric constant tensor:
#      x y z
#    x 1.884960 0.000000 0.012070 
#    y 0.000000 1.900620 0.000000 
#    z 0.012070 0.000000 1.895680 
# 
# From -- ./inp_files/3418.got.cif
#   From: 2010.03.12/outbox.cif.g09.slc.cpg/sg4_2_cif.got.tgz:3418.got - 2010.03.31 09:31:35.
