data_PCOD8047425
_publ_section_title
;
Structure prediction by ZEFSAII (Michael W. Deem and Ramdas Pophale) SiO2 
 PCOD8047425
Probable space group: P 21
;
_chemical_formula_sum "Si O2"
_cell_formula_units_Z 14
_cell_length_a 12.786415
_cell_length_b 7.606103
_cell_length_c 6.621676
_cell_angle_alpha 90.000000
_cell_angle_beta 97.989603
_cell_angle_gamma 90.000000
_cell_volume 637.738695
_symmetry_space_group_name_H-M "P 21"
_symmetry_group_IT_number 4
_symmetry_cell_setting 'monoclinic'
loop_
_space_group_symop_operation_xyz
x,y,z
-x,1/2+y,-z
loop_
_atom_site_type_symbol
_atom_site_label
_atom_site_fract_x
_atom_site_fract_y
_atom_site_fract_z
Si Si1 0.915355 0.275510 0.889465
Si Si2 0.380239 0.481715 0.104738
Si Si3 0.149316 0.641354 0.521039
Si Si4 0.951318 0.628975 0.734634
Si Si5 0.399450 0.149019 0.817496
Si Si6 0.270302 0.814318 0.874900
Si Si7 0.742413 0.814133 0.554020
O O1 0.860273 0.135038 0.725446
O O2 0.956135 0.419742 0.743782
O O3 0.831649 0.358231 0.019542
O O4 0.014071 0.197376 0.035639
O O5 0.485800 0.577317 0.212291
O O6 0.317194 0.414922 0.282272
O O7 0.406265 0.314532 0.969935
O O8 0.318806 0.630711 0.963706
O O9 0.231068 0.785397 0.632834
O O10 0.199531 0.450524 0.582436
O O11 0.034463 0.679387 0.584728
O O12 0.832432 0.687030 0.663358
O O13 0.340952 0.200441 0.595362
O O14 0.343391 0.984258 0.912519
#
# Coordination Sequence:
#
# PCOD8047425 Si02
#       7
#     2   2   2   2   2   2   2
#     4  11  23  42  65 100 144 184 235 285 358 429
#     4  12  26  48  73 102 141 189 240 302 363 426
#     4  11  23  41  70 102 144 184 231 291 355 430
#     4  11  25  40  67 102 140 189 230 287 357 432
#     4  12  27  47  75 104 140 188 246 299 364 428
#     4  11  24  45  72 100 141 186 233 296 358 425
#     4  12  26  45  72 106 144 186 241 300 359 430
#
# _framework density 21.952563000000001
#
# number of rings (size 3 to 8) (size 9 to 14) (size 15 to 20)
#    0.000    0.571    4.286    3.429    2.000    8.000 
#    2.571    0.000    0.000    0.000    0.000    0.000 
#    0.000    0.000    0.000    0.000    0.000    0.000 
#
# Total GULP energy -173556.420382 kJ/mol
# GULP energy per Si atom -12396.887170 kJ/mol
# Density = 2.190260 g / cm^3
# Si number density = 21.952563 Si / 1000 Ang^3
#
#
#
# Elastic Constant Matrix: (Units=GPa)
#
#
# Indices 1 2 3 4 5 6 
#
# 1 123.2748 43.5165 53.1147 0.0000 17.8775 0.0000
# 2 43.5165 117.3411 39.6525 0.0000 5.2073 0.0000
# 3 53.1147 39.6525 125.0191 0.0000 17.5079 0.0000
# 4 0.0000 0.0000 0.0000 36.3255 0.0000 -0.1982
# 5 17.8775 5.2073 17.5079 0.0000 28.3001 0.0000
# 6 0.0000 0.0000 0.0000 -0.1982 0.0000 39.7263
#
#
#
# Elastic Compliance Matrix: (Units=1/GPa)
#
#
# Indices 1 2 3 4 5 6 
#
# 1 0.011157 -0.002855 -0.003198 0.000000 -0.004544 0.000000
# 2 -0.002855 0.010276 -0.002227 0.000000 0.001291 0.000000
# 3 -0.003198 -0.002227 0.010646 0.000000 -0.004156 0.000000
# 4 0.000000 0.000000 0.000000 0.027530 0.000000 0.000137
# 5 -0.004544 0.001291 -0.004156 0.000000 0.040540 0.000000
# 6 0.000000 0.000000 0.000000 0.000137 0.000000 0.025173
#
#
# Mechanical properties :
#
#
# Convention : Reuss Voigt Hill
#
# Bulk Modulus (GPa) = 64.43979 70.91140 67.67560
# Shear Modulus (GPa) = 34.00099 36.16048 35.08073
#
# Velocity S-wave (km/s) = 3.93980 4.06299 4.00187
# Velocity P-wave (km/s) = 7.07911 7.37446 7.22830
#
# Compressibility (1/GPa) = 0.01551836
#
# Stress axis : x y z
#
# Youngs Moduli (GPa) = 89.63175 97.31100 93.93331
#
# Poissons Ratio (x) = 0.27784 0.30040
# Poissons Ratio (y) = 0.25592 0.20920
# Poissons Ratio (z) = 0.28665 0.21672
#
# Static dielectric constant tensor:
#      x y z
#    x 4.046960 0.000000 0.307890 
#    y 0.000000 4.049860 0.000000 
#    z 0.307890 0.000000 4.007700 
# 
# 
# High freq. dielectric constant tensor:
#      x y z
#    x 1.868710 0.000000 0.012050 
#    y 0.000000 1.877330 0.000000 
#    z 0.012050 0.000000 1.865440 
# 
# From -- ./inp_files/2458.got.cif
#   From: 2010.03.12/outbox.cif.g09.slc.cpg/sg4_2_cif.got.tgz:2458.got - 2010.03.31 09:31:35.
