data_PCOD8047950
_publ_section_title
;
Structure prediction by ZEFSAII (Michael W. Deem and Ramdas Pophale) SiO2 
 PCOD8047950
Probable space group: P 21
;
_chemical_formula_sum "Si O2"
_cell_formula_units_Z 16
_cell_length_a 13.236200
_cell_length_b 7.874435
_cell_length_c 6.559341
_cell_angle_alpha 90.000000
_cell_angle_beta 82.102812
_cell_angle_gamma 90.000000
_cell_volume 677.180617
_symmetry_space_group_name_H-M "P 21"
_symmetry_group_IT_number 4
_symmetry_cell_setting 'monoclinic'
loop_
_space_group_symop_operation_xyz
x,y,z
-x,1/2+y,-z
loop_
_atom_site_type_symbol
_atom_site_label
_atom_site_fract_x
_atom_site_fract_y
_atom_site_fract_z
Si Si1 0.247641 0.622670 0.299149
Si Si2 0.633770 0.911968 0.426007
Si Si3 0.473415 0.145436 0.278163
Si Si4 0.791774 0.876136 0.058196
Si Si5 0.020972 0.500402 0.747588
Si Si6 0.623218 0.360971 0.968351
Si Si7 0.169074 0.997730 0.936576
Si Si8 0.913551 0.341887 0.422887
O O1 0.276972 0.507967 0.480916
O O2 0.352490 0.718146 0.207160
O O3 0.163708 0.757568 0.394228
O O4 0.203518 0.506469 0.129844
O O5 0.608241 0.741663 0.557995
O O6 0.679178 0.872255 0.190281
O O7 0.534468 0.025919 0.416410
O O8 0.417000 0.033819 0.122105
O O9 0.542110 0.288732 0.151253
O O10 0.811571 0.685155 0.983149
O O11 0.874625 0.922346 0.203568
O O12 0.002005 0.438811 0.521222
O O13 0.033016 0.704256 0.739049
O O14 0.929462 0.433383 0.913647
O O15 0.731637 0.384371 0.050356
O O16 0.145155 0.979845 0.702046
#
# Coordination Sequence:
#
# PCOD8047950 Si02
#       8
#     2   2   2   2   2   2   2   2
#     4  12  25  50  74 106 152 192 245 310 374 436
#     4  12  27  49  74 110 147 196 248 309 370 449
#     4  12  28  46  79 110 149 197 253 307 378 444
#     4  12  28  46  77 108 152 195 248 305 374 443
#     4  12  27  47  74 110 151 196 249 304 373 447
#     4  12  26  49  76 109 147 195 246 313 376 442
#     4  12  28  46  76 108 153 194 247 310 371 445
#     4  12  27  45  76 111 149 199 250 300 372 446
#
# _framework density 23.627376000000002
#
# number of rings (size 3 to 8) (size 9 to 14) (size 15 to 20)
#    0.000    0.000    3.750    5.250   10.500    2.000 
#    0.000    0.000    0.000    0.000    0.000    0.000 
#    0.000    0.000    0.000    0.000    0.000    0.000 
#
# Total GULP energy -198477.582827 kJ/mol
# GULP energy per Si atom -12404.848927 kJ/mol
# Density = 2.357360 g / cm^3
# Si number density = 23.627376 Si / 1000 Ang^3
#
#
#
# Elastic Constant Matrix: (Units=GPa)
#
#
# Indices 1 2 3 4 5 6 
#
# 1 85.8385 13.1582 26.8008 0.0000 3.0070 0.0000
# 2 13.1582 90.2973 22.0297 0.0000 -3.9977 0.0000
# 3 26.8008 22.0297 98.6222 0.0000 -6.3168 0.0000
# 4 0.0000 0.0000 0.0000 47.1574 0.0000 7.2237
# 5 3.0070 -3.9977 -6.3168 0.0000 37.5935 0.0000
# 6 0.0000 0.0000 0.0000 7.2237 0.0000 41.1900
#
#
#
# Elastic Compliance Matrix: (Units=1/GPa)
#
#
# Indices 1 2 3 4 5 6 
#
# 1 0.012937 -0.001139 -0.003372 0.000000 -0.001722 0.000000
# 2 -0.001139 0.011838 -0.002273 0.000000 0.000968 0.000000
# 3 -0.003372 -0.002273 0.011691 0.000000 0.001992 0.000000
# 4 0.000000 0.000000 0.000000 0.021791 0.000000 -0.003822
# 5 -0.001722 0.000968 0.001992 0.000000 0.027176 0.000000
# 6 0.000000 0.000000 0.000000 -0.003822 0.000000 0.024948
#
#
# Mechanical properties :
#
#
# Convention : Reuss Voigt Hill
#
# Bulk Modulus (GPa) = 43.66855 44.30392 43.98624
# Shear Modulus (GPa) = 37.99931 39.37280 38.68605
#
# Velocity S-wave (km/s) = 4.01468 4.08659 4.05080
# Velocity P-wave (km/s) = 6.32555 6.40771 6.36676
#
# Compressibility (1/GPa) = 0.02289977
#
# Stress axis : x y z
#
# Youngs Moduli (GPa) = 77.29512 84.47488 85.53390
#
# Poissons Ratio (x) = 0.09621 0.28839
# Poissons Ratio (y) = 0.08803 0.19440
# Poissons Ratio (z) = 0.26062 0.19199
#
# Static dielectric constant tensor:
#      x y z
#    x 4.250100 0.000000 0.014290 
#    y 0.000000 4.303130 0.000000 
#    z 0.014290 0.000000 4.180430 
# 
# 
# High freq. dielectric constant tensor:
#      x y z
#    x 1.945930 0.000000 -0.000400 
#    y 0.000000 1.942800 0.000000 
#    z -0.000400 0.000000 1.942120 
# 
# From -- ./inp_files/2588.got.cif
#   From: 2010.03.12/outbox.cif.g09.slc.cpg/sg4_2_cif.got.tgz:2588.got - 2010.03.31 09:31:35.
