data_PCOD8047469
_publ_section_title
;
Structure prediction by ZEFSAII (Michael W. Deem and Ramdas Pophale) SiO2 
 PCOD8047469
Probable space group: P 21
;
_chemical_formula_sum "Si O2"
_cell_formula_units_Z 14
_cell_length_a 17.034728
_cell_length_b 4.876382
_cell_length_c 15.560105
_cell_angle_alpha 90.000000
_cell_angle_beta 151.086262
_cell_angle_gamma 90.000000
_cell_volume 624.935207
_symmetry_space_group_name_H-M "P 21"
_symmetry_group_IT_number 4
_symmetry_cell_setting 'monoclinic'
loop_
_space_group_symop_operation_xyz
x,y,z
-x,1/2+y,-z
loop_
_atom_site_type_symbol
_atom_site_label
_atom_site_fract_x
_atom_site_fract_y
_atom_site_fract_z
Si Si1 0.008621 0.352300 0.450516
Si Si2 0.960819 0.084584 0.168594
Si Si3 0.816394 0.578924 0.111957
Si Si4 0.944755 0.287316 0.903326
Si Si5 0.433091 0.710765 0.485363
Si Si6 0.531348 0.163888 0.281257
Si Si7 0.737759 0.663839 0.442254
O O1 0.169525 0.249106 0.555535
O O2 0.063072 0.602399 0.562995
O O3 0.862905 0.448333 0.248173
O O4 0.932223 0.840866 0.209998
O O5 0.947118 0.954652 0.061808
O O6 0.837833 0.340083 0.060419
O O7 0.141076 0.194852 0.360818
O O8 0.635249 0.695954 0.930909
O O9 0.757082 0.280735 0.699339
O O10 0.979375 0.480815 0.019770
O O11 0.461230 0.411928 0.472575
O O12 0.493693 0.728959 0.641732
O O13 0.586808 0.854390 0.320383
O O14 0.665975 0.358472 0.366551
#
# Coordination Sequence:
#
# PCOD8047469 Si02
#       7
#     2   2   2   2   2   2   2
#     4  11  23  44  74 105 134 170 218 277 334 408
#     4  11  23  44  64  96 127 183 228 279 316 403
#     4  11  25  42  72  99 136 172 229 267 337 397
#     4  12  27  42  65  94 133 175 237 284 336 386
#     4  12  28  45  64  96 141 184 226 287 345 378
#     4  12  25  45  67 101 138 181 226 277 331 407
#     4  11  23  44  72  95 133 179 222 267 337 403
#
# _framework density 22.402322000000002
#
# number of rings (size 3 to 8) (size 9 to 14) (size 15 to 20)
#    0.000    0.571    1.429    7.714    8.000    0.000 
#    0.000    2.857    0.000    1.714    0.000    0.000 
#    0.000    0.000    0.000    0.000    0.000    0.000 
#
# Total GULP energy -173651.566844 kJ/mol
# GULP energy per Si atom -12403.683346 kJ/mol
# Density = 2.235133 g / cm^3
# Si number density = 22.402322 Si / 1000 Ang^3
#
#
#
# Elastic Constant Matrix: (Units=GPa)
#
#
# Indices 1 2 3 4 5 6 
#
# 1 75.4855 3.3860 33.8560 0.0000 -4.9928 0.0000
# 2 3.3860 78.6326 3.9577 0.0000 7.3265 0.0000
# 3 33.8560 3.9577 93.1647 0.0000 4.5712 0.0000
# 4 0.0000 0.0000 0.0000 40.6800 0.0000 5.1209
# 5 -4.9928 7.3265 4.5712 0.0000 18.9953 0.0000
# 6 0.0000 0.0000 0.0000 5.1209 0.0000 51.6825
#
#
#
# Elastic Compliance Matrix: (Units=1/GPa)
#
#
# Indices 1 2 3 4 5 6 
#
# 1 0.016513 -0.000976 -0.006265 0.000000 0.006224 0.000000
# 2 -0.000976 0.013258 0.000055 0.000000 -0.005384 0.000000
# 3 -0.006265 0.000055 0.013246 0.000000 -0.004856 0.000000
# 4 0.000000 0.000000 0.000000 0.024893 0.000000 -0.002466
# 5 0.006224 -0.005384 -0.004856 0.000000 0.057526 0.000000
# 6 0.000000 0.000000 0.000000 -0.002466 0.000000 0.019593
#
#
# Mechanical properties :
#
#
# Convention : Reuss Voigt Hill
#
# Bulk Modulus (GPa) = 34.90722 36.63139 35.76930
# Shear Modulus (GPa) = 29.59497 36.01042 32.80269
#
# Velocity S-wave (km/s) = 3.63859 4.01364 3.83071
# Velocity P-wave (km/s) = 5.76786 6.15355 5.96383
#
# Compressibility (1/GPa) = 0.02864737
#
# Stress axis : x y z
#
# Youngs Moduli (GPa) = 60.55908 75.42504 75.49358
#
# Poissons Ratio (x) = 0.07359 0.47294
# Poissons Ratio (y) = 0.05909 -0.00419
# Poissons Ratio (z) = 0.37938 -0.00419
#
# Static dielectric constant tensor:
#      x y z
#    x 3.976850 0.000000 -0.051070 
#    y 0.000000 4.364790 0.000000 
#    z -0.051070 0.000000 3.712520 
# 
# 
# High freq. dielectric constant tensor:
#      x y z
#    x 1.873260 0.000000 -0.000130 
#    y 0.000000 1.912820 0.000000 
#    z -0.000130 0.000000 1.870320 
# 
# From -- ./inp_files/14099.got.cif
#   From: 2010.03.12/outbox.cif.g09.slc.cpg/sg4_8_cif.got.tgz:14099.got - 2010.03.31 09:31:35.
