data_PCOD8047582
_publ_section_title
;
Structure prediction by ZEFSAII (Michael W. Deem and Ramdas Pophale) SiO2 
 PCOD8047582
Probable space group: P 21
;
_chemical_formula_sum "Si O2"
_cell_formula_units_Z 16
_cell_length_a 15.487672
_cell_length_b 6.524612
_cell_length_c 21.395112
_cell_angle_alpha 90.000000
_cell_angle_beta 19.425916
_cell_angle_gamma 90.000000
_cell_volume 719.054201
_symmetry_space_group_name_H-M "P 21"
_symmetry_group_IT_number 4
_symmetry_cell_setting 'monoclinic'
loop_
_space_group_symop_operation_xyz
x,y,z
-x,1/2+y,-z
loop_
_atom_site_type_symbol
_atom_site_label
_atom_site_fract_x
_atom_site_fract_y
_atom_site_fract_z
Si Si1 0.873838 0.967160 0.342503
Si Si2 0.491548 0.967132 0.224803
Si Si3 0.287752 0.913854 0.738285
Si Si4 0.770711 0.746906 0.829130
Si Si5 0.080826 0.135029 0.077028
Si Si6 0.316395 0.913882 0.209641
Si Si7 0.050591 0.135068 0.607263
Si Si8 0.871343 0.246855 0.028820
O O1 0.910245 0.748204 0.352348
O O2 0.576571 0.984791 0.523706
O O3 0.054526 0.003188 0.158539
O O4 0.960220 0.147317 0.330485
O O5 0.324575 0.984785 0.275716
O O6 0.297718 0.003198 0.415336
O O7 0.702639 0.147279 0.088076
O O8 0.640121 0.748167 0.122479
O O9 0.153148 0.799899 0.771033
O O10 0.290736 0.761637 0.795977
O O11 0.131284 0.118545 0.862447
O O12 0.656406 0.618578 0.849877
O O13 0.556111 0.761654 0.030593
O O14 0.818915 0.976427 0.773992
O O15 0.052734 0.976383 0.040181
O O16 0.043566 0.799929 0.380612
#
# Coordination Sequence:
#
# PCOD8047582 Si02
#       8
#     2   2   2   2   2   2   2   2
#     4  11  26  45  67 105 136 181 238 287 353 425
#     4  11  26  45  67 105 136 181 238 287 353 425
#     4  11  24  44  68 102 139 179 234 281 355 420
#     4  11  24  44  70  95 137 187 223 293 351 417
#     4  11  26  43  71 100 140 185 231 291 353 416
#     4  11  24  44  68 102 139 179 234 281 355 420
#     4  11  26  43  71 100 140 185 231 291 353 416
#     4  11  24  44  70  95 137 187 223 293 351 417
#
# _framework density 22.251453000000001
#
# number of rings (size 3 to 8) (size 9 to 14) (size 15 to 20)
#    0.000    1.000    5.000    0.000    7.000    2.000 
#    0.000    0.000    0.000    0.000    0.000    0.000 
#    0.000    0.000    0.000    0.000    0.000    0.000 
#
# Total GULP energy -198321.954755 kJ/mol
# GULP energy per Si atom -12395.122172 kJ/mol
# Density = 2.220081 g / cm^3
# Si number density = 22.251453 Si / 1000 Ang^3
#
#
#
# Elastic Constant Matrix: (Units=GPa)
#
#
# Indices 1 2 3 4 5 6 
#
# 1 104.4696 40.2261 33.5330 0.0000 4.1565 0.0000
# 2 40.2261 99.3414 48.2655 0.0000 10.1170 0.0000
# 3 33.5330 48.2655 108.7811 0.0000 1.3142 0.0000
# 4 0.0000 0.0000 0.0000 37.6070 0.0000 6.8090
# 5 4.1565 10.1170 1.3142 0.0000 33.5177 0.0000
# 6 0.0000 0.0000 0.0000 6.8090 0.0000 32.1903
#
#
#
# Elastic Compliance Matrix: (Units=1/GPa)
#
#
# Indices 1 2 3 4 5 6 
#
# 1 0.011645 -0.003759 -0.001919 0.000000 -0.000234 0.000000
# 2 -0.003759 0.014509 -0.005234 0.000000 -0.003708 0.000000
# 3 -0.001919 -0.005234 0.012090 0.000000 0.001344 0.000000
# 4 0.000000 0.000000 0.000000 0.027650 0.000000 -0.005849
# 5 -0.000234 -0.003708 0.001344 0.000000 0.030931 0.000000
# 6 0.000000 0.000000 0.000000 -0.005849 0.000000 0.032302
#
#
# Mechanical properties :
#
#
# Convention : Reuss Voigt Hill
#
# Bulk Modulus (GPa) = 60.90069 61.84901 61.37485
# Shear Modulus (GPa) = 31.96430 33.36751 32.66591
#
# Velocity S-wave (km/s) = 3.79424 3.87662 3.83565
# Velocity P-wave (km/s) = 6.82815 6.92051 6.87449
#
# Compressibility (1/GPa) = 0.01642018
#
# Stress axis : x y z
#
# Youngs Moduli (GPa) = 85.87456 68.92246 82.71062
#
# Poissons Ratio (x) = 0.25909 0.15871
# Poissons Ratio (y) = 0.32282 0.43290
# Poissons Ratio (z) = 0.16479 0.36074
#
# Static dielectric constant tensor:
#      x y z
#    x 3.884740 0.000000 -0.080480 
#    y 0.000000 3.945740 0.000000 
#    z -0.080480 0.000000 3.820520 
# 
# 
# High freq. dielectric constant tensor:
#      x y z
#    x 1.874430 0.000000 -0.010250 
#    y 0.000000 1.880240 0.000000 
#    z -0.010250 0.000000 1.866270 
# 
# From -- ./inp_files/8837.got.cif
#   From: 2010.03.12/outbox.cif.g09.slc.cpg/sg4_5_cif.got.tgz:8837.got - 2010.03.31 09:31:35.
