data_PCOD8047072
_publ_section_title
;
Structure prediction by ZEFSAII (Michael W. Deem and Ramdas Pophale) SiO2 
 PCOD8047072
Probable space group: P 21
;
_chemical_formula_sum "Si O2"
_cell_formula_units_Z 14
_cell_length_a 6.907246
_cell_length_b 7.982308
_cell_length_c 17.523441
_cell_angle_alpha 90.000000
_cell_angle_beta 138.980435
_cell_angle_gamma 90.000000
_cell_volume 634.112411
_symmetry_space_group_name_H-M "P 21"
_symmetry_group_IT_number 4
_symmetry_cell_setting 'monoclinic'
loop_
_space_group_symop_operation_xyz
x,y,z
-x,1/2+y,-z
loop_
_atom_site_type_symbol
_atom_site_label
_atom_site_fract_x
_atom_site_fract_y
_atom_site_fract_z
Si Si1 0.272224 0.372020 0.607766
Si Si2 0.751193 0.165744 0.506454
Si Si3 0.273558 0.309666 0.259852
Si Si4 0.404865 0.077135 0.176767
Si Si5 0.316075 0.377824 0.869131
Si Si6 0.743574 0.160239 0.677139
Si Si7 0.797697 0.116529 0.040534
O O1 0.141183 0.513401 0.513734
O O2 0.525054 0.437093 0.739254
O O3 0.422966 0.232194 0.600533
O O4 0.001822 0.306770 0.577592
O O5 0.442206 0.241140 0.384618
O O6 0.721918 0.098805 0.583618
O O7 0.458978 0.259374 0.236106
O O8 0.205035 0.506090 0.249369
O O9 0.958114 0.217030 0.157806
O O10 0.050483 0.064785 0.053363
O O11 0.601637 0.036020 0.161537
O O12 0.340943 0.449725 0.962620
O O13 0.992754 0.303482 0.758552
O O14 0.549731 0.228136 0.926114
#
# Coordination Sequence:
#
# PCOD8047072 Si02
#       7
#     2   2   2   2   2   2   2
#     4  11  22  42  63  96 138 169 227 276 328 407
#     4  11  22  40  65  96 133 184 219 273 339 395
#     4   9  22  45  59  99 138 167 228 277 328 401
#     4   9  22  45  60  94 135 172 214 279 330 398
#     4  12  22  44  72  93 133 179 220 278 353 388
#     4  12  22  40  68 100 132 177 227 274 338 401
#     4  10  24  44  65  98 129 170 227 281 326 410
#
# _framework density 22.078102000000001
#
# number of rings (size 3 to 8) (size 9 to 14) (size 15 to 20)
#    0.857    0.571    2.857    2.571    0.000    1.143 
#   15.429    0.000    0.000    0.000    0.000    0.000 
#    0.000    0.000    0.000    0.000    0.000    0.000 
#
# Total GULP energy -173467.322662 kJ/mol
# GULP energy per Si atom -12390.523047 kJ/mol
# Density = 2.202785 g / cm^3
# Si number density = 22.078102 Si / 1000 Ang^3
#
#
#
# Elastic Constant Matrix: (Units=GPa)
#
#
# Indices 1 2 3 4 5 6 
#
# 1 76.2873 25.6485 8.8426 0.0000 -2.7675 0.0000
# 2 25.6485 73.8022 -1.3212 0.0000 -2.0223 0.0000
# 3 8.8426 -1.3212 53.3826 0.0000 8.5231 0.0000
# 4 0.0000 0.0000 0.0000 30.6612 0.0000 4.1836
# 5 -2.7675 -2.0223 8.5231 0.0000 21.9667 0.0000
# 6 0.0000 0.0000 0.0000 4.1836 0.0000 47.5311
#
#
#
# Elastic Compliance Matrix: (Units=1/GPa)
#
#
# Indices 1 2 3 4 5 6 
#
# 1 0.015351 -0.005318 -0.003097 0.000000 0.002646 0.000000
# 2 -0.005318 0.015427 0.001218 0.000000 0.000278 0.000000
# 3 -0.003097 0.001218 0.020596 0.000000 -0.008269 0.000000
# 4 0.000000 0.000000 0.000000 0.033011 0.000000 -0.002906
# 5 0.002646 0.000278 -0.008269 0.000000 0.049091 0.000000
# 6 0.000000 0.000000 0.000000 -0.002906 0.000000 0.021295
#
#
# Mechanical properties :
#
#
# Convention : Reuss Voigt Hill
#
# Bulk Modulus (GPa) = 27.04045 29.97911 28.50978
# Shear Modulus (GPa) = 27.54953 31.38529 29.46741
#
# Velocity S-wave (km/s) = 3.53628 3.77444 3.65730
# Velocity P-wave (km/s) = 5.38033 5.70994 5.54758
#
# Compressibility (1/GPa) = 0.03698164
#
# Stress axis : x y z
#
# Youngs Moduli (GPa) = 65.14124 64.82012 48.55285
#
# Poissons Ratio (x) = 0.34471 0.15037
# Poissons Ratio (y) = 0.34642 -0.05916
# Poissons Ratio (z) = 0.20174 -0.07898
#
# Static dielectric constant tensor:
#      x y z
#    x 3.830340 0.000000 0.074320 
#    y 0.000000 3.941000 0.000000 
#    z 0.074320 0.000000 3.697600 
# 
# 
# High freq. dielectric constant tensor:
#      x y z
#    x 1.859200 0.000000 0.010380 
#    y 0.000000 1.862810 0.000000 
#    z 0.010380 0.000000 1.857720 
# 
# From -- ./inp_files/2554.got.cif
#   From: 2010.03.12/outbox.cif.g09.slc.cpg/sg4_2_cif.got.tgz:2554.got - 2010.03.31 09:31:35.
