data_PCOD8047583
_publ_section_title
;
Structure prediction by ZEFSAII (Michael W. Deem and Ramdas Pophale) SiO2 
 PCOD8047583
Probable space group: P 21
;
_chemical_formula_sum "Si O2"
_cell_formula_units_Z 16
_cell_length_a 6.915962
_cell_length_b 14.899892
_cell_length_c 8.936535
_cell_angle_alpha 90.000000
_cell_angle_beta 55.807907
_cell_angle_gamma 90.000000
_cell_volume 761.716609
_symmetry_space_group_name_H-M "P 21"
_symmetry_group_IT_number 4
_symmetry_cell_setting 'monoclinic'
loop_
_space_group_symop_operation_xyz
x,y,z
-x,1/2+y,-z
loop_
_atom_site_type_symbol
_atom_site_label
_atom_site_fract_x
_atom_site_fract_y
_atom_site_fract_z
Si Si1 0.052817 0.763960 0.583030
Si Si2 0.220287 0.166528 0.815679
Si Si3 0.530874 0.033580 0.872449
Si Si4 0.952974 0.597154 0.421585
Si Si5 0.524891 0.528282 0.760669
Si Si6 0.448017 0.327736 0.135552
Si Si7 0.520488 0.327440 0.765571
Si Si8 0.249897 0.695356 0.802143
O O1 0.215799 0.826559 0.409994
O O2 0.200196 0.730107 0.659333
O O3 0.972136 0.679927 0.523324
O O4 0.831702 0.821657 0.731486
O O5 0.366283 0.091936 0.839532
O O6 0.171972 0.129259 0.673895
O O7 0.363882 0.258913 0.738551
O O8 0.983148 0.189915 0.001435
O O9 0.800847 0.051894 0.720012
O O10 0.473348 0.929566 0.867186
O O11 0.471889 0.060067 0.068367
O O12 0.785035 0.526394 0.578463
O O13 0.417656 0.428111 0.795352
O O14 0.362348 0.596542 0.739231
O O15 0.569017 0.263594 0.201874
O O16 0.524413 0.296656 0.936763
#
# Coordination Sequence:
#
# PCOD8047583 Si02
#       8
#     2   2   2   2   2   2   2   2
#     4  12  24  44  71  96 134 178 223 276 335 390
#     4  12  24  44  72  97 135 181 221 272 335 397
#     4  11  25  45  69  98 136 175 221 278 333 393
#     4  12  24  44  71  96 134 178 223 276 335 390
#     4  11  24  44  68  99 134 175 222 276 334 396
#     4  11  25  45  69  98 136 175 221 278 333 393
#     4  11  24  44  68  99 134 175 222 276 334 396
#     4  12  24  44  72  97 135 181 221 272 335 397
#
# _framework density 21.005186999999999
#
# number of rings (size 3 to 8) (size 9 to 14) (size 15 to 20)
#    0.000    0.500    5.000    3.750    0.000    3.000 
#    0.000    1.250    0.000    0.000    0.000    0.000 
#    0.000    0.000    0.000    0.000    0.000    0.000 
#
# Total GULP energy -198498.731690 kJ/mol
# GULP energy per Si atom -12406.170731 kJ/mol
# Density = 2.095738 g / cm^3
# Si number density = 21.005187 Si / 1000 Ang^3
#
#
#
# Elastic Constant Matrix: (Units=GPa)
#
#
# Indices 1 2 3 4 5 6 
#
# 1 80.3781 16.3462 20.5294 0.0000 -6.2660 0.0000
# 2 16.3462 76.2427 0.3325 0.0000 -3.7430 0.0000
# 3 20.5294 0.3325 125.9485 0.0000 -12.9722 0.0000
# 4 0.0000 0.0000 0.0000 25.9084 0.0000 -12.6455
# 5 -6.2660 -3.7430 -12.9722 0.0000 31.5906 0.0000
# 6 0.0000 0.0000 0.0000 -12.6455 0.0000 3.7500
#
#
#
# Elastic Compliance Matrix: (Units=1/GPa)
#
#
# Indices 1 2 3 4 5 6 
#
# 1 0.013666 -0.002846 -0.002063 0.000000 0.001526 0.000000
# 2 -0.002846 0.013788 0.000561 0.000000 0.001300 0.000000
# 3 -0.002063 0.000561 0.008603 0.000000 0.003190 0.000000
# 4 0.000000 0.000000 0.000000 -0.059758 0.000000 -0.201513
# 5 0.001526 0.001300 0.003190 0.000000 0.033422 0.000000
# 6 0.000000 0.000000 0.000000 -0.201513 0.000000 -0.412864
#
#
# Mechanical properties :
#
#
# Convention : Reuss Voigt Hill
#
# Bulk Modulus (GPa) = 36.54760 39.66506 38.10633
# Shear Modulus (GPa) = -12.97593 28.60720 7.81563
#
# Velocity S-wave (km/s) = -2.48815 3.69441 1.93103
# Velocity P-wave (km/s) = 3.03027 6.09284 4.81172
#
# Compressibility (1/GPa) = 0.02736158
#
# Stress axis : x y z
#
# Youngs Moduli (GPa) = 73.17529 72.52924 116.23757
#
# Poissons Ratio (x) = 0.20642 0.23977
# Poissons Ratio (y) = 0.20826 -0.06525
# Poissons Ratio (z) = 0.15095 -0.04071
#
# Static dielectric constant tensor:
#      x y z
#    x 3.810790 0.000000 -0.070690 
#    y 0.000000 3.914010 0.000000 
#    z -0.070690 0.000000 4.173130 
# 
# 
# High freq. dielectric constant tensor:
#      x y z
#    x 1.819000 0.000000 -0.005250 
#    y 0.000000 1.831910 0.000000 
#    z -0.005250 0.000000 1.848170 
# 
# From -- ./inp_files/1868.got.cif
#   From: 2010.03.12/outbox.cif.g09.slc.cpg/sg4_1_cif.got.tgz:1868.got - 2010.03.31 09:31:35.
