data_PCOD8047783
_publ_section_title
;
Structure prediction by ZEFSAII (Michael W. Deem and Ramdas Pophale) SiO2 
 PCOD8047783
Probable space group: P 21
;
_chemical_formula_sum "Si O2"
_cell_formula_units_Z 14
_cell_length_a 14.239047
_cell_length_b 7.524920
_cell_length_c 14.434492
_cell_angle_alpha 90.000000
_cell_angle_beta 20.145637
_cell_angle_gamma 90.000000
_cell_volume 532.668515
_symmetry_space_group_name_H-M "P 21"
_symmetry_group_IT_number 4
_symmetry_cell_setting 'monoclinic'
loop_
_space_group_symop_operation_xyz
x,y,z
-x,1/2+y,-z
loop_
_atom_site_type_symbol
_atom_site_label
_atom_site_fract_x
_atom_site_fract_y
_atom_site_fract_z
Si Si1 0.685802 0.144130 0.888150
Si Si2 0.469758 0.980044 0.645020
Si Si3 0.106032 0.263280 0.364857
Si Si4 0.102959 0.629467 0.625426
Si Si5 0.843158 0.277565 0.930932
Si Si6 0.159533 0.953876 0.693349
Si Si7 0.730847 0.842583 0.228967
O O1 0.906067 0.281868 0.639091
O O2 0.810401 0.952696 0.751633
O O3 0.381767 0.154585 0.129734
O O4 0.660532 0.180962 0.021535
O O5 0.305246 0.806437 0.832416
O O6 0.709590 0.908564 0.355119
O O7 0.290021 0.127542 0.756498
O O8 0.595749 0.071814 0.620482
O O9 0.918397 0.157512 0.464595
O O10 0.022100 0.813888 0.749985
O O11 0.902159 0.474036 0.840950
O O12 0.104108 0.153049 0.708969
O O13 0.482721 0.929160 0.400578
O O14 0.018779 0.910858 0.922999
#
# Coordination Sequence:
#
# PCOD8047783 Si02
#       7
#     2   2   2   2   2   2   2
#     4  12  28  48  80 111 152 200 249 311 380 456
#     4  11  27  45  78 107 156 196 255 314 373 449
#     4  12  27  52  75 113 152 199 251 311 378 455
#     4  11  26  49  73 110 153 191 253 310 373 446
#     4  12  26  47  76 111 148 198 248 309 378 446
#     4  11  26  47  74 105 149 195 249 305 373 447
#     4  11  26  48  72 109 148 201 249 310 375 445
#
# _framework density 26.282761000000001
#
# number of rings (size 3 to 8) (size 9 to 14) (size 15 to 20)
#    0.000    0.571    2.857    3.429   12.000    0.000 
#    0.000    0.000    0.000    0.000    0.000    0.000 
#    0.000    0.000    0.000    0.000    0.000    0.000 
#
# Total GULP energy -173614.050373 kJ/mol
# GULP energy per Si atom -12401.003598 kJ/mol
# Density = 2.622294 g / cm^3
# Si number density = 26.282761 Si / 1000 Ang^3
#
#
#
# Elastic Constant Matrix: (Units=GPa)
#
#
# Indices 1 2 3 4 5 6 
#
# 1 90.6346 40.3644 1.1434 0.0000 7.1542 0.0000
# 2 40.3644 98.7071 1.0575 0.0000 -5.0973 0.0000
# 3 1.1434 1.0575 62.5624 0.0000 4.1358 0.0000
# 4 0.0000 0.0000 0.0000 43.7145 0.0000 1.2529
# 5 7.1542 -5.0973 4.1358 0.0000 37.3663 0.0000
# 6 0.0000 0.0000 0.0000 1.2529 0.0000 43.7121
#
#
#
# Elastic Compliance Matrix: (Units=1/GPa)
#
#
# Indices 1 2 3 4 5 6 
#
# 1 0.013922 -0.005874 0.000075 0.000000 -0.003475 0.000000
# 2 -0.005874 0.012685 -0.000298 0.000000 0.002888 0.000000
# 3 0.000075 -0.000298 0.016109 0.000000 -0.001838 0.000000
# 4 0.000000 0.000000 0.000000 0.022895 0.000000 -0.000656
# 5 -0.003475 0.002888 -0.001838 0.000000 0.028025 0.000000
# 6 0.000000 0.000000 0.000000 -0.000656 0.000000 0.022896
#
#
# Mechanical properties :
#
#
# Convention : Reuss Voigt Hill
#
# Bulk Modulus (GPa) = 32.76230 37.44828 35.10529
# Shear Modulus (GPa) = 35.99704 38.91452 37.45578
#
# Velocity S-wave (km/s) = 3.70483 3.85204 3.77916
# Velocity P-wave (km/s) = 5.54918 5.83639 5.69460
#
# Compressibility (1/GPa) = 0.03052289
#
# Stress axis : x y z
#
# Youngs Moduli (GPa) = 71.82624 78.83198 62.07626
#
# Poissons Ratio (x) = 0.46303 -0.00463
# Poissons Ratio (y) = 0.42188 0.01850
# Poissons Ratio (z) = -0.00536 0.02349
#
# Static dielectric constant tensor:
#      x y z
#    x 4.894570 0.000000 0.158090 
#    y 0.000000 4.871670 0.000000 
#    z 0.158090 0.000000 4.456250 
# 
# 
# High freq. dielectric constant tensor:
#      x y z
#    x 2.064220 0.000000 -0.004670 
#    y 0.000000 2.073730 0.000000 
#    z -0.004670 0.000000 2.035570 
# 
# From -- ./inp_files/14170.got.cif
#   From: 2010.03.12/outbox.cif.g09.slc.cpg/sg4_8_cif.got.tgz:14170.got - 2010.03.31 09:31:35.
