data_PCOD8047263
_publ_section_title
;
Structure prediction by ZEFSAII (Michael W. Deem and Ramdas Pophale) SiO2 
 PCOD8047263
Probable space group: P 21
;
_chemical_formula_sum "Si O2"
_cell_formula_units_Z 16
_cell_length_a 29.736669
_cell_length_b 6.225534
_cell_length_c 10.131888
_cell_angle_alpha 90.000000
_cell_angle_beta 155.397921
_cell_angle_gamma 90.000000
_cell_volume 780.872447
_symmetry_space_group_name_H-M "P 21"
_symmetry_group_IT_number 4
_symmetry_cell_setting 'monoclinic'
loop_
_space_group_symop_operation_xyz
x,y,z
-x,1/2+y,-z
loop_
_atom_site_type_symbol
_atom_site_label
_atom_site_fract_x
_atom_site_fract_y
_atom_site_fract_z
Si Si1 0.361180 0.278530 0.568523
Si Si2 0.993731 0.998422 0.153088
Si Si3 0.196493 0.742986 0.721118
Si Si4 0.777910 0.134269 0.689641
Si Si5 0.277942 0.981476 0.689788
Si Si6 0.303455 0.872811 0.278772
Si Si7 0.138849 0.337255 0.431622
Si Si8 0.493779 0.117357 0.153275
O O1 0.296932 0.420126 0.507314
O O2 0.424517 0.418412 0.631105
O O3 0.288148 0.120870 0.282777
O O4 0.442858 0.134249 0.871693
O O5 0.075439 0.197357 0.368769
O O6 0.900702 0.050663 0.010059
O O7 0.067195 0.791763 0.384819
O O8 0.942753 0.981650 0.871379
O O9 0.261129 0.878724 0.786300
O O10 0.211853 0.494877 0.717366
O O11 0.249863 0.808023 0.999690
O O12 0.749989 0.307887 0.499945
O O13 0.761087 0.236963 0.786134
O O14 0.203119 0.195640 0.492919
O O15 0.400734 0.065068 0.010172
O O16 0.432740 0.823955 0.614844
#
# Coordination Sequence:
#
# PCOD8047263 Si02
#       8
#     2   2   2   2   2   2   2   2
#     4  11  21  40  70  92 137 170 225 281 331 406
#     4  11  21  39  66  97 121 177 222 271 336 406
#     4  11  26  44  61  97 138 172 218 289 347 401
#     4  11  23  39  67 102 127 172 235 276 328 413
#     4  11  23  39  67 102 127 172 235 276 328 413
#     4  11  26  44  61  97 138 172 218 289 347 401
#     4  11  21  40  70  92 137 170 225 281 331 406
#     4  11  21  39  66  97 121 177 222 271 336 406
#
# _framework density 20.489903999999999
#
# number of rings (size 3 to 8) (size 9 to 14) (size 15 to 20)
#    0.000    1.000    5.000    2.250    0.000    4.000 
#    9.000    0.000    0.000    0.000    0.000    0.000 
#    0.000    0.000    0.000    0.000    0.000    0.000 
#
# Total GULP energy -198288.495678 kJ/mol
# GULP energy per Si atom -12393.030980 kJ/mol
# Density = 2.044327 g / cm^3
# Si number density = 20.489904 Si / 1000 Ang^3
#
#
#
# Elastic Constant Matrix: (Units=GPa)
#
#
# Indices 1 2 3 4 5 6 
#
# 1 133.1191 46.7554 65.5220 0.0000 12.9249 0.0000
# 2 46.7554 115.2018 46.4309 0.0000 -1.4978 0.0000
# 3 65.5220 46.4309 91.7671 0.0000 -3.3529 0.0000
# 4 0.0000 0.0000 0.0000 28.2453 0.0000 4.7420
# 5 12.9249 -1.4978 -3.3529 0.0000 53.6975 0.0000
# 6 0.0000 0.0000 0.0000 4.7420 0.0000 36.5587
#
#
#
# Elastic Compliance Matrix: (Units=1/GPa)
#
#
# Indices 1 2 3 4 5 6 
#
# 1 0.012507 -0.001847 -0.008126 0.000000 -0.003569 0.000000
# 2 -0.001847 0.011177 -0.004318 0.000000 0.000487 0.000000
# 3 -0.008126 -0.004318 0.018994 0.000000 0.003021 0.000000
# 4 0.000000 0.000000 0.000000 0.036192 0.000000 -0.004695
# 5 -0.003569 0.000487 0.003021 0.000000 0.019684 0.000000
# 6 0.000000 0.000000 0.000000 -0.004695 0.000000 0.027962
#
#
# Mechanical properties :
#
#
# Convention : Reuss Voigt Hill
#
# Bulk Modulus (GPa) = 70.94552 73.05606 72.00079
# Shear Modulus (GPa) = 31.28943 35.79227 33.54085
#
# Velocity S-wave (km/s) = 3.91201 4.18404 4.05031
# Velocity P-wave (km/s) = 7.42327 7.68594 7.55574
#
# Compressibility (1/GPa) = 0.01409532
#
# Stress axis : x y z
#
# Youngs Moduli (GPa) = 79.95494 89.46951 52.64759
#
# Poissons Ratio (x) = 0.16529 0.42780
# Poissons Ratio (y) = 0.14772 0.22735
# Poissons Ratio (z) = 0.64969 0.38635
#
# Static dielectric constant tensor:
#      x y z
#    x 3.796620 0.000000 0.327920 
#    y 0.000000 4.166900 0.000000 
#    z 0.327920 0.000000 3.543190 
# 
# 
# High freq. dielectric constant tensor:
#      x y z
#    x 1.799610 0.000000 0.020160 
#    y 0.000000 1.820480 0.000000 
#    z 0.020160 0.000000 1.772900 
# 
# From -- ./inp_files/10139.got.cif
#   From: 2010.03.12/outbox.cif.g09.slc.cpg/sg4_6_cif.got.tgz:10139.got - 2010.03.31 09:31:35.
