data_PCOD8047290
_publ_section_title
;
Structure prediction by ZEFSAII (Michael W. Deem and Ramdas Pophale) SiO2 
 PCOD8047290
Probable space group: P 21
;
_chemical_formula_sum "Si O2"
_cell_formula_units_Z 16
_cell_length_a 8.938056
_cell_length_b 5.282974
_cell_length_c 19.476647
_cell_angle_alpha 90.000000
_cell_angle_beta 44.914907
_cell_angle_gamma 90.000000
_cell_volume 649.343933
_symmetry_space_group_name_H-M "P 21"
_symmetry_group_IT_number 4
_symmetry_cell_setting 'monoclinic'
loop_
_space_group_symop_operation_xyz
x,y,z
-x,1/2+y,-z
loop_
_atom_site_type_symbol
_atom_site_label
_atom_site_fract_x
_atom_site_fract_y
_atom_site_fract_z
Si Si1 0.607861 0.897610 0.492964
Si Si2 0.993822 0.194329 0.394263
Si Si3 0.418672 0.214658 0.746194
Si Si4 0.015850 0.945031 0.882136
Si Si5 0.721800 0.561335 0.569570
Si Si6 0.614254 0.922010 0.791262
Si Si7 0.219107 0.577194 0.907521
Si Si8 0.603382 0.066843 0.940729
O O1 0.541784 0.645610 0.470979
O O2 0.617749 0.819890 0.571563
O O3 0.851648 0.983537 0.400695
O O4 0.838380 0.420027 0.468817
O O5 0.113199 0.086663 0.422432
O O6 0.163857 0.272078 0.281671
O O7 0.514688 0.409279 0.661309
O O8 0.329942 0.319856 0.848147
O O9 0.215615 0.077127 0.779106
O O10 0.604226 0.036215 0.716789
O O11 0.823308 0.941774 0.892855
O O12 0.946639 0.073216 0.976641
O O13 0.094760 0.667223 0.878996
O O14 0.409269 0.753762 0.870250
O O15 0.617310 0.114141 0.854540
O O16 0.563580 0.341778 0.986980
#
# Coordination Sequence:
#
# PCOD8047290 Si02
#       8
#     2   2   2   2   2   2   2   2
#     4  12  28  53  79 114 160 211 255 328 408 466
#     4  12  25  48  84 113 151 210 267 330 387 474
#     4  11  25  44  75 112 149 194 263 320 385 455
#     4  11  24  41  73 101 146 199 250 312 394 448
#     4  12  25  48  83 112 156 203 275 322 392 477
#     4  11  26  46  74 114 150 198 264 323 390 461
#     4  11  21  43  71 101 142 192 252 319 370 456
#     4  12  28  49  75 109 158 205 256 320 392 473
#
# _framework density 24.640253999999999
#
# number of rings (size 3 to 8) (size 9 to 14) (size 15 to 20)
#    0.000    0.500    6.250    1.500    3.500    0.000 
#    6.750    0.000    0.000    0.000    0.000    0.000 
#    0.000    0.000    0.000    0.000    0.000    0.000 
#
# Total GULP energy -198227.144223 kJ/mol
# GULP energy per Si atom -12389.196514 kJ/mol
# Density = 2.458417 g / cm^3
# Si number density = 24.640254 Si / 1000 Ang^3
#
#
#
# Elastic Constant Matrix: (Units=GPa)
#
#
# Indices 1 2 3 4 5 6 
#
# 1 113.5440 10.8956 18.0601 0.0000 -22.8319 0.0000
# 2 10.8956 76.7131 13.9714 0.0000 -13.2160 0.0000
# 3 18.0601 13.9714 80.6273 0.0000 -18.0231 0.0000
# 4 0.0000 0.0000 0.0000 24.5279 0.0000 0.8605
# 5 -22.8319 -13.2160 -18.0231 0.0000 31.8033 0.0000
# 6 0.0000 0.0000 0.0000 0.8605 0.0000 31.7617
#
#
#
# Elastic Compliance Matrix: (Units=1/GPa)
#
#
# Indices 1 2 3 4 5 6 
#
# 1 0.010334 -0.000137 -0.000739 0.000000 0.006943 0.000000
# 2 -0.000137 0.014161 -0.001294 0.000000 0.005053 0.000000
# 3 -0.000739 -0.001294 0.014375 0.000000 0.007078 0.000000
# 4 0.000000 0.000000 0.000000 0.040809 0.000000 -0.001106
# 5 0.006943 0.005053 0.007078 0.000000 0.042539 0.000000
# 6 0.000000 0.000000 0.000000 -0.001106 0.000000 0.031514
#
#
# Mechanical properties :
#
#
# Convention : Reuss Voigt Hill
#
# Bulk Modulus (GPa) = 28.95980 39.63762 34.29871
# Shear Modulus (GPa) = 29.48438 32.81573 31.15005
#
# Velocity S-wave (km/s) = 3.46293 3.65333 3.55941
# Velocity P-wave (km/s) = 5.26951 5.82385 5.55360
#
# Compressibility (1/GPa) = 0.03453063
#
# Stress axis : x y z
#
# Youngs Moduli (GPa) = 96.76797 70.61542 69.56695
#
# Poissons Ratio (x) = 0.00967 0.05141
# Poissons Ratio (y) = 0.01326 0.08999
# Poissons Ratio (z) = 0.07151 0.09135
#
# Static dielectric constant tensor:
#      x y z
#    x 4.602400 0.000000 -0.261640 
#    y 0.000000 4.648740 0.000000 
#    z -0.261640 0.000000 4.287510 
# 
# 
# High freq. dielectric constant tensor:
#      x y z
#    x 1.985630 0.000000 -0.020510 
#    y 0.000000 1.979270 0.000000 
#    z -0.020510 0.000000 1.973530 
# 
# From -- ./inp_files/10122.got.cif
#   From: 2010.03.12/outbox.cif.g09.slc.cpg/sg4_6_cif.got.tgz:10122.got - 2010.03.31 09:31:35.
