data_PCOD8047027
_publ_section_title
;
Structure prediction by ZEFSAII (Michael W. Deem and Ramdas Pophale) SiO2 
 PCOD8047027
Probable space group: P 21
;
_chemical_formula_sum "Si O2"
_cell_formula_units_Z 14
_cell_length_a 13.975171
_cell_length_b 8.472554
_cell_length_c 13.399966
_cell_angle_alpha 90.000000
_cell_angle_beta 159.538515
_cell_angle_gamma 90.000000
_cell_volume 554.649776
_symmetry_space_group_name_H-M "P 21"
_symmetry_group_IT_number 4
_symmetry_cell_setting 'monoclinic'
loop_
_space_group_symop_operation_xyz
x,y,z
-x,1/2+y,-z
loop_
_atom_site_type_symbol
_atom_site_label
_atom_site_fract_x
_atom_site_fract_y
_atom_site_fract_z
Si Si1 0.860513 0.472560 0.962280
Si Si2 0.162855 0.977367 0.290395
Si Si3 0.636304 0.810569 0.449719
Si Si4 0.567399 0.398080 0.168094
Si Si5 0.641508 0.791384 0.837423
Si Si6 0.716761 0.872025 0.306221
Si Si7 0.094616 0.587373 0.658232
O O1 0.894734 0.518912 0.880616
O O2 0.654056 0.325232 0.777303
O O3 0.741157 0.620104 0.904472
O O4 0.155056 0.428615 0.292574
O O5 0.257703 0.131768 0.444182
O O6 0.401897 0.847130 0.528455
O O7 0.889280 0.915362 0.074912
O O8 0.587046 0.869563 0.288343
O O9 0.486586 0.277777 0.176913
O O10 0.877369 0.453832 0.482208
O O11 0.501288 0.318363 0.994246
O O12 0.373411 0.555208 0.993338
O O13 0.984307 0.761062 0.564332
O O14 0.832690 0.046344 0.388087
#
# Coordination Sequence:
#
# PCOD8047027 Si02
#       7
#     2   2   2   2   2   2   2
#     4  12  27  45  70 103 135 177 233 294 336 400
#     4  12  25  48  70 100 138 179 231 285 346 407
#     4  12  27  44  74 103 139 178 229 282 351 398
#     4  10  24  39  67  95 136 168 222 263 326 402
#     4  12  25  44  74  98 135 184 229 273 352 408
#     4  10  26  41  70  96 142 169 225 266 335 398
#     4  10  24  41  65  93 137 177 213 269 324 387
#
# _framework density 25.241154000000002
#
# number of rings (size 3 to 8) (size 9 to 14) (size 15 to 20)
#    0.857    0.000    0.000    6.857    6.000    1.143 
#    0.000    0.000    0.000    0.000    0.000    0.000 
#    0.000    0.000    0.000    0.000    0.000    0.000 
#
# Total GULP energy -173595.248137 kJ/mol
# GULP energy per Si atom -12399.660581 kJ/mol
# Density = 2.518370 g / cm^3
# Si number density = 25.241154 Si / 1000 Ang^3
#
#
#
# Elastic Constant Matrix: (Units=GPa)
#
#
# Indices 1 2 3 4 5 6 
#
# 1 123.2678 4.5049 35.7058 0.0000 -7.2814 0.0000
# 2 4.5049 25.4207 -17.1207 0.0000 -3.3702 0.0000
# 3 35.7058 -17.1207 64.3173 0.0000 -5.8220 0.0000
# 4 0.0000 0.0000 0.0000 29.1419 0.0000 3.3992
# 5 -7.2814 -3.3702 -5.8220 0.0000 41.8241 0.0000
# 6 0.0000 0.0000 0.0000 3.3992 0.0000 38.2869
#
#
#
# Elastic Compliance Matrix: (Units=1/GPa)
#
#
# Indices 1 2 3 4 5 6 
#
# 1 0.010636 -0.007095 -0.007775 0.000000 0.000198 0.000000
# 2 -0.007095 0.054050 0.018846 0.000000 0.005744 0.000000
# 3 -0.007775 0.018846 0.025214 0.000000 0.003675 0.000000
# 4 0.000000 0.000000 0.000000 0.034674 0.000000 -0.003078
# 5 0.000198 0.005744 0.003675 0.000000 0.024918 0.000000
# 6 0.000000 0.000000 0.000000 -0.003078 0.000000 0.026392
#
#
# Mechanical properties :
#
#
# Convention : Reuss Voigt Hill
#
# Bulk Modulus (GPa) = 10.21959 28.79843 19.50901
# Shear Modulus (GPa) = 24.93170 34.51162 29.72166
#
# Velocity S-wave (km/s) = 3.14624 3.70168 3.43521
# Velocity P-wave (km/s) = 4.15404 5.45014 4.84562
#
# Compressibility (1/GPa) = 0.09785125
#
# Stress axis : x y z
#
# Youngs Moduli (GPa) = 94.02463 18.50149 39.66107
#
# Poissons Ratio (x) = 0.13127 0.30837
# Poissons Ratio (y) = 0.66711 -0.74746
# Poissons Ratio (z) = 0.73105 -0.34868
#
# Static dielectric constant tensor:
#      x y z
#    x 4.586990 0.000000 0.132620 
#    y 0.000000 4.256840 0.000000 
#    z 0.132620 0.000000 4.654590 
# 
# 
# High freq. dielectric constant tensor:
#      x y z
#    x 2.012570 0.000000 0.010440 
#    y 0.000000 1.997450 0.000000 
#    z 0.010440 0.000000 2.019110 
# 
# From -- ./inp_files/14196.got.cif
#   From: 2010.03.12/outbox.cif.g09.slc.cpg/sg4_8_cif.got.tgz:14196.got - 2010.03.31 09:31:35.
