data_PCOD8047284
_publ_section_title
;
Structure prediction by ZEFSAII (Michael W. Deem and Ramdas Pophale) SiO2 
 PCOD8047284
Probable space group: P 21
;
_chemical_formula_sum "Si O2"
_cell_formula_units_Z 16
_cell_length_a 12.870398
_cell_length_b 10.952244
_cell_length_c 13.233724
_cell_angle_alpha 90.000000
_cell_angle_beta 158.766371
_cell_angle_gamma 90.000000
_cell_volume 675.603203
_symmetry_space_group_name_H-M "P 21"
_symmetry_group_IT_number 4
_symmetry_cell_setting 'monoclinic'
loop_
_space_group_symop_operation_xyz
x,y,z
-x,1/2+y,-z
loop_
_atom_site_type_symbol
_atom_site_label
_atom_site_fract_x
_atom_site_fract_y
_atom_site_fract_z
Si Si1 0.459657 0.371180 0.397501
Si Si2 0.233141 0.199552 0.877406
Si Si3 0.997888 0.992196 0.151395
Si Si4 0.228083 0.743208 0.983374
Si Si5 0.639486 0.157948 0.424309
Si Si6 0.312412 0.383909 0.484791
Si Si7 0.517716 0.081318 0.951591
Si Si8 0.049031 0.935284 0.423076
O O1 0.558361 0.236116 0.450452
O O2 0.267412 0.366494 0.323667
O O3 0.730818 0.458123 0.672355
O O4 0.289164 0.435597 0.153052
O O5 0.345468 0.103878 0.897192
O O6 0.980650 0.149387 0.718696
O O7 0.109439 0.308580 0.694004
O O8 0.495407 0.220923 0.194199
O O9 0.956974 0.134753 0.134129
O O10 0.075998 0.924744 0.326820
O O11 0.993767 0.847371 0.740484
O O12 0.444218 0.789446 0.263258
O O13 0.429610 0.699210 0.072481
O O14 0.562841 0.016282 0.371287
O O15 0.359934 0.967152 0.751918
O O16 0.839802 0.042118 0.271655
#
# Coordination Sequence:
#
# PCOD8047284 Si02
#       8
#     2   2   2   2   2   2   2   2
#     4  12  24  45  70 104 132 186 236 289 350 422
#     4  12  25  45  71 105 141 186 238 297 357 416
#     4  11  22  42  73  95 133 179 237 302 322 414
#     4  11  25  46  69 101 144 184 238 289 358 412
#     4  12  26  46  71 104 146 180 240 294 363 421
#     4  12  28  45  70 105 148 190 225 295 369 426
#     4  11  25  42  71 101 139 189 238 282 360 421
#     4  11  21  43  67 101 133 182 238 294 343 412
#
# _framework density 23.682539999999999
#
# number of rings (size 3 to 8) (size 9 to 14) (size 15 to 20)
#    0.000    0.500    2.500    6.750    3.500    3.000 
#    0.000    1.250    0.000    0.000    0.000    0.000 
#    0.000    0.000    0.000    0.000    0.000    0.000 
#
# Total GULP energy -198344.850315 kJ/mol
# GULP energy per Si atom -12396.553145 kJ/mol
# Density = 2.362864 g / cm^3
# Si number density = 23.682540 Si / 1000 Ang^3
#
#
#
# Elastic Constant Matrix: (Units=GPa)
#
#
# Indices 1 2 3 4 5 6 
#
# 1 74.0581 14.5664 1.3623 0.0000 4.4262 0.0000
# 2 14.5664 63.9747 1.6719 0.0000 -4.2704 0.0000
# 3 1.3623 1.6719 91.2002 0.0000 5.5635 0.0000
# 4 0.0000 0.0000 0.0000 40.9894 0.0000 -1.6133
# 5 4.4262 -4.2704 5.5635 0.0000 27.4283 0.0000
# 6 0.0000 0.0000 0.0000 -1.6133 0.0000 29.5380
#
#
#
# Elastic Compliance Matrix: (Units=1/GPa)
#
#
# Indices 1 2 3 4 5 6 
#
# 1 0.014354 -0.003460 0.000023 0.000000 -0.002860 0.000000
# 2 -0.003460 0.016647 -0.000451 0.000000 0.003242 0.000000
# 3 0.000023 -0.000451 0.011115 0.000000 -0.002329 0.000000
# 4 0.000000 0.000000 0.000000 0.024449 0.000000 0.001335
# 5 -0.002860 0.003242 -0.002329 0.000000 0.037897 0.000000
# 6 0.000000 0.000000 0.000000 0.001335 0.000000 0.033928
#
#
# Mechanical properties :
#
#
# Convention : Reuss Voigt Hill
#
# Bulk Modulus (GPa) = 29.11987 29.38157 29.25072
# Shear Modulus (GPa) = 31.72351 33.69997 32.71174
#
# Velocity S-wave (km/s) = 3.66393 3.77634 3.72056
# Velocity P-wave (km/s) = 5.49744 5.60783 5.55291
#
# Compressibility (1/GPa) = 0.03434081
#
# Stress axis : x y z
#
# Youngs Moduli (GPa) = 69.66749 60.07049 89.96964
#
# Poissons Ratio (x) = 0.20783 -0.00211
# Poissons Ratio (y) = 0.24103 0.04060
# Poissons Ratio (z) = -0.00164 0.02711
#
# Static dielectric constant tensor:
#      x y z
#    x 4.024900 0.000000 0.212120 
#    y 0.000000 4.288720 0.000000 
#    z 0.212120 0.000000 4.298040 
# 
# 
# High freq. dielectric constant tensor:
#      x y z
#    x 1.924160 0.000000 0.015970 
#    y 0.000000 1.939180 0.000000 
#    z 0.015970 0.000000 1.951910 
# 
# From -- ./inp_files/12290.got.cif
#   From: 2010.03.12/outbox.cif.g09.slc.cpg/sg4_7_cif.got.tgz:12290.got - 2010.03.31 09:31:35.
