data_PCOD8047397
_publ_section_title
;
Structure prediction by ZEFSAII (Michael W. Deem and Ramdas Pophale) SiO2 
 PCOD8047397
Probable space group: P 21
;
_chemical_formula_sum "Si O2"
_cell_formula_units_Z 16
_cell_length_a 6.325581
_cell_length_b 13.203614
_cell_length_c 11.484118
_cell_angle_alpha 90.000000
_cell_angle_beta 130.304953
_cell_angle_gamma 90.000000
_cell_volume 731.467034
_symmetry_space_group_name_H-M "P 21"
_symmetry_group_IT_number 4
_symmetry_cell_setting 'monoclinic'
loop_
_space_group_symop_operation_xyz
x,y,z
-x,1/2+y,-z
loop_
_atom_site_type_symbol
_atom_site_label
_atom_site_fract_x
_atom_site_fract_y
_atom_site_fract_z
Si Si1 0.235997 0.373590 0.057559
Si Si2 0.175445 0.025484 0.470190
Si Si3 0.090104 0.153761 0.974534
Si Si4 0.446986 0.180030 0.715769
Si Si5 0.297204 0.028282 0.853143
Si Si6 0.746564 0.920900 0.671653
Si Si7 0.704534 0.894407 0.407454
Si Si8 0.174731 0.016719 0.206464
O O1 0.493777 0.436477 0.098603
O O2 0.197858 0.367352 0.184682
O O3 0.253255 0.258898 0.019541
O O4 0.964343 0.421060 0.904850
O O5 0.486303 0.990186 0.599709
O O6 0.067237 0.033339 0.299885
O O7 0.996989 0.941239 0.473964
O O8 0.215147 0.136217 0.542293
O O9 0.274640 0.066019 0.978630
O O10 0.777004 0.160089 0.810083
O O11 0.091807 0.119687 0.110179
O O12 0.379464 0.129020 0.814281
O O13 0.386987 0.299916 0.705045
O O14 0.994813 0.990038 0.712402
O O15 0.696209 0.850878 0.538799
O O16 0.499377 0.990721 0.322894
#
# Coordination Sequence:
#
# PCOD8047397 Si02
#       8
#     2   2   2   2   2   2   2   2
#     4  12  25  46  72 104 140 186 237 292 351 422
#     4  11  24  46  67 102 142 181 230 290 347 418
#     4  12  27  46  72 104 140 196 233 292 356 417
#     4  12  24  46  73 101 134 195 237 281 363 416
#     4  12  23  45  74  97 144 186 234 287 349 423
#     4  11  22  48  69  93 145 179 227 290 346 406
#     4  11  26  43  72 104 140 187 227 296 351 421
#     4  11  25  44  67 101 147 174 235 298 341 417
#
# _framework density 21.873849
#
# number of rings (size 3 to 8) (size 9 to 14) (size 15 to 20)
#    0.000    0.500    7.500    0.000    5.250    1.000 
#    4.500    0.000    0.000    0.000    0.000    0.000 
#    0.000    0.000    0.000    0.000    0.000    0.000 
#
# Total GULP energy -198226.707347 kJ/mol
# GULP energy per Si atom -12389.169209 kJ/mol
# Density = 2.182406 g / cm^3
# Si number density = 21.873849 Si / 1000 Ang^3
#
#
#
# Elastic Constant Matrix: (Units=GPa)
#
#
# Indices 1 2 3 4 5 6 
#
# 1 105.4086 46.2524 40.4422 0.0000 12.2640 0.0000
# 2 46.2524 113.4132 37.7119 0.0000 5.4079 0.0000
# 3 40.4422 37.7119 109.6354 0.0000 -9.8572 0.0000
# 4 0.0000 0.0000 0.0000 34.3818 0.0000 2.4067
# 5 12.2640 5.4079 -9.8572 0.0000 33.3260 0.0000
# 6 0.0000 0.0000 0.0000 2.4067 0.0000 29.0802
#
#
#
# Elastic Compliance Matrix: (Units=1/GPa)
#
#
# Indices 1 2 3 4 5 6 
#
# 1 0.013390 -0.003827 -0.004119 0.000000 -0.005525 0.000000
# 2 -0.003827 0.011292 -0.002579 0.000000 -0.001187 0.000000
# 3 -0.004119 -0.002579 0.012021 0.000000 0.005490 0.000000
# 4 0.000000 0.000000 0.000000 0.029255 0.000000 -0.002421
# 5 -0.005525 -0.001187 0.005490 0.000000 0.033856 0.000000
# 6 0.000000 0.000000 0.000000 -0.002421 0.000000 0.034588
#
#
# Mechanical properties :
#
#
# Convention : Reuss Voigt Hill
#
# Bulk Modulus (GPa) = 63.89092 64.14113 64.01602
# Shear Modulus (GPa) = 31.11942 32.96097 32.04020
#
# Velocity S-wave (km/s) = 3.77593 3.88605 3.83139
# Velocity P-wave (km/s) = 6.94856 7.03719 6.99301
#
# Compressibility (1/GPa) = 0.01565168
#
# Stress axis : x y z
#
# Youngs Moduli (GPa) = 74.68502 88.55502 83.18454
#
# Poissons Ratio (x) = 0.33893 0.34266
# Poissons Ratio (y) = 0.28585 0.21455
# Poissons Ratio (z) = 0.30765 0.22840
#
# Static dielectric constant tensor:
#      x y z
#    x 4.065970 0.000000 -0.124670 
#    y 0.000000 3.694950 0.000000 
#    z -0.124670 0.000000 4.091630 
# 
# 
# High freq. dielectric constant tensor:
#      x y z
#    x 1.865930 0.000000 -0.003940 
#    y 0.000000 1.844650 0.000000 
#    z -0.003940 0.000000 1.870910 
# 
# From -- ./inp_files/1405.got.cif
#   From: 2010.03.12/outbox.cif.g09.slc.cpg/sg4_1_cif.got.tgz:1405.got - 2010.03.31 09:31:35.
