data_PCOD8047388
_publ_section_title
;
Structure prediction by ZEFSAII (Michael W. Deem and Ramdas Pophale) SiO2 
 PCOD8047388
Probable space group: P 21
;
_chemical_formula_sum "Si O2"
_cell_formula_units_Z 16
_cell_length_a 12.363083
_cell_length_b 10.802868
_cell_length_c 6.570824
_cell_angle_alpha 90.000000
_cell_angle_beta 52.209151
_cell_angle_gamma 90.000000
_cell_volume 693.508492
_symmetry_space_group_name_H-M "P 21"
_symmetry_group_IT_number 4
_symmetry_cell_setting 'monoclinic'
loop_
_space_group_symop_operation_xyz
x,y,z
-x,1/2+y,-z
loop_
_atom_site_type_symbol
_atom_site_label
_atom_site_fract_x
_atom_site_fract_y
_atom_site_fract_z
Si Si1 0.616758 0.906950 0.328169
Si Si2 0.839755 0.835403 0.752928
Si Si3 0.096064 0.695757 0.974163
Si Si4 0.284830 0.700793 0.143973
Si Si5 0.198398 0.504199 0.553171
Si Si6 0.875746 0.368369 0.401726
Si Si7 0.529074 0.664253 0.596624
Si Si8 0.181600 0.147717 0.541835
O O1 0.700167 0.911289 0.443940
O O2 0.526671 0.779774 0.438435
O O3 0.529553 0.034059 0.419520
O O4 0.717562 0.899270 0.019197
O O5 0.885726 0.923560 0.512256
O O6 0.787534 0.705537 0.716181
O O7 0.974773 0.809327 0.727493
O O8 0.099908 0.573977 0.825323
O O9 0.160898 0.813498 0.779315
O O10 0.187045 0.665288 0.066937
O O11 0.938881 0.726627 0.210440
O O12 0.285654 0.601817 0.323394
O O13 0.234392 0.829380 0.300181
O O14 0.440579 0.711554 0.889841
O O15 0.885197 0.513866 0.401390
O O16 0.684615 0.638474 0.476225
#
# Coordination Sequence:
#
# PCOD8047388 Si02
#       8
#     2   2   2   2   2   2   2   2
#     4  12  27  49  74 107 154 205 252 314 387 462
#     4  12  25  48  74 108 150 200 247 315 391 449
#     4  11  24  48  73 108 148 197 243 308 393 445
#     4  11  24  47  74 104 147 197 242 304 385 456
#     4  11  22  46  80  98 143 198 245 299 385 454
#     4  11  27  43  77 109 146 192 257 320 368 463
#     4  12  28  48  74 110 151 203 253 311 386 460
#     4  12  27  45  72 114 145 190 259 317 369 457
#
# _framework density 23.071093999999999
#
# number of rings (size 3 to 8) (size 9 to 14) (size 15 to 20)
#    0.000    0.500    5.000    2.250    5.250    4.000 
#    0.000    0.000    0.000    0.000    0.000    0.000 
#    0.000    0.000    0.000    0.000    0.000    0.000 
#
# Total GULP energy -198379.910386 kJ/mol
# GULP energy per Si atom -12398.744399 kJ/mol
# Density = 2.301858 g / cm^3
# Si number density = 23.071094 Si / 1000 Ang^3
#
#
#
# Elastic Constant Matrix: (Units=GPa)
#
#
# Indices 1 2 3 4 5 6 
#
# 1 73.8265 18.7437 40.0716 0.0000 -1.3543 0.0000
# 2 18.7437 124.0095 40.1514 0.0000 7.2474 0.0000
# 3 40.0716 40.1514 128.1216 0.0000 0.5537 0.0000
# 4 0.0000 0.0000 0.0000 34.9002 0.0000 -1.3035
# 5 -1.3543 7.2474 0.5537 0.0000 37.5600 0.0000
# 6 0.0000 0.0000 0.0000 -1.3035 0.0000 33.2572
#
#
#
# Elastic Compliance Matrix: (Units=1/GPa)
#
#
# Indices 1 2 3 4 5 6 
#
# 1 0.016434 -0.000966 -0.004841 0.000000 0.000850 0.000000
# 2 -0.000966 0.009140 -0.002554 0.000000 -0.001761 0.000000
# 3 -0.004841 -0.002554 0.010119 0.000000 0.000169 0.000000
# 4 0.000000 0.000000 0.000000 0.028695 0.000000 0.001125
# 5 0.000850 -0.001761 0.000169 0.000000 0.026992 0.000000
# 6 0.000000 0.000000 0.000000 0.001125 0.000000 0.030113
#
#
# Mechanical properties :
#
#
# Convention : Reuss Voigt Hill
#
# Bulk Modulus (GPa) = 52.71612 58.21010 55.46311
# Shear Modulus (GPa) = 34.59288 36.27621 35.43454
#
# Velocity S-wave (km/s) = 3.87641 3.96961 3.92329
# Velocity P-wave (km/s) = 6.55244 6.80411 6.67946
#
# Compressibility (1/GPa) = 0.01896953
#
# Stress axis : x y z
#
# Youngs Moduli (GPa) = 60.85080 109.40989 98.82517
#
# Poissons Ratio (x) = 0.10572 0.47838
# Poissons Ratio (y) = 0.05880 0.25245
# Poissons Ratio (z) = 0.29456 0.27949
#
# Static dielectric constant tensor:
#      x y z
#    x 3.904560 0.000000 0.145750 
#    y 0.000000 4.347850 0.000000 
#    z 0.145750 0.000000 4.382130 
# 
# 
# High freq. dielectric constant tensor:
#      x y z
#    x 1.895010 0.000000 0.008270 
#    y 0.000000 1.926450 0.000000 
#    z 0.008270 0.000000 1.918420 
# 
# From -- ./inp_files/2812.got.cif
#   From: 2010.03.12/outbox.cif.g09.slc.cpg/sg4_2_cif.got.tgz:2812.got - 2010.03.31 09:31:35.
