data_PCOD8047862
_publ_section_title
;
Structure prediction by ZEFSAII (Michael W. Deem and Ramdas Pophale) SiO2 
 PCOD8047862
Probable space group: P 21
;
_chemical_formula_sum "Si O2"
_cell_formula_units_Z 10
_cell_length_a 15.460865
_cell_length_b 5.169031
_cell_length_c 5.166055
_cell_angle_alpha 90.000000
_cell_angle_beta 70.593894
_cell_angle_gamma 90.000000
_cell_volume 389.403521
_symmetry_space_group_name_H-M "P 21"
_symmetry_group_IT_number 4
_symmetry_cell_setting 'monoclinic'
loop_
_space_group_symop_operation_xyz
x,y,z
-x,1/2+y,-z
loop_
_atom_site_type_symbol
_atom_site_label
_atom_site_fract_x
_atom_site_fract_y
_atom_site_fract_z
Si Si1 0.809085 0.582980 0.340154
Si Si2 0.995829 0.033613 0.658788
Si Si3 0.796075 0.099183 0.044431
Si Si4 0.677937 0.778964 0.837875
Si Si5 0.559099 0.744286 0.449104
O O1 0.918456 0.544347 0.232827
O O2 0.760670 0.579161 0.673134
O O3 0.762302 0.358331 0.218119
O O4 0.783013 0.858560 0.248837
O O5 0.018660 0.236736 0.408555
O O6 0.902750 0.134995 0.874895
O O7 0.730214 0.047633 0.863194
O O8 0.613482 0.823198 0.654180
O O9 0.622829 0.672436 0.140335
O O10 0.500135 0.492088 0.574667
#
# Coordination Sequence:
#
# PCOD8047862 Si02
#       5
#     2   2   2   2   2
#     4  12  27  47  76 114 162 217 269 332 394 480
#     4  12  24  44  72 110 164 218 272 326 390 464
#     4  12  27  47  76 114 162 217 269 332 394 480
#     4  12  28  54  84 120 160 208 272 336 410 490
#     4  12  30  54  84 116 158 204 264 342 424 496
#
# _framework density 25.680299999999999
#
# number of rings (size 3 to 8) (size 9 to 14) (size 15 to 20)
#    0.000    0.000    4.000    4.800    2.800    3.200 
#    0.000    0.000    0.000    0.000    0.000    0.000 
#    0.000    0.000    0.000    0.000    0.000    0.000 
#
# Total GULP energy -123990.478308 kJ/mol
# GULP energy per Si atom -12399.047831 kJ/mol
# Density = 2.562185 g / cm^3
# Si number density = 25.680300 Si / 1000 Ang^3
#
#
#
# Elastic Constant Matrix: (Units=GPa)
#
#
# Indices 1 2 3 4 5 6 
#
# 1 118.0622 2.1586 36.9394 0.0000 -1.0151 0.0000
# 2 2.1586 98.8353 23.9873 0.0000 -9.7377 0.0000
# 3 36.9394 23.9873 146.2340 0.0000 -4.5339 0.0000
# 4 0.0000 0.0000 0.0000 39.0746 0.0000 11.4736
# 5 -1.0151 -9.7377 -4.5339 0.0000 44.0798 0.0000
# 6 0.0000 0.0000 0.0000 11.4736 0.0000 35.8663
#
#
#
# Elastic Compliance Matrix: (Units=1/GPa)
#
#
# Indices 1 2 3 4 5 6 
#
# 1 0.009211 0.000383 -0.002388 0.000000 0.000051 0.000000
# 2 0.000383 0.010762 -0.001794 0.000000 0.002202 0.000000
# 3 -0.002388 -0.001794 0.007747 0.000000 0.000346 0.000000
# 4 0.000000 0.000000 0.000000 0.028245 0.000000 -0.009036
# 5 0.000051 0.002202 0.000346 0.000000 0.023209 0.000000
# 6 0.000000 0.000000 0.000000 -0.009036 0.000000 0.030772
#
#
# Mechanical properties :
#
#
# Convention : Reuss Voigt Hill
#
# Bulk Modulus (GPa) = 49.69648 54.36691 52.03170
# Shear Modulus (GPa) = 40.24163 43.80722 42.02442
#
# Velocity S-wave (km/s) = 3.96286 4.13470 4.04969
# Velocity P-wave (km/s) = 6.35083 6.63407 6.49399
#
# Compressibility (1/GPa) = 0.02012215
#
# Stress axis : x y z
#
# Youngs Moduli (GPa) = 108.56947 92.92159 129.08996
#
# Poissons Ratio (x) = -0.03563 0.30826
# Poissons Ratio (y) = -0.04163 0.23157
# Poissons Ratio (z) = 0.25926 0.16669
#
# Static dielectric constant tensor:
#      x y z
#    x 5.096380 0.000000 -0.230800 
#    y 0.000000 4.607640 0.000000 
#    z -0.230800 0.000000 4.852030 
# 
# 
# High freq. dielectric constant tensor:
#      x y z
#    x 2.041700 0.000000 -0.005720 
#    y 0.000000 2.026370 0.000000 
#    z -0.005720 0.000000 2.034260 
# 
# From -- ./inp_files/3352.got.cif
#   From: 2010.03.12/outbox.cif.g09.slc.cpg/sg4_2_cif.got.tgz:3352.got - 2010.03.31 09:31:35.
