data_PCOD8047501
_publ_section_title
;
Structure prediction by ZEFSAII (Michael W. Deem and Ramdas Pophale) SiO2 
 PCOD8047501
Probable space group: P 21
;
_chemical_formula_sum "Si O2"
_cell_formula_units_Z 16
_cell_length_a 11.301866
_cell_length_b 8.711579
_cell_length_c 13.963321
_cell_angle_alpha 90.000000
_cell_angle_beta 148.706031
_cell_angle_gamma 90.000000
_cell_volume 714.105024
_symmetry_space_group_name_H-M "P 21"
_symmetry_group_IT_number 4
_symmetry_cell_setting 'monoclinic'
loop_
_space_group_symop_operation_xyz
x,y,z
-x,1/2+y,-z
loop_
_atom_site_type_symbol
_atom_site_label
_atom_site_fract_x
_atom_site_fract_y
_atom_site_fract_z
Si Si1 0.275865 0.077230 0.623902
Si Si2 0.924063 0.672481 0.007890
Si Si3 0.662103 0.673770 0.539168
Si Si4 0.739747 0.082919 0.245212
Si Si5 0.589267 0.249824 0.324186
Si Si6 0.938344 0.329137 0.082655
Si Si7 0.749725 0.322208 0.636090
Si Si8 0.473221 0.782118 0.064569
O O1 0.364970 0.171973 0.593949
O O2 0.333941 0.167501 0.761202
O O3 0.007020 0.050432 0.425085
O O4 0.407015 0.915894 0.723081
O O5 0.981989 0.497973 0.072224
O O6 0.004085 0.782846 0.149870
O O7 0.658419 0.703630 0.809234
O O8 0.055374 0.709701 0.000563
O O9 0.711654 0.503800 0.613408
O O10 0.429943 0.735670 0.421732
O O11 0.864897 0.789071 0.705786
O O12 0.679309 0.123765 0.312617
O O13 0.603432 0.932531 0.118756
O O14 0.665324 0.216462 0.121258
O O15 0.749146 0.256412 0.528195
O O16 0.696879 0.321205 0.967118
#
# Coordination Sequence:
#
# PCOD8047501 Si02
#       8
#     2   2   2   2   2   2   2   2
#     4  11  26  45  74 100 140 187 236 298 350 422
#     4  12  26  44  74 103 147 186 232 295 367 428
#     4  11  23  45  71 106 143 182 236 288 363 427
#     4  12  26  50  70 106 137 192 239 297 347 419
#     4  11  26  46  68 105 140 181 242 285 355 423
#     4  12  25  47  72 109 143 186 235 297 359 435
#     4  11  25  42  71 104 144 186 225 295 354 433
#     4  12  27  47  76 101 146 186 243 293 355 419
#
# _framework density 22.405667999999999
#
# number of rings (size 3 to 8) (size 9 to 14) (size 15 to 20)
#    0.000    0.500    3.750    3.750    5.250    5.000 
#    2.250    0.000    0.000    0.000    0.000    0.000 
#    0.000    0.000    0.000    0.000    0.000    0.000 
#
# Total GULP energy -198511.308180 kJ/mol
# GULP energy per Si atom -12406.956761 kJ/mol
# Density = 2.235467 g / cm^3
# Si number density = 22.405668 Si / 1000 Ang^3
#
#
#
# Elastic Constant Matrix: (Units=GPa)
#
#
# Indices 1 2 3 4 5 6 
#
# 1 90.6926 16.2473 7.8350 0.0000 6.4593 0.0000
# 2 16.2473 85.3191 11.2592 0.0000 7.6890 0.0000
# 3 7.8350 11.2592 57.3623 0.0000 -5.5387 0.0000
# 4 0.0000 0.0000 0.0000 42.7715 0.0000 -2.5533
# 5 6.4593 7.6890 -5.5387 0.0000 26.0392 0.0000
# 6 0.0000 0.0000 0.0000 -2.5533 0.0000 36.5371
#
#
#
# Elastic Compliance Matrix: (Units=1/GPa)
#
#
# Indices 1 2 3 4 5 6 
#
# 1 0.011667 -0.001781 -0.001503 0.000000 -0.002688 0.000000
# 2 -0.001781 0.012758 -0.002636 0.000000 -0.003886 0.000000
# 3 -0.001503 -0.002636 0.018650 0.000000 0.005118 0.000000
# 4 0.000000 0.000000 0.000000 0.023478 0.000000 0.001641
# 5 -0.002688 -0.003886 0.005118 0.000000 0.041307 0.000000
# 6 0.000000 0.000000 0.000000 0.001641 0.000000 0.027484
#
#
# Mechanical properties :
#
#
# Convention : Reuss Voigt Hill
#
# Bulk Modulus (GPa) = 32.01702 33.78411 32.90057
# Shear Modulus (GPa) = 31.72670 34.27170 32.99920
#
# Velocity S-wave (km/s) = 3.76708 3.91525 3.84188
# Velocity P-wave (km/s) = 5.76558 5.96239 5.86481
#
# Compressibility (1/GPa) = 0.03123339
#
# Stress axis : x y z
#
# Youngs Moduli (GPa) = 85.71444 78.38235 53.61913
#
# Poissons Ratio (x) = 0.13960 0.08062
# Poissons Ratio (y) = 0.15266 0.14135
# Poissons Ratio (z) = 0.12887 0.20663
#
# Static dielectric constant tensor:
#      x y z
#    x 4.074490 0.000000 -0.080720 
#    y 0.000000 4.058260 0.000000 
#    z -0.080720 0.000000 4.102800 
# 
# 
# High freq. dielectric constant tensor:
#      x y z
#    x 1.888060 0.000000 -0.005440 
#    y 0.000000 1.889120 0.000000 
#    z -0.005440 0.000000 1.893580 
# 
# From -- ./inp_files/12648.got.cif
#   From: 2010.03.12/outbox.cif.g09.slc.cpg/sg4_7_cif.got.tgz:12648.got - 2010.03.31 09:31:35.
