data_PCOD8047389
_publ_section_title
;
Structure prediction by ZEFSAII (Michael W. Deem and Ramdas Pophale) SiO2 
 PCOD8047389
Probable space group: P 21
;
_chemical_formula_sum "Si O2"
_cell_formula_units_Z 16
_cell_length_a 8.646544
_cell_length_b 11.630456
_cell_length_c 8.621248
_cell_angle_alpha 90.000000
_cell_angle_beta 125.109282
_cell_angle_gamma 90.000000
_cell_volume 709.239256
_symmetry_space_group_name_H-M "P 21"
_symmetry_group_IT_number 4
_symmetry_cell_setting 'monoclinic'
loop_
_space_group_symop_operation_xyz
x,y,z
-x,1/2+y,-z
loop_
_atom_site_type_symbol
_atom_site_label
_atom_site_fract_x
_atom_site_fract_y
_atom_site_fract_z
Si Si1 0.387924 0.307540 0.040530
Si Si2 0.187496 0.539100 0.974038
Si Si3 0.631541 0.664677 0.671402
Si Si4 0.794653 0.432580 0.704375
Si Si5 0.141064 0.137854 0.734206
Si Si6 0.220946 0.900628 0.678621
Si Si7 0.762757 0.180698 0.705050
Si Si8 0.975454 0.711641 0.652750
O O1 0.309808 0.231526 0.139107
O O2 0.613449 0.311352 0.180085
O O3 0.331067 0.441892 0.998141
O O4 0.299432 0.238267 0.844054
O O5 0.992568 0.474106 0.885456
O O6 0.148266 0.648434 0.841269
O O7 0.275846 0.588506 0.183448
O O8 0.647563 0.526000 0.685380
O O9 0.410823 0.683332 0.513823
O O10 0.777611 0.716890 0.630800
O O11 0.786611 0.422188 0.511655
O O12 0.763878 0.310959 0.770404
O O13 0.057127 0.134224 0.514988
O O14 0.965607 0.153155 0.748276
O O15 0.242517 0.013734 0.798974
O O16 0.029426 0.839053 0.626671
#
# Coordination Sequence:
#
# PCOD8047389 Si02
#       8
#     2   2   2   2   2   2   2   2
#     4  12  26  47  71 102 143 186 239 295 353 421
#     4  11  25  42  72 100 138 183 237 294 346 422
#     4  11  25  45  73 104 144 188 239 289 355 423
#     4  11  22  47  68 103 143 181 231 297 346 417
#     4  12  25  46  72 104 141 190 233 295 360 417
#     4  12  25  46  73 102 148 185 236 296 354 422
#     4  12  25  45  75 102 143 188 239 291 358 419
#     4  11  25  44  70 105 142 185 238 289 356 417
#
# _framework density 22.559384999999999
#
# number of rings (size 3 to 8) (size 9 to 14) (size 15 to 20)
#    0.000    0.500    6.250    2.250    3.500    1.000 
#    0.000    0.000    0.000    0.000    0.000    0.000 
#    0.000    0.000    0.000    0.000    0.000    0.000 
#
# Total GULP energy -198273.002009 kJ/mol
# GULP energy per Si atom -12392.062626 kJ/mol
# Density = 2.250804 g / cm^3
# Si number density = 22.559385 Si / 1000 Ang^3
#
#
#
# Elastic Constant Matrix: (Units=GPa)
#
#
# Indices 1 2 3 4 5 6 
#
# 1 55.0978 39.9371 15.2675 0.0000 9.4907 0.0000
# 2 39.9371 121.9082 9.2119 0.0000 12.0307 0.0000
# 3 15.2675 9.2119 79.2808 0.0000 10.2341 0.0000
# 4 0.0000 0.0000 0.0000 42.4450 0.0000 -0.5247
# 5 9.4907 12.0307 10.2341 0.0000 18.4761 0.0000
# 6 0.0000 0.0000 0.0000 -0.5247 0.0000 38.2639
#
#
#
# Elastic Compliance Matrix: (Units=1/GPa)
#
#
# Indices 1 2 3 4 5 6 
#
# 1 0.025596 -0.007503 -0.003221 0.000000 -0.006479 0.000000
# 2 -0.007503 0.010972 0.000640 0.000000 -0.003645 0.000000
# 3 -0.003221 0.000640 0.014001 0.000000 -0.006518 0.000000
# 4 0.000000 0.000000 0.000000 0.023564 0.000000 0.000323
# 5 -0.006479 -0.003645 -0.006518 0.000000 0.063436 0.000000
# 6 0.000000 0.000000 0.000000 0.000323 0.000000 0.026139
#
#
# Mechanical properties :
#
#
# Convention : Reuss Voigt Hill
#
# Bulk Modulus (GPa) = 32.89198 42.79108 37.84153
# Shear Modulus (GPa) = 25.77214 32.62836 29.20025
#
# Velocity S-wave (km/s) = 3.38363 3.80719 3.60164
# Velocity P-wave (km/s) = 5.46599 6.19158 5.84007
#
# Compressibility (1/GPa) = 0.03040255
#
# Stress axis : x y z
#
# Youngs Moduli (GPa) = 39.06823 91.14041 71.42543
#
# Poissons Ratio (x) = 0.68379 0.23007
# Poissons Ratio (y) = 0.29311 -0.04575
# Poissons Ratio (z) = 0.12584 -0.05837
#
# Static dielectric constant tensor:
#      x y z
#    x 3.985800 0.000000 0.088420 
#    y 0.000000 4.885050 0.000000 
#    z 0.088420 0.000000 4.136640 
# 
# 
# High freq. dielectric constant tensor:
#      x y z
#    x 1.867840 0.000000 0.013920 
#    y 0.000000 1.909470 0.000000 
#    z 0.013920 0.000000 1.895980 
# 
# From -- ./inp_files/6429.got.cif
#   From: 2010.03.12/outbox.cif.g09.slc.cpg/sg4_4_cif.got.tgz:6429.got - 2010.03.31 09:31:35.
