data_PCOD8047597
_publ_section_title
;
Structure prediction by ZEFSAII (Michael W. Deem and Ramdas Pophale) SiO2 
 PCOD8047597
Probable space group: P 21
;
_chemical_formula_sum "Si O2"
_cell_formula_units_Z 14
_cell_length_a 7.869855
_cell_length_b 8.400469
_cell_length_c 16.170973
_cell_angle_alpha 90.000000
_cell_angle_beta 146.891568
_cell_angle_gamma 90.000000
_cell_volume 583.953384
_symmetry_space_group_name_H-M "P 21"
_symmetry_group_IT_number 4
_symmetry_cell_setting 'monoclinic'
loop_
_space_group_symop_operation_xyz
x,y,z
-x,1/2+y,-z
loop_
_atom_site_type_symbol
_atom_site_label
_atom_site_fract_x
_atom_site_fract_y
_atom_site_fract_z
Si Si1 0.724033 0.613220 0.399125
Si Si2 0.539800 0.532014 0.598590
Si Si3 0.191022 0.847911 0.153695
Si Si4 0.463810 0.232661 0.047007
Si Si5 0.811972 0.360907 0.566305
Si Si6 0.938940 0.363788 0.366817
Si Si7 0.498962 0.373834 0.886016
O O1 0.395182 0.699269 0.265898
O O2 0.670415 0.466697 0.437474
O O3 0.802596 0.531116 0.343906
O O4 0.019375 0.725821 0.545386
O O5 0.672820 0.509983 0.746902
O O6 0.811682 0.470337 0.648936
O O7 0.402364 0.703971 0.520486
O O8 0.281217 0.399352 0.473560
O O9 0.218014 0.858634 0.064829
O O10 0.842154 0.816714 0.041049
O O11 0.751711 0.306796 0.212038
O O12 0.467370 0.046526 0.062110
O O13 0.514699 0.253286 0.969469
O O14 0.183679 0.332651 0.705010
#
# Coordination Sequence:
#
# PCOD8047597 Si02
#       7
#     2   2   2   2   2   2   2
#     4  11  24  44  74 107 143 196 254 313 376 444
#     4  11  24  44  79 107 150 191 256 316 374 451
#     4  11  27  52  75 114 151 199 260 312 386 457
#     4  12  30  49  73 113 153 204 250 308 391 460
#     4  12  24  46  76 114 150 198 255 319 381 449
#     4  11  24  45  71 106 144 192 248 311 376 443
#     4  12  29  50  76 109 161 200 253 317 378 466
#
# _framework density 23.974518
#
# number of rings (size 3 to 8) (size 9 to 14) (size 15 to 20)
#    0.000    0.571    2.857    5.143    8.000    0.000 
#    0.000    0.000    0.000    0.000    0.000    0.000 
#    0.000    0.000    0.000    0.000    0.000    0.000 
#
# Total GULP energy -173556.571215 kJ/mol
# GULP energy per Si atom -12396.897944 kJ/mol
# Density = 2.391995 g / cm^3
# Si number density = 23.974518 Si / 1000 Ang^3
#
#
#
# Elastic Constant Matrix: (Units=GPa)
#
#
# Indices 1 2 3 4 5 6 
#
# 1 104.0094 9.3327 9.2433 0.0000 -17.2461 0.0000
# 2 9.3327 114.8862 19.0678 0.0000 -11.0354 0.0000
# 3 9.2433 19.0678 77.7684 0.0000 -17.4597 0.0000
# 4 0.0000 0.0000 0.0000 34.6606 0.0000 -8.1868
# 5 -17.2461 -11.0354 -17.4597 0.0000 33.5612 0.0000
# 6 0.0000 0.0000 0.0000 -8.1868 0.0000 35.2594
#
#
#
# Elastic Compliance Matrix: (Units=1/GPa)
#
#
# Indices 1 2 3 4 5 6 
#
# 1 0.010523 -0.000350 0.000026 0.000000 0.005306 0.000000
# 2 -0.000350 0.009214 -0.001786 0.000000 0.001921 0.000000
# 3 0.000026 -0.001786 0.014906 0.000000 0.007181 0.000000
# 4 0.000000 0.000000 0.000000 0.030525 0.000000 0.007088
# 5 0.005306 0.001921 0.007181 0.000000 0.036890 0.000000
# 6 0.000000 0.000000 0.000000 0.007088 0.000000 0.030007
#
#
# Mechanical properties :
#
#
# Convention : Reuss Voigt Hill
#
# Bulk Modulus (GPa) = 32.86931 41.32797 37.09864
# Shear Modulus (GPa) = 34.14708 37.96425 36.05567
#
# Velocity S-wave (km/s) = 3.77809 3.98367 3.88224
# Velocity P-wave (km/s) = 5.72467 6.19961 5.96687
#
# Compressibility (1/GPa) = 0.03042351
#
# Stress axis : x y z
#
# Youngs Moduli (GPa) = 95.02629 108.53494 67.08867
#
# Poissons Ratio (x) = 0.03793 -0.00176
# Poissons Ratio (y) = 0.03321 0.11984
# Poissons Ratio (z) = -0.00249 0.19388
#
# Static dielectric constant tensor:
#      x y z
#    x 4.539730 0.000000 -0.020830 
#    y 0.000000 4.556820 0.000000 
#    z -0.020830 0.000000 4.225440 
# 
# 
# High freq. dielectric constant tensor:
#      x y z
#    x 1.962670 0.000000 -0.004870 
#    y 0.000000 1.964170 0.000000 
#    z -0.004870 0.000000 1.938960 
# 
# From -- ./inp_files/5354.got.cif
#   From: 2010.03.12/outbox.cif.g09.slc.cpg/sg4_3_cif.got.tgz:5354.got - 2010.03.31 09:31:35.
