data_PCOD8047699
_publ_section_title
;
Structure prediction by ZEFSAII (Michael W. Deem and Ramdas Pophale) SiO2 
 PCOD8047699
Probable space group: P 21
;
_chemical_formula_sum "Si O2"
_cell_formula_units_Z 14
_cell_length_a 13.732081
_cell_length_b 8.343099
_cell_length_c 13.697922
_cell_angle_alpha 90.000000
_cell_angle_beta 22.183082
_cell_angle_gamma 90.000000
_cell_volume 592.533506
_symmetry_space_group_name_H-M "P 21"
_symmetry_group_IT_number 4
_symmetry_cell_setting 'monoclinic'
loop_
_space_group_symop_operation_xyz
x,y,z
-x,1/2+y,-z
loop_
_atom_site_type_symbol
_atom_site_label
_atom_site_fract_x
_atom_site_fract_y
_atom_site_fract_z
Si Si1 0.331868 0.371600 0.967727
Si Si2 0.231582 0.238247 0.721000
Si Si3 0.984700 0.285412 0.611808
Si Si4 0.207231 0.052179 0.543288
Si Si5 0.701121 0.431573 0.220414
Si Si6 0.695809 0.993715 0.807321
Si Si7 0.324336 0.005392 0.971546
O O1 0.439676 0.399320 0.977916
O O2 0.249994 0.189673 0.025336
O O3 0.073291 0.472187 0.191430
O O4 0.558957 0.425796 0.683663
O O5 0.244304 0.144583 0.608425
O O6 0.480135 0.354965 0.493820
O O7 0.250289 0.113830 0.792412
O O8 0.969117 0.336350 0.979644
O O9 0.752209 0.173440 0.790138
O O10 0.913627 0.403965 0.766358
O O11 0.212249 0.173003 0.445151
O O12 0.052362 0.388844 0.453310
O O13 0.597581 0.430779 0.204984
O O14 0.547401 0.992001 0.843645
#
# Coordination Sequence:
#
# PCOD8047699 Si02
#       7
#     2   2   2   2   2   2   2
#     4  11  28  43  74 108 145 202 242 306 360 450
#     4  12  27  53  78 113 148 195 247 316 378 447
#     4  11  25  44  70 104 148 199 247 303 367 440
#     4  11  26  48  73 102 151 190 249 305 378 429
#     4  12  29  49  82 111 149 197 248 312 380 444
#     4  11  26  42  71 103 152 195 251 301 368 433
#     4  12  27  45  72 107 147 198 252 305 369 447
#
# _framework density 23.627355999999999
#
# number of rings (size 3 to 8) (size 9 to 14) (size 15 to 20)
#    0.000    0.571    1.429    4.286   22.000    0.000 
#    0.000    0.000    0.000    0.000    0.000    0.000 
#    0.000    0.000    0.000    0.000    0.000    0.000 
#
# Total GULP energy -173597.483296 kJ/mol
# GULP energy per Si atom -12399.820235 kJ/mol
# Density = 2.357358 g / cm^3
# Si number density = 23.627356 Si / 1000 Ang^3
#
#
#
# Elastic Constant Matrix: (Units=GPa)
#
#
# Indices 1 2 3 4 5 6 
#
# 1 73.8725 18.3917 28.6749 0.0000 2.5614 0.0000
# 2 18.3917 120.9419 41.1794 0.0000 -4.4068 0.0000
# 3 28.6749 41.1794 115.9800 0.0000 -8.4081 0.0000
# 4 0.0000 0.0000 0.0000 45.6991 0.0000 11.2324
# 5 2.5614 -4.4068 -8.4081 0.0000 26.2485 0.0000
# 6 0.0000 0.0000 0.0000 11.2324 0.0000 33.8430
#
#
#
# Elastic Compliance Matrix: (Units=1/GPa)
#
#
# Indices 1 2 3 4 5 6 
#
# 1 0.015321 -0.001221 -0.003560 0.000000 -0.002841 0.000000
# 2 -0.001221 0.009510 -0.003020 0.000000 0.000748 0.000000
# 3 -0.003560 -0.003020 0.010814 0.000000 0.003304 0.000000
# 4 0.000000 0.000000 0.000000 0.023826 0.000000 -0.007908
# 5 -0.002841 0.000748 0.003304 0.000000 0.039559 0.000000
# 6 0.000000 0.000000 0.000000 -0.007908 0.000000 0.032173
#
#
# Mechanical properties :
#
#
# Convention : Reuss Voigt Hill
#
# Bulk Modulus (GPa) = 49.89580 54.14292 52.01936
# Shear Modulus (GPa) = 32.57597 35.99469 34.28533
#
# Velocity S-wave (km/s) = 3.71717 3.90735 3.81345
# Velocity P-wave (km/s) = 6.29180 6.58192 6.43849
#
# Compressibility (1/GPa) = 0.02004177
#
# Stress axis : x y z
#
# Youngs Moduli (GPa) = 65.26821 105.15482 92.46925
#
# Poissons Ratio (x) = 0.12841 0.32923
# Poissons Ratio (y) = 0.07970 0.27929
# Poissons Ratio (z) = 0.23238 0.31760
#
# Static dielectric constant tensor:
#      x y z
#    x 4.306770 0.000000 0.115290 
#    y 0.000000 4.593070 0.000000 
#    z 0.115290 0.000000 4.128780 
# 
# 
# High freq. dielectric constant tensor:
#      x y z
#    x 1.941040 0.000000 0.005070 
#    y 0.000000 1.955160 0.000000 
#    z 0.005070 0.000000 1.929880 
# 
# From -- ./inp_files/2555.got.cif
#   From: 2010.03.12/outbox.cif.g09.slc.cpg/sg4_2_cif.got.tgz:2555.got - 2010.03.31 09:31:35.
