data_PCOD8047177
_publ_section_title
;
Structure prediction by ZEFSAII (Michael W. Deem and Ramdas Pophale) SiO2 
 PCOD8047177
Probable space group: P 21
;
_chemical_formula_sum "Si O2"
_cell_formula_units_Z 14
_cell_length_a 8.007401
_cell_length_b 9.651787
_cell_length_c 7.409293
_cell_angle_alpha 90.000000
_cell_angle_beta 97.718590
_cell_angle_gamma 90.000000
_cell_volume 567.444372
_symmetry_space_group_name_H-M "P 21"
_symmetry_group_IT_number 4
_symmetry_cell_setting 'monoclinic'
loop_
_space_group_symop_operation_xyz
x,y,z
-x,1/2+y,-z
loop_
_atom_site_type_symbol
_atom_site_label
_atom_site_fract_x
_atom_site_fract_y
_atom_site_fract_z
Si Si1 0.841769 0.250000 0.416000
Si Si2 0.348594 0.427802 0.170016
Si Si3 0.531249 0.067818 0.468475
Si Si4 0.593500 0.447271 0.912333
Si Si5 0.805806 0.202685 0.986621
Si Si6 0.841018 0.661231 0.928572
Si Si7 0.151484 0.063304 0.452742
O O1 0.668525 0.191537 0.480112
O O2 0.829810 0.239100 0.199401
O O3 0.866384 0.410330 0.468543
O O4 0.005688 0.163924 0.513677
O O5 0.405241 0.452717 0.381875
O O6 0.205057 0.312640 0.153849
O O7 0.498451 0.372087 0.064228
O O8 0.300517 0.565681 0.056400
O O9 0.522037 0.993475 0.272095
O O10 0.345272 0.121124 0.505115
O O11 0.690894 0.582238 0.012016
O O12 0.722736 0.328515 0.864420
O O13 0.991484 0.176249 0.926756
O O14 0.878010 0.557660 0.766377
#
# Coordination Sequence:
#
# PCOD8047177 Si02
#       7
#     2   2   2   2   2   2   2
#     4  11  25  51  75 113 161 195 267 317 385 467
#     4  12  25  45  75 105 148 201 246 315 384 449
#     4  11  27  45  75 111 151 198 253 311 385 458
#     4  11  24  46  73 103 151 196 253 312 380 459
#     4  11  24  47  73 108 145 206 248 317 387 452
#     4  10  25  47  71 109 153 192 262 313 379 466
#     4  10  26  45  78 111 153 208 251 325 382 455
#
# _framework density 24.672021000000001
#
# number of rings (size 3 to 8) (size 9 to 14) (size 15 to 20)
#    0.000    1.143    1.429    2.571   14.000    0.000 
#    2.571    1.429    0.000    0.000    0.000    0.000 
#    0.000    0.000    0.000    0.000    0.000    0.000 
#
# Total GULP energy -173512.512496 kJ/mol
# GULP energy per Si atom -12393.750893 kJ/mol
# Density = 2.461587 g / cm^3
# Si number density = 24.672021 Si / 1000 Ang^3
#
#
#
# Elastic Constant Matrix: (Units=GPa)
#
#
# Indices 1 2 3 4 5 6 
#
# 1 140.8434 43.2785 19.1402 0.0000 19.3399 0.0000
# 2 43.2785 132.7233 20.1303 0.0000 6.5298 0.0000
# 3 19.1402 20.1303 55.0427 0.0000 -9.6415 0.0000
# 4 0.0000 0.0000 0.0000 19.9631 0.0000 -0.4111
# 5 19.3399 6.5298 -9.6415 0.0000 25.6909 0.0000
# 6 0.0000 0.0000 0.0000 -0.4111 0.0000 40.3994
#
#
#
# Elastic Compliance Matrix: (Units=1/GPa)
#
#
# Indices 1 2 3 4 5 6 
#
# 1 0.009362 -0.002069 -0.003897 0.000000 -0.007984 0.000000
# 2 -0.002069 0.008712 -0.002763 0.000000 -0.001694 0.000000
# 3 -0.003897 -0.002763 0.022660 0.000000 0.012140 0.000000
# 4 0.000000 0.000000 0.000000 0.050103 0.000000 0.000510
# 5 -0.007984 -0.001694 0.012140 0.000000 0.049921 0.000000
# 6 0.000000 0.000000 0.000000 0.000510 0.000000 0.024758
#
#
# Mechanical properties :
#
#
# Convention : Reuss Voigt Hill
#
# Bulk Modulus (GPa) = 42.96545 54.85637 48.91091
# Shear Modulus (GPa) = 26.21467 33.61470 29.91468
#
# Velocity S-wave (km/s) = 3.26318 3.69516 3.48587
# Velocity P-wave (km/s) = 5.62585 6.36303 6.00576
#
# Compressibility (1/GPa) = 0.02327451
#
# Stress axis : x y z
#
# Youngs Moduli (GPa) = 106.81744 114.79075 44.13040
#
# Poissons Ratio (x) = 0.23747 0.17199
# Poissons Ratio (y) = 0.22098 0.12195
# Poissons Ratio (z) = 0.41631 0.31720
#
# Static dielectric constant tensor:
#      x y z
#    x 5.052440 0.000000 0.220440 
#    y 0.000000 4.410310 0.000000 
#    z 0.220440 0.000000 4.161470 
# 
# 
# High freq. dielectric constant tensor:
#      x y z
#    x 1.998220 0.000000 0.009930 
#    y 0.000000 1.985630 0.000000 
#    z 0.009930 0.000000 1.965880 
# 
# From -- ./inp_files/5467.got.cif
#   From: 2010.03.12/outbox.cif.g09.slc.cpg/sg4_3_cif.got.tgz:5467.got - 2010.03.31 09:31:35.
