data_PCOD8047852
_publ_section_title
;
Structure prediction by ZEFSAII (Michael W. Deem and Ramdas Pophale) SiO2 
 PCOD8047852
Probable space group: P 21
;
_chemical_formula_sum "Si O2"
_cell_formula_units_Z 14
_cell_length_a 24.260545
_cell_length_b 4.899780
_cell_length_c 9.869815
_cell_angle_alpha 90.000000
_cell_angle_beta 28.947206
_cell_angle_gamma 90.000000
_cell_volume 567.851348
_symmetry_space_group_name_H-M "P 21"
_symmetry_group_IT_number 4
_symmetry_cell_setting 'monoclinic'
loop_
_space_group_symop_operation_xyz
x,y,z
-x,1/2+y,-z
loop_
_atom_site_type_symbol
_atom_site_label
_atom_site_fract_x
_atom_site_fract_y
_atom_site_fract_z
Si Si1 0.505667 0.747910 0.576621
Si Si2 0.920881 0.389018 0.479003
Si Si3 0.034631 0.117007 0.002177
Si Si4 0.275553 0.215542 0.731187
Si Si5 0.125675 0.717836 0.115523
Si Si6 0.695714 0.368448 0.795301
Si Si7 0.282650 0.348699 0.428186
O O1 0.473726 0.553187 0.520548
O O2 0.621432 0.633000 0.392370
O O3 0.403109 0.741761 0.902695
O O4 0.896453 0.303946 0.683678
O O5 0.803710 0.458721 0.654040
O O6 0.005661 0.651341 0.298421
O O7 0.983084 0.141900 0.264796
O O8 0.157703 0.245180 0.730245
O O9 0.960044 0.306238 0.059918
O O10 0.337095 0.329820 0.461408
O O11 0.200156 0.445490 0.964249
O O12 0.194232 0.949681 0.884315
O O13 0.653273 0.644884 0.813112
O O14 0.724426 0.150164 0.616910
#
# Coordination Sequence:
#
# PCOD8047852 Si02
#       7
#     2   2   2   2   2   2   2
#     4  12  27  52  79 106 144 196 247 306 368 433
#     4  12  26  44  68 105 145 186 245 291 363 436
#     4  12  24  42  67  98 146 194 233 291 355 442
#     4  12  27  49  74 106 151 191 250 303 369 438
#     4  12  28  44  72 108 149 197 239 308 365 436
#     4  12  27  45  75 105 143 187 243 301 361 438
#     4  12  25  44  69 108 140 189 237 300 367 425
#
# _framework density 24.654337999999999
#
# number of rings (size 3 to 8) (size 9 to 14) (size 15 to 20)
#    0.000    0.000    4.286    5.143    2.000    5.714 
#    0.000    0.000    0.000    0.000    0.000    0.000 
#    0.000    0.000    0.000    0.000    0.000    0.000 
#
# Total GULP energy -173624.037680 kJ/mol
# GULP energy per Si atom -12401.716977 kJ/mol
# Density = 2.459822 g / cm^3
# Si number density = 24.654338 Si / 1000 Ang^3
#
#
#
# Elastic Constant Matrix: (Units=GPa)
#
#
# Indices 1 2 3 4 5 6 
#
# 1 107.3078 45.5125 37.6078 0.0000 7.6002 0.0000
# 2 45.5125 101.7027 19.9541 0.0000 -2.8408 0.0000
# 3 37.6078 19.9541 107.0028 0.0000 6.6288 0.0000
# 4 0.0000 0.0000 0.0000 40.6347 0.0000 2.9007
# 5 7.6002 -2.8408 6.6288 0.0000 47.1823 0.0000
# 6 0.0000 0.0000 0.0000 2.9007 0.0000 16.9304
#
#
#
# Elastic Compliance Matrix: (Units=1/GPa)
#
#
# Indices 1 2 3 4 5 6 
#
# 1 0.012829 -0.005119 -0.003437 0.000000 -0.001892 0.000000
# 2 -0.005119 0.012286 -0.000594 0.000000 0.001648 0.000000
# 3 -0.003437 -0.000594 0.010726 0.000000 -0.000989 0.000000
# 4 0.000000 0.000000 0.000000 0.024914 0.000000 -0.004269
# 5 -0.001892 0.001648 -0.000989 0.000000 0.021737 0.000000
# 6 0.000000 0.000000 0.000000 -0.004269 0.000000 0.059797
#
#
# Mechanical properties :
#
#
# Convention : Reuss Voigt Hill
#
# Bulk Modulus (GPa) = 57.01335 58.01803 57.51569
# Shear Modulus (GPa) = 30.04154 35.14542 32.59348
#
# Velocity S-wave (km/s) = 3.49450 3.77971 3.63990
# Velocity P-wave (km/s) = 6.28151 6.52932 6.40661
#
# Compressibility (1/GPa) = 0.01753975
#
# Stress axis : x y z
#
# Youngs Moduli (GPa) = 77.94919 81.39261 93.23516
#
# Poissons Ratio (x) = 0.41669 0.32045
# Poissons Ratio (y) = 0.39906 0.05537
# Poissons Ratio (z) = 0.26791 0.04834
#
# Static dielectric constant tensor:
#      x y z
#    x 5.105690 0.000000 0.397370 
#    y 0.000000 4.944420 0.000000 
#    z 0.397370 0.000000 4.585170 
# 
# 
# High freq. dielectric constant tensor:
#      x y z
#    x 1.988260 0.000000 0.015960 
#    y 0.000000 1.987180 0.000000 
#    z 0.015960 0.000000 1.983780 
# 
# From -- ./inp_files/9954.got.cif
#   From: 2010.03.12/outbox.cif.g09.slc.cpg/sg4_5_cif.got.tgz:9954.got - 2010.03.31 09:31:35.
