data_PCOD8047726
_publ_section_title
;
Structure prediction by ZEFSAII (Michael W. Deem and Ramdas Pophale) SiO2 
 PCOD8047726
Probable space group: P 21
;
_chemical_formula_sum "Si O2"
_cell_formula_units_Z 16
_cell_length_a 18.808967
_cell_length_b 5.311942
_cell_length_c 9.809466
_cell_angle_alpha 90.000000
_cell_angle_beta 142.231700
_cell_angle_gamma 90.000000
_cell_volume 600.272307
_symmetry_space_group_name_H-M "P 21"
_symmetry_group_IT_number 4
_symmetry_cell_setting 'monoclinic'
loop_
_space_group_symop_operation_xyz
x,y,z
-x,1/2+y,-z
loop_
_atom_site_type_symbol
_atom_site_label
_atom_site_fract_x
_atom_site_fract_y
_atom_site_fract_z
Si Si1 0.931050 0.820590 0.216531
Si Si2 0.145952 0.501909 0.609049
Si Si3 0.315638 0.139235 0.170049
Si Si4 0.941789 0.023282 0.958245
Si Si5 0.615865 0.310480 0.274160
Si Si6 0.632226 0.344746 0.000372
Si Si7 0.249553 0.307882 0.514785
Si Si8 0.496174 0.969192 0.642335
O O1 0.049653 0.666159 0.384630
O O2 0.913629 0.905764 0.344316
O O3 0.818027 0.667213 0.991906
O O4 0.939707 0.048496 0.120491
O O5 0.261982 0.650797 0.821038
O O6 0.176397 0.280162 0.546009
O O7 0.378206 0.955114 0.373673
O O8 0.396388 0.388989 0.291574
O O9 0.314310 0.068701 0.007203
O O10 0.821352 0.916548 0.719611
O O11 0.034760 0.802012 0.063188
O O12 0.577897 0.416124 0.066369
O O13 0.704107 0.532646 0.458085
O O14 0.517378 0.293103 0.242115
O O15 0.658228 0.027883 0.317024
O O16 0.525989 0.242431 0.747311
#
# Coordination Sequence:
#
# PCOD8047726 Si02
#       8
#     2   2   2   2   2   2   2   2
#     4  12  26  46  77 113 150 204 249 316 389 458
#     4  11  25  46  74 117 150 197 253 313 383 464
#     4  12  26  49  72 109 150 201 257 313 380 456
#     4  12  27  47  75 110 152 204 254 310 379 458
#     4  11  28  45  81 110 151 202 255 319 387 448
#     4  11  26  46  76 108 153 196 255 315 383 452
#     4  11  25  51  72 115 155 198 258 315 383 454
#     4  12  27  48  75 110 151 204 259 317 378 456
#
# _framework density 26.65457
#
# number of rings (size 3 to 8) (size 9 to 14) (size 15 to 20)
#    0.000    0.500    3.750    3.000    8.750    3.000 
#    0.000    0.000    0.000    0.000    0.000    0.000 
#    0.000    0.000    0.000    0.000    0.000    0.000 
#
# Total GULP energy -198239.067917 kJ/mol
# GULP energy per Si atom -12389.941745 kJ/mol
# Density = 2.659390 g / cm^3
# Si number density = 26.654570 Si / 1000 Ang^3
#
#
#
# Elastic Constant Matrix: (Units=GPa)
#
#
# Indices 1 2 3 4 5 6 
#
# 1 106.9665 5.2208 4.8241 0.0000 -20.6233 0.0000
# 2 5.2208 48.0331 -15.0127 0.0000 1.2041 0.0000
# 3 4.8241 -15.0127 105.6974 0.0000 3.1841 0.0000
# 4 0.0000 0.0000 0.0000 30.1214 0.0000 -8.9850
# 5 -20.6233 1.2041 3.1841 0.0000 34.0798 0.0000
# 6 0.0000 0.0000 0.0000 -8.9850 0.0000 29.5784
#
#
#
# Elastic Compliance Matrix: (Units=1/GPa)
#
#
# Indices 1 2 3 4 5 6 
#
# 1 0.010752 -0.001623 -0.000922 0.000000 0.006650 0.000000
# 2 -0.001623 0.022070 0.003271 0.000000 -0.002068 0.000000
# 3 -0.000922 0.003271 0.010016 0.000000 -0.001609 0.000000
# 4 0.000000 0.000000 0.000000 0.036507 0.000000 0.011090
# 5 0.006650 -0.002068 -0.001609 0.000000 0.033590 0.000000
# 6 0.000000 0.000000 0.000000 0.011090 0.000000 0.037177
#
#
# Mechanical properties :
#
#
# Convention : Reuss Voigt Hill
#
# Bulk Modulus (GPa) = 22.57874 27.86238 25.22056
# Shear Modulus (GPa) = 30.59546 36.46690 33.53118
#
# Velocity S-wave (km/s) = 3.39167 3.70284 3.55066
# Velocity P-wave (km/s) = 4.88131 5.36257 5.12759
#
# Compressibility (1/GPa) = 0.04428945
#
# Stress axis : x y z
#
# Youngs Moduli (GPa) = 93.00938 45.31118 99.83920
#
# Poissons Ratio (x) = 0.07356 0.09201
# Poissons Ratio (y) = 0.15099 -0.32658
# Poissons Ratio (z) = 0.08572 -0.14821
#
# Static dielectric constant tensor:
#      x y z
#    x 5.429900 0.000000 -0.253750 
#    y 0.000000 4.526260 0.000000 
#    z -0.253750 0.000000 5.032460 
# 
# 
# High freq. dielectric constant tensor:
#      x y z
#    x 2.083240 0.000000 -0.015250 
#    y 0.000000 2.047080 0.000000 
#    z -0.015250 0.000000 2.088800 
# 
# From -- ./inp_files/9463.got.cif
#   From: 2010.03.12/outbox.cif.g09.slc.cpg/sg4_5_cif.got.tgz:9463.got - 2010.03.31 09:31:35.
