data_PCOD8047266
_publ_section_title
;
Structure prediction by ZEFSAII (Michael W. Deem and Ramdas Pophale) SiO2 
 PCOD8047266
Probable space group: P 21
;
_chemical_formula_sum "Si O2"
_cell_formula_units_Z 12
_cell_length_a 12.788260
_cell_length_b 7.760994
_cell_length_c 9.391711
_cell_angle_alpha 90.000000
_cell_angle_beta 145.636699
_cell_angle_gamma 90.000000
_cell_volume 526.126367
_symmetry_space_group_name_H-M "P 21"
_symmetry_group_IT_number 4
_symmetry_cell_setting 'monoclinic'
loop_
_space_group_symop_operation_xyz
x,y,z
-x,1/2+y,-z
loop_
_atom_site_type_symbol
_atom_site_label
_atom_site_fract_x
_atom_site_fract_y
_atom_site_fract_z
Si Si1 0.978354 0.115070 0.742713
Si Si2 0.452980 0.828355 0.516132
Si Si3 0.048940 0.804637 0.026506
Si Si4 0.674401 0.694228 0.523403
Si Si5 0.653366 0.680058 0.000971
Si Si6 0.364996 0.431381 0.775715
O O1 0.963356 0.297948 0.811474
O O2 0.144654 0.114841 0.817637
O O3 0.796443 0.064614 0.449935
O O4 0.008283 0.988839 0.910883
O O5 0.262376 0.754363 0.232730
O O6 0.605637 0.835518 0.562751
O O7 0.525091 0.699984 0.718428
O O8 0.424153 0.015104 0.552920
O O9 0.897508 0.675300 0.786110
O O10 0.621005 0.763338 0.308682
O O11 0.559818 0.532156 0.992568
O O12 0.671816 0.859324 0.107532
#
# Coordination Sequence:
#
# PCOD8047266 Si02
#       6
#     2   2   2   2   2   2
#     4  11  24  44  67 103 135 178 225 278 342 401
#     4  12  22  39  69  96 137 171 227 283 330 398
#     4  11  21  40  67  98 136 169 224 283 330 392
#     4  11  24  40  66 104 128 181 225 279 339 392
#     4  12  25  47  67 100 137 181 228 272 343 406
#     4  11  26  46  68  95 141 180 225 277 338 407
#
# _framework density 22.808208
#
# number of rings (size 3 to 8) (size 9 to 14) (size 15 to 20)
#    0.000    0.667    5.000    3.000    2.333    1.333 
#    3.000    1.667    0.000    0.000    0.000    0.000 
#    0.000    0.000    0.000    0.000    0.000    0.000 
#
# Total GULP energy -148738.646316 kJ/mol
# GULP energy per Si atom -12394.887193 kJ/mol
# Density = 2.275630 g / cm^3
# Si number density = 22.808208 Si / 1000 Ang^3
#
#
#
# Elastic Constant Matrix: (Units=GPa)
#
#
# Indices 1 2 3 4 5 6 
#
# 1 109.1521 29.8833 47.9436 0.0000 20.5525 0.0000
# 2 29.8833 50.8022 13.6485 0.0000 14.7168 0.0000
# 3 47.9436 13.6485 68.7929 0.0000 3.2185 0.0000
# 4 0.0000 0.0000 0.0000 36.3664 0.0000 -7.3372
# 5 20.5525 14.7168 3.2185 0.0000 29.4216 0.0000
# 6 0.0000 0.0000 0.0000 -7.3372 0.0000 48.2791
#
#
#
# Elastic Compliance Matrix: (Units=1/GPa)
#
#
# Indices 1 2 3 4 5 6 
#
# 1 0.016380 -0.004584 -0.010130 0.000000 -0.008041 0.000000
# 2 -0.004584 0.025482 -0.001422 0.000000 -0.009389 0.000000
# 3 -0.010130 -0.001422 0.021625 0.000000 0.005422 0.000000
# 4 0.000000 0.000000 0.000000 0.028368 0.000000 0.004311
# 5 -0.008041 -0.009389 0.005422 0.000000 0.043709 0.000000
# 6 0.000000 0.000000 0.000000 0.004311 0.000000 0.021368
#
#
# Mechanical properties :
#
#
# Convention : Reuss Voigt Hill
#
# Bulk Modulus (GPa) = 32.03541 45.74424 38.88983
# Shear Modulus (GPa) = 25.04900 31.96488 28.50694
#
# Velocity S-wave (km/s) = 3.31757 3.74767 3.53916
# Velocity P-wave (km/s) = 5.36201 6.23108 5.81281
#
# Compressibility (1/GPa) = 0.03121545
#
# Stress axis : x y z
#
# Youngs Moduli (GPa) = 61.04948 39.24270 46.24357
#
# Poissons Ratio (x) = 0.17990 0.46845
# Poissons Ratio (y) = 0.27987 0.06574
# Poissons Ratio (z) = 0.61843 0.05579
#
# Static dielectric constant tensor:
#      x y z
#    x 4.149410 0.000000 0.157220 
#    y 0.000000 4.117220 0.000000 
#    z 0.157220 0.000000 4.139210 
# 
# 
# High freq. dielectric constant tensor:
#      x y z
#    x 1.896170 0.000000 0.012480 
#    y 0.000000 1.891270 0.000000 
#    z 0.012480 0.000000 1.905040 
# 
# From -- ./inp_files/7446.got.cif
#   From: 2010.03.12/outbox.cif.g09.slc.cpg/sg4_4_cif.got.tgz:7446.got - 2010.03.31 09:31:35.
