data_PCOD8047691
_publ_section_title
;
Structure prediction by ZEFSAII (Michael W. Deem and Ramdas Pophale) SiO2 
 PCOD8047691
Probable space group: P 21
;
_chemical_formula_sum "Si O2"
_cell_formula_units_Z 14
_cell_length_a 23.006134
_cell_length_b 5.019943
_cell_length_c 23.533430
_cell_angle_alpha 90.000000
_cell_angle_beta 167.848330
_cell_angle_gamma 90.000000
_cell_volume 572.110983
_symmetry_space_group_name_H-M "P 21"
_symmetry_group_IT_number 4
_symmetry_cell_setting 'monoclinic'
loop_
_space_group_symop_operation_xyz
x,y,z
-x,1/2+y,-z
loop_
_atom_site_type_symbol
_atom_site_label
_atom_site_fract_x
_atom_site_fract_y
_atom_site_fract_z
Si Si1 0.693290 0.814860 0.000000
Si Si2 0.269577 0.814860 0.500001
Si Si3 0.461619 0.814859 0.500000
Si Si4 0.864311 0.638992 0.735996
Si Si5 0.038642 0.314857 0.499997
Si Si6 0.383118 0.814859 0.000003
Si Si7 0.607682 0.490727 0.735996
O O1 0.984517 0.705832 0.253749
O O2 0.477022 0.923888 0.746253
O O3 0.558200 0.565588 0.903136
O O4 0.751927 0.064132 0.096864
O O5 0.446654 0.586582 0.638130
O O6 0.170394 0.043136 0.361870
O O7 0.401314 0.564859 0.401314
O O8 0.672251 0.732769 0.753557
O O9 0.165137 0.896950 0.246443
O O10 0.600335 0.814859 0.500000
O O11 0.135828 0.814859 0.000000
O O12 0.091354 0.564857 0.591354
O O13 0.328011 0.221975 0.750275
O O14 0.827446 0.407741 0.249712
#
# Coordination Sequence:
#
# PCOD8047691 Si02
#       7
#     2   2   2   2   2   2   2
#     4  12  26  45  72 104 154 189 240 308 368 432
#     4  11  26  43  74 108 142 203 240 301 376 442
#     4  11  24  52  74 112 146 194 240 315 386 450
#     4  11  25  48  76 106 146 188 253 300 363 469
#     4  12  24  45  74 102 144 195 244 300 362 430
#     4  12  26  45  68 110 144 189 248 302 362 434
#     4  11  25  48  76 106 146 188 253 300 363 469
#
# _framework density 24.470776999999998
#
# number of rings (size 3 to 8) (size 9 to 14) (size 15 to 20)
#    0.000    0.571    1.429    6.000    6.000    3.429 
#    5.143    0.000    0.000    0.000    0.000    0.000 
#    0.000    0.000    0.000    0.000    0.000    0.000 
#
# Total GULP energy -173583.251878 kJ/mol
# GULP energy per Si atom -12398.803706 kJ/mol
# Density = 2.441508 g / cm^3
# Si number density = 24.470777 Si / 1000 Ang^3
#
#
#
# Elastic Constant Matrix: (Units=GPa)
#
#
# Indices 1 2 3 4 5 6 
#
# 1 138.3607 61.1571 58.9122 0.0000 -1.7730 0.0000
# 2 61.1571 146.8765 42.1796 0.0000 -0.7423 0.0000
# 3 58.9122 42.1796 171.7144 0.0000 3.0780 0.0000
# 4 0.0000 0.0000 0.0000 47.4138 0.0000 0.3385
# 5 -1.7730 -0.7423 3.0780 0.0000 17.2487 0.0000
# 6 0.0000 0.0000 0.0000 0.3385 0.0000 38.7585
#
#
#
# Elastic Compliance Matrix: (Units=1/GPa)
#
#
# Indices 1 2 3 4 5 6 
#
# 1 0.009816 -0.003342 -0.002571 0.000000 0.001324 0.000000
# 2 -0.003342 0.008470 -0.000937 0.000000 0.000188 0.000000
# 3 -0.002571 -0.000937 0.006963 0.000000 -0.001547 0.000000
# 4 0.000000 0.000000 0.000000 0.021092 0.000000 -0.000184
# 5 0.001324 0.000188 -0.001547 0.000000 0.058396 0.000000
# 6 0.000000 0.000000 0.000000 -0.000184 0.000000 0.025802
#
#
# Mechanical properties :
#
#
# Convention : Reuss Voigt Hill
#
# Bulk Modulus (GPa) = 86.58280 86.82770 86.70525
# Shear Modulus (GPa) = 33.76310 40.33107 37.04709
#
# Velocity S-wave (km/s) = 3.71850 4.06412 3.89515
# Velocity P-wave (km/s) = 7.34134 7.58828 7.46583
#
# Compressibility (1/GPa) = 0.01154964
#
# Stress axis : x y z
#
# Youngs Moduli (GPa) = 101.87078 118.05944 143.60646
#
# Poissons Ratio (x) = 0.39461 0.36914
# Poissons Ratio (y) = 0.34050 0.13460
# Poissons Ratio (z) = 0.26186 0.11065
#
# Static dielectric constant tensor:
#      x y z
#    x 4.672240 0.000000 -0.017240 
#    y 0.000000 4.450070 0.000000 
#    z -0.017240 0.000000 4.231650 
# 
# 
# High freq. dielectric constant tensor:
#      x y z
#    x 1.993200 0.000000 -0.001120 
#    y 0.000000 1.982310 0.000000 
#    z -0.001120 0.000000 1.964550 
# 
# From -- ./inp_files/16216.got.cif
#   From: 2010.03.12/outbox.cif.g09.slc.cpg/sg4_9_cif.got.tgz:16216.got - 2010.03.31 09:31:35.
