data_PCOD8047120
_publ_section_title
;
Structure prediction by ZEFSAII (Michael W. Deem and Ramdas Pophale) SiO2 
 PCOD8047120
Probable space group: P 21
;
_chemical_formula_sum "Si O2"
_cell_formula_units_Z 12
_cell_length_a 23.117743
_cell_length_b 5.233443
_cell_length_c 19.725218
_cell_angle_alpha 90.000000
_cell_angle_beta 168.989822
_cell_angle_gamma 90.000000
_cell_volume 455.774780
_symmetry_space_group_name_H-M "P 21"
_symmetry_group_IT_number 4
_symmetry_cell_setting 'monoclinic'
loop_
_space_group_symop_operation_xyz
x,y,z
-x,1/2+y,-z
loop_
_atom_site_type_symbol
_atom_site_label
_atom_site_fract_x
_atom_site_fract_y
_atom_site_fract_z
Si Si1 0.146170 0.355720 0.642582
Si Si2 0.630088 0.384910 0.298778
Si Si3 0.487773 0.902098 0.334381
Si Si4 0.041609 0.684288 0.203677
Si Si5 0.410522 0.550907 0.357767
Si Si6 0.870604 0.193546 0.195820
O O1 0.078739 0.650809 0.581860
O O2 0.118086 0.333741 0.528781
O O3 0.480830 0.279755 0.056814
O O4 0.728018 0.175853 0.467102
O O5 0.944468 0.519568 0.643267
O O6 0.369932 0.550951 0.034278
O O7 0.556996 0.634215 0.453083
O O8 0.802367 0.045233 0.680749
O O9 0.314604 0.886322 0.063609
O O10 0.275041 0.053309 0.141864
O O11 0.942548 0.969798 0.064308
O O12 0.580533 0.298157 0.582305
#
# Coordination Sequence:
#
# PCOD8047120 Si02
#       6
#     2   2   2   2   2   2
#     4  10  24  46  70 112 154 208 262 322 386 460
#     4  11  24  44  76 112 157 207 264 323 393 471
#     4  12  27  51  82 118 160 212 268 329 408 486
#     4  12  27  51  82 118 160 212 268 329 408 486
#     4  12  28  58  82 124 160 214 270 344 416 498
#     4  11  24  44  76 112 157 207 264 323 393 471
#
# _framework density 26.328790999999999
#
# number of rings (size 3 to 8) (size 9 to 14) (size 15 to 20)
#    0.000    0.667    3.333    3.000    0.000    9.333 
#    6.000    0.000    0.000    0.000    0.000    0.000 
#    0.000    0.000    0.000    0.000    0.000    0.000 
#
# Total GULP energy -148670.223118 kJ/mol
# GULP energy per Si atom -12389.185260 kJ/mol
# Density = 2.626887 g / cm^3
# Si number density = 26.328791 Si / 1000 Ang^3
#
#
#
# Elastic Constant Matrix: (Units=GPa)
#
#
# Indices 1 2 3 4 5 6 
#
# 1 150.9204 53.8768 66.0946 0.0000 -14.3088 0.0000
# 2 53.8768 106.6363 23.7510 0.0000 1.0469 0.0000
# 3 66.0946 23.7510 76.8656 0.0000 8.4842 0.0000
# 4 0.0000 0.0000 0.0000 52.0353 0.0000 -7.0325
# 5 -14.3088 1.0469 8.4842 0.0000 78.5862 0.0000
# 6 0.0000 0.0000 0.0000 -7.0325 0.0000 52.0156
#
#
#
# Elastic Compliance Matrix: (Units=1/GPa)
#
#
# Indices 1 2 3 4 5 6 
#
# 1 0.012971 -0.004314 -0.010209 0.000000 0.003521 0.000000
# 2 -0.004314 0.011509 0.000260 0.000000 -0.000967 0.000000
# 3 -0.010209 0.000260 0.022178 0.000000 -0.004257 0.000000
# 4 0.000000 0.000000 0.000000 0.019575 0.000000 0.002647
# 5 0.003521 -0.000967 -0.004257 0.000000 0.013838 0.000000
# 6 0.000000 0.000000 0.000000 0.002647 0.000000 0.019583
#
#
# Mechanical properties :
#
#
# Convention : Reuss Voigt Hill
#
# Bulk Modulus (GPa) = 55.15268 69.09634 62.12451
# Shear Modulus (GPa) = 37.25121 49.24074 43.24597
#
# Velocity S-wave (km/s) = 3.76553 4.32930 4.05722
# Velocity P-wave (km/s) = 6.31654 7.16178 6.75240
#
# Compressibility (1/GPa) = 0.01813149
#
# Stress axis : x y z
#
# Youngs Moduli (GPa) = 77.09545 86.88930 45.09060
#
# Poissons Ratio (x) = 0.37485 0.46033
# Poissons Ratio (y) = 0.33260 -0.01173
# Poissons Ratio (z) = 0.78707 -0.02261
#
# Static dielectric constant tensor:
#      x y z
#    x 5.330700 0.000000 -0.743600 
#    y 0.000000 4.780570 0.000000 
#    z -0.743600 0.000000 5.035980 
# 
# 
# High freq. dielectric constant tensor:
#      x y z
#    x 2.075950 0.000000 -0.027430 
#    y 0.000000 2.042850 0.000000 
#    z -0.027430 0.000000 2.057890 
# 
# From -- ./inp_files/15942.got.cif
#   From: 2010.03.12/outbox.cif.g09.slc.cpg/sg4_8_cif.got.tgz:15942.got - 2010.03.31 09:31:35.
