data_PCOD8047251
_publ_section_title
;
Structure prediction by ZEFSAII (Michael W. Deem and Ramdas Pophale) SiO2 
 PCOD8047251
Probable space group: P 21
;
_chemical_formula_sum "Si O2"
_cell_formula_units_Z 12
_cell_length_a 9.097758
_cell_length_b 8.501524
_cell_length_c 12.030992
_cell_angle_alpha 90.000000
_cell_angle_beta 36.861875
_cell_angle_gamma 90.000000
_cell_volume 558.216618
_symmetry_space_group_name_H-M "P 21"
_symmetry_group_IT_number 4
_symmetry_cell_setting 'monoclinic'
loop_
_space_group_symop_operation_xyz
x,y,z
-x,1/2+y,-z
loop_
_atom_site_type_symbol
_atom_site_label
_atom_site_fract_x
_atom_site_fract_y
_atom_site_fract_z
Si Si1 0.701344 0.319730 0.449875
Si Si2 0.366365 0.969524 0.957670
Si Si3 0.416845 0.031857 0.666574
Si Si4 0.973827 0.244926 0.932823
Si Si5 0.675600 0.957589 0.152852
Si Si6 0.728747 0.810935 0.895407
O O1 0.657881 0.133333 0.491225
O O2 0.592455 0.369674 0.395475
O O3 0.555977 0.421253 0.630085
O O4 0.987159 0.352124 0.290498
O O5 0.596161 0.871444 0.864604
O O6 0.412547 0.007552 0.800588
O O7 0.127348 0.855723 0.105576
O O8 0.315785 0.125734 0.058825
O O9 0.187212 0.133305 0.758564
O O10 0.082227 0.354064 0.965002
O O11 0.749743 0.140801 0.118085
O O12 0.608114 0.910917 0.068109
#
# Coordination Sequence:
#
# PCOD8047251 Si02
#       6
#     2   2   2   2   2   2
#     4  11  26  44  72 106 141 180 239 293 346 409
#     4  12  26  47  73 101 143 190 233 283 360 419
#     4  11  25  43  73 109 134 181 245 286 350 407
#     4  11  20  42  72 101 137 176 236 295 333 415
#     4  11  22  43  71 104 139 182 235 285 350 410
#     4  12  25  49  67 101 150 185 230 284 355 426
#
# _framework density 21.497032999999998
#
# number of rings (size 3 to 8) (size 9 to 14) (size 15 to 20)
#    0.000    0.667    6.667    1.000    9.333    0.000 
#    6.000    0.000    0.000    0.000    0.000    0.000 
#    0.000    0.000    0.000    0.000    0.000    0.000 
#
# Total GULP energy -148788.017705 kJ/mol
# GULP energy per Si atom -12399.001475 kJ/mol
# Density = 2.144810 g / cm^3
# Si number density = 21.497033 Si / 1000 Ang^3
#
#
#
# Elastic Constant Matrix: (Units=GPa)
#
#
# Indices 1 2 3 4 5 6 
#
# 1 125.9579 48.4838 50.4508 0.0000 -2.9728 0.0000
# 2 48.4838 109.6289 39.6570 0.0000 6.7036 0.0000
# 3 50.4508 39.6570 93.6115 0.0000 0.2627 0.0000
# 4 0.0000 0.0000 0.0000 25.3610 0.0000 -2.9852
# 5 -2.9728 6.7036 0.2627 0.0000 15.8070 0.0000
# 6 0.0000 0.0000 0.0000 -2.9852 0.0000 42.5662
#
#
#
# Elastic Compliance Matrix: (Units=1/GPa)
#
#
# Indices 1 2 3 4 5 6 
#
# 1 0.011211 -0.003536 -0.004555 0.000000 0.003684 0.000000
# 2 -0.003536 0.012217 -0.003253 0.000000 -0.005792 0.000000
# 3 -0.004555 -0.003253 0.014515 0.000000 0.000282 0.000000
# 4 0.000000 0.000000 0.000000 0.039759 0.000000 0.002788
# 5 0.003684 -0.005792 0.000282 0.000000 0.066408 0.000000
# 6 0.000000 0.000000 0.000000 0.002788 0.000000 0.023688
#
#
# Mechanical properties :
#
#
# Convention : Reuss Voigt Hill
#
# Bulk Modulus (GPa) = 65.55448 67.37573 66.46511
# Shear Modulus (GPa) = 25.56624 29.45395 27.51009
#
# Velocity S-wave (km/s) = 3.45235 3.70556 3.58119
# Velocity P-wave (km/s) = 6.81561 7.05111 6.93436
#
# Compressibility (1/GPa) = 0.01525449
#
# Stress axis : x y z
#
# Youngs Moduli (GPa) = 89.19422 81.85638 68.89614
#
# Poissons Ratio (x) = 0.28944 0.31380
# Poissons Ratio (y) = 0.31539 0.22415
# Poissons Ratio (z) = 0.40625 0.26631
#
# Static dielectric constant tensor:
#      x y z
#    x 3.813780 0.000000 -0.077890 
#    y 0.000000 4.353330 0.000000 
#    z -0.077890 0.000000 3.680030 
# 
# 
# High freq. dielectric constant tensor:
#      x y z
#    x 1.832660 0.000000 -0.003090 
#    y 0.000000 1.864720 0.000000 
#    z -0.003090 0.000000 1.829250 
# 
# From -- ./inp_files/7441.got.cif
#   From: 2010.03.12/outbox.cif.g09.slc.cpg/sg4_4_cif.got.tgz:7441.got - 2010.03.31 09:31:35.
