data_PCOD8047445
_publ_section_title
;
Structure prediction by ZEFSAII (Michael W. Deem and Ramdas Pophale) SiO2 
 PCOD8047445
Probable space group: P 21
;
_chemical_formula_sum "Si O2"
_cell_formula_units_Z 12
_cell_length_a 14.524477
_cell_length_b 8.150322
_cell_length_c 13.664837
_cell_angle_alpha 90.000000
_cell_angle_beta 160.152520
_cell_angle_gamma 90.000000
_cell_volume 549.214360
_symmetry_space_group_name_H-M "P 21"
_symmetry_group_IT_number 4
_symmetry_cell_setting 'monoclinic'
loop_
_space_group_symop_operation_xyz
x,y,z
-x,1/2+y,-z
loop_
_atom_site_type_symbol
_atom_site_label
_atom_site_fract_x
_atom_site_fract_y
_atom_site_fract_z
Si Si1 0.598329 0.206110 0.305449
Si Si2 0.741484 0.996996 0.818680
Si Si3 0.742989 0.272641 0.664878
Si Si4 0.603404 0.066607 0.895256
Si Si5 0.111513 0.203018 0.505501
Si Si6 0.106544 0.068634 0.711827
O O1 0.646150 0.184559 0.468846
O O2 0.497730 0.386608 0.177887
O O3 0.875744 0.183980 0.524973
O O4 0.371987 0.074551 0.046091
O O5 0.498782 0.884764 0.533896
O O6 0.824183 0.133803 0.823191
O O7 0.644713 0.087162 0.820547
O O8 0.998548 0.884511 0.099818
O O9 0.380614 0.199096 0.707405
O O10 0.884879 0.087993 0.231984
O O11 0.193045 0.134735 0.692669
O O12 0.001710 0.385614 0.402124
#
# Coordination Sequence:
#
# PCOD8047445 Si02
#       6
#     2   2   2   2   2   2
#     4  11  23  43  65  92 130 170 212 264 320 377
#     4  11  24  43  67  97 130 170 212 263 321 379
#     4  11  24  43  67  97 130 170 212 263 321 379
#     4  11  23  43  65  92 130 170 212 264 320 377
#     4  12  25  42  65  95 128 170 216 265 317 378
#     4  12  25  42  65  95 128 170 216 265 317 378
#
# _framework density 21.849392000000002
#
# number of rings (size 3 to 8) (size 9 to 14) (size 15 to 20)
#    0.000    0.667    0.000   10.000    0.000    4.000 
#    0.000    0.000    0.000    0.000    0.000    0.000 
#    0.000    0.000    0.000    0.000    0.000    0.000 
#
# Total GULP energy -148901.719472 kJ/mol
# GULP energy per Si atom -12408.476623 kJ/mol
# Density = 2.179966 g / cm^3
# Si number density = 21.849392 Si / 1000 Ang^3
#
#
#
# Elastic Constant Matrix: (Units=GPa)
#
#
# Indices 1 2 3 4 5 6 
#
# 1 131.7183 60.9920 59.4176 0.0000 -17.4707 0.0000
# 2 60.9920 82.0635 22.3738 0.0000 -12.4047 0.0000
# 3 59.4176 22.3738 130.7421 0.0000 3.8102 0.0000
# 4 0.0000 0.0000 0.0000 28.1958 0.0000 0.0905
# 5 -17.4707 -12.4047 3.8102 0.0000 27.4264 0.0000
# 6 0.0000 0.0000 0.0000 0.0905 0.0000 25.3297
#
#
#
# Elastic Compliance Matrix: (Units=1/GPa)
#
#
# Indices 1 2 3 4 5 6 
#
# 1 0.014897 -0.008617 -0.005481 0.000000 0.006353 0.000000
# 2 -0.008617 0.018875 0.000600 0.000000 0.002964 0.000000
# 3 -0.005481 0.000600 0.010172 0.000000 -0.004633 0.000000
# 4 0.000000 0.000000 0.000000 0.035467 0.000000 -0.000127
# 5 0.006353 0.002964 -0.004633 0.000000 0.042493 0.000000
# 6 0.000000 0.000000 0.000000 -0.000127 0.000000 0.039480
#
#
# Mechanical properties :
#
#
# Convention : Reuss Voigt Hill
#
# Bulk Modulus (GPa) = 59.00602 70.01008 64.50805
# Shear Modulus (GPa) = 25.76934 29.63976 27.70455
#
# Velocity S-wave (km/s) = 3.43798 3.68713 3.56473
# Velocity P-wave (km/s) = 6.54400 7.08790 6.82137
#
# Compressibility (1/GPa) = 0.01694742
#
# Stress axis : x y z
#
# Youngs Moduli (GPa) = 67.12626 52.98023 98.31087
#
# Poissons Ratio (x) = 0.45655 0.53882
# Poissons Ratio (y) = 0.57846 -0.05897
# Poissons Ratio (z) = 0.36790 -0.03178
#
# Static dielectric constant tensor:
#      x y z
#    x 3.932170 0.000000 0.081520 
#    y 0.000000 4.283350 0.000000 
#    z 0.081520 0.000000 4.212630 
# 
# 
# High freq. dielectric constant tensor:
#      x y z
#    x 1.863470 0.000000 0.004720 
#    y 0.000000 1.858150 0.000000 
#    z 0.004720 0.000000 1.879900 
# 
# From -- ./inp_files/12081.got.cif
#   From: 2010.03.12/outbox.cif.g09.slc.cpg/sg4_7_cif.got.tgz:12081.got - 2010.03.31 09:31:35.
