data_PCOD8047578
_publ_section_title
;
Structure prediction by ZEFSAII (Michael W. Deem and Ramdas Pophale) SiO2 
 PCOD8047578
Probable space group: P 21
;
_chemical_formula_sum "Si O2"
_cell_formula_units_Z 12
_cell_length_a 10.047082
_cell_length_b 10.377518
_cell_length_c 10.922950
_cell_angle_alpha 90.000000
_cell_angle_beta 26.497204
_cell_angle_gamma 90.000000
_cell_volume 508.110671
_symmetry_space_group_name_H-M "P 21"
_symmetry_group_IT_number 4
_symmetry_cell_setting 'monoclinic'
loop_
_space_group_symop_operation_xyz
x,y,z
-x,1/2+y,-z
loop_
_atom_site_type_symbol
_atom_site_label
_atom_site_fract_x
_atom_site_fract_y
_atom_site_fract_z
Si Si1 0.606471 0.214160 0.488596
Si Si2 0.730515 0.418255 0.730680
Si Si3 0.207076 0.192219 0.318291
Si Si4 0.726721 0.927390 0.393644
Si Si5 0.259481 0.264110 0.008769
Si Si6 0.390033 0.876916 0.902184
O O1 0.455938 0.310877 0.516532
O O2 0.909888 0.287844 0.275672
O O3 0.674965 0.070388 0.376905
O O4 0.395857 0.190765 0.779559
O O5 0.893367 0.550112 0.554069
O O6 0.946389 0.295953 0.549159
O O7 0.444112 0.396298 0.877777
O O8 0.611234 0.446368 0.965666
O O9 0.299977 0.181153 0.098916
O O10 0.494844 0.231567 0.163604
O O11 0.636462 0.940960 0.610370
O O12 0.070394 0.884787 0.099267
#
# Coordination Sequence:
#
# PCOD8047578 Si02
#       6
#     2   2   2   2   2   2
#     4  12  26  46  71  98 136 183 231 284 339 403
#     4  11  24  43  73 107 141 180 225 282 346 412
#     4  11  24  43  73 107 141 180 225 282 346 412
#     4  12  26  46  71  98 136 183 231 284 339 403
#     4  11  25  45  69 102 140 181 223 277 347 409
#     4  11  25  45  69 102 140 181 223 277 347 409
#
# _framework density 23.616904000000002
#
# number of rings (size 3 to 8) (size 9 to 14) (size 15 to 20)
#    0.000    0.667    3.333    4.000    0.000    9.333 
#    0.000    0.000    0.000    0.000    0.000    0.000 
#    0.000    0.000    0.000    0.000    0.000    0.000 
#
# Total GULP energy -148674.315990 kJ/mol
# GULP energy per Si atom -12389.526332 kJ/mol
# Density = 2.356315 g / cm^3
# Si number density = 23.616904 Si / 1000 Ang^3
#
#
#
# Elastic Constant Matrix: (Units=GPa)
#
#
# Indices 1 2 3 4 5 6 
#
# 1 58.8898 16.9170 9.2414 0.0000 -5.0987 0.0000
# 2 16.9170 126.5666 20.5856 0.0000 -9.3941 0.0000
# 3 9.2414 20.5856 108.4085 0.0000 -5.2072 0.0000
# 4 0.0000 0.0000 0.0000 32.6534 0.0000 -10.7735
# 5 -5.0987 -9.3941 -5.2072 0.0000 45.8002 0.0000
# 6 0.0000 0.0000 0.0000 -10.7735 0.0000 -4.6935
#
#
#
# Elastic Compliance Matrix: (Units=1/GPa)
#
#
# Indices 1 2 3 4 5 6 
#
# 1 0.017877 -0.002111 -0.001054 0.000000 0.001437 0.000000
# 2 -0.002111 0.008507 -0.001370 0.000000 0.001354 0.000000
# 3 -0.001054 -0.001370 0.009608 0.000000 0.000694 0.000000
# 4 0.000000 0.000000 0.000000 0.017427 0.000000 -0.040002
# 5 0.001437 0.001354 0.000694 0.000000 0.022351 0.000000
# 6 0.000000 0.000000 0.000000 -0.040002 0.000000 -0.121241
#
#
# Mechanical properties :
#
#
# Convention : Reuss Voigt Hill
#
# Bulk Modulus (GPa) = 37.14682 43.03922 40.09302
# Shear Modulus (GPa) = -182.30106 31.22676 -75.53715
#
# Velocity S-wave (km/s) = -8.79537 3.64018 -5.66161
# Velocity P-wave (km/s) = 9.34781 5.99428 5.07199
#
# Compressibility (1/GPa) = 0.02692021
#
# Stress axis : x y z
#
# Youngs Moduli (GPa) = 55.93709 117.55649 104.08262
#
# Poissons Ratio (x) = 0.24821 0.10970
# Poissons Ratio (y) = 0.11810 0.14262
# Poissons Ratio (z) = 0.05896 0.16108
#
# Static dielectric constant tensor:
#      x y z
#    x 4.296500 0.000000 -0.004400 
#    y 0.000000 4.282140 0.000000 
#    z -0.004400 0.000000 4.402320 
# 
# 
# High freq. dielectric constant tensor:
#      x y z
#    x 1.919470 0.000000 -0.003480 
#    y 0.000000 1.929670 0.000000 
#    z -0.003480 0.000000 1.949390 
# 
# From -- ./inp_files/11119.got.cif
#   From: 2010.03.12/outbox.cif.g09.slc.cpg/sg4_6_cif.got.tgz:11119.got - 2010.03.31 09:31:35.
