data_PCOD8047291
_publ_section_title
;
Structure prediction by ZEFSAII (Michael W. Deem and Ramdas Pophale) SiO2 
 PCOD8047291
Probable space group: P 21
;
_chemical_formula_sum "Si O2"
_cell_formula_units_Z 12
_cell_length_a 8.579660
_cell_length_b 9.666452
_cell_length_c 12.741294
_cell_angle_alpha 90.000000
_cell_angle_beta 34.706966
_cell_angle_gamma 90.000000
_cell_volume 601.661914
_symmetry_space_group_name_H-M "P 21"
_symmetry_group_IT_number 4
_symmetry_cell_setting 'monoclinic'
loop_
_space_group_symop_operation_xyz
x,y,z
-x,1/2+y,-z
loop_
_atom_site_type_symbol
_atom_site_label
_atom_site_fract_x
_atom_site_fract_y
_atom_site_fract_z
Si Si1 0.400346 0.234890 0.313329
Si Si2 0.736335 0.946073 0.428449
Si Si3 0.287788 0.581956 0.187902
Si Si4 0.684440 0.474765 0.517242
Si Si5 0.835502 0.190493 0.521871
Si Si6 0.291889 0.842520 0.041653
O O1 0.307511 0.339724 0.453782
O O2 0.153212 0.220281 0.367549
O O3 0.474792 0.087828 0.323899
O O4 0.658905 0.291521 0.105121
O O5 0.462458 0.956413 0.512426
O O6 0.980078 0.892618 0.219604
O O7 0.812454 0.095377 0.432205
O O8 0.305923 0.615103 0.301538
O O9 0.353404 0.719826 0.088098
O O10 0.989155 0.526039 0.322890
O O11 0.510397 0.467742 0.035479
O O12 0.681117 0.333487 0.584601
#
# Coordination Sequence:
#
# PCOD8047291 Si02
#       6
#     2   2   2   2   2   2
#     4  11  22  46  67  94 134 176 224 269 325 403
#     4  12  24  44  68  98 138 170 223 277 337 384
#     4  11  25  43  73  97 130 179 227 271 327 399
#     4  11  24  44  68  98 136 179 209 285 339 385
#     4  11  21  43  72  91 130 181 221 261 335 399
#     4  12  24  44  70 104 126 175 232 273 321 402
#
# _framework density 19.944756000000002
#
# number of rings (size 3 to 8) (size 9 to 14) (size 15 to 20)
#    0.000    0.667    6.667    3.000    2.333    0.000 
#    6.000    0.000    0.000    0.000    0.000    0.000 
#    0.000    0.000    0.000    0.000    0.000    0.000 
#
# Total GULP energy -148872.473572 kJ/mol
# GULP energy per Si atom -12406.039464 kJ/mol
# Density = 1.989936 g / cm^3
# Si number density = 19.944756 Si / 1000 Ang^3
#
#
#
# Elastic Constant Matrix: (Units=GPa)
#
#
# Indices 1 2 3 4 5 6 
#
# 1 51.5731 21.7249 10.1515 0.0000 -16.1350 0.0000
# 2 21.7249 133.1350 40.1394 0.0000 -8.3045 0.0000
# 3 10.1515 40.1394 115.0832 0.0000 -1.8795 0.0000
# 4 0.0000 0.0000 0.0000 38.3205 0.0000 12.0605
# 5 -16.1350 -8.3045 -1.8795 0.0000 3.9043 0.0000
# 6 0.0000 0.0000 0.0000 12.0605 0.0000 29.4208
#
#
#
# Elastic Compliance Matrix: (Units=1/GPa)
#
#
# Indices 1 2 3 4 5 6 
#
# 1 -0.059282 -0.007607 0.003646 0.000000 -0.259412 0.000000
# 2 -0.007607 0.008636 -0.002575 0.000000 -0.014305 0.000000
# 3 0.003646 -0.002575 0.009497 0.000000 0.014161 0.000000
# 4 0.000000 0.000000 0.000000 0.029961 0.000000 -0.012282
# 5 -0.259412 -0.014305 0.014161 0.000000 -0.839522 0.000000
# 6 0.000000 0.000000 0.000000 -0.012282 0.000000 0.039024
#
#
# Mechanical properties :
#
#
# Convention : Reuss Voigt Hill
#
# Bulk Modulus (GPa) = -18.44333 49.31364 15.43515
# Shear Modulus (GPa) = -6.12230 29.51416 11.69593
#
# Velocity S-wave (km/s) = -1.75394 3.85098 2.42423
# Velocity P-wave (km/s) = 3.65637 6.67475 3.94862
#
# Compressibility (1/GPa) = -0.05422014
#
# Stress axis : x y z
#
# Youngs Moduli (GPa) = -16.86853 115.78836 105.29474
#
# Poissons Ratio (x) = 0.88077 -0.38388
# Poissons Ratio (y) = -0.12831 0.27112
# Poissons Ratio (z) = 0.06150 0.29815
#
# Static dielectric constant tensor:
#      x y z
#    x 3.465110 0.000000 0.057970 
#    y 0.000000 3.999050 0.000000 
#    z 0.057970 0.000000 3.668520 
# 
# 
# High freq. dielectric constant tensor:
#      x y z
#    x 1.764580 0.000000 0.009080 
#    y 0.000000 1.807250 0.000000 
#    z 0.009080 0.000000 1.772970 
# 
# From -- ./inp_files/5222.got.cif
#   From: 2010.03.12/outbox.cif.g09.slc.cpg/sg4_3_cif.got.tgz:5222.got - 2010.03.31 09:31:35.
