data_PCOD8047225
_publ_section_title
;
Structure prediction by ZEFSAII (Michael W. Deem and Ramdas Pophale) SiO2 
 PCOD8047225
Probable space group: P 21
;
_chemical_formula_sum "Si O2"
_cell_formula_units_Z 16
_cell_length_a 23.545339
_cell_length_b 5.869616
_cell_length_c 26.164099
_cell_angle_alpha 90.000000
_cell_angle_beta 169.785441
_cell_angle_gamma 90.000000
_cell_volume 641.230901
_symmetry_space_group_name_H-M "P 21"
_symmetry_group_IT_number 4
_symmetry_cell_setting 'monoclinic'
loop_
_space_group_symop_operation_xyz
x,y,z
-x,1/2+y,-z
loop_
_atom_site_type_symbol
_atom_site_label
_atom_site_fract_x
_atom_site_fract_y
_atom_site_fract_z
Si Si1 0.684708 0.138290 0.881505
Si Si2 0.645437 0.170199 0.010681
Si Si3 0.169274 0.868704 0.533454
Si Si4 0.179889 0.869451 0.376784
Si Si5 0.640211 0.759507 0.139537
Si Si6 0.346833 0.015445 0.070522
Si Si7 0.451802 0.153588 0.382656
Si Si8 0.044021 0.353872 0.113135
O O1 0.391583 0.963397 0.611733
O O2 0.570126 0.375760 0.804052
O O3 0.884615 0.156983 0.005955
O O4 0.908008 0.052766 0.124938
O O5 0.723721 0.387514 0.045413
O O6 0.380708 0.251922 0.817776
O O7 0.953162 0.044723 0.308866
O O8 0.487723 0.991506 0.833535
O O9 0.991193 0.769087 0.425817
O O10 0.322605 0.659937 0.638211
O O11 0.396056 0.851183 0.517068
O O12 0.996096 0.637349 0.226115
O O13 0.511016 0.508205 0.008224
O O14 0.236080 0.252763 0.236216
O O15 0.729075 0.001928 0.651015
O O16 0.243584 0.005590 0.160530
#
# Coordination Sequence:
#
# PCOD8047225 Si02
#       8
#     2   2   2   2   2   2   2   2
#     4  12  28  51  76 113 156 208 261 325 393 481
#     4  11  29  51  81 118 158 211 269 333 406 488
#     4  11  29  51  81 118 158 211 269 333 406 488
#     4  12  28  51  76 113 156 208 261 325 393 481
#     4  10  26  52  84 120 164 208 276 346 422 492
#     4  12  30  52  80 116 164 212 268 328 408 478
#     4  12  24  46  76 111 151 197 256 328 392 466
#     4  12  24  46  76 111 151 197 256 328 392 466
#
# _framework density 24.952007999999999
#
# number of rings (size 3 to 8) (size 9 to 14) (size 15 to 20)
#    0.000    0.500    1.250    4.500    8.750    7.000 
#    0.000    0.000    0.000    0.000    0.000    0.000 
#    0.000    0.000    0.000    0.000    0.000    0.000 
#
# Total GULP energy -198285.249469 kJ/mol
# GULP energy per Si atom -12392.828092 kJ/mol
# Density = 2.489522 g / cm^3
# Si number density = 24.952008 Si / 1000 Ang^3
#
#
#
# Elastic Constant Matrix: (Units=GPa)
#
#
# Indices 1 2 3 4 5 6 
#
# 1 176.6280 44.3372 -9.2784 0.0000 24.6386 0.0000
# 2 44.3372 129.4072 48.7000 0.0000 7.6006 0.0000
# 3 -9.2784 48.7000 201.0266 0.0000 -0.7982 0.0000
# 4 0.0000 0.0000 0.0000 54.0070 0.0000 2.0657
# 5 24.6386 7.6006 -0.7982 0.0000 56.1867 0.0000
# 6 0.0000 0.0000 0.0000 2.0657 0.0000 65.2578
#
#
#
# Elastic Compliance Matrix: (Units=1/GPa)
#
#
# Indices 1 2 3 4 5 6 
#
# 1 0.006692 -0.002479 0.000899 0.000000 -0.002586 0.000000
# 2 -0.002479 0.009500 -0.002417 0.000000 -0.000232 0.000000
# 3 0.000899 -0.002417 0.005602 0.000000 0.000012 0.000000
# 4 0.000000 0.000000 0.000000 0.018539 0.000000 -0.000587
# 5 -0.002586 -0.000232 0.000012 0.000000 0.018964 0.000000
# 6 0.000000 0.000000 0.000000 -0.000587 0.000000 0.015342
#
#
# Mechanical properties :
#
#
# Convention : Reuss Voigt Hill
#
# Bulk Modulus (GPa) = 72.46448 74.95327 73.70888
# Shear Modulus (GPa) = 57.31844 63.31049 60.31447
#
# Velocity S-wave (km/s) = 4.79806 5.04262 4.92186
# Velocity P-wave (km/s) = 7.73303 8.00051 7.86791
#
# Compressibility (1/GPa) = 0.01379986
#
# Stress axis : x y z
#
# Youngs Moduli (GPa) = 149.43239 105.26130 178.52322
#
# Poissons Ratio (x) = 0.26097 -0.16053
# Poissons Ratio (y) = 0.37049 0.43146
# Poissons Ratio (z) = -0.13437 0.25440
#
# Static dielectric constant tensor:
#      x y z
#    x 4.565620 0.000000 0.429370 
#    y 0.000000 4.385780 0.000000 
#    z 0.429370 0.000000 4.583510 
# 
# 
# High freq. dielectric constant tensor:
#      x y z
#    x 2.022540 0.000000 0.017520 
#    y 0.000000 2.005580 0.000000 
#    z 0.017520 0.000000 1.998960 
# 
# From -- ./inp_files/16451.got.cif
#   From: 2010.03.12/outbox.cif.g09.slc.cpg/sg4_9_cif.got.tgz:16451.got - 2010.03.31 09:31:35.
