data_PCOD8047431
_publ_section_title
;
Structure prediction by ZEFSAII (Michael W. Deem and Ramdas Pophale) SiO2 
 PCOD8047431
Probable space group: P 21
;
_chemical_formula_sum "Si O2"
_cell_formula_units_Z 16
_cell_length_a 10.947954
_cell_length_b 5.365897
_cell_length_c 16.733148
_cell_angle_alpha 90.000000
_cell_angle_beta 140.053688
_cell_angle_gamma 90.000000
_cell_volume 631.153510
_symmetry_space_group_name_H-M "P 21"
_symmetry_group_IT_number 4
_symmetry_cell_setting 'monoclinic'
loop_
_space_group_symop_operation_xyz
x,y,z
-x,1/2+y,-z
loop_
_atom_site_type_symbol
_atom_site_label
_atom_site_fract_x
_atom_site_fract_y
_atom_site_fract_z
Si Si1 0.403528 0.047720 0.270152
Si Si2 0.951981 0.527092 0.427044
Si Si3 0.584740 0.788282 0.572687
Si Si4 0.915870 0.256252 0.828234
Si Si5 0.985242 0.922046 0.722431
Si Si6 0.541464 0.725791 0.216512
Si Si7 0.814716 0.919682 0.918076
Si Si8 0.595648 0.301194 0.020056
O O1 0.466073 0.276113 0.357970
O O2 0.235888 0.130309 0.125232
O O3 0.300611 0.858649 0.281707
O O4 0.577274 0.930788 0.305857
O O5 0.047184 0.483884 0.387739
O O6 0.732686 0.576972 0.295170
O O7 0.967187 0.274798 0.487922
O O8 0.464660 0.570199 0.472654
O O9 0.809555 0.749164 0.664398
O O10 0.927310 0.032106 0.899025
O O11 0.978717 0.176355 0.771159
O O12 0.071094 0.451721 0.941198
O O13 0.184214 0.784773 0.842000
O O14 0.389604 0.542453 0.177034
O O15 0.447592 0.865714 0.093911
O O16 0.494623 0.526494 0.015879
#
# Coordination Sequence:
#
# PCOD8047431 Si02
#       8
#     2   2   2   2   2   2   2   2
#     4  11  25  45  76 107 165 201 268 321 406 488
#     4  12  33  59  83 115 159 222 291 341 404 483
#     4  12  30  52  77 121 160 217 276 336 410 490
#     4  11  23  44  69 126 156 213 248 325 416 495
#     4  12  29  54  86 116 169 215 281 348 416 496
#     4  11  29  50  79 117 157 217 266 343 412 490
#     4  11  23  41  76 114 167 200 254 321 412 501
#     4  12  30  53  82 124 165 209 276 345 420 499
#
# _framework density 25.350408999999999
#
# number of rings (size 3 to 8) (size 9 to 14) (size 15 to 20)
#    0.000    0.500    3.750    1.500   14.000    3.000 
#    0.000    0.000    0.000    0.000    0.000    0.000 
#    0.000    0.000    0.000    0.000    0.000    0.000 
#
# Total GULP energy -198234.821137 kJ/mol
# GULP energy per Si atom -12389.676321 kJ/mol
# Density = 2.529271 g / cm^3
# Si number density = 25.350409 Si / 1000 Ang^3
#
#
#
# Elastic Constant Matrix: (Units=GPa)
#
#
# Indices 1 2 3 4 5 6 
#
# 1 106.5535 15.5091 35.9836 0.0000 -17.8387 0.0000
# 2 15.5091 82.3606 27.9272 0.0000 -4.6724 0.0000
# 3 35.9836 27.9272 96.9411 0.0000 -15.2301 0.0000
# 4 0.0000 0.0000 0.0000 29.4561 0.0000 -6.6302
# 5 -17.8387 -4.6724 -15.2301 0.0000 53.5718 0.0000
# 6 0.0000 0.0000 0.0000 -6.6302 0.0000 37.9594
#
#
#
# Elastic Compliance Matrix: (Units=1/GPa)
#
#
# Indices 1 2 3 4 5 6 
#
# 1 0.011117 -0.000759 -0.003493 0.000000 0.002643 0.000000
# 2 -0.000759 0.013508 -0.003626 0.000000 -0.000106 0.000000
# 3 -0.003493 -0.003626 0.013005 0.000000 0.002218 0.000000
# 4 0.000000 0.000000 0.000000 0.035338 0.000000 0.006172
# 5 0.002643 -0.000106 0.002218 0.000000 0.020168 0.000000
# 6 0.000000 0.000000 0.000000 0.006172 0.000000 0.027422
#
#
# Mechanical properties :
#
#
# Convention : Reuss Voigt Hill
#
# Bulk Modulus (GPa) = 45.71568 49.41055 47.56312
# Shear Modulus (GPa) = 34.81723 37.95980 36.38851
#
# Velocity S-wave (km/s) = 3.71001 3.87383 3.79281
# Velocity P-wave (km/s) = 6.03531 6.28825 6.16308
#
# Compressibility (1/GPa) = 0.02187433
#
# Stress axis : x y z
#
# Youngs Moduli (GPa) = 89.94887 74.02835 76.89249
#
# Poissons Ratio (x) = 0.05620 0.26857
# Poissons Ratio (y) = 0.06829 0.27884
# Poissons Ratio (z) = 0.31417 0.26845
#
# Static dielectric constant tensor:
#      x y z
#    x 4.611760 0.000000 -0.122450 
#    y 0.000000 4.654610 0.000000 
#    z -0.122450 0.000000 4.824660 
# 
# 
# High freq. dielectric constant tensor:
#      x y z
#    x 2.009160 0.000000 -0.008220 
#    y 0.000000 2.010930 0.000000 
#    z -0.008220 0.000000 2.029300 
# 
# From -- ./inp_files/13618.got.cif
#   From: 2010.03.12/outbox.cif.g09.slc.cpg/sg4_7_cif.got.tgz:13618.got - 2010.03.31 09:31:35.
