data_PCOD8047341
_publ_section_title
;
Structure prediction by ZEFSAII (Michael W. Deem and Ramdas Pophale) SiO2 
 PCOD8047341
Probable space group: P 21
;
_chemical_formula_sum "Si O2"
_cell_formula_units_Z 14
_cell_length_a 7.808177
_cell_length_b 5.342936
_cell_length_c 18.525653
_cell_angle_alpha 90.000000
_cell_angle_beta 44.034635
_cell_angle_gamma 90.000000
_cell_volume 537.212503
_symmetry_space_group_name_H-M "P 21"
_symmetry_group_IT_number 4
_symmetry_cell_setting 'monoclinic'
loop_
_space_group_symop_operation_xyz
x,y,z
-x,1/2+y,-z
loop_
_atom_site_type_symbol
_atom_site_label
_atom_site_fract_x
_atom_site_fract_y
_atom_site_fract_z
Si Si1 0.833054 0.361710 0.609316
Si Si2 0.401650 0.951219 0.060901
Si Si3 0.754845 0.612715 0.307537
Si Si4 0.252337 0.682646 0.515845
Si Si5 0.139087 0.472890 0.287210
Si Si6 0.485607 0.600221 0.824202
Si Si7 0.845772 0.098993 0.199242
O O1 0.775611 0.373588 0.542599
O O2 0.667452 0.564701 0.700787
O O3 0.120297 0.424409 0.533689
O O4 0.782911 0.093451 0.660748
O O5 0.483899 0.900186 0.120351
O O6 0.133847 0.068026 0.126220
O O7 0.582600 0.178077 0.980565
O O8 0.543996 0.622681 0.435012
O O9 0.026246 0.662624 0.261241
O O10 0.747512 0.352079 0.266277
O O11 0.705944 0.847375 0.269073
O O12 0.106601 0.791300 0.629787
O O13 0.389371 0.350956 0.179200
O O14 0.214606 0.619698 0.869670
#
# Coordination Sequence:
#
# PCOD8047341 Si02
#       7
#     2   2   2   2   2   2   2
#     4  11  22  42  64 100 150 200 260 302 358 430
#     4  12  29  53  83 114 147 180 243 319 390 473
#     4  12  27  44  70 108 152 197 259 304 361 444
#     4  11  24  37  63 102 147 205 261 304 350 427
#     4  11  25  42  69 100 156 206 254 312 366 424
#     4  11  26  48  78 107 149 204 242 311 387 449
#     4  12  27  50  79 111 145 194 249 304 382 461
#
# _framework density 26.060448999999998
#
# number of rings (size 3 to 8) (size 9 to 14) (size 15 to 20)
#    0.000    0.571    4.286    2.571   10.000    1.143 
#    0.000    0.000    0.000    0.000    0.000    0.000 
#    0.000    0.000    0.000    0.000    0.000    0.000 
#
# Total GULP energy -173434.984883 kJ/mol
# GULP energy per Si atom -12388.213206 kJ/mol
# Density = 2.600113 g / cm^3
# Si number density = 26.060449 Si / 1000 Ang^3
#
#
#
# Elastic Constant Matrix: (Units=GPa)
#
#
# Indices 1 2 3 4 5 6 
#
# 1 139.8553 -2.2946 4.9068 0.0000 7.4343 0.0000
# 2 -2.2946 100.4868 -4.3348 0.0000 -3.9444 0.0000
# 3 4.9068 -4.3348 24.0334 0.0000 -0.7100 0.0000
# 4 0.0000 0.0000 0.0000 14.0783 0.0000 -2.3000
# 5 7.4343 -3.9444 -0.7100 0.0000 35.8575 0.0000
# 6 0.0000 0.0000 0.0000 -2.3000 0.0000 34.4460
#
#
#
# Elastic Compliance Matrix: (Units=1/GPa)
#
#
# Indices 1 2 3 4 5 6 
#
# 1 0.007286 0.000040 -0.001526 0.000000 -0.001536 0.000000
# 2 0.000040 0.010077 0.001843 0.000000 0.001137 0.000000
# 3 -0.001526 0.001843 0.042293 0.000000 0.001356 0.000000
# 4 0.000000 0.000000 0.000000 0.071815 0.000000 0.004795
# 5 -0.001536 0.001137 0.001356 0.000000 0.028359 0.000000
# 6 0.000000 0.000000 0.000000 0.004795 0.000000 0.029351
#
#
# Mechanical properties :
#
#
# Convention : Reuss Voigt Hill
#
# Bulk Modulus (GPa) = 16.56445 28.99226 22.77835
# Shear Modulus (GPa) = 23.97063 34.61623 29.29343
#
# Velocity S-wave (km/s) = 3.03613 3.64855 3.35633
# Velocity P-wave (km/s) = 4.31980 5.37572 4.87642
#
# Compressibility (1/GPa) = 0.06037026
#
# Stress axis : x y z
#
# Youngs Moduli (GPa) = 137.24754 99.23996 23.64469
#
# Poissons Ratio (x) = -0.00399 0.03608
# Poissons Ratio (y) = -0.00552 -0.04357
# Poissons Ratio (z) = 0.20940 -0.18288
#
# Static dielectric constant tensor:
#      x y z
#    x 4.846430 0.000000 0.004010 
#    y 0.000000 4.689510 0.000000 
#    z 0.004010 0.000000 4.609120 
# 
# 
# High freq. dielectric constant tensor:
#      x y z
#    x 2.054830 0.000000 -0.000380 
#    y 0.000000 2.046310 0.000000 
#    z -0.000380 0.000000 2.022090 
# 
# From -- ./inp_files/9986.got.cif
#   From: 2010.03.12/outbox.cif.g09.slc.cpg/sg4_5_cif.got.tgz:9986.got - 2010.03.31 09:31:35.
