data_PCOD8047604
_publ_section_title
;
Structure prediction by ZEFSAII (Michael W. Deem and Ramdas Pophale) SiO2 
 PCOD8047604
Probable space group: P 21
;
_chemical_formula_sum "Si O2"
_cell_formula_units_Z 16
_cell_length_a 6.616464
_cell_length_b 17.135267
_cell_length_c 9.597394
_cell_angle_alpha 90.000000
_cell_angle_beta 46.420229
_cell_angle_gamma 90.000000
_cell_volume 788.238721
_symmetry_space_group_name_H-M "P 21"
_symmetry_group_IT_number 4
_symmetry_cell_setting 'monoclinic'
loop_
_space_group_symop_operation_xyz
x,y,z
-x,1/2+y,-z
loop_
_atom_site_type_symbol
_atom_site_label
_atom_site_fract_x
_atom_site_fract_y
_atom_site_fract_z
Si Si1 0.685696 0.079580 0.657004
Si Si2 0.294699 0.180467 0.659032
Si Si3 0.749037 0.083050 0.937799
Si Si4 0.875351 0.906639 0.937819
Si Si5 0.522500 0.845353 0.352013
Si Si6 0.726548 0.644324 0.648006
Si Si7 0.887223 0.809203 0.659053
Si Si8 0.500260 0.910078 0.657049
O O1 0.544582 0.143146 0.626890
O O2 0.607594 0.097470 0.854741
O O3 0.018757 0.083626 0.481110
O O4 0.585806 0.994819 0.664263
O O5 0.283588 0.271620 0.702687
O O6 0.361121 0.171299 0.464476
O O7 0.003365 0.142233 0.841224
O O8 0.859323 0.994843 0.890670
O O9 0.528227 0.098059 0.163644
O O10 0.814212 0.847448 0.841226
O O11 0.182882 0.892227 0.854797
O O12 0.644457 0.891633 0.163667
O O13 0.518961 0.906036 0.481159
O O14 0.209870 0.818396 0.464470
O O15 0.811131 0.718044 0.702695
O O16 0.701489 0.846481 0.626979
#
# Coordination Sequence:
#
# PCOD8047604 Si02
#       8
#     2   2   2   2   2   2   2   2
#     4  11  24  45  65  93 135 171 213 272 321 379
#     4  11  24  45  63  94 134 168 215 268 321 381
#     4  11  26  42  65  98 131 169 218 266 322 388
#     4  11  26  42  65  98 131 169 218 266 322 388
#     4  11  26  42  68  96 129 176 218 264 325 389
#     4  11  26  42  68  96 129 176 218 264 325 389
#     4  11  24  45  63  94 134 168 215 268 321 381
#     4  11  24  45  65  93 135 171 213 272 321 379
#
# _framework density 20.298421000000001
#
# number of rings (size 3 to 8) (size 9 to 14) (size 15 to 20)
#    0.000    1.000    5.000    0.000    7.000    3.000 
#    0.000    0.000    0.000    0.000    0.000    0.000 
#    0.000    0.000    0.000    0.000    0.000    0.000 
#
# Total GULP energy -198506.892146 kJ/mol
# GULP energy per Si atom -12406.680759 kJ/mol
# Density = 2.025222 g / cm^3
# Si number density = 20.298421 Si / 1000 Ang^3
#
#
#
# Elastic Constant Matrix: (Units=GPa)
#
#
# Indices 1 2 3 4 5 6 
#
# 1 107.1009 18.8619 35.6099 0.0000 0.6873 0.0000
# 2 18.8619 47.3929 16.2512 0.0000 0.0374 0.0000
# 3 35.6099 16.2512 115.6678 0.0000 -0.8726 0.0000
# 4 0.0000 0.0000 0.0000 31.9183 0.0000 0.1681
# 5 0.6873 0.0374 -0.8726 0.0000 13.8875 0.0000
# 6 0.0000 0.0000 0.0000 0.1681 0.0000 42.4587
#
#
#
# Elastic Compliance Matrix: (Units=1/GPa)
#
#
# Indices 1 2 3 4 5 6 
#
# 1 0.010891 -0.003343 -0.002888 0.000000 -0.000711 0.000000
# 2 -0.003343 0.023196 -0.002230 0.000000 -0.000037 0.000000
# 3 -0.002888 -0.002230 0.009854 0.000000 0.000768 0.000000
# 4 0.000000 0.000000 0.000000 0.031331 0.000000 -0.000124
# 5 -0.000711 -0.000037 0.000768 0.000000 0.072091 0.000000
# 6 0.000000 0.000000 0.000000 -0.000124 0.000000 0.023553
#
#
# Mechanical properties :
#
#
# Convention : Reuss Voigt Hill
#
# Bulk Modulus (GPa) = 37.01443 45.73419 41.37431
# Shear Modulus (GPa) = 25.40090 30.94880 28.17485
#
# Velocity S-wave (km/s) = 3.54131 3.90896 3.72967
# Velocity P-wave (km/s) = 5.91573 6.55387 6.24296
#
# Compressibility (1/GPa) = 0.02701649
#
# Stress axis : x y z
#
# Youngs Moduli (GPa) = 91.82085 43.11173 101.48356
#
# Poissons Ratio (x) = 0.14414 0.29313
# Poissons Ratio (y) = 0.30699 0.22630
# Poissons Ratio (z) = 0.26522 0.09614
#
# Static dielectric constant tensor:
#      x y z
#    x 3.936520 0.000000 0.006550 
#    y 0.000000 3.862030 0.000000 
#    z 0.006550 0.000000 3.526140 
# 
# 
# High freq. dielectric constant tensor:
#      x y z
#    x 1.807660 0.000000 0.000300 
#    y 0.000000 1.804810 0.000000 
#    z 0.000300 0.000000 1.788600 
# 
# From -- ./inp_files/454.got.cif
#   From: 2010.03.12/outbox.cif.g09.slc.cpg/sg4_1_cif.got.tgz:454.got - 2010.03.31 09:31:35.
