data_PCOD8047483
_publ_section_title
;
Structure prediction by ZEFSAII (Michael W. Deem and Ramdas Pophale) SiO2 
 PCOD8047483
Probable space group: P 21
;
_chemical_formula_sum "Si O2"
_cell_formula_units_Z 16
_cell_length_a 14.822672
_cell_length_b 9.484376
_cell_length_c 15.229830
_cell_angle_alpha 90.000000
_cell_angle_beta 160.995877
_cell_angle_gamma 90.000000
_cell_volume 697.209002
_symmetry_space_group_name_H-M "P 21"
_symmetry_group_IT_number 4
_symmetry_cell_setting 'monoclinic'
loop_
_space_group_symop_operation_xyz
x,y,z
-x,1/2+y,-z
loop_
_atom_site_type_symbol
_atom_site_label
_atom_site_fract_x
_atom_site_fract_y
_atom_site_fract_z
Si Si1 0.292982 0.546770 0.766323
Si Si2 0.265495 0.209893 0.720767
Si Si3 0.916445 0.011092 0.899935
Si Si4 0.557423 0.619515 0.827111
Si Si5 0.694500 0.503275 0.595379
Si Si6 0.106254 0.717179 0.281762
Si Si7 0.855015 0.349809 0.029888
Si Si8 0.691532 0.713160 0.446370
O O1 0.266379 0.375197 0.753617
O O2 0.472129 0.580205 0.846116
O O3 0.995529 0.622129 0.482251
O O4 0.457879 0.624342 0.997016
O O5 0.248476 0.201262 0.600477
O O6 0.630389 0.993498 0.686967
O O7 0.883558 0.091572 0.778184
O O8 0.145273 0.079455 0.176013
O O9 0.033236 0.861773 0.968042
O O10 0.313562 0.694272 0.551601
O O11 0.655361 0.478351 0.870899
O O12 0.809274 0.731233 0.056314
O O13 0.826138 0.350371 0.714548
O O14 0.776965 0.574544 0.579352
O O15 0.636062 0.222664 0.833841
O O16 0.111288 0.337546 0.334104
#
# Coordination Sequence:
#
# PCOD8047483 Si02
#       8
#     2   2   2   2   2   2   2   2
#     4  12  27  48  79 114 146 198 248 321 364 467
#     4  12  28  48  78 115 154 191 259 304 391 443
#     4  11  25  42  67 101 136 187 235 292 348 416
#     4  11  23  46  75  97 133 186 236 284 361 425
#     4  12  27  43  66 103 144 184 232 301 358 420
#     4  11  25  44  67 103 139 180 242 296 353 436
#     4  11  23  44  73  99 131 184 242 283 336 436
#     4  12  26  45  73 102 145 188 232 295 363 433
#
# _framework density 22.948642
#
# number of rings (size 3 to 8) (size 9 to 14) (size 15 to 20)
#    0.000    0.500    1.250    7.500    7.000    3.000 
#    0.000    0.000    0.000    0.000    0.000    0.000 
#    0.000    0.000    0.000    0.000    0.000    0.000 
#
# Total GULP energy -198325.491061 kJ/mol
# GULP energy per Si atom -12395.343191 kJ/mol
# Density = 2.289641 g / cm^3
# Si number density = 22.948642 Si / 1000 Ang^3
#
#
#
# Elastic Constant Matrix: (Units=GPa)
#
#
# Indices 1 2 3 4 5 6 
#
# 1 91.3939 44.6344 39.0902 0.0000 1.8216 0.0000
# 2 44.6344 79.0524 32.9763 0.0000 3.3178 0.0000
# 3 39.0902 32.9763 159.1986 0.0000 9.5431 0.0000
# 4 0.0000 0.0000 0.0000 47.7276 0.0000 -7.0575
# 5 1.8216 3.3178 9.5431 0.0000 52.6963 0.0000
# 6 0.0000 0.0000 0.0000 -7.0575 0.0000 26.8353
#
#
#
# Elastic Compliance Matrix: (Units=1/GPa)
#
#
# Indices 1 2 3 4 5 6 
#
# 1 0.015802 -0.008001 -0.002245 0.000000 0.000364 0.000000
# 2 -0.008001 0.017904 -0.001712 0.000000 -0.000541 0.000000
# 3 -0.002245 -0.001712 0.007255 0.000000 -0.001128 0.000000
# 4 0.000000 0.000000 0.000000 0.021800 0.000000 0.005733
# 5 0.000364 -0.000541 -0.001128 0.000000 0.019202 0.000000
# 6 0.000000 0.000000 0.000000 0.005733 0.000000 0.038772
#
#
# Mechanical properties :
#
#
# Convention : Reuss Voigt Hill
#
# Bulk Modulus (GPa) = 58.66354 62.56074 60.61214
# Shear Modulus (GPa) = 33.25974 39.64810 36.45392
#
# Velocity S-wave (km/s) = 3.81111 4.16106 3.98992
# Velocity P-wave (km/s) = 6.70705 7.09973 6.90619
#
# Compressibility (1/GPa) = 0.01704636
#
# Stress axis : x y z
#
# Youngs Moduli (GPa) = 63.28351 55.85333 137.83997
#
# Poissons Ratio (x) = 0.44688 0.30939
# Poissons Ratio (y) = 0.50633 0.23593
# Poissons Ratio (z) = 0.14204 0.09560
#
# Static dielectric constant tensor:
#      x y z
#    x 4.221350 0.000000 0.225520 
#    y 0.000000 4.211830 0.000000 
#    z 0.225520 0.000000 4.164880 
# 
# 
# High freq. dielectric constant tensor:
#      x y z
#    x 1.911880 0.000000 0.003960 
#    y 0.000000 1.900400 0.000000 
#    z 0.003960 0.000000 1.930460 
# 
# From -- ./inp_files/14189.got.cif
#   From: 2010.03.12/outbox.cif.g09.slc.cpg/sg4_8_cif.got.tgz:14189.got - 2010.03.31 09:31:35.
