data_PCOD8047882
_publ_section_title
;
Structure prediction by ZEFSAII (Michael W. Deem and Ramdas Pophale) SiO2 
 PCOD8047882
Probable space group: P 21
;
_chemical_formula_sum "Si O2"
_cell_formula_units_Z 16
_cell_length_a 8.674993
_cell_length_b 6.850184
_cell_length_c 14.633196
_cell_angle_alpha 90.000000
_cell_angle_beta 126.442645
_cell_angle_gamma 90.000000
_cell_volume 699.536918
_symmetry_space_group_name_H-M "P 21"
_symmetry_group_IT_number 4
_symmetry_cell_setting 'monoclinic'
loop_
_space_group_symop_operation_xyz
x,y,z
-x,1/2+y,-z
loop_
_atom_site_type_symbol
_atom_site_label
_atom_site_fract_x
_atom_site_fract_y
_atom_site_fract_z
Si Si1 0.252908 0.176570 0.506935
Si Si2 0.741633 0.611864 0.835473
Si Si3 0.552143 0.254780 0.144615
Si Si4 0.720428 0.039262 0.040853
Si Si5 0.046992 0.890936 0.947060
Si Si6 0.886519 0.459423 0.358263
Si Si7 0.037588 0.201499 0.788791
Si Si8 0.343346 0.899876 0.369740
O O1 0.447716 0.304146 0.569290
O O2 0.084172 0.336391 0.435172
O O3 0.199471 0.058266 0.580459
O O4 0.285240 0.003642 0.444493
O O5 0.557309 0.592754 0.834680
O O6 0.679599 0.571768 0.711165
O O7 0.822285 0.834420 0.867632
O O8 0.897250 0.459785 0.931612
O O9 0.586980 0.165089 0.058897
O O10 0.739345 0.302462 0.267982
O O11 0.417376 0.441004 0.081419
O O12 0.854144 0.184564 0.033469
O O13 0.850072 0.898779 0.149253
O O14 0.098115 0.045319 0.886895
O O15 0.904663 0.631976 0.291435
O O16 0.809230 0.231264 0.706898
#
# Coordination Sequence:
#
# PCOD8047882 Si02
#       8
#     2   2   2   2   2   2   2   2
#     4  12  30  52  76 112 148 196 272 328 374 440
#     4  12  26  42  76 108 154 193 244 298 374 456
#     4  12  26  42  76 108 154 193 244 298 374 456
#     4  12  24  48  70 116 155 197 241 298 373 472
#     4  12  24  48  70 116 155 197 241 298 373 472
#     4  12  28  49  78 108 148 199 254 322 379 440
#     4  12  24  50  78 110 150 202 240 310 388 454
#     4  12  28  49  78 108 148 199 254 322 379 440
#
# _framework density 22.872273
#
# number of rings (size 3 to 8) (size 9 to 14) (size 15 to 20)
#    0.000    0.000    3.750    6.000    8.750    0.000 
#    0.000    0.000    0.000    0.000    0.000    0.000 
#    0.000    0.000    0.000    0.000    0.000    0.000 
#
# Total GULP energy -198325.487012 kJ/mol
# GULP energy per Si atom -12395.342938 kJ/mol
# Density = 2.282021 g / cm^3
# Si number density = 22.872273 Si / 1000 Ang^3
#
#
#
# Elastic Constant Matrix: (Units=GPa)
#
#
# Indices 1 2 3 4 5 6 
#
# 1 117.7292 37.0572 43.8836 0.0000 -1.9331 0.0000
# 2 37.0572 88.0416 20.9280 0.0000 -0.4455 0.0000
# 3 43.8836 20.9280 89.8779 0.0000 -3.7102 0.0000
# 4 0.0000 0.0000 0.0000 1.3460 0.0000 3.2783
# 5 -1.9331 -0.4455 -3.7102 0.0000 44.1008 0.0000
# 6 0.0000 0.0000 0.0000 3.2783 0.0000 49.3880
#
#
#
# Elastic Compliance Matrix: (Units=1/GPa)
#
#
# Indices 1 2 3 4 5 6 
#
# 1 0.011410 -0.003682 -0.004711 0.000000 0.000067 0.000000
# 2 -0.003682 0.013213 -0.001284 0.000000 -0.000136 0.000000
# 3 -0.004711 -0.001284 0.013764 0.000000 0.000939 0.000000
# 4 0.000000 0.000000 0.000000 0.886207 0.000000 -0.058824
# 5 0.000067 -0.000136 0.000939 0.000000 0.022756 0.000000
# 6 0.000000 0.000000 0.000000 -0.058824 0.000000 0.024152
#
#
# Mechanical properties :
#
#
# Convention : Reuss Voigt Hill
#
# Bulk Modulus (GPa) = 52.54320 55.48735 54.01528
# Shear Modulus (GPa) = 5.01403 31.88563 18.44983
#
# Velocity S-wave (km/s) = 1.48221 3.73778 2.84323
# Velocity P-wave (km/s) = 5.09427 6.55289 5.86907
#
# Compressibility (1/GPa) = 0.01903196
#
# Stress axis : x y z
#
# Youngs Moduli (GPa) = 87.64005 75.68405 72.65254
#
# Poissons Ratio (x) = 0.27871 0.34226
# Poissons Ratio (y) = 0.32273 0.09330
# Poissons Ratio (z) = 0.41287 0.09719
#
# Static dielectric constant tensor:
#      x y z
#    x 4.509570 0.000000 0.100650 
#    y 0.000000 4.282640 0.000000 
#    z 0.100650 0.000000 4.194900 
# 
# 
# High freq. dielectric constant tensor:
#      x y z
#    x 1.934690 0.000000 0.000050 
#    y 0.000000 1.909880 0.000000 
#    z 0.000050 0.000000 1.904310 
# 
# From -- ./inp_files/9006.got.cif
#   From: 2010.03.12/outbox.cif.g09.slc.cpg/sg4_5_cif.got.tgz:9006.got - 2010.03.31 09:31:35.
