data_PCOD8047451
_publ_section_title
;
Structure prediction by ZEFSAII (Michael W. Deem and Ramdas Pophale) SiO2 
 PCOD8047451
Probable space group: P 21
;
_chemical_formula_sum "Si O2"
_cell_formula_units_Z 16
_cell_length_a 11.411023
_cell_length_b 8.872601
_cell_length_c 14.525991
_cell_angle_alpha 90.000000
_cell_angle_beta 29.848418
_cell_angle_gamma 90.000000
_cell_volume 731.973119
_symmetry_space_group_name_H-M "P 21"
_symmetry_group_IT_number 4
_symmetry_cell_setting 'monoclinic'
loop_
_space_group_symop_operation_xyz
x,y,z
-x,1/2+y,-z
loop_
_atom_site_type_symbol
_atom_site_label
_atom_site_fract_x
_atom_site_fract_y
_atom_site_fract_z
Si Si1 0.147190 0.236900 0.504511
Si Si2 0.845064 0.561415 0.325758
Si Si3 0.077031 0.584835 0.511827
Si Si4 0.357456 0.496393 0.594152
Si Si5 0.610651 0.334303 0.253337
Si Si6 0.893242 0.755048 0.121740
Si Si7 0.997209 0.223637 0.249870
Si Si8 0.616321 0.633692 0.151657
O O1 0.051876 0.176724 0.668182
O O2 0.058891 0.407031 0.546640
O O3 0.431390 0.231286 0.316809
O O4 0.069741 0.119971 0.479467
O O5 0.557673 0.559092 0.526901
O O6 0.913557 0.612411 0.176205
O O7 0.956110 0.399990 0.268239
O O8 0.961549 0.680029 0.672405
O O9 0.341378 0.643836 0.316105
O O10 0.482020 0.390498 0.433339
O O11 0.159496 0.404340 0.783570
O O12 0.233142 0.636593 0.629796
O O13 0.687293 0.466866 0.132719
O O14 0.860637 0.254037 0.103803
O O15 0.680563 0.740146 0.194526
O O16 0.239352 0.180402 0.036036
#
# Coordination Sequence:
#
# PCOD8047451 Si02
#       8
#     2   2   2   2   2   2   2   2
#     4  11  25  47  74  97 137 184 238 287 342 411
#     4  12  24  40  67 108 139 182 227 278 356 414
#     4  11  24  51  69  96 137 185 239 287 343 404
#     4  12  22  43  69 100 144 188 223 283 351 414
#     4  11  23  43  68 102 139 180 230 281 352 411
#     4  12  24  41  68 104 147 179 229 285 350 421
#     4  12  24  42  67  99 141 179 231 284 344 410
#     4  11  24  41  68 102 138 185 225 289 344 411
#
# _framework density 21.858726999999998
#
# number of rings (size 3 to 8) (size 9 to 14) (size 15 to 20)
#    0.000    0.500    6.250    3.000    1.750    0.000 
#    6.750    0.000    0.000    0.000    0.000    0.000 
#    0.000    0.000    0.000    0.000    0.000    0.000 
#
# Total GULP energy -198431.600193 kJ/mol
# GULP energy per Si atom -12401.975012 kJ/mol
# Density = 2.180898 g / cm^3
# Si number density = 21.858727 Si / 1000 Ang^3
#
#
#
# Elastic Constant Matrix: (Units=GPa)
#
#
# Indices 1 2 3 4 5 6 
#
# 1 121.5565 32.0194 44.1234 0.0000 -0.7425 0.0000
# 2 32.0194 75.9276 29.6452 0.0000 -9.6619 0.0000
# 3 44.1234 29.6452 114.8246 0.0000 7.7474 0.0000
# 4 0.0000 0.0000 0.0000 15.1373 0.0000 -3.1798
# 5 -0.7425 -9.6619 7.7474 0.0000 26.8857 0.0000
# 6 0.0000 0.0000 0.0000 -3.1798 0.0000 43.9819
#
#
#
# Elastic Compliance Matrix: (Units=1/GPa)
#
#
# Indices 1 2 3 4 5 6 
#
# 1 0.010166 -0.003057 -0.003123 0.000000 0.000082 0.000000
# 2 -0.003057 0.016764 -0.003624 0.000000 0.006984 0.000000
# 3 -0.003123 -0.003624 0.011155 0.000000 -0.004603 0.000000
# 4 0.000000 0.000000 0.000000 0.067081 0.000000 0.004850
# 5 0.000082 0.006984 -0.004603 0.000000 0.041033 0.000000
# 6 0.000000 0.000000 0.000000 0.004850 0.000000 0.023087
#
#
# Mechanical properties :
#
#
# Convention : Reuss Voigt Hill
#
# Bulk Modulus (GPa) = 54.12453 58.20942 56.16697
# Shear Modulus (GPa) = 25.63396 30.96901 28.30149
#
# Velocity S-wave (km/s) = 3.42820 3.76810 3.60216
# Velocity P-wave (km/s) = 6.36277 6.75419 6.56140
#
# Compressibility (1/GPa) = 0.01847591
#
# Stress axis : x y z
#
# Youngs Moduli (GPa) = 98.36746 59.65279 89.64450
#
# Poissons Ratio (x) = 0.18239 0.27992
# Poissons Ratio (y) = 0.30076 0.32490
# Poissons Ratio (z) = 0.30716 0.21620
#
# Static dielectric constant tensor:
#      x y z
#    x 3.975430 0.000000 0.023060 
#    y 0.000000 4.065950 0.000000 
#    z 0.023060 0.000000 3.923480 
# 
# 
# High freq. dielectric constant tensor:
#      x y z
#    x 1.853070 0.000000 0.007530 
#    y 0.000000 1.869830 0.000000 
#    z 0.007530 0.000000 1.854750 
# 
# From -- ./inp_files/12557.got.cif
#   From: 2010.03.12/outbox.cif.g09.slc.cpg/sg4_7_cif.got.tgz:12557.got - 2010.03.31 09:31:35.
