data_PCOD8047644
_publ_section_title
;
Structure prediction by ZEFSAII (Michael W. Deem and Ramdas Pophale) SiO2 
 PCOD8047644
Probable space group: P 21
;
_chemical_formula_sum "Si O2"
_cell_formula_units_Z 8
_cell_length_a 7.981188
_cell_length_b 5.061989
_cell_length_c 7.556864
_cell_angle_alpha 90.000000
_cell_angle_beta 109.798577
_cell_angle_gamma 90.000000
_cell_volume 287.255809
_symmetry_space_group_name_H-M "P 21"
_symmetry_group_IT_number 4
_symmetry_cell_setting 'monoclinic'
loop_
_space_group_symop_operation_xyz
x,y,z
-x,1/2+y,-z
loop_
_atom_site_type_symbol
_atom_site_label
_atom_site_fract_x
_atom_site_fract_y
_atom_site_fract_z
Si Si1 0.073452 0.396870 0.749937
Si Si2 0.392727 0.250936 0.268540
Si Si3 0.198594 0.760764 0.061410
Si Si4 0.737908 0.522077 0.416109
O O1 0.235294 0.213541 0.742715
O O2 0.987457 0.275118 0.897641
O O3 0.928735 0.407785 0.542647
O O4 0.149092 0.686281 0.838790
O O5 0.314987 0.533382 0.190960
O O6 0.606708 0.278062 0.322722
O O7 0.347342 0.190305 0.455065
O O8 0.314919 0.027338 0.110246
#
# Coordination Sequence:
#
# PCOD8047644 Si02
#       4
#     2   2   2   2
#     4  11  24  46  81 119 154 204 265 324 384 462
#     4  11  25  48  76 113 163 206 252 322 396 462
#     4  11  25  48  76 113 163 206 252 322 396 462
#     4  11  24  46  81 119 154 204 265 324 384 462
#
# _framework density 27.849741000000002
#
# number of rings (size 3 to 8) (size 9 to 14) (size 15 to 20)
#    0.000    1.000    0.000    7.500    0.000    4.000 
#    0.000   12.500    0.000    3.000    0.000    0.000 
#    0.000    0.000    0.000    0.000    0.000    0.000 
#
# Total GULP energy -99238.456714 kJ/mol
# GULP energy per Si atom -12404.807089 kJ/mol
# Density = 2.778635 g / cm^3
# Si number density = 27.849741 Si / 1000 Ang^3
#
#
#
# Elastic Constant Matrix: (Units=GPa)
#
#
# Indices 1 2 3 4 5 6 
#
# 1 140.4000 75.5172 62.9986 0.0000 8.9857 0.0000
# 2 75.5172 116.2812 28.8625 0.0000 8.7372 0.0000
# 3 62.9986 28.8625 104.9085 0.0000 21.9927 0.0000
# 4 0.0000 0.0000 0.0000 40.4261 0.0000 1.2901
# 5 8.9857 8.7372 21.9927 0.0000 35.9324 0.0000
# 6 0.0000 0.0000 0.0000 1.2901 0.0000 60.5925
#
#
#
# Elastic Compliance Matrix: (Units=1/GPa)
#
#
# Indices 1 2 3 4 5 6 
#
# 1 0.014226 -0.007704 -0.006964 0.000000 0.002578 0.000000
# 2 -0.007704 0.013422 0.001393 0.000000 -0.002189 0.000000
# 3 -0.006964 0.001393 0.014956 0.000000 -0.007751 0.000000
# 4 0.000000 0.000000 0.000000 0.024753 0.000000 -0.000527
# 5 0.002578 -0.002189 -0.007751 0.000000 0.032462 0.000000
# 6 0.000000 0.000000 0.000000 -0.000527 0.000000 0.016515
#
#
# Mechanical properties :
#
#
# Convention : Reuss Voigt Hill
#
# Bulk Modulus (GPa) = 62.29221 77.37183 69.83202
# Shear Modulus (GPa) = 33.73022 40.33762 37.03392
#
# Velocity S-wave (km/s) = 3.48393 3.80992 3.65057
# Velocity P-wave (km/s) = 6.21285 6.86995 6.54964
#
# Compressibility (1/GPa) = 0.01605337
#
# Stress axis : x y z
#
# Youngs Moduli (GPa) = 70.29369 74.50465 66.86442
#
# Poissons Ratio (x) = 0.57399 0.46563
# Poissons Ratio (y) = 0.54155 -0.09312
# Poissons Ratio (z) = 0.48951 -0.10376
#
# Static dielectric constant tensor:
#      x y z
#    x 5.165270 0.000000 0.236320 
#    y 0.000000 5.153940 0.000000 
#    z 0.236320 0.000000 5.118520 
# 
# 
# High freq. dielectric constant tensor:
#      x y z
#    x 2.127650 0.000000 0.005530 
#    y 0.000000 2.134420 0.000000 
#    z 0.005530 0.000000 2.132580 
# 
# From -- ./inp_files/5128.got.cif
#   From: 2010.03.12/outbox.cif.g09.slc.cpg/sg4_3_cif.got.tgz:5128.got - 2010.03.31 09:31:35.
