data_PCOD8047571
_publ_section_title
;
Structure prediction by ZEFSAII (Michael W. Deem and Ramdas Pophale) SiO2 
 PCOD8047571
Probable space group: P 21
;
_chemical_formula_sum "Si O2"
_cell_formula_units_Z 14
_cell_length_a 14.942756
_cell_length_b 4.909935
_cell_length_c 9.109665
_cell_angle_alpha 90.000000
_cell_angle_beta 49.226658
_cell_angle_gamma 90.000000
_cell_volume 506.146493
_symmetry_space_group_name_H-M "P 21"
_symmetry_group_IT_number 4
_symmetry_cell_setting 'monoclinic'
loop_
_space_group_symop_operation_xyz
x,y,z
-x,1/2+y,-z
loop_
_atom_site_type_symbol
_atom_site_label
_atom_site_fract_x
_atom_site_fract_y
_atom_site_fract_z
Si Si1 0.563806 0.651830 0.974946
Si Si2 0.856539 0.529296 0.445928
Si Si3 0.213225 0.510021 0.309049
Si Si4 0.693274 0.486364 0.356431
Si Si5 0.748361 0.088700 0.062042
Si Si6 0.041162 0.314182 0.041847
Si Si7 0.534516 0.764597 0.311764
O O1 0.670238 0.823598 0.790174
O O2 0.546895 0.366713 0.908748
O O3 0.577618 0.567836 0.131581
O O4 0.882864 0.796032 0.519754
O O5 0.784263 0.617032 0.375215
O O6 0.981365 0.410688 0.258493
O O7 0.784606 0.293699 0.607217
O O8 0.193067 0.598863 0.162111
O O9 0.588662 0.682623 0.411011
O O10 0.607951 0.268269 0.531450
O O11 0.767924 0.356292 0.140974
O O12 0.816648 0.844209 0.080729
O O13 0.607355 0.043149 0.197168
O O14 0.998823 0.509009 0.953066
#
# Coordination Sequence:
#
# PCOD8047571 Si02
#       7
#     2   2   2   2   2   2   2
#     4  11  24  43  67 101 148 195 237 292 360 435
#     4  12  27  48  75 107 145 190 247 302 362 441
#     4  11  27  46  70 107 148 191 241 297 374 436
#     4  12  24  44  72 105 143 189 246 303 359 437
#     4  11  27  46  72 104 147 192 240 304 370 437
#     4  12  26  49  78 110 142 187 247 306 366 431
#     4  11  25  40  72 102 141 188 242 294 365 429
#
# _framework density 27.659973000000001
#
# number of rings (size 3 to 8) (size 9 to 14) (size 15 to 20)
#    0.000    0.571    2.857    4.286   10.000    2.286 
#    0.000    0.000    0.000    0.000    0.000    0.000 
#    0.000    0.000    0.000    0.000    0.000    0.000 
#
# Total GULP energy -173463.508450 kJ/mol
# GULP energy per Si atom -12390.250604 kJ/mol
# Density = 2.759702 g / cm^3
# Si number density = 27.659973 Si / 1000 Ang^3
#
#
#
# Elastic Constant Matrix: (Units=GPa)
#
#
# Indices 1 2 3 4 5 6 
#
# 1 73.7539 1.8577 19.9378 0.0000 -1.4680 0.0000
# 2 1.8577 96.8222 9.9711 0.0000 26.0903 0.0000
# 3 19.9378 9.9711 105.7757 0.0000 28.1083 0.0000
# 4 0.0000 0.0000 0.0000 34.9459 0.0000 11.8208
# 5 -1.4680 26.0903 28.1083 0.0000 49.5263 0.0000
# 6 0.0000 0.0000 0.0000 11.8208 0.0000 31.3572
#
#
#
# Elastic Compliance Matrix: (Units=1/GPa)
#
#
# Indices 1 2 3 4 5 6 
#
# 1 0.014548 -0.000659 -0.003400 0.000000 0.002708 0.000000
# 2 -0.000659 0.012105 0.000804 0.000000 -0.006853 0.000000
# 3 -0.003400 0.000804 0.011962 0.000000 -0.007314 0.000000
# 4 0.000000 0.000000 0.000000 0.032798 0.000000 -0.012364
# 5 0.002708 -0.006853 -0.007314 0.000000 0.028032 0.000000
# 6 0.000000 0.000000 0.000000 -0.012364 0.000000 0.036552
#
#
# Mechanical properties :
#
#
# Convention : Reuss Voigt Hill
#
# Bulk Modulus (GPa) = 31.14616 37.76498 34.45557
# Shear Modulus (GPa) = 32.63552 39.47155 36.05354
#
# Velocity S-wave (km/s) = 3.43867 3.78170 3.61426
# Velocity P-wave (km/s) = 5.20103 5.72287 5.46818
#
# Compressibility (1/GPa) = 0.03210669
#
# Stress axis : x y z
#
# Youngs Moduli (GPa) = 68.73750 82.61353 83.59508
#
# Poissons Ratio (x) = 0.05441 0.28419
# Poissons Ratio (y) = 0.04527 -0.06721
# Poissons Ratio (z) = 0.23368 -0.06642
#
# Static dielectric constant tensor:
#      x y z
#    x 4.903390 0.000000 -0.015700 
#    y 0.000000 4.748530 0.000000 
#    z -0.015700 0.000000 5.501230 
# 
# 
# High freq. dielectric constant tensor:
#      x y z
#    x 2.099510 0.000000 0.004400 
#    y 0.000000 2.106840 0.000000 
#    z 0.004400 0.000000 2.137110 
# 
# From -- ./inp_files/7120.got.cif
#   From: 2010.03.12/outbox.cif.g09.slc.cpg/sg4_4_cif.got.tgz:7120.got - 2010.03.31 09:31:35.
