data_PCOD8047024
_publ_section_title
;
Structure prediction by ZEFSAII (Michael W. Deem and Ramdas Pophale) SiO2 
 PCOD8047024
Probable space group: P 21
;
_chemical_formula_sum "Si O2"
_cell_formula_units_Z 10
_cell_length_a 8.460825
_cell_length_b 8.483644
_cell_length_c 9.336004
_cell_angle_alpha 90.000000
_cell_angle_beta 30.836089
_cell_angle_gamma 90.000000
_cell_volume 343.495500
_symmetry_space_group_name_H-M "P 21"
_symmetry_group_IT_number 4
_symmetry_cell_setting 'monoclinic'
loop_
_space_group_symop_operation_xyz
x,y,z
-x,1/2+y,-z
loop_
_atom_site_type_symbol
_atom_site_label
_atom_site_fract_x
_atom_site_fract_y
_atom_site_fract_z
Si Si1 0.039345 0.799040 0.993590
Si Si2 0.037936 0.636418 0.273396
Si Si3 0.643747 0.671573 0.057426
Si Si4 0.708321 0.929505 0.489462
Si Si5 0.330551 0.972610 0.211644
O O1 0.968353 0.648060 0.155697
O O2 0.890049 0.772132 0.955217
O O3 0.875023 0.951022 0.202711
O O4 0.400644 0.826789 0.696642
O O5 0.931018 0.812718 0.418117
O O6 0.848402 0.500679 0.501490
O O7 0.391165 0.597179 0.019738
O O8 0.386231 0.588637 0.356797
O O9 0.450560 0.795036 0.110863
O O10 0.830385 0.540382 0.813207
#
# Coordination Sequence:
#
# PCOD8047024 Si02
#       5
#     2   2   2   2   2
#     4  10  25  44  84 104 149 193 264 316 376 442
#     4  10  23  50  76 110 152 199 259 315 383 457
#     4  12  30  49  80 115 160 203 259 318 395 463
#     4  10  24  48  77 110 145 204 253 324 368 455
#     4  12  28  47  75 115 154 207 245 319 392 461
#
# _framework density 29.112463999999999
#
# number of rings (size 3 to 8) (size 9 to 14) (size 15 to 20)
#    1.200    0.000    2.000    1.200    5.600    9.600 
#    0.000    0.000    0.000    0.000    0.000    0.000 
#    0.000    0.000    0.000    0.000    0.000    0.000 
#
# Total GULP energy -123941.487105 kJ/mol
# GULP energy per Si atom -12394.148710 kJ/mol
# Density = 2.904620 g / cm^3
# Si number density = 29.112464 Si / 1000 Ang^3
#
#
#
# Elastic Constant Matrix: (Units=GPa)
#
#
# Indices 1 2 3 4 5 6 
#
# 1 100.2123 97.5649 36.4803 0.0000 1.3285 0.0000
# 2 97.5649 30.6527 0.8656 0.0000 19.7389 0.0000
# 3 36.4803 0.8656 128.3915 0.0000 -1.5976 0.0000
# 4 0.0000 0.0000 0.0000 35.2881 0.0000 9.1430
# 5 1.3285 19.7389 -1.5976 0.0000 46.4883 0.0000
# 6 0.0000 0.0000 0.0000 9.1430 0.0000 38.9454
#
#
#
# Elastic Compliance Matrix: (Units=1/GPa)
#
#
# Indices 1 2 3 4 5 6 
#
# 1 -0.003037 0.013180 0.000706 0.000000 -0.005485 0.000000
# 2 0.013180 -0.012254 -0.003604 0.000000 0.004703 0.000000
# 3 0.000706 -0.003604 0.007634 0.000000 0.001772 0.000000
# 4 0.000000 0.000000 0.000000 0.030174 0.000000 -0.007084
# 5 -0.005485 0.004703 0.001772 0.000000 0.019732 0.000000
# 6 0.000000 0.000000 0.000000 -0.007084 0.000000 0.027340
#
#
# Mechanical properties :
#
#
# Convention : Reuss Voigt Hill
#
# Bulk Modulus (GPa) = 77.47573 58.78648 68.13110
# Shear Modulus (GPa) = 93.76344 32.43407 63.09875
#
# Velocity S-wave (km/s) = 5.68131 3.34143 4.66060
# Velocity P-wave (km/s) = 8.34905 5.92652 7.23983
#
# Compressibility (1/GPa) = 0.01290727
#
# Stress axis : x y z
#
# Youngs Moduli (GPa) = -329.22521 -81.60355 130.98519
#
# Poissons Ratio (x) = 1.07555 -0.09247
# Poissons Ratio (y) = 4.33925 0.47204
# Poissons Ratio (z) = 0.23241 -0.29408
#
# Static dielectric constant tensor:
#      x y z
#    x 5.808380 0.000000 0.041110 
#    y 0.000000 5.165370 0.000000 
#    z 0.041110 0.000000 5.668510 
# 
# 
# High freq. dielectric constant tensor:
#      x y z
#    x 2.204350 0.000000 -0.024230 
#    y 0.000000 2.196790 0.000000 
#    z -0.024230 0.000000 2.193280 
# 
# From -- ./inp_files/5177.got.cif
#   From: 2010.03.12/outbox.cif.g09.slc.cpg/sg4_3_cif.got.tgz:5177.got - 2010.03.31 09:31:35.
