data_PCOD8047328
_publ_section_title
;
Structure prediction by ZEFSAII (Michael W. Deem and Ramdas Pophale) SiO2 
 PCOD8047328
Probable space group: P 21
;
_chemical_formula_sum "Si O2"
_cell_formula_units_Z 16
_cell_length_a 9.019610
_cell_length_b 12.822870
_cell_length_c 11.342715
_cell_angle_alpha 90.000000
_cell_angle_beta 38.130567
_cell_angle_gamma 90.000000
_cell_volume 810.020037
_symmetry_space_group_name_H-M "P 21"
_symmetry_group_IT_number 4
_symmetry_cell_setting 'monoclinic'
loop_
_space_group_symop_operation_xyz
x,y,z
-x,1/2+y,-z
loop_
_atom_site_type_symbol
_atom_site_label
_atom_site_fract_x
_atom_site_fract_y
_atom_site_fract_z
Si Si1 0.689146 0.113830 0.086056
Si Si2 0.819376 0.568160 0.651320
Si Si3 0.076954 0.617247 0.706826
Si Si4 0.341765 0.978651 0.024096
Si Si5 0.114758 0.831080 0.991790
Si Si6 0.828077 0.352209 0.304619
Si Si7 0.339402 0.453408 0.685865
Si Si8 0.866080 0.002382 0.756008
O O1 0.412069 0.142468 0.227138
O O2 0.831100 0.208875 0.056270
O O3 0.682426 0.016573 0.178948
O O4 0.837407 0.088650 0.875157
O O5 0.030935 0.625755 0.593780
O O6 0.917634 0.532584 0.464952
O O7 0.722726 0.470970 0.794463
O O8 0.167073 0.727435 0.696336
O O9 0.277144 0.530458 0.615339
O O10 0.821625 0.575929 0.924144
O O11 0.282735 0.873778 0.991216
O O12 0.624623 0.994728 0.830406
O O13 0.173972 0.886811 0.830647
O O14 0.840074 0.854622 0.197970
O O15 0.599436 0.403666 0.509366
O O16 0.064658 0.393473 0.224244
#
# Coordination Sequence:
#
# PCOD8047328 Si02
#       8
#     2   2   2   2   2   2   2   2
#     4  11  22  42  62  93 132 162 216 268 309 384
#     4   9  21  43  60  89 133 163 206 271 309 375
#     4   9  22  45  60  90 133 163 207 271 310 373
#     4   8  22  41  63  89 124 166 209 265 304 379
#     4  11  24  41  66  92 125 172 212 260 325 377
#     4  12  24  39  68  96 126 175 212 261 328 385
#     4  11  23  44  61  95 135 162 216 269 313 386
#     4  11  22  39  68  94 124 175 206 259 330 371
#
# _framework density 19.752597000000002
#
# number of rings (size 3 to 8) (size 9 to 14) (size 15 to 20)
#    0.750    1.000    3.750    0.000    3.500    2.000 
#    4.500    0.000    0.000    0.000    0.000    0.000 
#    0.000    0.000    0.000    0.000    0.000    0.000 
#
# Total GULP energy -198247.228608 kJ/mol
# GULP energy per Si atom -12390.451788 kJ/mol
# Density = 1.970764 g / cm^3
# Si number density = 19.752597 Si / 1000 Ang^3
#
#
#
# Elastic Constant Matrix: (Units=GPa)
#
#
# Indices 1 2 3 4 5 6 
#
# 1 95.7221 34.5264 32.5999 0.0000 -7.0402 0.0000
# 2 34.5264 92.1615 44.9082 0.0000 -14.1326 0.0000
# 3 32.5999 44.9082 99.2737 0.0000 2.0378 0.0000
# 4 0.0000 0.0000 0.0000 21.7093 0.0000 -2.7900
# 5 -7.0402 -14.1326 2.0378 0.0000 34.3560 0.0000
# 6 0.0000 0.0000 0.0000 -2.7900 0.0000 31.8244
#
#
#
# Elastic Compliance Matrix: (Units=1/GPa)
#
#
# Indices 1 2 3 4 5 6 
#
# 1 0.012632 -0.003175 -0.002742 0.000000 0.001445 0.000000
# 2 -0.003175 0.016126 -0.006383 0.000000 0.006361 0.000000
# 3 -0.002742 -0.006383 0.013943 0.000000 -0.004014 0.000000
# 4 0.000000 0.000000 0.000000 0.046588 0.000000 0.004084
# 5 0.001445 0.006361 -0.004014 0.000000 0.032258 0.000000
# 6 0.000000 0.000000 0.000000 0.004084 0.000000 0.031781
#
#
# Mechanical properties :
#
#
# Convention : Reuss Voigt Hill
#
# Bulk Modulus (GPa) = 55.24098 56.80292 56.02195
# Shear Modulus (GPa) = 27.17985 29.25279 28.21632
#
# Velocity S-wave (km/s) = 3.71349 3.85250 3.78363
# Velocity P-wave (km/s) = 6.81277 6.97199 6.89284
#
# Compressibility (1/GPa) = 0.01810250
#
# Stress axis : x y z
#
# Youngs Moduli (GPa) = 79.16373 62.01357 71.71952
#
# Poissons Ratio (x) = 0.19688 0.19663
# Poissons Ratio (y) = 0.25133 0.45776
# Poissons Ratio (z) = 0.21704 0.39581
#
# Static dielectric constant tensor:
#      x y z
#    x 3.838090 0.000000 -0.039600 
#    y 0.000000 3.216210 0.000000 
#    z -0.039600 0.000000 3.420750 
# 
# 
# High freq. dielectric constant tensor:
#      x y z
#    x 1.794040 0.000000 -0.002900 
#    y 0.000000 1.737750 0.000000 
#    z -0.002900 0.000000 1.758570 
# 
# From -- ./inp_files/11233.got.cif
#   From: 2010.03.12/outbox.cif.g09.slc.cpg/sg4_6_cif.got.tgz:11233.got - 2010.03.31 09:31:35.
