data_PCOD8047330
_publ_section_title
;
Structure prediction by ZEFSAII (Michael W. Deem and Ramdas Pophale) SiO2 
 PCOD8047330
Probable space group: P 21
;
_chemical_formula_sum "Si O2"
_cell_formula_units_Z 16
_cell_length_a 13.627763
_cell_length_b 8.687619
_cell_length_c 11.676076
_cell_angle_alpha 90.000000
_cell_angle_beta 147.855701
_cell_angle_gamma 90.000000
_cell_volume 735.491168
_symmetry_space_group_name_H-M "P 21"
_symmetry_group_IT_number 4
_symmetry_cell_setting 'monoclinic'
loop_
_space_group_symop_operation_xyz
x,y,z
-x,1/2+y,-z
loop_
_atom_site_type_symbol
_atom_site_label
_atom_site_fract_x
_atom_site_fract_y
_atom_site_fract_z
Si Si1 0.213401 0.074230 0.323673
Si Si2 0.057072 0.158399 0.928832
Si Si3 0.322370 0.725059 0.384952
Si Si4 0.662027 0.038088 0.059991
Si Si5 0.625318 0.276820 0.220718
Si Si6 0.562215 0.227385 0.745888
Si Si7 0.014091 0.917527 0.304528
Si Si8 0.583468 0.568082 0.806213
O O1 0.106091 0.141772 0.109892
O O2 0.365713 0.198878 0.497473
O O3 0.304225 0.904185 0.400689
O O4 0.087461 0.072009 0.314771
O O5 0.192373 0.058114 0.982283
O O6 0.837613 0.122791 0.710319
O O7 0.078721 0.327785 0.894754
O O8 0.298047 0.722348 0.223640
O O9 0.511647 0.645092 0.615654
O O10 0.678119 0.181216 0.160896
O O11 0.620954 0.098064 0.892637
O O12 0.860959 0.953031 0.250304
O O13 0.497023 0.924728 0.935628
O O14 0.816041 0.324277 0.469777
O O15 0.494613 0.171143 0.169581
O O16 0.532843 0.392084 0.776606
#
# Coordination Sequence:
#
# PCOD8047330 Si02
#       8
#     2   2   2   2   2   2   2   2
#     4  11  22  42  68 106 143 185 232 278 354 431
#     4  11  22  39  69 103 139 189 220 285 356 423
#     4  11  22  41  66  99 146 188 225 285 352 423
#     4  12  27  49  78  97 139 191 235 302 348 408
#     4  12  26  52  73 104 134 188 246 289 359 407
#     4  12  23  42  69 105 141 183 236 287 350 425
#     4  11  25  48  72 102 148 183 235 295 352 425
#     4  12  23  43  67 100 140 183 231 289 353 418
#
# _framework density 21.754170999999999
#
# number of rings (size 3 to 8) (size 9 to 14) (size 15 to 20)
#    0.000    0.500    7.500    1.500    0.000    4.000 
#    6.750    0.000    0.000    0.000    0.000    0.000 
#    0.000    0.000    0.000    0.000    0.000    0.000 
#
# Total GULP energy -198248.305452 kJ/mol
# GULP energy per Si atom -12390.519091 kJ/mol
# Density = 2.170466 g / cm^3
# Si number density = 21.754171 Si / 1000 Ang^3
#
#
#
# Elastic Constant Matrix: (Units=GPa)
#
#
# Indices 1 2 3 4 5 6 
#
# 1 98.9086 35.0302 28.8411 0.0000 2.1733 0.0000
# 2 35.0302 92.9676 38.4630 0.0000 9.8502 0.0000
# 3 28.8411 38.4630 65.1470 0.0000 7.2678 0.0000
# 4 0.0000 0.0000 0.0000 26.7695 0.0000 -13.2500
# 5 2.1733 9.8502 7.2678 0.0000 32.7212 0.0000
# 6 0.0000 0.0000 0.0000 -13.2500 0.0000 40.4869
#
#
#
# Elastic Compliance Matrix: (Units=1/GPa)
#
#
# Indices 1 2 3 4 5 6 
#
# 1 0.012295 -0.003227 -0.003646 0.000000 0.000964 0.000000
# 2 -0.003227 0.015279 -0.007283 0.000000 -0.002767 0.000000
# 3 -0.003646 -0.007283 0.021526 0.000000 -0.002346 0.000000
# 4 0.000000 0.000000 0.000000 0.044577 0.000000 0.014588
# 5 0.000964 -0.002767 -0.002346 0.000000 0.031851 0.000000
# 6 0.000000 0.000000 0.000000 0.014588 0.000000 0.029474
#
#
# Mechanical properties :
#
#
# Convention : Reuss Voigt Hill
#
# Bulk Modulus (GPa) = 48.10453 51.29907 49.70180
# Shear Modulus (GPa) = 26.28229 30.30812 28.29521
#
# Velocity S-wave (km/s) = 3.47962 3.73662 3.61041
# Velocity P-wave (km/s) = 6.18906 6.49992 6.34639
#
# Compressibility (1/GPa) = 0.02078806
#
# Stress axis : x y z
#
# Youngs Moduli (GPa) = 81.33405 65.45021 46.45593
#
# Poissons Ratio (x) = 0.21118 0.16936
# Poissons Ratio (y) = 0.26244 0.33836
# Poissons Ratio (z) = 0.29652 0.47670
#
# Static dielectric constant tensor:
#      x y z
#    x 4.182870 0.000000 0.203630 
#    y 0.000000 3.828300 0.000000 
#    z 0.203630 0.000000 3.953470 
# 
# 
# High freq. dielectric constant tensor:
#      x y z
#    x 1.866700 0.000000 0.012210 
#    y 0.000000 1.843690 0.000000 
#    z 0.012210 0.000000 1.849210 
# 
# From -- ./inp_files/12632.got.cif
#   From: 2010.03.12/outbox.cif.g09.slc.cpg/sg4_7_cif.got.tgz:12632.got - 2010.03.31 09:31:35.
