data_PCOD8047867
_publ_section_title
;
Structure prediction by ZEFSAII (Michael W. Deem and Ramdas Pophale) SiO2 
 PCOD8047867
Probable space group: P 21
;
_chemical_formula_sum "Si O2"
_cell_formula_units_Z 16
_cell_length_a 9.792553
_cell_length_b 6.158201
_cell_length_c 11.325203
_cell_angle_alpha 90.000000
_cell_angle_beta 104.887475
_cell_angle_gamma 90.000000
_cell_volume 660.035367
_symmetry_space_group_name_H-M "P 21"
_symmetry_group_IT_number 4
_symmetry_cell_setting 'monoclinic'
loop_
_space_group_symop_operation_xyz
x,y,z
-x,1/2+y,-z
loop_
_atom_site_type_symbol
_atom_site_label
_atom_site_fract_x
_atom_site_fract_y
_atom_site_fract_z
Si Si1 0.279521 0.529010 0.244770
Si Si2 0.653121 0.121833 0.141080
Si Si3 0.951445 0.939206 0.175342
Si Si4 0.869401 0.707839 0.943994
Si Si5 0.522862 0.434761 0.450393
Si Si6 0.793309 0.368203 0.381302
Si Si7 0.940082 0.146789 0.614487
Si Si8 0.371581 0.879636 0.099141
O O1 0.217224 0.418816 0.114077
O O2 0.417914 0.398418 0.317389
O O3 0.170560 0.520109 0.329095
O O4 0.326688 0.766952 0.212273
O O5 0.703379 0.292918 0.249585
O O6 0.783916 0.961355 0.150809
O O7 0.518970 0.994884 0.162553
O O8 0.603147 0.225691 0.007187
O O9 0.026244 0.876167 0.314207
O O10 0.972467 0.755720 0.078036
O O11 0.030886 0.151335 0.145126
O O12 0.757686 0.532848 0.963119
O O13 0.480219 0.682244 0.492996
O O14 0.684338 0.478022 0.448318
O O15 0.875411 0.176589 0.469581
O O16 0.909756 0.531751 0.359965
#
# Coordination Sequence:
#
# PCOD8047867 Si02
#       8
#     2   2   2   2   2   2   2   2
#     4  12  27  49  79 112 153 210 265 333 401 489
#     4  12  27  47  74 114 158 206 259 333 403 483
#     4  12  24  44  75 108 154 200 261 323 405 483
#     4  12  24  46  75 110 152 197 260 333 399 486
#     4  12  31  53  86 120 164 218 277 337 409 486
#     4  12  29  49  78 116 162 211 265 332 403 487
#     4  12  27  49  75 112 157 208 264 326 399 484
#     4  12  27  49  76 114 152 202 265 325 411 476
#
# _framework density 24.241123999999999
#
# number of rings (size 3 to 8) (size 9 to 14) (size 15 to 20)
#    0.000    0.000    3.750    5.250   10.500    0.000 
#    0.000    0.000    0.000    0.000    0.000    0.000 
#    0.000    0.000    0.000    0.000    0.000    0.000 
#
# Total GULP energy -198247.673952 kJ/mol
# GULP energy per Si atom -12390.479622 kJ/mol
# Density = 2.418595 g / cm^3
# Si number density = 24.241124 Si / 1000 Ang^3
#
#
#
# Elastic Constant Matrix: (Units=GPa)
#
#
# Indices 1 2 3 4 5 6 
#
# 1 152.9556 38.6712 22.6282 0.0000 -6.8230 0.0000
# 2 38.6712 88.5466 15.7036 0.0000 -9.7284 0.0000
# 3 22.6282 15.7036 75.8878 0.0000 1.5479 0.0000
# 4 0.0000 0.0000 0.0000 40.4756 0.0000 4.3658
# 5 -6.8230 -9.7284 1.5479 0.0000 39.6989 0.0000
# 6 0.0000 0.0000 0.0000 4.3658 0.0000 55.0172
#
#
#
# Elastic Compliance Matrix: (Units=1/GPa)
#
#
# Indices 1 2 3 4 5 6 
#
# 1 0.007554 -0.002934 -0.001658 0.000000 0.000644 0.000000
# 2 -0.002934 0.013224 -0.001919 0.000000 0.002811 0.000000
# 3 -0.001658 -0.001919 0.014096 0.000000 -0.001305 0.000000
# 4 0.000000 0.000000 0.000000 0.024920 0.000000 -0.001977
# 5 0.000644 0.002811 -0.001305 0.000000 0.026040 0.000000
# 6 0.000000 0.000000 0.000000 -0.001977 0.000000 0.018333
#
#
# Mechanical properties :
#
#
# Convention : Reuss Voigt Hill
#
# Bulk Modulus (GPa) = 45.76534 52.37731 49.07133
# Shear Modulus (GPa) = 40.16960 43.06415 41.61688
#
# Velocity S-wave (km/s) = 4.07515 4.21942 4.14791
# Velocity P-wave (km/s) = 6.40801 6.73733 6.57474
#
# Compressibility (1/GPa) = 0.02185059
#
# Stress axis : x y z
#
# Youngs Moduli (GPa) = 132.38512 75.61961 70.94442
#
# Poissons Ratio (x) = 0.22188 0.11765
# Poissons Ratio (y) = 0.38843 0.13614
# Poissons Ratio (z) = 0.21954 0.14511
#
# Static dielectric constant tensor:
#      x y z
#    x 4.647760 0.000000 0.006660 
#    y 0.000000 4.591520 0.000000 
#    z 0.006660 0.000000 4.459900 
# 
# 
# High freq. dielectric constant tensor:
#      x y z
#    x 1.989680 0.000000 0.006030 
#    y 0.000000 1.952800 0.000000 
#    z 0.006030 0.000000 1.969900 
# 
# From -- ./inp_files/7358.got.cif
#   From: 2010.03.12/outbox.cif.g09.slc.cpg/sg4_4_cif.got.tgz:7358.got - 2010.03.31 09:31:35.
