data_PCOD8047759
_publ_section_title
;
Structure prediction by ZEFSAII (Michael W. Deem and Ramdas Pophale) SiO2 
 PCOD8047759
Probable space group: P 21
;
_chemical_formula_sum "Si O2"
_cell_formula_units_Z 10
_cell_length_a 5.016071
_cell_length_b 15.814840
_cell_length_c 5.220045
_cell_angle_alpha 90.000000
_cell_angle_beta 79.407327
_cell_angle_gamma 90.000000
_cell_volume 407.040917
_symmetry_space_group_name_H-M "P 21"
_symmetry_group_IT_number 4
_symmetry_cell_setting 'monoclinic'
loop_
_space_group_symop_operation_xyz
x,y,z
-x,1/2+y,-z
loop_
_atom_site_type_symbol
_atom_site_label
_atom_site_fract_x
_atom_site_fract_y
_atom_site_fract_z
Si Si1 0.457278 0.421890 0.566825
Si Si2 0.766185 0.295431 0.236819
Si Si3 0.258346 0.076853 0.735983
Si Si4 0.885069 0.435993 0.883788
Si Si5 0.763618 0.188458 0.726892
O O1 0.485411 0.346357 0.353016
O O2 0.609560 0.509125 0.475444
O O3 0.622345 0.393304 0.792695
O O4 0.142685 0.440937 0.653954
O O5 0.862533 0.251650 0.483899
O O6 0.961966 0.372698 0.107193
O O7 0.750005 0.227914 0.012677
O O8 0.460395 0.155532 0.732012
O O9 0.974164 0.111210 0.679479
O O10 0.192476 0.030486 0.015412
#
# Coordination Sequence:
#
# PCOD8047759 Si02
#       5
#     2   2   2   2   2
#     4  11  25  49  76 104 144 197 241 293 354 442
#     4  11  28  50  74 109 148 190 244 295 366 426
#     4  11  28  46  74 109 148 190 244 295 366 426
#     4  11  25  49  76 104 144 197 241 293 354 442
#     4  12  28  48  76 108 150 188 236 310 360 422
#
# _framework density 24.567557000000001
#
# number of rings (size 3 to 8) (size 9 to 14) (size 15 to 20)
#    0.000    0.800    2.000    2.400   11.200    8.000 
#    0.000    0.000    0.000    0.000    0.000    0.000 
#    0.000    0.000    0.000    0.000    0.000    0.000 
#
# Total GULP energy -123924.339809 kJ/mol
# GULP energy per Si atom -12392.433981 kJ/mol
# Density = 2.451164 g / cm^3
# Si number density = 24.567557 Si / 1000 Ang^3
#
#
#
# Elastic Constant Matrix: (Units=GPa)
#
#
# Indices 1 2 3 4 5 6 
#
# 1 77.3251 -0.3448 12.6843 0.0000 -13.0215 0.0000
# 2 -0.3448 95.2935 32.3948 0.0000 -3.6840 0.0000
# 3 12.6843 32.3948 116.3565 0.0000 -2.7128 0.0000
# 4 0.0000 0.0000 0.0000 54.5759 0.0000 6.4313
# 5 -13.0215 -3.6840 -2.7128 0.0000 38.3011 0.0000
# 6 0.0000 0.0000 0.0000 6.4313 0.0000 25.7669
#
#
#
# Elastic Compliance Matrix: (Units=1/GPa)
#
#
# Indices 1 2 3 4 5 6 
#
# 1 0.013999 0.000789 -0.001636 0.000000 0.004719 0.000000
# 2 0.000789 0.011666 -0.003307 0.000000 0.001156 0.000000
# 3 -0.001636 -0.003307 0.009689 0.000000 -0.000188 0.000000
# 4 0.000000 0.000000 0.000000 0.018878 0.000000 -0.004712
# 5 0.004719 0.001156 -0.000188 0.000000 0.027811 0.000000
# 6 0.000000 0.000000 0.000000 -0.004712 0.000000 0.039986
#
#
# Mechanical properties :
#
#
# Convention : Reuss Voigt Hill
#
# Bulk Modulus (GPa) = 36.97329 42.04930 39.51130
# Shear Modulus (GPa) = 35.88056 40.01150 37.94603
#
# Velocity S-wave (km/s) = 3.82578 4.04001 3.93435
# Velocity P-wave (km/s) = 5.88198 6.23820 6.06271
#
# Compressibility (1/GPa) = 0.02704655
#
# Stress axis : x y z
#
# Youngs Moduli (GPa) = 71.43363 85.72204 103.21109
#
# Poissons Ratio (x) = -0.06765 0.16883
# Poissons Ratio (y) = -0.05637 0.34131
# Poissons Ratio (z) = 0.11685 0.28347
#
# Static dielectric constant tensor:
#      x y z
#    x 4.060040 0.000000 -0.055290 
#    y 0.000000 4.601570 0.000000 
#    z -0.055290 0.000000 4.682550 
# 
# 
# High freq. dielectric constant tensor:
#      x y z
#    x 1.950860 0.000000 -0.008480 
#    y 0.000000 1.994770 0.000000 
#    z -0.008480 0.000000 1.995750 
# 
# From -- ./inp_files/241.got.cif
#   From: 2010.03.12/outbox.cif.g09.slc.cpg/sg4_1_cif.got.tgz:241.got - 2010.03.31 09:31:35.
