data_PCOD8047833
_publ_section_title
;
Structure prediction by ZEFSAII (Michael W. Deem and Ramdas Pophale) SiO2 
 PCOD8047833
Probable space group: P 21
;
_chemical_formula_sum "Si O2"
_cell_formula_units_Z 14
_cell_length_a 16.109630
_cell_length_b 7.055544
_cell_length_c 8.153753
_cell_angle_alpha 90.000000
_cell_angle_beta 40.605095
_cell_angle_gamma 90.000000
_cell_volume 603.182891
_symmetry_space_group_name_H-M "P 21"
_symmetry_group_IT_number 4
_symmetry_cell_setting 'monoclinic'
loop_
_space_group_symop_operation_xyz
x,y,z
-x,1/2+y,-z
loop_
_atom_site_type_symbol
_atom_site_label
_atom_site_fract_x
_atom_site_fract_y
_atom_site_fract_z
Si Si1 0.147271 0.802900 0.184441
Si Si2 0.266850 0.188539 0.349724
Si Si3 0.091901 0.857999 0.714028
Si Si4 0.852732 0.074176 0.126251
Si Si5 0.380808 0.308455 0.514784
Si Si6 0.380812 0.068625 0.842786
Si Si7 0.091898 0.519076 0.510270
O O1 0.188249 0.639963 0.251079
O O2 0.019310 0.918797 0.428712
O O3 0.100195 0.688544 0.099705
O O4 0.262330 0.939974 0.970601
O O5 0.349440 0.188393 0.395024
O O6 0.178545 0.376587 0.487901
O O7 0.178551 0.000485 0.476451
O O8 0.349441 0.188688 0.056652
O O9 0.188249 0.737105 0.684166
O O10 0.023907 0.688540 0.714135
O O11 0.980696 0.958283 0.986630
O O12 0.737677 0.937096 0.257578
O O13 0.499996 0.438544 0.291160
O O14 0.412497 0.188539 0.631253
#
# Coordination Sequence:
#
# PCOD8047833 Si02
#       7
#     2   2   2   2   2   2   2
#     4  12  23  42  72 105 150 194 240 309 368 438
#     4  12  26  50  78 112 148 198 252 312 378 442
#     4  12  23  44  71 111 152 186 250 309 377 441
#     4  12  23  42  72 105 150 194 240 309 368 438
#     4  12  28  50  75 108 151 201 251 306 370 450
#     4  12  28  50  75 108 151 201 251 306 370 450
#     4  12  23  44  71 111 152 186 250 309 377 441
#
# _framework density 23.210207
#
# number of rings (size 3 to 8) (size 9 to 14) (size 15 to 20)
#    0.000    0.000    4.286    6.857    0.000    3.429 
#    0.000    0.000    0.000    0.000    0.000    0.000 
#    0.000    0.000    0.000    0.000    0.000    0.000 
#
# Total GULP energy -173471.496399 kJ/mol
# GULP energy per Si atom -12390.821171 kJ/mol
# Density = 2.315738 g / cm^3
# Si number density = 23.210207 Si / 1000 Ang^3
#
#
#
# Elastic Constant Matrix: (Units=GPa)
#
#
# Indices 1 2 3 4 5 6 
#
# 1 95.6810 42.8604 37.6471 0.0000 8.9231 0.0000
# 2 42.8604 128.4736 41.2807 0.0000 5.2205 0.0000
# 3 37.6471 41.2807 91.7221 0.0000 4.2106 0.0000
# 4 0.0000 0.0000 0.0000 33.5960 0.0000 10.4327
# 5 8.9231 5.2205 4.2106 0.0000 43.3065 0.0000
# 6 0.0000 0.0000 0.0000 10.4327 0.0000 36.7403
#
#
#
# Elastic Compliance Matrix: (Units=1/GPa)
#
#
# Indices 1 2 3 4 5 6 
#
# 1 0.013668 -0.003162 -0.004094 0.000000 -0.002037 0.000000
# 2 -0.003162 0.009852 -0.003126 0.000000 -0.000232 0.000000
# 3 -0.004094 -0.003126 0.013996 0.000000 -0.000141 0.000000
# 4 0.000000 0.000000 0.000000 0.032644 0.000000 -0.009270
# 5 -0.002037 -0.000232 -0.000141 0.000000 0.023553 0.000000
# 6 0.000000 0.000000 0.000000 -0.009270 0.000000 0.029850
#
#
# Mechanical properties :
#
#
# Convention : Reuss Voigt Hill
#
# Bulk Modulus (GPa) = 59.68618 62.16147 60.92383
# Shear Modulus (GPa) = 33.35319 35.66778 34.51049
#
# Velocity S-wave (km/s) = 3.79490 3.92437 3.86017
# Velocity P-wave (km/s) = 6.70619 6.88290 6.79512
#
# Compressibility (1/GPa) = 0.01675430
#
# Stress axis : x y z
#
# Youngs Moduli (GPa) = 73.16134 101.49898 71.44924
#
# Poissons Ratio (x) = 0.32092 0.29249
# Poissons Ratio (y) = 0.23132 0.22333
# Poissons Ratio (z) = 0.29950 0.31726
#
# Static dielectric constant tensor:
#      x y z
#    x 4.608570 0.000000 0.649190 
#    y 0.000000 4.499360 0.000000 
#    z 0.649190 0.000000 4.412960 
# 
# 
# High freq. dielectric constant tensor:
#      x y z
#    x 1.917140 0.000000 0.023940 
#    y 0.000000 1.938970 0.000000 
#    z 0.023940 0.000000 1.909920 
# 
# From -- ./inp_files/7249.got.cif
#   From: 2010.03.12/outbox.cif.g09.slc.cpg/sg4_4_cif.got.tgz:7249.got - 2010.03.31 09:31:35.
