data_PCOD8047940
_publ_section_title
;
Structure prediction by ZEFSAII (Michael W. Deem and Ramdas Pophale) SiO2 
 PCOD8047940
Probable space group: P 21
;
_chemical_formula_sum "Si O2"
_cell_formula_units_Z 16
_cell_length_a 9.659398
_cell_length_b 5.214880
_cell_length_c 13.098238
_cell_angle_alpha 90.000000
_cell_angle_beta 99.314101
_cell_angle_gamma 90.000000
_cell_volume 651.093564
_symmetry_space_group_name_H-M "P 21"
_symmetry_group_IT_number 4
_symmetry_cell_setting 'monoclinic'
loop_
_space_group_symop_operation_xyz
x,y,z
-x,1/2+y,-z
loop_
_atom_site_type_symbol
_atom_site_label
_atom_site_fract_x
_atom_site_fract_y
_atom_site_fract_z
Si Si1 0.513997 0.530970 0.239386
Si Si2 0.866055 0.630880 0.736794
Si Si3 0.393261 0.920869 0.387105
Si Si4 0.275941 0.095735 0.905662
Si Si5 0.056053 0.631263 0.141466
Si Si6 0.344950 0.685922 0.580631
Si Si7 0.699314 0.083868 0.968950
Si Si8 0.959571 0.072064 0.436530
O O1 0.439185 0.719920 0.307891
O O2 0.661257 0.602459 0.201364
O O3 0.564778 0.290896 0.312937
O O4 0.398813 0.501519 0.137274
O O5 0.703368 0.629197 0.682716
O O6 0.894582 0.421648 0.828379
O O7 0.968670 0.527193 0.662216
O O8 0.894444 0.924219 0.768598
O O9 0.299114 0.851262 0.475959
O O10 0.540567 0.999188 0.456409
O O11 0.108590 0.093185 0.887062
O O12 0.331709 0.362643 0.954787
O O13 0.333504 0.856846 0.980811
O O14 0.136781 0.569050 0.045483
O O15 0.206811 0.545871 0.604829
O O16 0.995446 0.357460 0.478033
#
# Coordination Sequence:
#
# PCOD8047940 Si02
#       8
#     2   2   2   2   2   2   2   2
#     4  12  28  48  74 111 151 201 252 315 371 454
#     4  12  26  47  75 111 150 204 250 306 381 444
#     4  12  27  47  75 109 156 204 256 307 372 452
#     4  12  28  48  78 111 152 193 255 313 387 449
#     4  12  25  48  78 109 151 193 252 314 377 459
#     4  12  28  47  76 110 153 206 254 308 374 450
#     4  12  26  50  76 111 147 201 248 318 384 446
#     4  12  28  47  74 106 156 200 255 309 368 438
#
# _framework density 24.574043
#
# number of rings (size 3 to 8) (size 9 to 14) (size 15 to 20)
#    0.000    0.000    3.750    5.250    8.750    0.000 
#    0.000    0.000    0.000    0.000    0.000    0.000 
#    0.000    0.000    0.000    0.000    0.000    0.000 
#
# Total GULP energy -198250.720435 kJ/mol
# GULP energy per Si atom -12390.670027 kJ/mol
# Density = 2.451811 g / cm^3
# Si number density = 24.574043 Si / 1000 Ang^3
#
#
#
# Elastic Constant Matrix: (Units=GPa)
#
#
# Indices 1 2 3 4 5 6 
#
# 1 126.9105 19.3539 27.3343 0.0000 7.3315 0.0000
# 2 19.3539 75.8517 3.1101 0.0000 5.1923 0.0000
# 3 27.3343 3.1101 68.9428 0.0000 0.7638 0.0000
# 4 0.0000 0.0000 0.0000 28.8891 0.0000 2.0809
# 5 7.3315 5.1923 0.7638 0.0000 38.6879 0.0000
# 6 0.0000 0.0000 0.0000 2.0809 0.0000 20.1830
#
#
#
# Elastic Compliance Matrix: (Units=1/GPa)
#
#
# Indices 1 2 3 4 5 6 
#
# 1 0.009020 -0.002066 -0.003468 0.000000 -0.001364 0.000000
# 2 -0.002066 0.013802 0.000213 0.000000 -0.001465 0.000000
# 3 -0.003468 0.000213 0.015867 0.000000 0.000315 0.000000
# 4 0.000000 0.000000 0.000000 0.034874 0.000000 -0.003596
# 5 -0.001364 -0.001465 0.000315 0.000000 0.026297 0.000000
# 6 0.000000 0.000000 0.000000 -0.003596 0.000000 0.049917
#
#
# Mechanical properties :
#
#
# Convention : Reuss Voigt Hill
#
# Bulk Modulus (GPa) = 35.65486 41.25572 38.45529
# Shear Modulus (GPa) = 29.45176 32.34579 30.89878
#
# Velocity S-wave (km/s) = 3.46568 3.63196 3.54979
# Velocity P-wave (km/s) = 5.52768 5.86626 5.69948
#
# Compressibility (1/GPa) = 0.02804667
#
# Stress axis : x y z
#
# Youngs Moduli (GPa) = 110.86008 72.45143 63.02514
#
# Poissons Ratio (x) = 0.14969 0.21858
# Poissons Ratio (y) = 0.22904 -0.01341
# Poissons Ratio (z) = 0.38447 -0.01541
#
# Static dielectric constant tensor:
#      x y z
#    x 5.037620 0.000000 0.128900 
#    y 0.000000 4.544010 0.000000 
#    z 0.128900 0.000000 4.856220 
# 
# 
# High freq. dielectric constant tensor:
#      x y z
#    x 2.008680 0.000000 -0.009060 
#    y 0.000000 1.969700 0.000000 
#    z -0.009060 0.000000 1.985500 
# 
# From -- ./inp_files/10753.got.cif
#   From: 2010.03.12/outbox.cif.g09.slc.cpg/sg4_6_cif.got.tgz:10753.got - 2010.03.31 09:31:35.
