data_PCOD8047292
_publ_section_title
;
Structure prediction by ZEFSAII (Michael W. Deem and Ramdas Pophale) SiO2 
 PCOD8047292
Probable space group: P 21
;
_chemical_formula_sum "Si O2"
_cell_formula_units_Z 16
_cell_length_a 12.917857
_cell_length_b 11.325271
_cell_length_c 12.689980
_cell_angle_alpha 90.000000
_cell_angle_beta 22.110414
_cell_angle_gamma 90.000000
_cell_volume 698.781117
_symmetry_space_group_name_H-M "P 21"
_symmetry_group_IT_number 4
_symmetry_cell_setting 'monoclinic'
loop_
_space_group_symop_operation_xyz
x,y,z
-x,1/2+y,-z
loop_
_atom_site_type_symbol
_atom_site_label
_atom_site_fract_x
_atom_site_fract_y
_atom_site_fract_z
Si Si1 0.275458 0.751510 0.069341
Si Si2 0.274980 0.333199 0.866404
Si Si3 0.203177 0.662659 0.369340
Si Si4 0.949664 0.587993 0.948395
Si Si5 0.186076 0.873619 0.531403
Si Si6 0.255620 0.134801 0.495354
Si Si7 0.754408 0.529844 0.902074
Si Si8 0.509338 0.537570 0.513922
O O1 0.252672 0.682780 0.200361
O O2 0.280210 0.891079 0.081287
O O3 0.035566 0.701784 0.219261
O O4 0.562556 0.721653 0.745355
O O5 0.182107 0.213771 0.898998
O O6 0.537890 0.310539 0.690575
O O7 0.356727 0.420628 0.696269
O O8 0.035211 0.383644 0.166778
O O9 0.103999 0.788717 0.512640
O O10 0.945712 0.575510 0.626826
O O11 0.468112 0.600470 0.171684
O O12 0.771174 0.501789 0.193418
O O13 0.914110 0.554648 0.860453
O O14 0.272869 0.600413 0.667880
O O15 0.236472 0.009540 0.451071
O O16 0.386719 0.116840 0.486902
#
# Coordination Sequence:
#
# PCOD8047292 Si02
#       8
#     2   2   2   2   2   2   2   2
#     4  12  28  45  73 103 149 188 223 298 366 416
#     4  11  22  42  65 100 134 178 239 287 341 406
#     4  12  25  45  73 102 135 185 238 290 349 428
#     4  12  23  43  69  98 140 183 234 291 349 411
#     4  11  21  43  72  95 132 180 233 300 325 410
#     4  11  25  48  66 105 143 182 236 290 351 414
#     4  12  27  49  69 109 142 181 242 290 359 420
#     4  11  25  41  69 102 135 191 233 280 352 419
#
# _framework density 22.897012
#
# number of rings (size 3 to 8) (size 9 to 14) (size 15 to 20)
#    0.000    0.500    2.500    6.750    3.500    3.000 
#    0.000    0.000    0.000    0.000    0.000    0.000 
#    0.000    0.000    0.000    0.000    0.000    0.000 
#
# Total GULP energy -198423.018128 kJ/mol
# GULP energy per Si atom -12401.438633 kJ/mol
# Density = 2.284490 g / cm^3
# Si number density = 22.897012 Si / 1000 Ang^3
#
#
#
# Elastic Constant Matrix: (Units=GPa)
#
#
# Indices 1 2 3 4 5 6 
#
# 1 81.4435 17.8950 17.4309 0.0000 5.4085 0.0000
# 2 17.8950 118.2617 13.8165 0.0000 -10.5355 0.0000
# 3 17.4309 13.8165 96.9370 0.0000 -8.7013 0.0000
# 4 0.0000 0.0000 0.0000 39.4747 0.0000 4.2184
# 5 5.4085 -10.5355 -8.7013 0.0000 32.0035 0.0000
# 6 0.0000 0.0000 0.0000 4.2184 0.0000 24.2203
#
#
#
# Elastic Compliance Matrix: (Units=1/GPa)
#
#
# Indices 1 2 3 4 5 6 
#
# 1 0.013503 -0.002080 -0.002458 0.000000 -0.003635 0.000000
# 2 -0.002080 0.009129 -0.000642 0.000000 0.003182 0.000000
# 3 -0.002458 -0.000642 0.011140 0.000000 0.003233 0.000000
# 4 0.000000 0.000000 0.000000 0.025813 0.000000 -0.004496
# 5 -0.003635 0.003182 0.003233 0.000000 0.033787 0.000000
# 6 0.000000 0.000000 0.000000 -0.004496 0.000000 0.042071
#
#
# Mechanical properties :
#
#
# Convention : Reuss Voigt Hill
#
# Bulk Modulus (GPa) = 42.71149 43.88078 43.29614
# Shear Modulus (GPa) = 32.55090 35.63968 34.09529
#
# Velocity S-wave (km/s) = 3.77453 3.94956 3.86304
# Velocity P-wave (km/s) = 6.13925 6.32493 6.23278
#
# Compressibility (1/GPa) = 0.02341290
#
# Stress axis : x y z
#
# Youngs Moduli (GPa) = 74.05827 109.54106 89.77005
#
# Poissons Ratio (x) = 0.22783 0.22064
# Poissons Ratio (y) = 0.15403 0.05759
# Poissons Ratio (z) = 0.18203 0.07027
#
# Static dielectric constant tensor:
#      x y z
#    x 3.999010 0.000000 -0.130830 
#    y 0.000000 4.129580 0.000000 
#    z -0.130830 0.000000 4.384730 
# 
# 
# High freq. dielectric constant tensor:
#      x y z
#    x 1.899080 0.000000 -0.003700 
#    y 0.000000 1.906360 0.000000 
#    z -0.003700 0.000000 1.926260 
# 
# From -- ./inp_files/12253.got.cif
#   From: 2010.03.12/outbox.cif.g09.slc.cpg/sg4_7_cif.got.tgz:12253.got - 2010.03.31 09:31:35.
