data_PCOD8047098
_publ_section_title
;
Structure prediction by ZEFSAII (Michael W. Deem and Ramdas Pophale) SiO2 
 PCOD8047098
Probable space group: P 21
;
_chemical_formula_sum "Si O2"
_cell_formula_units_Z 16
_cell_length_a 5.499039
_cell_length_b 7.296260
_cell_length_c 18.084134
_cell_angle_alpha 90.000000
_cell_angle_beta 116.457989
_cell_angle_gamma 90.000000
_cell_volume 649.582958
_symmetry_space_group_name_H-M "P 21"
_symmetry_group_IT_number 4
_symmetry_cell_setting 'monoclinic'
loop_
_space_group_symop_operation_xyz
x,y,z
-x,1/2+y,-z
loop_
_atom_site_type_symbol
_atom_site_label
_atom_site_fract_x
_atom_site_fract_y
_atom_site_fract_z
Si Si1 0.386424 0.302950 0.704670
Si Si2 0.609043 0.230453 0.445782
Si Si3 0.762031 0.728013 0.975293
Si Si4 0.450978 0.082151 0.914827
Si Si5 0.882171 0.477789 0.256300
Si Si6 0.409092 0.616620 0.398080
Si Si7 0.972557 0.129314 0.355977
Si Si8 0.745076 0.386739 0.878857
O O1 0.336462 0.100121 0.729163
O O2 0.439661 0.284225 0.623369
O O3 0.118955 0.427589 0.683017
O O4 0.656656 0.390482 0.780485
O O5 0.615255 0.449788 0.440968
O O6 0.723499 0.182158 0.542783
O O7 0.821235 0.155105 0.414603
O O8 0.298894 0.150625 0.401335
O O9 0.677975 0.925267 0.932274
O O10 0.814500 0.594458 0.912948
O O11 0.552276 0.613076 0.997404
O O12 0.007763 0.753540 0.066375
O O13 0.181081 0.995121 0.839930
O O14 0.496497 0.283855 0.886354
O O15 0.846011 0.270552 0.279785
O O16 0.184099 0.545362 0.311086
#
# Coordination Sequence:
#
# PCOD8047098 Si02
#       8
#     2   2   2   2   2   2   2   2
#     4  11  24  43  70  95 138 178 231 282 352 413
#     4  11  26  43  74 101 142 183 234 289 347 413
#     4  12  22  42  65 100 132 178 227 280 342 406
#     4  11  23  41  67  95 136 174 227 282 341 407
#     4  10  24  45  65  97 139 178 227 285 349 414
#     4  11  24  44  68 102 135 180 228 288 348 417
#     4  11  25  47  67 107 137 186 234 285 347 415
#     4  11  24  41  66  99 131 179 224 283 342 407
#
# _framework density 24.631188000000002
#
# number of rings (size 3 to 8) (size 9 to 14) (size 15 to 20)
#    0.000    1.000    3.750    2.250    5.250    0.000 
#    0.000    1.250    0.000    0.000    0.000    0.000 
#    0.000    0.000    0.000    0.000    0.000    0.000 
#
# Total GULP energy -198288.619584 kJ/mol
# GULP energy per Si atom -12393.038724 kJ/mol
# Density = 2.457513 g / cm^3
# Si number density = 24.631188 Si / 1000 Ang^3
#
#
#
# Elastic Constant Matrix: (Units=GPa)
#
#
# Indices 1 2 3 4 5 6 
#
# 1 55.9078 9.6505 1.9944 0.0000 0.3568 0.0000
# 2 9.6505 105.1513 27.3561 0.0000 -0.3248 0.0000
# 3 1.9944 27.3561 78.3512 0.0000 -0.3086 0.0000
# 4 0.0000 0.0000 0.0000 37.7029 0.0000 2.5095
# 5 0.3568 -0.3248 -0.3086 0.0000 29.8057 0.0000
# 6 0.0000 0.0000 0.0000 2.5095 0.0000 35.8892
#
#
#
# Elastic Compliance Matrix: (Units=1/GPa)
#
#
# Indices 1 2 3 4 5 6 
#
# 1 0.018177 -0.001703 0.000131 0.000000 -0.000235 0.000000
# 2 -0.001703 0.010620 -0.003664 0.000000 0.000098 0.000000
# 3 0.000131 -0.003664 0.014039 0.000000 0.000104 0.000000
# 4 0.000000 0.000000 0.000000 0.026647 0.000000 -0.001863
# 5 -0.000235 0.000098 0.000104 0.000000 0.033556 0.000000
# 6 0.000000 0.000000 0.000000 -0.001863 0.000000 0.027994
#
#
# Mechanical properties :
#
#
# Convention : Reuss Voigt Hill
#
# Bulk Modulus (GPa) = 30.89823 35.26802 33.08312
# Shear Modulus (GPa) = 32.83122 34.04018 33.43570
#
# Velocity S-wave (km/s) = 3.65487 3.72155 3.68836
# Velocity P-wave (km/s) = 5.51202 5.72854 5.62132
#
# Compressibility (1/GPa) = 0.03236432
#
# Stress axis : x y z
#
# Youngs Moduli (GPa) = 55.01337 94.16204 71.22775
#
# Poissons Ratio (x) = 0.16037 -0.00933
# Poissons Ratio (y) = 0.09369 0.26099
# Poissons Ratio (z) = -0.00721 0.34503
#
# Static dielectric constant tensor:
#      x y z
#    x 4.018850 0.000000 0.085980 
#    y 0.000000 4.523490 0.000000 
#    z 0.085980 0.000000 4.629260 
# 
# 
# High freq. dielectric constant tensor:
#      x y z
#    x 1.951630 0.000000 0.006920 
#    y 0.000000 1.991940 0.000000 
#    z 0.006920 0.000000 1.986370 
# 
# From -- ./inp_files/4106.got.cif
#   From: 2010.03.12/outbox.cif.g09.slc.cpg/sg4_3_cif.got.tgz:4106.got - 2010.03.31 09:31:35.
