data_PCOD8047367
_publ_section_title
;
Structure prediction by ZEFSAII (Michael W. Deem and Ramdas Pophale) SiO2 
 PCOD8047367
Probable space group: P 21
;
_chemical_formula_sum "Si O2"
_cell_formula_units_Z 14
_cell_length_a 9.596433
_cell_length_b 9.265966
_cell_length_c 11.063136
_cell_angle_alpha 90.000000
_cell_angle_beta 139.280677
_cell_angle_gamma 90.000000
_cell_volume 641.744493
_symmetry_space_group_name_H-M "P 21"
_symmetry_group_IT_number 4
_symmetry_cell_setting 'monoclinic'
loop_
_space_group_symop_operation_xyz
x,y,z
-x,1/2+y,-z
loop_
_atom_site_type_symbol
_atom_site_label
_atom_site_fract_x
_atom_site_fract_y
_atom_site_fract_z
Si Si1 0.644560 0.955060 0.561943
Si Si2 0.712048 0.426129 0.053235
Si Si3 0.958241 0.707090 0.818548
Si Si4 0.732866 0.997382 0.348592
Si Si5 0.009797 0.651341 0.126728
Si Si6 0.814958 0.421756 0.633384
Si Si7 0.850472 0.322293 0.395312
O O1 0.756197 0.800519 0.643942
O O2 0.660049 0.018479 0.437918
O O3 0.398986 0.943378 0.431954
O O4 0.764505 0.067100 0.729230
O O5 0.840397 0.568771 0.099410
O O6 0.725679 0.402496 0.205750
O O7 0.817670 0.290075 0.052570
O O8 0.465431 0.445444 0.861525
O O9 0.954541 0.567602 0.729653
O O10 0.923750 0.663973 0.934744
O O11 0.902256 0.868055 0.447990
O O12 0.829018 0.149780 0.366798
O O13 0.035349 0.806330 0.203057
O O14 0.751881 0.376911 0.456550
#
# Coordination Sequence:
#
# PCOD8047367 Si02
#       7
#     2   2   2   2   2   2   2
#     4  11  23  46  69 103 147 190 238 301 365 417
#     4  11  26  49  72 104 148 194 234 304 365 428
#     4  11  23  43  71 108 145 184 247 294 355 433
#     4  12  26  52  75  99 147 195 241 302 364 427
#     4  11  22  44  71 104 147 185 243 303 353 423
#     4  12  24  41  74 107 141 193 240 300 361 430
#     4  12  26  49  72 109 145 191 247 296 361 446
#
# _framework density 21.815536000000002
#
# number of rings (size 3 to 8) (size 9 to 14) (size 15 to 20)
#    0.000    0.571    4.286    5.143    2.000    2.286 
#    5.143    0.000    0.000    0.000    0.000    0.000 
#    0.000    0.000    0.000    0.000    0.000    0.000 
#
# Total GULP energy -173676.910987 kJ/mol
# GULP energy per Si atom -12405.493642 kJ/mol
# Density = 2.176588 g / cm^3
# Si number density = 21.815536 Si / 1000 Ang^3
#
#
#
# Elastic Constant Matrix: (Units=GPa)
#
#
# Indices 1 2 3 4 5 6 
#
# 1 97.0556 40.1482 43.3561 0.0000 -2.9434 0.0000
# 2 40.1482 153.8080 64.0913 0.0000 10.5949 0.0000
# 3 43.3561 64.0913 145.7775 0.0000 3.6422 0.0000
# 4 0.0000 0.0000 0.0000 25.6457 0.0000 -14.1327
# 5 -2.9434 10.5949 3.6422 0.0000 48.9801 0.0000
# 6 0.0000 0.0000 0.0000 -14.1327 0.0000 25.3072
#
#
#
# Elastic Compliance Matrix: (Units=1/GPa)
#
#
# Indices 1 2 3 4 5 6 
#
# 1 0.012502 -0.002201 -0.002786 0.000000 0.001435 0.000000
# 2 -0.002201 0.008454 -0.003019 0.000000 -0.001736 0.000000
# 3 -0.002786 -0.003019 0.009020 0.000000 -0.000185 0.000000
# 4 0.000000 0.000000 0.000000 0.056327 0.000000 0.031456
# 5 0.001435 -0.001736 -0.000185 0.000000 0.020892 0.000000
# 6 0.000000 0.000000 0.000000 0.031456 0.000000 0.057081
#
#
# Mechanical properties :
#
#
# Convention : Reuss Voigt Hill
#
# Bulk Modulus (GPa) = 71.61433 76.87024 74.24229
# Shear Modulus (GPa) = 27.03535 36.58963 31.81249
#
# Velocity S-wave (km/s) = 3.52415 4.09984 3.82285
# Velocity P-wave (km/s) = 7.03264 7.59767 7.32060
#
# Compressibility (1/GPa) = 0.01396369
#
# Stress axis : x y z
#
# Youngs Moduli (GPa) = 79.98633 118.29235 110.86175
#
# Poissons Ratio (x) = 0.26038 0.30890
# Poissons Ratio (y) = 0.17606 0.33465
# Poissons Ratio (z) = 0.22287 0.35708
#
# Static dielectric constant tensor:
#      x y z
#    x 3.947200 0.000000 -0.179660 
#    y 0.000000 4.161110 0.000000 
#    z -0.179660 0.000000 4.043410 
# 
# 
# High freq. dielectric constant tensor:
#      x y z
#    x 1.857350 0.000000 -0.011940 
#    y 0.000000 1.872530 0.000000 
#    z -0.011940 0.000000 1.861310 
# 
# From -- ./inp_files/10782.got.cif
#   From: 2010.03.12/outbox.cif.g09.slc.cpg/sg4_6_cif.got.tgz:10782.got - 2010.03.31 09:31:35.
