data_PCOD8047070
_publ_section_title
;
Structure prediction by ZEFSAII (Michael W. Deem and Ramdas Pophale) SiO2 
 PCOD8047070
Probable space group: P 21
;
_chemical_formula_sum "Si O2"
_cell_formula_units_Z 14
_cell_length_a 11.495298
_cell_length_b 7.925789
_cell_length_c 11.495299
_cell_angle_alpha 90.000000
_cell_angle_beta 139.314225
_cell_angle_gamma 90.000000
_cell_volume 682.764232
_symmetry_space_group_name_H-M "P 21"
_symmetry_group_IT_number 4
_symmetry_cell_setting 'monoclinic'
loop_
_space_group_symop_operation_xyz
x,y,z
-x,1/2+y,-z
loop_
_atom_site_type_symbol
_atom_site_label
_atom_site_fract_x
_atom_site_fract_y
_atom_site_fract_z
Si Si1 0.601095 0.204750 0.550295
Si Si2 0.949359 0.047079 0.898462
Si Si3 0.993708 0.206183 0.160337
Si Si4 0.485648 0.941601 0.849749
Si Si5 0.660544 0.545517 0.493864
Si Si6 0.355483 0.126032 0.144157
Si Si7 0.650205 0.310335 0.014294
O O1 0.798664 0.125797 0.700797
O O2 0.634204 0.403397 0.571849
O O3 0.498408 0.176252 0.595429
O O4 0.480530 0.140629 0.351872
O O5 0.928026 0.848394 0.865603
O O6 0.904268 0.075700 0.001170
O O7 0.147674 0.111401 0.018821
O O8 0.146323 0.125638 0.353285
O O9 0.859567 0.286377 0.151084
O O10 0.627374 0.795169 0.922687
O O11 0.348813 0.965304 0.640347
O O12 0.565584 0.126033 0.934079
O O13 0.373953 0.875945 0.873957
O O14 0.422518 0.956914 0.127222
#
# Coordination Sequence:
#
# PCOD8047070 Si02
#       7
#     2   2   2   2   2   2   2
#     4  11  23  39  66  99 143 169 218 275 349 403
#     4  11  23  39  66  99 143 169 218 275 349 403
#     4  11  24  41  65 101 136 174 223 279 344 408
#     4  11  24  44  70  92 132 182 235 273 337 395
#     4  11  24  41  65 101 136 174 223 279 344 408
#     4  10  24  44  64 104 134 174 224 286 330 412
#     4  11  24  44  70  92 132 182 235 273 337 395
#
# _framework density 20.504881999999998
#
# number of rings (size 3 to 8) (size 9 to 14) (size 15 to 20)
#    0.000    1.143    2.857    2.571   12.000    0.000 
#    0.000    7.143    0.000    0.000    0.000    0.000 
#    0.000    0.000    0.000    0.000    0.000    0.000 
#
# Total GULP energy -173537.728220 kJ/mol
# GULP energy per Si atom -12395.552016 kJ/mol
# Density = 2.045821 g / cm^3
# Si number density = 20.504882 Si / 1000 Ang^3
#
#
#
# Elastic Constant Matrix: (Units=GPa)
#
#
# Indices 1 2 3 4 5 6 
#
# 1 105.0910 39.0519 40.6602 0.0000 -1.3466 0.0000
# 2 39.0519 125.1987 37.7837 0.0000 0.2400 0.0000
# 3 40.6602 37.7837 121.3147 0.0000 9.1627 0.0000
# 4 0.0000 0.0000 0.0000 33.0940 0.0000 6.5268
# 5 -1.3466 0.2400 9.1627 0.0000 34.8094 0.0000
# 6 0.0000 0.0000 0.0000 6.5268 0.0000 17.4468
#
#
#
# Elastic Compliance Matrix: (Units=1/GPa)
#
#
# Indices 1 2 3 4 5 6 
#
# 1 0.011779 -0.002710 -0.003203 0.000000 0.001318 0.000000
# 2 -0.002710 0.009455 -0.002065 0.000000 0.000373 0.000000
# 3 -0.003203 -0.002065 0.010170 0.000000 -0.002787 0.000000
# 4 0.000000 0.000000 0.000000 0.032624 0.000000 -0.012204
# 5 0.001318 0.000373 -0.002787 0.000000 0.029510 0.000000
# 6 0.000000 0.000000 0.000000 -0.012204 0.000000 0.061883
#
#
# Mechanical properties :
#
#
# Convention : Reuss Voigt Hill
#
# Bulk Modulus (GPa) = 64.73269 65.17732 64.95500
# Shear Modulus (GPa) = 28.32452 32.67730 30.50091
#
# Velocity S-wave (km/s) = 3.72069 3.99637 3.86099
# Velocity P-wave (km/s) = 7.07785 7.29039 7.18491
#
# Compressibility (1/GPa) = 0.01544815
#
# Stress axis : x y z
#
# Youngs Moduli (GPa) = 84.89826 105.76473 98.32637
#
# Poissons Ratio (x) = 0.28660 0.31497
# Poissons Ratio (y) = 0.23006 0.20302
# Poissons Ratio (z) = 0.27196 0.21838
#
# Static dielectric constant tensor:
#      x y z
#    x 3.704600 0.000000 -0.028630 
#    y 0.000000 4.212280 0.000000 
#    z -0.028630 0.000000 3.633540 
# 
# 
# High freq. dielectric constant tensor:
#      x y z
#    x 1.793240 0.000000 -0.000460 
#    y 0.000000 1.831320 0.000000 
#    z -0.000460 0.000000 1.792070 
# 
# From -- ./inp_files/11961.got.cif
#   From: 2010.03.12/outbox.cif.g09.slc.cpg/sg4_6_cif.got.tgz:11961.got - 2010.03.31 09:31:35.
