data_PCOD8047695
_publ_section_title
;
Structure prediction by ZEFSAII (Michael W. Deem and Ramdas Pophale) SiO2 
 PCOD8047695
Probable space group: P 21
;
_chemical_formula_sum "Si O2"
_cell_formula_units_Z 16
_cell_length_a 8.388392
_cell_length_b 8.494267
_cell_length_c 10.098078
_cell_angle_alpha 90.000000
_cell_angle_beta 81.980469
_cell_angle_gamma 90.000000
_cell_volume 712.484286
_symmetry_space_group_name_H-M "P 21"
_symmetry_group_IT_number 4
_symmetry_cell_setting 'monoclinic'
loop_
_space_group_symop_operation_xyz
x,y,z
-x,1/2+y,-z
loop_
_atom_site_type_symbol
_atom_site_label
_atom_site_fract_x
_atom_site_fract_y
_atom_site_fract_z
Si Si1 0.081531 0.423170 0.373703
Si Si2 0.806872 0.208066 0.500058
Si Si3 0.320739 0.208350 0.186826
Si Si4 0.834471 0.135769 0.992630
Si Si5 0.864929 0.590747 0.193727
Si Si6 0.675346 0.292534 0.240907
Si Si7 0.306662 0.855212 0.218993
Si Si8 0.667179 0.829488 0.090531
O O1 0.172848 0.520859 0.477466
O O2 0.204381 0.344083 0.256515
O O3 0.978960 0.287779 0.454430
O O4 0.970597 0.553776 0.311731
O O5 0.690602 0.234575 0.389276
O O6 0.722135 0.280699 0.636303
O O7 0.499786 0.244598 0.216136
O O8 0.253486 0.037582 0.235705
O O9 0.330721 0.201061 0.026724
O O10 0.787873 0.259276 0.882826
O O11 0.015987 0.073571 0.947412
O O12 0.820263 0.215051 0.138465
O O13 0.714382 0.989537 0.011614
O O14 0.708229 0.477725 0.215029
O O15 0.790022 0.767596 0.191504
O O16 0.495172 0.851661 0.173111
#
# Coordination Sequence:
#
# PCOD8047695 Si02
#       8
#     2   2   2   2   2   2   2   2
#     4  11  25  50  71 105 143 193 236 299 358 433
#     4  11  26  48  70 103 146 190 236 292 361 434
#     4  12  25  46  73 106 143 188 242 301 357 425
#     4  12  23  47  70 107 142 184 243 294 360 421
#     4  11  25  42  71 104 140 186 235 298 356 423
#     4  11  26  45  69 107 145 183 242 292 361 429
#     4  12  24  46  73 102 146 191 237 294 364 428
#     4  12  24  42  73 108 143 185 239 298 363 417
#
# _framework density 22.456636
#
# number of rings (size 3 to 8) (size 9 to 14) (size 15 to 20)
#    0.000    0.500    5.000    2.250    5.250    2.000 
#    6.750    0.000    0.000    0.000    0.000    0.000 
#    0.000    0.000    0.000    0.000    0.000    0.000 
#
# Total GULP energy -198363.497173 kJ/mol
# GULP energy per Si atom -12397.718573 kJ/mol
# Density = 2.240552 g / cm^3
# Si number density = 22.456636 Si / 1000 Ang^3
#
#
#
# Elastic Constant Matrix: (Units=GPa)
#
#
# Indices 1 2 3 4 5 6 
#
# 1 73.1064 46.1867 24.3753 0.0000 0.9761 0.0000
# 2 46.1867 95.8877 43.6036 0.0000 5.9522 0.0000
# 3 24.3753 43.6036 113.7889 0.0000 -0.2827 0.0000
# 4 0.0000 0.0000 0.0000 31.1702 0.0000 -0.2521
# 5 0.9761 5.9522 -0.2827 0.0000 27.5848 0.0000
# 6 0.0000 0.0000 0.0000 -0.2521 0.0000 36.6982
#
#
#
# Elastic Compliance Matrix: (Units=1/GPa)
#
#
# Indices 1 2 3 4 5 6 
#
# 1 0.019755 -0.009292 -0.000668 0.000000 0.001299 0.000000
# 2 -0.009292 0.017217 -0.004615 0.000000 -0.003433 0.000000
# 3 -0.000668 -0.004615 0.010703 0.000000 0.001129 0.000000
# 4 0.000000 0.000000 0.000000 0.032084 0.000000 0.000220
# 5 0.001299 -0.003433 0.001129 0.000000 0.036958 0.000000
# 6 0.000000 0.000000 0.000000 0.000220 0.000000 0.027251
#
#
# Mechanical properties :
#
#
# Convention : Reuss Voigt Hill
#
# Bulk Modulus (GPa) = 53.98655 56.79046 55.38850
# Shear Modulus (GPa) = 27.88748 30.33178 29.10963
#
# Velocity S-wave (km/s) = 3.52779 3.67915 3.60427
# Velocity P-wave (km/s) = 6.37858 6.58726 6.48376
#
# Compressibility (1/GPa) = 0.01852313
#
# Stress axis : x y z
#
# Youngs Moduli (GPa) = 50.62105 58.08342 93.43503
#
# Poissons Ratio (x) = 0.53973 0.06239
# Poissons Ratio (y) = 0.47039 0.43123
# Poissons Ratio (z) = 0.03380 0.26807
#
# Static dielectric constant tensor:
#      x y z
#    x 3.997690 0.000000 -0.176420 
#    y 0.000000 4.372380 0.000000 
#    z -0.176420 0.000000 4.307010 
# 
# 
# High freq. dielectric constant tensor:
#      x y z
#    x 1.884770 0.000000 -0.010870 
#    y 0.000000 1.896200 0.000000 
#    z -0.010870 0.000000 1.886500 
# 
# From -- ./inp_files/5607.got.cif
#   From: 2010.03.12/outbox.cif.g09.slc.cpg/sg4_3_cif.got.tgz:5607.got - 2010.03.31 09:31:35.
