data_PCOD8047968
_publ_section_title
;
Structure prediction by ZEFSAII (Michael W. Deem and Ramdas Pophale) SiO2 
 PCOD8047968
Probable space group: P 21
;
_chemical_formula_sum "Si O2"
_cell_formula_units_Z 16
_cell_length_a 28.402229
_cell_length_b 5.167120
_cell_length_c 9.030313
_cell_angle_alpha 90.000000
_cell_angle_beta 150.727793
_cell_angle_gamma 90.000000
_cell_volume 648.002304
_symmetry_space_group_name_H-M "P 21"
_symmetry_group_IT_number 4
_symmetry_cell_setting 'monoclinic'
loop_
_space_group_symop_operation_xyz
x,y,z
-x,1/2+y,-z
loop_
_atom_site_type_symbol
_atom_site_label
_atom_site_fract_x
_atom_site_fract_y
_atom_site_fract_z
Si Si1 0.509649 0.013990 0.431837
Si Si2 0.053917 0.834247 0.121861
Si Si3 0.693756 0.143230 0.778818
Si Si4 0.087739 0.906372 0.891387
Si Si5 0.271176 0.663394 0.443422
Si Si6 0.786934 0.503692 0.254601
Si Si7 0.679833 0.659715 0.236497
Si Si8 0.875849 0.789923 0.247250
O O1 0.522306 0.236906 0.591012
O O2 0.610600 0.968692 0.623498
O O3 0.432978 0.113393 0.101068
O O4 0.153626 0.793093 0.485711
O O5 0.071561 0.988139 0.016211
O O6 0.012800 0.547966 0.978954
O O7 0.664385 0.206571 0.528157
O O8 0.797011 0.010067 0.049723
O O9 0.707508 0.390156 0.923562
O O10 0.985500 0.883676 0.528173
O O11 0.149487 0.114066 0.965272
O O12 0.156128 0.646887 0.082229
O O13 0.306174 0.416436 0.629560
O O14 0.277283 0.916595 0.560519
O O15 0.731141 0.692141 0.216444
O O16 0.869839 0.642183 0.387214
#
# Coordination Sequence:
#
# PCOD8047968 Si02
#       8
#     2   2   2   2   2   2   2   2
#     4  12  27  51  84 117 153 203 261 330 397 469
#     4  12  28  44  70 106 146 200 257 315 377 452
#     4  12  28  50  78 109 158 202 263 327 400 468
#     4  12  26  47  75 109 165 208 266 318 402 465
#     4  12  28  48  75 114 159 202 251 326 395 465
#     4  12  26  46  75 106 150 197 266 318 386 466
#     4  12  28  49  79 116 151 200 263 323 396 474
#     4  12  27  47  74 113 156 212 267 323 385 487
#
# _framework density 24.691272000000001
#
# number of rings (size 3 to 8) (size 9 to 14) (size 15 to 20)
#    0.000    0.000    5.000    3.750    5.250    1.000 
#    0.000    0.000    0.000    0.000    0.000    0.000 
#    0.000    0.000    0.000    0.000    0.000    0.000 
#
# Total GULP energy -198317.824433 kJ/mol
# GULP energy per Si atom -12394.864027 kJ/mol
# Density = 2.463507 g / cm^3
# Si number density = 24.691272 Si / 1000 Ang^3
#
#
#
# Elastic Constant Matrix: (Units=GPa)
#
#
# Indices 1 2 3 4 5 6 
#
# 1 147.9722 26.8114 23.1992 0.0000 -27.9520 0.0000
# 2 26.8114 86.8287 5.8401 0.0000 -13.2169 0.0000
# 3 23.1992 5.8401 86.9425 0.0000 -6.6103 0.0000
# 4 0.0000 0.0000 0.0000 32.0250 0.0000 -5.7299
# 5 -27.9520 -13.2169 -6.6103 0.0000 14.5347 0.0000
# 6 0.0000 0.0000 0.0000 -5.7299 0.0000 33.2521
#
#
#
# Elastic Compliance Matrix: (Units=1/GPa)
#
#
# Indices 1 2 3 4 5 6 
#
# 1 0.010767 -0.000204 -0.001346 0.000000 0.019908 0.000000
# 2 -0.000204 0.013371 0.000053 0.000000 0.011791 0.000000
# 3 -0.001346 0.000053 0.012082 0.000000 0.002955 0.000000
# 4 0.000000 0.000000 0.000000 0.032219 0.000000 0.005552
# 5 0.019908 0.011791 0.002955 0.000000 0.119153 0.000000
# 6 0.000000 0.000000 0.000000 0.005552 0.000000 0.031030
#
#
# Mechanical properties :
#
#
# Convention : Reuss Voigt Hill
#
# Bulk Modulus (GPa) = 30.09644 48.16055 39.12850
# Shear Modulus (GPa) = 21.48782 33.68855 27.58818
#
# Velocity S-wave (km/s) = 2.95322 3.69777 3.34627
# Velocity P-wave (km/s) = 4.88305 6.14645 5.55081
#
# Compressibility (1/GPa) = 0.03322652
#
# Stress axis : x y z
#
# Youngs Moduli (GPa) = 92.88012 74.78824 82.76758
#
# Poissons Ratio (x) = 0.01523 0.11137
# Poissons Ratio (y) = 0.01892 -0.00436
# Poissons Ratio (z) = 0.12498 -0.00394
#
# Static dielectric constant tensor:
#      x y z
#    x 5.111160 0.000000 -0.212980 
#    y 0.000000 4.285610 0.000000 
#    z -0.212980 0.000000 4.552530 
# 
# 
# High freq. dielectric constant tensor:
#      x y z
#    x 2.006310 0.000000 -0.011170 
#    y 0.000000 1.962720 0.000000 
#    z -0.011170 0.000000 1.985880 
# 
# From -- ./inp_files/8700.got.cif
#   From: 2010.03.12/outbox.cif.g09.slc.cpg/sg4_5_cif.got.tgz:8700.got - 2010.03.31 09:31:35.
