data_PCOD8047563
_publ_section_title
;
Structure prediction by ZEFSAII (Michael W. Deem and Ramdas Pophale) SiO2 
 PCOD8047563
Probable space group: P 21
;
_chemical_formula_sum "Si O2"
_cell_formula_units_Z 16
_cell_length_a 17.188901
_cell_length_b 6.501476
_cell_length_c 6.696604
_cell_angle_alpha 90.000000
_cell_angle_beta 89.770974
_cell_angle_gamma 90.000000
_cell_volume 748.361130
_symmetry_space_group_name_H-M "P 21"
_symmetry_group_IT_number 4
_symmetry_cell_setting 'monoclinic'
loop_
_space_group_symop_operation_xyz
x,y,z
-x,1/2+y,-z
loop_
_atom_site_type_symbol
_atom_site_label
_atom_site_fract_x
_atom_site_fract_y
_atom_site_fract_z
Si Si1 0.831215 0.306080 0.453026
Si Si2 0.680878 0.048509 0.556734
Si Si3 0.334297 0.225975 0.112892
Si Si4 0.080873 0.861600 0.148434
Si Si5 0.422365 0.936466 0.410872
Si Si6 0.415988 0.281174 0.715081
Si Si7 0.816543 0.628868 0.124934
Si Si8 0.088718 0.520625 0.841380
O O1 0.761493 0.153200 0.502021
O O2 0.868529 0.387520 0.654607
O O3 0.799664 0.501849 0.328230
O O4 0.898264 0.188520 0.330637
O O5 0.611317 0.210885 0.560771
O O6 0.687653 0.936043 0.771466
O O7 0.659837 0.883881 0.386095
O O8 0.366554 0.059286 0.264351
O O9 0.401122 0.271602 0.950735
O O10 0.260176 0.124091 0.008335
O O11 0.088582 0.632103 0.057455
O O12 0.991717 0.906506 0.200575
O O13 0.111443 0.029513 0.992867
O O14 0.508456 0.921025 0.319813
O O15 0.427856 0.053493 0.623012
O O16 0.840035 0.861899 0.172604
#
# Coordination Sequence:
#
# PCOD8047563 Si02
#       8
#     2   2   2   2   2   2   2   2
#     4  11  26  41  69  98 129 178 220 270 330 393
#     4  11  24  46  65  98 134 175 219 272 329 392
#     4  11  26  41  69  98 129 178 220 270 330 393
#     4  11  24  43  67  98 136 174 221 275 326 389
#     4  11  24  42  67  98 135 175 220 275 327 386
#     4  11  24  43  67  98 136 174 221 275 326 389
#     4  11  24  46  65  98 134 175 219 272 329 392
#     4  11  24  42  67  98 135 175 220 275 327 386
#
# _framework density 21.380054999999999
#
# number of rings (size 3 to 8) (size 9 to 14) (size 15 to 20)
#    0.000    1.000    2.500    3.000    3.500    8.000 
#    0.000    0.000    0.000    0.000    0.000    0.000 
#    0.000    0.000    0.000    0.000    0.000    0.000 
#
# Total GULP energy -198504.491235 kJ/mol
# GULP energy per Si atom -12406.530702 kJ/mol
# Density = 2.133139 g / cm^3
# Si number density = 21.380055 Si / 1000 Ang^3
#
#
#
# Elastic Constant Matrix: (Units=GPa)
#
#
# Indices 1 2 3 4 5 6 
#
# 1 84.0391 15.8021 13.2864 0.0000 2.4909 0.0000
# 2 15.8021 98.4978 27.0890 0.0000 0.0801 0.0000
# 3 13.2864 27.0890 76.0900 0.0000 -1.4225 0.0000
# 4 0.0000 0.0000 0.0000 29.2904 0.0000 0.2473
# 5 2.4909 0.0801 -1.4225 0.0000 36.4485 0.0000
# 6 0.0000 0.0000 0.0000 0.2473 0.0000 43.7538
#
#
#
# Elastic Compliance Matrix: (Units=1/GPa)
#
#
# Indices 1 2 3 4 5 6 
#
# 1 0.012478 -0.001549 -0.001644 0.000000 -0.000913 0.000000
# 2 -0.001549 0.011448 -0.003806 0.000000 -0.000068 0.000000
# 3 -0.001644 -0.003806 0.014798 0.000000 0.000698 0.000000
# 4 0.000000 0.000000 0.000000 0.034142 0.000000 -0.000193
# 5 -0.000913 -0.000068 0.000698 0.000000 0.027526 0.000000
# 6 0.000000 0.000000 0.000000 -0.000193 0.000000 0.022856
#
#
# Mechanical properties :
#
#
# Convention : Reuss Voigt Hill
#
# Bulk Modulus (GPa) = 40.44692 41.22021 40.83357
# Shear Modulus (GPa) = 34.36708 35.39519 34.88113
#
# Velocity S-wave (km/s) = 4.01363 4.07323 4.04354
# Velocity P-wave (km/s) = 6.35910 6.43764 6.39849
#
# Compressibility (1/GPa) = 0.02472376
#
# Stress axis : x y z
#
# Youngs Moduli (GPa) = 80.14425 87.35240 67.57817
#
# Poissons Ratio (x) = 0.13529 0.11113
# Poissons Ratio (y) = 0.12412 0.25723
# Poissons Ratio (z) = 0.13179 0.33250
#
# Static dielectric constant tensor:
#      x y z
#    x 3.809400 0.000000 -0.085030 
#    y 0.000000 3.975920 0.000000 
#    z -0.085030 0.000000 3.849130 
# 
# 
# High freq. dielectric constant tensor:
#      x y z
#    x 1.851160 0.000000 -0.003650 
#    y 0.000000 1.847680 0.000000 
#    z -0.003650 0.000000 1.838820 
# 
# From -- ./inp_files/3943.got.cif
#   From: 2010.03.12/outbox.cif.g09.slc.cpg/sg4_2_cif.got.tgz:3943.got - 2010.03.31 09:31:35.
