data_PCOD8047181
_publ_section_title
;
Structure prediction by ZEFSAII (Michael W. Deem and Ramdas Pophale) SiO2 
 PCOD8047181
Probable space group: P 21
;
_chemical_formula_sum "Si O2"
_cell_formula_units_Z 16
_cell_length_a 8.867674
_cell_length_b 8.598987
_cell_length_c 8.831729
_cell_angle_alpha 90.000000
_cell_angle_beta 112.170430
_cell_angle_gamma 90.000000
_cell_volume 623.655036
_symmetry_space_group_name_H-M "P 21"
_symmetry_group_IT_number 4
_symmetry_cell_setting 'monoclinic'
loop_
_space_group_symop_operation_xyz
x,y,z
-x,1/2+y,-z
loop_
_atom_site_type_symbol
_atom_site_label
_atom_site_fract_x
_atom_site_fract_y
_atom_site_fract_z
Si Si1 0.576529 0.591220 0.927832
Si Si2 0.779849 0.411938 0.226922
Si Si3 0.681707 0.864965 0.546105
Si Si4 0.325880 0.883121 0.308623
Si Si5 0.215151 0.356014 0.074214
Si Si6 0.249812 0.605696 0.671684
Si Si7 0.885234 0.570419 0.541626
Si Si8 0.885734 0.199614 0.993523
O O1 0.646877 0.525610 0.796830
O O2 0.637961 0.771479 0.963314
O O3 0.381653 0.564902 0.853160
O O4 0.628732 0.502645 0.098856
O O5 0.722967 0.291290 0.336525
O O6 0.892266 0.531310 0.363774
O O7 0.872186 0.314996 0.132367
O O8 0.494349 0.817738 0.442924
O O9 0.717159 0.890538 0.733859
O O10 0.802223 0.738129 0.521165
O O11 0.716624 0.027824 0.475904
O O12 0.240842 0.743070 0.186505
O O13 0.210096 0.945061 0.396155
O O14 0.147680 0.518102 0.979033
O O15 0.071592 0.225361 0.011847
O O16 0.070370 0.572057 0.669833
#
# Coordination Sequence:
#
# PCOD8047181 Si02
#       8
#     2   2   2   2   2   2   2   2
#     4  10  25  50  72 106 151 198 248 302 370 454
#     4  11  27  46  70 108 155 192 245 300 385 443
#     4  11  27  48  74 112 145 198 252 311 371 444
#     4  10  25  47  76 109 143 195 260 306 368 440
#     4  12  25  45  79 104 150 192 258 303 375 436
#     4  11  26  47  73 110 155 191 249 304 383 444
#     4  12  25  47  78 107 154 193 245 318 369 447
#     4  11  26  46  72 112 145 197 249 312 371 452
#
# _framework density 25.655207000000001
#
# number of rings (size 3 to 8) (size 9 to 14) (size 15 to 20)
#    0.000    1.000    1.250    3.750    7.000    5.000 
#    2.250    0.000    0.000    0.000    0.000    0.000 
#    0.000    0.000    0.000    0.000    0.000    0.000 
#
# Total GULP energy -198322.409529 kJ/mol
# GULP energy per Si atom -12395.150596 kJ/mol
# Density = 2.559681 g / cm^3
# Si number density = 25.655207 Si / 1000 Ang^3
#
#
#
# Elastic Constant Matrix: (Units=GPa)
#
#
# Indices 1 2 3 4 5 6 
#
# 1 133.5259 47.5064 65.7335 0.0000 40.8501 0.0000
# 2 47.5064 110.1231 48.3474 0.0000 5.6776 0.0000
# 3 65.7335 48.3474 138.2415 0.0000 24.4910 0.0000
# 4 0.0000 0.0000 0.0000 44.4204 0.0000 0.7009
# 5 40.8501 5.6776 24.4910 0.0000 43.5254 0.0000
# 6 0.0000 0.0000 0.0000 0.7009 0.0000 27.7273
#
#
#
# Elastic Compliance Matrix: (Units=1/GPa)
#
#
# Indices 1 2 3 4 5 6 
#
# 1 0.013726 -0.003936 -0.003286 0.000000 -0.010519 0.000000
# 2 -0.003936 0.011881 -0.002958 0.000000 0.003809 0.000000
# 3 -0.003286 -0.002958 0.010237 0.000000 -0.002290 0.000000
# 4 0.000000 0.000000 0.000000 0.022521 0.000000 -0.000569
# 5 -0.010519 0.003809 -0.002290 0.000000 0.033639 0.000000
# 6 0.000000 0.000000 0.000000 -0.000569 0.000000 0.036080
#
#
# Mechanical properties :
#
#
# Convention : Reuss Voigt Hill
#
# Bulk Modulus (GPa) = 64.59153 78.34058 71.46606
# Shear Modulus (GPa) = 32.55076 37.82150 35.18613
#
# Velocity S-wave (km/s) = 3.56585 3.84373 3.70740
# Velocity P-wave (km/s) = 6.49501 7.09233 6.80024
#
# Compressibility (1/GPa) = 0.01548191
#
# Stress axis : x y z
#
# Youngs Moduli (GPa) = 72.85641 84.16666 97.68795
#
# Poissons Ratio (x) = 0.33128 0.32104
# Poissons Ratio (y) = 0.28676 0.28901
# Poissons Ratio (z) = 0.23943 0.24900
#
# Static dielectric constant tensor:
#      x y z
#    x 4.481410 0.000000 0.339520 
#    y 0.000000 4.768360 0.000000 
#    z 0.339520 0.000000 4.785740 
# 
# 
# High freq. dielectric constant tensor:
#      x y z
#    x 2.016470 0.000000 0.017760 
#    y 0.000000 2.028240 0.000000 
#    z 0.017760 0.000000 2.043870 
# 
# From -- ./inp_files/5854.got.cif
#   From: 2010.03.12/outbox.cif.g09.slc.cpg/sg4_3_cif.got.tgz:5854.got - 2010.03.31 09:31:35.
