data_PCOD8047209
_publ_section_title
;
Structure prediction by ZEFSAII (Michael W. Deem and Ramdas Pophale) SiO2 
 PCOD8047209
Probable space group: P 21
;
_chemical_formula_sum "Si O2"
_cell_formula_units_Z 16
_cell_length_a 13.513635
_cell_length_b 8.741741
_cell_length_c 5.146174
_cell_angle_alpha 90.000000
_cell_angle_beta 98.579404
_cell_angle_gamma 90.000000
_cell_volume 601.128705
_symmetry_space_group_name_H-M "P 21"
_symmetry_group_IT_number 4
_symmetry_cell_setting 'monoclinic'
loop_
_space_group_symop_operation_xyz
x,y,z
-x,1/2+y,-z
loop_
_atom_site_type_symbol
_atom_site_label
_atom_site_fract_x
_atom_site_fract_y
_atom_site_fract_z
Si Si1 0.317193 0.799120 0.843459
Si Si2 0.360954 0.466940 0.866552
Si Si3 0.863632 0.903995 0.063625
Si Si4 0.832036 0.463990 0.593681
Si Si5 0.877353 0.235519 0.006347
Si Si6 0.375660 0.004909 0.284962
Si Si7 0.058541 0.258842 0.406434
Si Si8 0.541209 0.833960 0.602501
O O1 0.373590 0.644183 0.777180
O O2 0.229584 0.863889 0.631379
O O3 0.243452 0.736614 0.042257
O O4 0.390183 0.925330 0.006236
O O5 0.249651 0.410310 0.880691
O O6 0.404433 0.365577 0.648894
O O7 0.420937 0.442442 0.155156
O O8 0.924019 0.872741 0.351208
O O9 0.880060 0.783122 0.840035
O O10 0.905679 0.060767 0.952010
O O11 0.906803 0.357494 0.795589
O O12 0.740824 0.544430 0.721904
O O13 0.901993 0.591598 0.487659
O O14 0.939917 0.274307 0.295467
O O15 0.443817 0.156231 0.318267
O O16 0.421332 0.881036 0.519923
#
# Coordination Sequence:
#
# PCOD8047209 Si02
#       8
#     2   2   2   2   2   2   2   2
#     4  10  26  46  74 100 152 194 245 307 375 441
#     4  11  26  48  74 106 145 196 249 303 376 439
#     4  11  26  46  70 106 143 191 244 311 368 445
#     4  11  26  47  72 105 151 197 238 314 372 443
#     4  10  26  44  71 104 143 195 247 301 373 444
#     4  11  27  47  72 112 149 194 249 307 379 435
#     4  12  27  44  75 106 149 190 250 305 371 450
#     4  12  28  46  80 109 148 195 252 312 364 457
#
# _framework density 26.616595
#
# number of rings (size 3 to 8) (size 9 to 14) (size 15 to 20)
#    0.000    1.000    0.000    3.750   22.750    0.000 
#    0.000    0.000    0.000    0.000    0.000    0.000 
#    0.000    0.000    0.000    0.000    0.000    0.000 
#
# Total GULP energy -198283.641245 kJ/mol
# GULP energy per Si atom -12392.727578 kJ/mol
# Density = 2.655601 g / cm^3
# Si number density = 26.616595 Si / 1000 Ang^3
#
#
#
# Elastic Constant Matrix: (Units=GPa)
#
#
# Indices 1 2 3 4 5 6 
#
# 1 100.4960 30.0365 33.3161 0.0000 21.2546 0.0000
# 2 30.0365 127.8717 46.9561 0.0000 27.6170 0.0000
# 3 33.3161 46.9561 136.9350 0.0000 21.7330 0.0000
# 4 0.0000 0.0000 0.0000 51.8333 0.0000 17.5682
# 5 21.2546 27.6170 21.7330 0.0000 38.4624 0.0000
# 6 0.0000 0.0000 0.0000 17.5682 0.0000 18.9801
#
#
#
# Elastic Compliance Matrix: (Units=1/GPa)
#
#
# Indices 1 2 3 4 5 6 
#
# 1 0.011873 -0.001116 -0.001749 0.000000 -0.004772 0.000000
# 2 -0.001116 0.010089 -0.002347 0.000000 -0.005301 0.000000
# 3 -0.001749 -0.002347 0.008911 0.000000 -0.002384 0.000000
# 4 0.000000 0.000000 0.000000 0.028112 0.000000 -0.026021
# 5 -0.004772 -0.005301 -0.002384 0.000000 0.033790 0.000000
# 6 0.000000 0.000000 0.000000 -0.026021 0.000000 0.076772
#
#
# Mechanical properties :
#
#
# Convention : Reuss Voigt Hill
#
# Bulk Modulus (GPa) = 48.89876 65.10222 57.00049
# Shear Modulus (GPa) = 26.76836 38.85476 32.81156
#
# Velocity S-wave (km/s) = 3.17472 3.82487 3.51486
# Velocity P-wave (km/s) = 5.64357 6.63465 6.15908
#
# Compressibility (1/GPa) = 0.02045042
#
# Stress axis : x y z
#
# Youngs Moduli (GPa) = 84.22348 99.11515 112.21786
#
# Poissons Ratio (x) = 0.11064 0.19623
# Poissons Ratio (y) = 0.09402 0.26334
# Poissons Ratio (z) = 0.14728 0.23259
#
# Static dielectric constant tensor:
#      x y z
#    x 5.485990 0.000000 0.043680 
#    y 0.000000 4.926860 0.000000 
#    z 0.043680 0.000000 4.709130 
# 
# 
# High freq. dielectric constant tensor:
#      x y z
#    x 2.097150 0.000000 0.006360 
#    y 0.000000 2.070910 0.000000 
#    z 0.006360 0.000000 2.071900 
# 
# From -- ./inp_files/3723.got.cif
#   From: 2010.03.12/outbox.cif.g09.slc.cpg/sg4_2_cif.got.tgz:3723.got - 2010.03.31 09:31:35.
