data_PCOD8047049
_publ_section_title
;
Structure prediction by ZEFSAII (Michael W. Deem and Ramdas Pophale) SiO2 
 PCOD8047049
Probable space group: P 21
;
_chemical_formula_sum "Si O2"
_cell_formula_units_Z 12
_cell_length_a 12.072704
_cell_length_b 8.339975
_cell_length_c 8.080194
_cell_angle_alpha 90.000000
_cell_angle_beta 142.867397
_cell_angle_gamma 90.000000
_cell_volume 491.116743
_symmetry_space_group_name_H-M "P 21"
_symmetry_group_IT_number 4
_symmetry_cell_setting 'monoclinic'
loop_
_space_group_symop_operation_xyz
x,y,z
-x,1/2+y,-z
loop_
_atom_site_type_symbol
_atom_site_label
_atom_site_fract_x
_atom_site_fract_y
_atom_site_fract_z
Si Si1 0.831462 0.906410 0.483000
Si Si2 0.884936 0.842222 0.064593
Si Si3 0.532538 0.332927 0.784633
Si Si4 0.121247 0.626165 0.161096
Si Si5 0.101719 0.713791 0.625776
Si Si6 0.524572 0.666065 0.602122
O O1 0.619086 0.864270 0.255533
O O2 0.945637 0.744665 0.579131
O O3 0.912949 0.992467 0.739713
O O4 0.857620 0.025062 0.353802
O O5 0.955378 0.752754 0.978688
O O6 0.037049 0.798668 0.379929
O O7 0.681720 0.778679 0.871322
O O8 0.876845 0.032810 0.014422
O O9 0.562555 0.482691 0.696371
O O10 0.470880 0.186403 0.592391
O O11 0.716057 0.303413 0.102330
O O12 0.319725 0.712354 0.422141
#
# Coordination Sequence:
#
# PCOD8047049 Si02
#       6
#     2   2   2   2   2   2
#     4  10  24  47  66 103 141 184 233 286 356 421
#     4  11  24  44  69 102 139 187 235 290 345 420
#     4  11  25  46  71 107 142 185 238 292 352 422
#     4  10  24  42  69 101 135 185 240 279 348 418
#     4  11  26  44  72 104 147 181 234 296 356 413
#     4  11  23  45  71 101 142 184 238 285 345 424
#
# _framework density 24.434107999999998
#
# number of rings (size 3 to 8) (size 9 to 14) (size 15 to 20)
#    0.000    1.333    3.333    2.000    7.000    5.333 
#    3.000    0.000    0.000    0.000    0.000    0.000 
#    0.000    0.000    0.000    0.000    0.000    0.000 
#
# Total GULP energy -148764.482132 kJ/mol
# GULP energy per Si atom -12397.040178 kJ/mol
# Density = 2.437849 g / cm^3
# Si number density = 24.434108 Si / 1000 Ang^3
#
#
#
# Elastic Constant Matrix: (Units=GPa)
#
#
# Indices 1 2 3 4 5 6 
#
# 1 113.6964 54.3992 33.3873 0.0000 24.4897 0.0000
# 2 54.3992 97.0535 42.7018 0.0000 21.8577 0.0000
# 3 33.3873 42.7018 134.3106 0.0000 18.8274 0.0000
# 4 0.0000 0.0000 0.0000 24.3570 0.0000 -3.9301
# 5 24.4897 21.8577 18.8274 0.0000 29.4841 0.0000
# 6 0.0000 0.0000 0.0000 -3.9301 0.0000 57.2489
#
#
#
# Elastic Compliance Matrix: (Units=1/GPa)
#
#
# Indices 1 2 3 4 5 6 
#
# 1 0.013005 -0.005629 -0.000564 0.000000 -0.006268 0.000000
# 2 -0.005629 0.015933 -0.002928 0.000000 -0.005266 0.000000
# 3 -0.000564 -0.002928 0.008948 0.000000 -0.003074 0.000000
# 4 0.000000 0.000000 0.000000 0.041516 0.000000 0.002850
# 5 -0.006268 -0.005266 -0.003074 0.000000 0.044990 0.000000
# 6 0.000000 0.000000 0.000000 0.002850 0.000000 0.017663
#
#
# Mechanical properties :
#
#
# Convention : Reuss Voigt Hill
#
# Bulk Modulus (GPa) = 50.91121 67.33745 59.12433
# Shear Modulus (GPa) = 29.96788 36.52280 33.24534
#
# Velocity S-wave (km/s) = 3.50591 3.87039 3.69265
# Velocity P-wave (km/s) = 6.10491 6.89868 6.51390
#
# Compressibility (1/GPa) = 0.01964204
#
# Stress axis : x y z
#
# Youngs Moduli (GPa) = 76.89623 62.76211 111.76199
#
# Poissons Ratio (x) = 0.35330 0.06307
# Poissons Ratio (y) = 0.43286 0.32725
# Poissons Ratio (z) = 0.04340 0.18378
#
# Static dielectric constant tensor:
#      x y z
#    x 4.680280 0.000000 0.019740 
#    y 0.000000 4.535550 0.000000 
#    z 0.019740 0.000000 4.280800 
# 
# 
# High freq. dielectric constant tensor:
#      x y z
#    x 1.975640 0.000000 0.003730 
#    y 0.000000 1.964840 0.000000 
#    z 0.003730 0.000000 1.974180 
# 
# From -- ./inp_files/8075.got.cif
#   From: 2010.03.12/outbox.cif.g09.slc.cpg/sg4_5_cif.got.tgz:8075.got - 2010.03.31 09:31:35.
