data_PCOD8047053
_publ_section_title
;
Structure prediction by ZEFSAII (Michael W. Deem and Ramdas Pophale) SiO2 
 PCOD8047053
Probable space group: P 21
;
_chemical_formula_sum "Si O2"
_cell_formula_units_Z 16
_cell_length_a 13.486986
_cell_length_b 5.153374
_cell_length_c 12.090044
_cell_angle_alpha 90.000000
_cell_angle_beta 132.400219
_cell_angle_gamma 90.000000
_cell_volume 620.521981
_symmetry_space_group_name_H-M "P 21"
_symmetry_group_IT_number 4
_symmetry_cell_setting 'monoclinic'
loop_
_space_group_symop_operation_xyz
x,y,z
-x,1/2+y,-z
loop_
_atom_site_type_symbol
_atom_site_label
_atom_site_fract_x
_atom_site_fract_y
_atom_site_fract_z
Si Si1 0.090897 0.136210 0.056141
Si Si2 0.304809 0.417464 0.345056
Si Si3 0.449484 0.540092 0.787348
Si Si4 0.716814 0.709951 0.998442
Si Si5 0.488907 0.147706 0.645980
Si Si6 0.708147 0.197289 0.133118
Si Si7 0.925543 0.401629 0.464598
Si Si8 0.250622 0.768285 0.483182
O O1 0.207890 0.179527 0.236377
O O2 0.981256 0.365110 0.975835
O O3 0.164211 0.128373 0.992877
O O4 0.437553 0.368344 0.519935
O O5 0.360996 0.555337 0.275667
O O6 0.205492 0.607467 0.340698
O O7 0.496385 0.253843 0.778663
O O8 0.420037 0.579222 0.896202
O O9 0.307005 0.578070 0.620457
O O10 0.565712 0.748439 0.831616
O O11 0.763808 0.966457 0.097389
O O12 0.672031 0.459840 0.039890
O O13 0.371842 0.946120 0.538141
O O14 0.824441 0.277619 0.302463
O O15 0.872098 0.420685 0.551246
O O16 0.952445 0.694925 0.444340
#
# Coordination Sequence:
#
# PCOD8047053 Si02
#       8
#     2   2   2   2   2   2   2   2
#     4  12  31  51  73 104 154 211 256 301 364 453
#     4  11  25  44  74 111 146 191 248 318 376 450
#     4  10  25  41  75 107 146 183 233 313 384 449
#     4  12  26  47  74 105 146 198 243 301 364 448
#     4  11  23  43  75 112 143 185 245 317 394 435
#     4  11  26  46  72 110 143 186 246 299 375 451
#     4  11  26  46  72 100 141 192 246 307 363 433
#     4  10  24  42  71 105 141 186 241 310 380 433
#
# _framework density 25.784742999999999
#
# number of rings (size 3 to 8) (size 9 to 14) (size 15 to 20)
#    0.000    1.000    1.250    3.000   17.500    3.000 
#    0.000    0.000    0.000    0.000    0.000    0.000 
#    0.000    0.000    0.000    0.000    0.000    0.000 
#
# Total GULP energy -198275.104958 kJ/mol
# GULP energy per Si atom -12392.194060 kJ/mol
# Density = 2.572606 g / cm^3
# Si number density = 25.784743 Si / 1000 Ang^3
#
#
#
# Elastic Constant Matrix: (Units=GPa)
#
#
# Indices 1 2 3 4 5 6 
#
# 1 141.8515 9.2422 9.2691 0.0000 -5.9293 0.0000
# 2 9.2422 72.3883 -7.6196 0.0000 -5.5909 0.0000
# 3 9.2691 -7.6196 34.2727 0.0000 9.0051 0.0000
# 4 0.0000 0.0000 0.0000 31.3627 0.0000 4.2280
# 5 -5.9293 -5.5909 9.0051 0.0000 27.4307 0.0000
# 6 0.0000 0.0000 0.0000 4.2280 0.0000 43.5769
#
#
#
# Elastic Compliance Matrix: (Units=1/GPa)
#
#
# Indices 1 2 3 4 5 6 
#
# 1 0.007402 -0.001066 -0.002848 0.000000 0.002318 0.000000
# 2 -0.001066 0.014402 0.003042 0.000000 0.001707 0.000000
# 3 -0.002848 0.003042 0.033514 0.000000 -0.010998 0.000000
# 4 0.000000 0.000000 0.000000 0.032308 0.000000 -0.003135
# 5 0.002318 0.001707 -0.010998 0.000000 0.040915 0.000000
# 6 0.000000 0.000000 0.000000 -0.003135 0.000000 0.023252
#
#
# Mechanical properties :
#
#
# Convention : Reuss Voigt Hill
#
# Bulk Modulus (GPa) = 18.66550 30.03289 24.34920
# Shear Modulus (GPa) = 29.17247 36.31545 32.74396
#
# Velocity S-wave (km/s) = 3.36726 3.75695 3.56743
# Velocity P-wave (km/s) = 4.72996 5.52199 5.14125
#
# Compressibility (1/GPa) = 0.05357478
#
# Stress axis : x y z
#
# Youngs Moduli (GPa) = 135.09803 69.43258 29.83844
#
# Poissons Ratio (x) = 0.07400 0.08497
# Poissons Ratio (y) = 0.14399 -0.09076
# Poissons Ratio (z) = 0.38473 -0.21120
#
# Static dielectric constant tensor:
#      x y z
#    x 4.916000 0.000000 -0.059490 
#    y 0.000000 4.869910 0.000000 
#    z -0.059490 0.000000 4.951950 
# 
# 
# High freq. dielectric constant tensor:
#      x y z
#    x 2.041540 0.000000 -0.007760 
#    y 0.000000 2.032820 0.000000 
#    z -0.007760 0.000000 2.026520 
# 
# From -- ./inp_files/11664.got.cif
#   From: 2010.03.12/outbox.cif.g09.slc.cpg/sg4_6_cif.got.tgz:11664.got - 2010.03.31 09:31:35.
