data_PCOD8047728
_publ_section_title
;
Structure prediction by ZEFSAII (Michael W. Deem and Ramdas Pophale) SiO2 
 PCOD8047728
Probable space group: P 21
;
_chemical_formula_sum "Si O2"
_cell_formula_units_Z 12
_cell_length_a 14.652164
_cell_length_b 4.742879
_cell_length_c 7.985038
_cell_angle_alpha 90.000000
_cell_angle_beta 51.921269
_cell_angle_gamma 90.000000
_cell_volume 436.803428
_symmetry_space_group_name_H-M "P 21"
_symmetry_group_IT_number 4
_symmetry_cell_setting 'monoclinic'
loop_
_space_group_symop_operation_xyz
x,y,z
-x,1/2+y,-z
loop_
_atom_site_type_symbol
_atom_site_label
_atom_site_fract_x
_atom_site_fract_y
_atom_site_fract_z
Si Si1 0.025409 0.794900 0.576290
Si Si2 0.261799 0.093963 0.376137
Si Si3 0.057769 0.957659 0.014222
Si Si4 0.477902 0.194576 0.746251
Si Si5 0.615954 0.083314 0.894528
Si Si6 0.318085 0.937791 0.665727
O O1 0.052317 0.555147 0.405463
O O2 0.139216 0.940741 0.519916
O O3 0.956707 0.624873 0.796589
O O4 0.268132 0.396959 0.279530
O O5 0.307389 0.136330 0.514229
O O6 0.347884 0.906516 0.164162
O O7 0.188040 0.830692 0.853131
O O8 0.027304 0.185939 0.901524
O O9 0.518582 0.008180 0.861005
O O10 0.364860 0.085007 0.779158
O O11 0.587074 0.201169 0.493773
O O12 0.436722 0.503046 0.864137
#
# Coordination Sequence:
#
# PCOD8047728 Si02
#       6
#     2   2   2   2   2   2
#     4  12  27  49  78 115 152 202 264 318 388 458
#     4  11  25  47  74 109 155 203 247 326 375 460
#     4  12  28  53  79 115 157 207 257 321 393 461
#     4  11  25  49  77 119 154 209 257 320 388 465
#     4  11  25  46  75 110 155 197 258 309 388 452
#     4  11  26  46  79 110 159 200 261 314 390 458
#
# _framework density 27.472313
#
# number of rings (size 3 to 8) (size 9 to 14) (size 15 to 20)
#    0.000    0.667    1.667    5.000    7.000    2.667 
#    0.000    0.000    0.000    0.000    0.000    0.000 
#    0.000    0.000    0.000    0.000    0.000    0.000 
#
# Total GULP energy -148686.396545 kJ/mol
# GULP energy per Si atom -12390.533045 kJ/mol
# Density = 2.740979 g / cm^3
# Si number density = 27.472313 Si / 1000 Ang^3
#
#
#
# Elastic Constant Matrix: (Units=GPa)
#
#
# Indices 1 2 3 4 5 6 
#
# 1 150.8345 24.4471 42.6681 0.0000 1.1745 0.0000
# 2 24.4471 72.8031 4.1218 0.0000 3.4194 0.0000
# 3 42.6681 4.1218 103.2279 0.0000 -9.3582 0.0000
# 4 0.0000 0.0000 0.0000 45.7781 0.0000 1.9443
# 5 1.1745 3.4194 -9.3582 0.0000 45.8857 0.0000
# 6 0.0000 0.0000 0.0000 1.9443 0.0000 29.7303
#
#
#
# Elastic Compliance Matrix: (Units=1/GPa)
#
#
# Indices 1 2 3 4 5 6 
#
# 1 0.007953 -0.002454 -0.003251 0.000000 -0.000684 0.000000
# 2 -0.002454 0.014585 0.000346 0.000000 -0.000954 0.000000
# 3 -0.003251 0.000346 0.011230 0.000000 0.002348 0.000000
# 4 0.000000 0.000000 0.000000 0.021905 0.000000 -0.001433
# 5 -0.000684 -0.000954 0.002348 0.000000 0.022361 0.000000
# 6 0.000000 0.000000 0.000000 -0.001433 0.000000 0.033729
#
#
# Mechanical properties :
#
#
# Convention : Reuss Voigt Hill
#
# Bulk Modulus (GPa) = 43.38720 52.14885 47.76802
# Shear Modulus (GPa) = 38.41266 41.32071 39.86669
#
# Velocity S-wave (km/s) = 3.74335 3.88246 3.81354
# Velocity P-wave (km/s) = 5.87460 6.25472 6.06764
#
# Compressibility (1/GPa) = 0.02304827
#
# Stress axis : x y z
#
# Youngs Moduli (GPa) = 125.74562 68.56344 89.04605
#
# Poissons Ratio (x) = 0.16827 0.28950
# Poissons Ratio (y) = 0.30861 -0.03078
# Poissons Ratio (z) = 0.40881 -0.02370
#
# Static dielectric constant tensor:
#      x y z
#    x 5.154600 0.000000 0.140510 
#    y 0.000000 4.918090 0.000000 
#    z 0.140510 0.000000 4.915390 
# 
# 
# High freq. dielectric constant tensor:
#      x y z
#    x 2.113020 0.000000 0.000360 
#    y 0.000000 2.096580 0.000000 
#    z 0.000360 0.000000 2.119960 
# 
# From -- ./inp_files/8898.got.cif
#   From: 2010.03.12/outbox.cif.g09.slc.cpg/sg4_5_cif.got.tgz:8898.got - 2010.03.31 09:31:35.
