data_PCOD8047092
_publ_section_title
;
Structure prediction by ZEFSAII (Michael W. Deem and Ramdas Pophale) SiO2 
 PCOD8047092
Probable space group: P 21
;
_chemical_formula_sum "Si O2"
_cell_formula_units_Z 10
_cell_length_a 9.464291
_cell_length_b 9.285534
_cell_length_c 5.037745
_cell_angle_alpha 90.000000
_cell_angle_beta 107.735505
_cell_angle_gamma 90.000000
_cell_volume 421.680750
_symmetry_space_group_name_H-M "P 21"
_symmetry_group_IT_number 4
_symmetry_cell_setting 'monoclinic'
loop_
_space_group_symop_operation_xyz
x,y,z
-x,1/2+y,-z
loop_
_atom_site_type_symbol
_atom_site_label
_atom_site_fract_x
_atom_site_fract_y
_atom_site_fract_z
Si Si1 0.426155 0.460640 0.503632
Si Si2 0.889841 0.624751 0.305645
Si Si3 0.234046 0.979305 0.254015
Si Si4 0.188669 0.652181 0.205246
Si Si5 0.262382 0.404077 0.914775
O O1 0.598976 0.473549 0.543684
O O2 0.347545 0.618666 0.435605
O O3 0.343477 0.357163 0.238547
O O4 0.396500 0.403488 0.780750
O O5 0.863860 0.564196 0.585432
O O6 0.057360 0.589045 0.314791
O O7 0.772729 0.556293 0.033163
O O8 0.863251 0.796402 0.266069
O O9 0.168718 0.821197 0.156756
O O10 0.185856 0.562046 0.923540
#
# Coordination Sequence:
#
# PCOD8047092 Si02
#       5
#     2   2   2   2   2
#     4  10  25  45  72  97 143 182 240 284 350 415
#     4  12  27  44  73 105 146 183 238 293 360 421
#     4  12  28  45  74 108 139 191 239 292 357 426
#     4  10  28  44  75 100 148 182 242 285 360 420
#     4  10  24  44  72  96 144 184 229 294 349 412
#
# _framework density 23.714623
#
# number of rings (size 3 to 8) (size 9 to 14) (size 15 to 20)
#    1.200    0.000    0.000    3.600   14.000    0.000 
#    0.000    0.000    0.000    0.000    0.000    0.000 
#    0.000    0.000    0.000    0.000    0.000    0.000 
#
# Total GULP energy -123932.396779 kJ/mol
# GULP energy per Si atom -12393.239678 kJ/mol
# Density = 2.366065 g / cm^3
# Si number density = 23.714623 Si / 1000 Ang^3
#
#
#
# Elastic Constant Matrix: (Units=GPa)
#
#
# Indices 1 2 3 4 5 6 
#
# 1 107.5133 20.5452 2.1826 0.0000 -16.9298 0.0000
# 2 20.5452 126.3950 26.5560 0.0000 -9.7376 0.0000
# 3 2.1826 26.5560 77.7635 0.0000 -31.9241 0.0000
# 4 0.0000 0.0000 0.0000 33.2538 0.0000 2.6732
# 5 -16.9298 -9.7376 -31.9241 0.0000 41.4038 0.0000
# 6 0.0000 0.0000 0.0000 2.6732 0.0000 25.2107
#
#
#
# Elastic Compliance Matrix: (Units=1/GPa)
#
#
# Indices 1 2 3 4 5 6 
#
# 1 0.010549 -0.001840 0.002817 0.000000 0.006053 0.000000
# 2 -0.001840 0.008848 -0.003547 0.000000 -0.001407 0.000000
# 3 0.002817 -0.003547 0.020663 0.000000 0.016249 0.000000
# 4 0.000000 0.000000 0.000000 0.030330 0.000000 -0.003216
# 5 0.006053 -0.001407 0.016249 0.000000 0.038825 0.000000
# 6 0.000000 0.000000 0.000000 -0.003216 0.000000 0.040007
#
#
# Mechanical properties :
#
#
# Convention : Reuss Voigt Hill
#
# Bulk Modulus (GPa) = 28.63827 45.58216 37.11022
# Shear Modulus (GPa) = 30.12011 37.46618 33.79315
#
# Velocity S-wave (km/s) = 3.56772 3.97908 3.77900
# Velocity P-wave (km/s) = 5.39203 6.35402 5.89269
#
# Compressibility (1/GPa) = 0.03491831
#
# Stress axis : x y z
#
# Youngs Moduli (GPa) = 94.79792 113.02283 48.39641
#
# Poissons Ratio (x) = 0.20799 -0.13634
# Poissons Ratio (y) = 0.17445 0.17168
# Poissons Ratio (z) = -0.26706 0.40093
#
# Static dielectric constant tensor:
#      x y z
#    x 4.070760 0.000000 -0.117080 
#    y 0.000000 4.103250 0.000000 
#    z -0.117080 0.000000 4.018310 
# 
# 
# High freq. dielectric constant tensor:
#      x y z
#    x 1.945780 0.000000 -0.005170 
#    y 0.000000 1.925020 0.000000 
#    z -0.005170 0.000000 1.936450 
# 
# From -- ./inp_files/969.got.cif
#   From: 2010.03.12/outbox.cif.g09.slc.cpg/sg4_1_cif.got.tgz:969.got - 2010.03.31 09:31:35.
