data_PCOD8047430
_publ_section_title
;
Structure prediction by ZEFSAII (Michael W. Deem and Ramdas Pophale) SiO2 
 PCOD8047430
Probable space group: P 21
;
_chemical_formula_sum "Si O2"
_cell_formula_units_Z 14
_cell_length_a 11.947304
_cell_length_b 11.722559
_cell_length_c 4.986741
_cell_angle_alpha 90.000000
_cell_angle_beta 52.221842
_cell_angle_gamma 90.000000
_cell_volume 552.013659
_symmetry_space_group_name_H-M "P 21"
_symmetry_group_IT_number 4
_symmetry_cell_setting 'monoclinic'
loop_
_space_group_symop_operation_xyz
x,y,z
-x,1/2+y,-z
loop_
_atom_site_type_symbol
_atom_site_label
_atom_site_fract_x
_atom_site_fract_y
_atom_site_fract_z
Si Si1 0.199590 0.167660 0.396703
Si Si2 0.656672 0.335406 0.009095
Si Si3 0.654499 0.885221 0.701894
Si Si4 0.774874 0.451643 0.346243
Si Si5 0.975125 0.690420 0.835025
Si Si6 0.080182 0.434483 0.047880
Si Si7 0.232747 0.595683 0.203564
O O1 0.306729 0.272792 0.181806
O O2 0.136508 0.126053 0.201472
O O3 0.286339 0.066116 0.419920
O O4 0.072410 0.203058 0.786456
O O5 0.491504 0.363147 0.232726
O O6 0.712720 0.423360 0.148729
O O7 0.733883 0.350464 0.609942
O O8 0.684948 0.203103 0.049236
O O9 0.650381 0.000273 0.887911
O O10 0.777415 0.902589 0.310151
O O11 0.945498 0.473463 0.061716
O O12 0.975291 0.821017 0.714223
O O13 0.133500 0.636951 0.598276
O O14 0.115076 0.540584 0.184527
#
# Coordination Sequence:
#
# PCOD8047430 Si02
#       7
#     2   2   2   2   2   2   2
#     4  11  24  44  75 106 153 188 259 313 383 456
#     4  12  32  48  75 111 164 204 260 314 398 463
#     4  11  29  49  75 113 154 214 256 315 396 471
#     4  12  27  49  75 114 151 201 257 327 384 462
#     4  11  23  41  71 119 139 192 246 325 378 448
#     4  11  25  45  83 111 155 195 269 319 390 461
#     4  12  26  48  80 112 158 206 259 331 389 469
#
# _framework density 25.361689999999999
#
# number of rings (size 3 to 8) (size 9 to 14) (size 15 to 20)
#    0.000    0.571    4.286    1.714   12.000    0.000 
#    0.000    0.000    0.000    0.000    0.000    0.000 
#    0.000    0.000    0.000    0.000    0.000    0.000 
#
# Total GULP energy -173516.083680 kJ/mol
# GULP energy per Si atom -12394.005977 kJ/mol
# Density = 2.530397 g / cm^3
# Si number density = 25.361690 Si / 1000 Ang^3
#
#
#
# Elastic Constant Matrix: (Units=GPa)
#
#
# Indices 1 2 3 4 5 6 
#
# 1 133.9756 30.1483 24.0046 0.0000 -26.8078 0.0000
# 2 30.1483 140.9527 -8.8002 0.0000 -26.0904 0.0000
# 3 24.0046 -8.8002 56.8561 0.0000 -16.4709 0.0000
# 4 0.0000 0.0000 0.0000 27.3993 0.0000 -1.1421
# 5 -26.8078 -26.0904 -16.4709 0.0000 38.4440 0.0000
# 6 0.0000 0.0000 0.0000 -1.1421 0.0000 33.4642
#
#
#
# Elastic Compliance Matrix: (Units=1/GPa)
#
#
# Indices 1 2 3 4 5 6 
#
# 1 0.009121 -0.001344 -0.002832 0.000000 0.004235 0.000000
# 2 -0.001344 0.008876 0.003899 0.000000 0.006757 0.000000
# 3 -0.002832 0.003899 0.022357 0.000000 0.010249 0.000000
# 4 0.000000 0.000000 0.000000 0.036549 0.000000 0.001247
# 5 0.004235 0.006757 0.010249 0.000000 0.037942 0.000000
# 6 0.000000 0.000000 0.000000 0.001247 0.000000 0.029925
#
#
# Mechanical properties :
#
#
# Convention : Reuss Voigt Hill
#
# Bulk Modulus (GPa) = 25.12584 46.94331 36.03457
# Shear Modulus (GPa) = 31.52747 38.95694 35.24220
#
# Velocity S-wave (km/s) = 3.52961 3.92351 3.73176
# Velocity P-wave (km/s) = 5.15164 6.25099 5.72775
#
# Compressibility (1/GPa) = 0.03979967
#
# Stress axis : x y z
#
# Youngs Moduli (GPa) = 109.63347 112.66092 44.72947
#
# Poissons Ratio (x) = 0.15140 0.12668
# Poissons Ratio (y) = 0.14733 -0.17439
# Poissons Ratio (z) = 0.31050 -0.43924
#
# Static dielectric constant tensor:
#      x y z
#    x 4.414460 0.000000 0.027530 
#    y 0.000000 5.640510 0.000000 
#    z 0.027530 0.000000 4.156490 
# 
# 
# High freq. dielectric constant tensor:
#      x y z
#    x 1.999410 0.000000 0.002950 
#    y 0.000000 2.050640 0.000000 
#    z 0.002950 0.000000 1.983080 
# 
# From -- ./inp_files/2803.got.cif
#   From: 2010.03.12/outbox.cif.g09.slc.cpg/sg4_2_cif.got.tgz:2803.got - 2010.03.31 09:31:35.
