data_PCOD8047136
_publ_section_title
;
Structure prediction by ZEFSAII (Michael W. Deem and Ramdas Pophale) SiO2 
 PCOD8047136
Probable space group: P 21
;
_chemical_formula_sum "Si O2"
_cell_formula_units_Z 10
_cell_length_a 7.604258
_cell_length_b 9.701735
_cell_length_c 5.898809
_cell_angle_alpha 90.000000
_cell_angle_beta 111.466319
_cell_angle_gamma 90.000000
_cell_volume 404.994351
_symmetry_space_group_name_H-M "P 21"
_symmetry_group_IT_number 4
_symmetry_cell_setting 'monoclinic'
loop_
_space_group_symop_operation_xyz
x,y,z
-x,1/2+y,-z
loop_
_atom_site_type_symbol
_atom_site_label
_atom_site_fract_x
_atom_site_fract_y
_atom_site_fract_z
Si Si1 0.735008 0.511340 0.746625
Si Si2 0.930488 0.342375 0.471154
Si Si3 0.969083 0.091471 0.764478
Si Si4 0.558344 0.330820 0.032747
Si Si5 0.441806 0.581022 0.244304
O O1 0.887573 0.427619 0.675771
O O2 0.600700 0.410630 0.822183
O O3 0.592720 0.596895 0.518858
O O4 0.863986 0.605264 0.971984
O O5 0.031919 0.201335 0.598965
O O6 0.049377 0.438614 0.354665
O O7 0.743034 0.294168 0.259294
O O8 0.765625 0.129233 0.774255
O O9 0.476266 0.182461 0.915843
O O10 0.427012 0.426037 0.132907
#
# Coordination Sequence:
#
# PCOD8047136 Si02
#       5
#     2   2   2   2   2
#     4  10  24  48  68 108 140 178 240 288 334 430
#     4  10  24  48  70 104 145 177 237 292 336 422
#     4  11  25  49  73 100 145 186 227 292 352 404
#     4  10  24  48  70 104 145 177 237 292 336 422
#     4  11  25  49  73 100 145 186 227 292 352 404
#
# _framework density 24.691701999999999
#
# number of rings (size 3 to 8) (size 9 to 14) (size 15 to 20)
#    0.000    1.600    2.000    0.000    5.600    0.000 
#   28.800    0.000    0.000    0.000    0.000    0.000 
#    0.000    0.000    0.000    0.000    0.000    0.000 
#
# Total GULP energy -123951.749481 kJ/mol
# GULP energy per Si atom -12395.174948 kJ/mol
# Density = 2.463550 g / cm^3
# Si number density = 24.691702 Si / 1000 Ang^3
#
#
#
# Elastic Constant Matrix: (Units=GPa)
#
#
# Indices 1 2 3 4 5 6 
#
# 1 51.6896 -8.1884 -11.9147 0.0000 -6.1430 0.0000
# 2 -8.1884 75.2067 12.6772 0.0000 -2.9986 0.0000
# 3 -11.9147 12.6772 74.1704 0.0000 -21.0884 0.0000
# 4 0.0000 0.0000 0.0000 54.5901 0.0000 -1.1015
# 5 -6.1430 -2.9986 -21.0884 0.0000 18.0552 0.0000
# 6 0.0000 0.0000 0.0000 -1.1015 0.0000 21.3303
#
#
#
# Elastic Compliance Matrix: (Units=1/GPa)
#
#
# Indices 1 2 3 4 5 6 
#
# 1 0.023922 0.001859 0.008874 0.000000 0.018813 0.000000
# 2 0.001859 0.013841 -0.001847 0.000000 0.000774 0.000000
# 3 0.008874 -0.001847 0.023948 0.000000 0.030683 0.000000
# 4 0.000000 0.000000 0.000000 0.018337 0.000000 0.000947
# 5 0.018813 0.000774 0.030683 0.000000 0.097753 0.000000
# 6 0.000000 0.000000 0.000000 0.000947 0.000000 0.046931
#
#
# Mechanical properties :
#
#
# Convention : Reuss Voigt Hill
#
# Bulk Modulus (GPa) = 12.58140 20.69052 16.63596
# Shear Modulus (GPa) = 21.41741 32.69461 27.05601
#
# Velocity S-wave (km/s) = 2.94835 3.64278 3.31381
# Velocity P-wave (km/s) = 4.08617 5.10793 4.62535
#
# Compressibility (1/GPa) = 0.07948239
#
# Stress axis : x y z
#
# Youngs Moduli (GPa) = 41.80251 72.24761 41.75762
#
# Poissons Ratio (x) = -0.13430 -0.37056
# Poissons Ratio (y) = -0.07770 0.07713
# Poissons Ratio (z) = -0.37096 0.13345
#
# Static dielectric constant tensor:
#      x y z
#    x 4.149280 0.000000 -0.319070 
#    y 0.000000 4.378460 0.000000 
#    z -0.319070 0.000000 4.754520 
# 
# 
# High freq. dielectric constant tensor:
#      x y z
#    x 1.957770 0.000000 -0.011400 
#    y 0.000000 1.980740 0.000000 
#    z -0.011400 0.000000 2.005010 
# 
# From -- ./inp_files/903.got.cif
#   From: 2010.03.12/outbox.cif.g09.slc.cpg/sg4_1_cif.got.tgz:903.got - 2010.03.31 09:31:35.
