data_PCOD8047966
_publ_section_title
;
Structure prediction by ZEFSAII (Michael W. Deem and Ramdas Pophale) SiO2 
 PCOD8047966
Probable space group: P 21
;
_chemical_formula_sum "Si O2"
_cell_formula_units_Z 16
_cell_length_a 11.825564
_cell_length_b 5.311409
_cell_length_c 11.975171
_cell_angle_alpha 90.000000
_cell_angle_beta 58.978326
_cell_angle_gamma 90.000000
_cell_volume 644.584965
_symmetry_space_group_name_H-M "P 21"
_symmetry_group_IT_number 4
_symmetry_cell_setting 'monoclinic'
loop_
_space_group_symop_operation_xyz
x,y,z
-x,1/2+y,-z
loop_
_atom_site_type_symbol
_atom_site_label
_atom_site_fract_x
_atom_site_fract_y
_atom_site_fract_z
Si Si1 0.584227 0.332730 0.971906
Si Si2 0.898334 0.602751 0.321389
Si Si3 0.630781 0.463529 0.365887
Si Si4 0.550322 0.327306 0.645511
Si Si5 0.960475 0.097770 0.421816
Si Si6 0.334728 0.636809 0.848001
Si Si7 0.791228 0.325996 0.674249
Si Si8 0.051477 0.527862 0.028665
O O1 0.702955 0.263650 0.826148
O O2 0.521197 0.604839 0.980988
O O3 0.647023 0.345165 0.063975
O O4 0.758739 0.630418 0.328043
O O5 0.910820 0.343743 0.382675
O O6 0.015845 0.609222 0.172090
O O7 0.903570 0.848782 0.394326
O O8 0.547520 0.430284 0.520874
O O9 0.525948 0.564059 0.327075
O O10 0.685771 0.224370 0.270091
O O11 0.468991 0.477145 0.780405
O O12 0.699652 0.331397 0.610798
O O13 0.901250 0.115305 0.580053
O O14 0.121210 0.078370 0.348306
O O15 0.207124 0.469044 0.942589
O O16 0.976930 0.270796 0.034941
#
# Coordination Sequence:
#
# PCOD8047966 Si02
#       8
#     2   2   2   2   2   2   2   2
#     4  12  29  52  81 114 158 213 268 331 403 489
#     4  12  27  51  80 119 163 207 272 332 411 485
#     4  12  26  45  79 115 151 203 254 327 409 472
#     4  12  26  48  78 113 155 203 259 335 399 480
#     4  12  29  51  82 116 160 219 268 346 400 485
#     4  12  27  49  74 111 153 205 259 319 409 474
#     4  12  28  54  81 119 164 215 284 336 414 480
#     4  12  26  46  77 113 160 209 260 324 399 497
#
# _framework density 24.822175000000001
#
# number of rings (size 3 to 8) (size 9 to 14) (size 15 to 20)
#    0.000    0.000    5.000    3.750    3.500    5.000 
#    2.250    0.000    0.000    0.000    0.000    0.000 
#    0.000    0.000    0.000    0.000    0.000    0.000 
#
# Total GULP energy -198254.590380 kJ/mol
# GULP energy per Si atom -12390.911899 kJ/mol
# Density = 2.476568 g / cm^3
# Si number density = 24.822175 Si / 1000 Ang^3
#
#
#
# Elastic Constant Matrix: (Units=GPa)
#
#
# Indices 1 2 3 4 5 6 
#
# 1 106.3846 13.1772 9.6729 0.0000 -24.4648 0.0000
# 2 13.1772 92.4821 10.7220 0.0000 -1.3013 0.0000
# 3 9.6729 10.7220 168.9136 0.0000 -23.8962 0.0000
# 4 0.0000 0.0000 0.0000 36.7866 0.0000 -2.7758
# 5 -24.4648 -1.3013 -23.8962 0.0000 40.5530 0.0000
# 6 0.0000 0.0000 0.0000 -2.7758 0.0000 27.6399
#
#
#
# Elastic Compliance Matrix: (Units=1/GPa)
#
#
# Indices 1 2 3 4 5 6 
#
# 1 0.011145 -0.001542 0.000441 0.000000 0.006934 0.000000
# 2 -0.001542 0.011106 -0.000761 0.000000 -0.001022 0.000000
# 3 0.000441 -0.000761 0.006521 0.000000 0.004084 0.000000
# 4 0.000000 0.000000 0.000000 0.027391 0.000000 0.002751
# 5 0.006934 -0.001022 0.004084 0.000000 0.031216 0.000000
# 6 0.000000 0.000000 0.000000 0.002751 0.000000 0.036456
#
#
# Mechanical properties :
#
#
# Convention : Reuss Voigt Hill
#
# Bulk Modulus (GPa) = 39.92315 48.32494 44.12404
# Shear Modulus (GPa) = 36.78911 43.27645 40.03278
#
# Velocity S-wave (km/s) = 3.85399 4.18001 4.02030
# Velocity P-wave (km/s) = 5.99357 6.54273 6.27416
#
# Compressibility (1/GPa) = 0.02504812
#
# Stress axis : x y z
#
# Youngs Moduli (GPa) = 89.72396 90.03796 153.34991
#
# Poissons Ratio (x) = 0.13880 -0.06756
# Poissons Ratio (y) = 0.13831 0.11675
# Poissons Ratio (z) = -0.03953 0.06855
#
# Static dielectric constant tensor:
#      x y z
#    x 4.829410 0.000000 -0.014510 
#    y 0.000000 4.232990 0.000000 
#    z -0.014510 0.000000 4.829660 
# 
# 
# High freq. dielectric constant tensor:
#      x y z
#    x 2.004310 0.000000 -0.003360 
#    y 0.000000 1.965860 0.000000 
#    z -0.003360 0.000000 2.018000 
# 
# From -- ./inp_files/11732.got.cif
#   From: 2010.03.12/outbox.cif.g09.slc.cpg/sg4_6_cif.got.tgz:11732.got - 2010.03.31 09:31:35.
