data_PCOD8047028
_publ_section_title
;
Structure prediction by ZEFSAII (Michael W. Deem and Ramdas Pophale) SiO2 
 PCOD8047028
Probable space group: P 21
;
_chemical_formula_sum "Si O2"
_cell_formula_units_Z 10
_cell_length_a 10.982805
_cell_length_b 8.759266
_cell_length_c 9.437701
_cell_angle_alpha 90.000000
_cell_angle_beta 151.949511
_cell_angle_gamma 90.000000
_cell_volume 426.948491
_symmetry_space_group_name_H-M "P 21"
_symmetry_group_IT_number 4
_symmetry_cell_setting 'monoclinic'
loop_
_space_group_symop_operation_xyz
x,y,z
-x,1/2+y,-z
loop_
_atom_site_type_symbol
_atom_site_label
_atom_site_fract_x
_atom_site_fract_y
_atom_site_fract_z
Si Si1 0.300864 0.763720 0.698575
Si Si2 0.782740 0.052778 0.857898
Si Si3 0.072862 0.763438 0.753157
Si Si4 0.557374 0.927479 0.197481
Si Si5 0.740539 0.362252 0.648304
O O1 0.079589 0.727147 0.590111
O O2 0.431171 0.607812 0.781785
O O3 0.190680 0.847952 0.448095
O O4 0.517611 0.872274 0.993912
O O5 0.718812 0.194904 0.692288
O O6 0.528116 0.950393 0.608385
O O7 0.886148 0.108733 0.117472
O O8 0.017890 0.952518 0.033576
O O9 0.807019 0.845889 0.521436
O O10 0.310874 0.876528 0.039023
#
# Coordination Sequence:
#
# PCOD8047028 Si02
#       5
#     2   2   2   2   2
#     4  10  26  41  73 101 139 182 238 283 361 411
#     4  12  28  51  72 108 141 195 233 306 341 442
#     4  10  25  40  73  95 146 165 241 283 360 392
#     4  10  24  39  70 101 137 182 225 296 341 431
#     4  12  29  47  78  99 151 184 251 280 371 410
#
# _framework density 23.422027
#
# number of rings (size 3 to 8) (size 9 to 14) (size 15 to 20)
#    1.200    0.000    0.000    3.600   16.800    0.000 
#    0.000    0.000    0.000    0.000    0.000    0.000 
#    0.000    0.000    0.000    0.000    0.000    0.000 
#
# Total GULP energy -123968.378895 kJ/mol
# GULP energy per Si atom -12396.837889 kJ/mol
# Density = 2.336872 g / cm^3
# Si number density = 23.422027 Si / 1000 Ang^3
#
#
#
# Elastic Constant Matrix: (Units=GPa)
#
#
# Indices 1 2 3 4 5 6 
#
# 1 63.0074 14.8752 42.7910 0.0000 -13.3596 0.0000
# 2 14.8752 115.0555 46.4985 0.0000 -11.9051 0.0000
# 3 42.7910 46.4985 129.3382 0.0000 1.1296 0.0000
# 4 0.0000 0.0000 0.0000 46.8572 0.0000 -5.9414
# 5 -13.3596 -11.9051 1.1296 0.0000 27.3730 0.0000
# 6 0.0000 0.0000 0.0000 -5.9414 0.0000 28.7206
#
#
#
# Elastic Compliance Matrix: (Units=1/GPa)
#
#
# Indices 1 2 3 4 5 6 
#
# 1 0.024110 0.001737 -0.008714 0.000000 0.012883 0.000000
# 2 0.001737 0.010901 -0.004544 0.000000 0.005777 0.000000
# 3 -0.008714 -0.004544 0.012307 0.000000 -0.006737 0.000000
# 4 0.000000 0.000000 0.000000 0.021916 0.000000 0.004534
# 5 0.012883 0.005777 -0.006737 0.000000 0.045610 0.000000
# 6 0.000000 0.000000 0.000000 0.004534 0.000000 0.035756
#
#
# Mechanical properties :
#
#
# Convention : Reuss Voigt Hill
#
# Bulk Modulus (GPa) = 41.19109 57.30338 49.24724
# Shear Modulus (GPa) = 27.51249 34.13924 30.82587
#
# Velocity S-wave (km/s) = 3.43102 3.82196 3.63175
# Velocity P-wave (km/s) = 5.77240 6.63289 6.21754
#
# Compressibility (1/GPa) = 0.02427709
#
# Stress axis : x y z
#
# Youngs Moduli (GPa) = 41.47571 91.73376 81.25287
#
# Poissons Ratio (x) = -0.15939 0.70804
# Poissons Ratio (y) = -0.07206 0.36924
# Poissons Ratio (z) = 0.36142 0.41687
#
# Static dielectric constant tensor:
#      x y z
#    x 4.170630 0.000000 -0.146490 
#    y 0.000000 4.051700 0.000000 
#    z -0.146490 0.000000 4.076750 
# 
# 
# High freq. dielectric constant tensor:
#      x y z
#    x 1.920590 0.000000 -0.004730 
#    y 0.000000 1.933990 0.000000 
#    z -0.004730 0.000000 1.927280 
# 
# From -- ./inp_files/4480.got.cif
#   From: 2010.03.12/outbox.cif.g09.slc.cpg/sg4_3_cif.got.tgz:4480.got - 2010.03.31 09:31:35.
