data_PCOD8047221
_publ_section_title
;
Structure prediction by ZEFSAII (Michael W. Deem and Ramdas Pophale) SiO2 
 PCOD8047221
Probable space group: P 21
;
_chemical_formula_sum "Si O2"
_cell_formula_units_Z 16
_cell_length_a 9.098090
_cell_length_b 11.516437
_cell_length_c 9.685553
_cell_angle_alpha 90.000000
_cell_angle_beta 140.463188
_cell_angle_gamma 90.000000
_cell_volume 646.013481
_symmetry_space_group_name_H-M "P 21"
_symmetry_group_IT_number 4
_symmetry_cell_setting 'monoclinic'
loop_
_space_group_symop_operation_xyz
x,y,z
-x,1/2+y,-z
loop_
_atom_site_type_symbol
_atom_site_label
_atom_site_fract_x
_atom_site_fract_y
_atom_site_fract_z
Si Si1 0.742790 0.135050 0.074851
Si Si2 0.380001 0.479458 0.415647
Si Si3 0.000069 0.651727 0.249973
Si Si4 0.499792 0.826280 0.249788
Si Si5 0.742091 0.634976 0.574236
Si Si6 0.619875 0.479645 0.084379
Si Si7 0.267587 0.774843 0.665941
Si Si8 0.267589 0.274649 0.166068
O O1 0.690889 0.176019 0.191806
O O2 0.000297 0.084622 0.250062
O O3 0.553643 0.033023 0.926232
O O4 0.713954 0.237874 0.938881
O O5 0.221434 0.573223 0.377062
O O6 0.532722 0.407180 0.639064
O O7 0.553202 0.532822 0.425829
O O8 0.210948 0.394640 0.206046
O O9 0.054120 0.737310 0.415992
O O10 0.778398 0.573580 0.123172
O O11 0.946436 0.736694 0.083611
O O12 0.713375 0.737713 0.438226
O O13 0.532476 0.907272 0.138856
O O14 0.689274 0.676069 0.690399
O O15 0.788935 0.394886 0.294076
O O16 0.500520 0.789810 0.750792
#
# Coordination Sequence:
#
# PCOD8047221 Si02
#       8
#     2   2   2   2   2   2   2   2
#     4  11  26  49  75 106 150 188 242 304 358 428
#     4  11  26  48  76 106 147 196 238 296 374 419
#     4  12  26  50  74 104 158 186 236 312 354 428
#     4  10  26  50  70 110 146 186 246 300 352 438
#     4  11  26  49  75 106 150 188 242 304 358 428
#     4  11  26  48  76 106 147 196 238 296 374 419
#     4  11  26  49  71 111 144 191 249 290 360 441
#     4  11  26  49  71 111 144 191 249 290 360 441
#
# _framework density 24.767285999999999
#
# number of rings (size 3 to 8) (size 9 to 14) (size 15 to 20)
#    0.000    1.000    2.500    1.500   12.250    0.000 
#   11.250    0.000    0.000    0.000    0.000    0.000 
#    0.000    0.000    0.000    0.000    0.000    0.000 
#
# Total GULP energy -198339.238328 kJ/mol
# GULP energy per Si atom -12396.202395 kJ/mol
# Density = 2.471091 g / cm^3
# Si number density = 24.767286 Si / 1000 Ang^3
#
#
#
# Elastic Constant Matrix: (Units=GPa)
#
#
# Indices 1 2 3 4 5 6 
#
# 1 96.9457 46.3486 36.7773 0.0000 5.7766 0.0000
# 2 46.3486 130.4420 72.5636 0.0000 -8.5012 0.0000
# 3 36.7773 72.5636 148.5062 0.0000 -20.4728 0.0000
# 4 0.0000 0.0000 0.0000 45.0597 0.0000 -6.2272
# 5 5.7766 -8.5012 -20.4728 0.0000 47.7490 0.0000
# 6 0.0000 0.0000 0.0000 -6.2272 0.0000 22.2640
#
#
#
# Elastic Compliance Matrix: (Units=1/GPa)
#
#
# Indices 1 2 3 4 5 6 
#
# 1 0.012995 -0.003835 -0.001759 0.000000 -0.003009 0.000000
# 2 -0.003835 0.011665 -0.004676 0.000000 0.000536 0.000000
# 3 -0.001759 -0.004676 0.009957 0.000000 0.003650 0.000000
# 4 0.000000 0.000000 0.000000 0.023085 0.000000 0.006457
# 5 -0.003009 0.000536 0.003650 0.000000 0.022967 0.000000
# 6 0.000000 0.000000 0.000000 0.006457 0.000000 0.046721
#
#
# Mechanical properties :
#
#
# Convention : Reuss Voigt Hill
#
# Bulk Modulus (GPa) = 71.03835 76.36365 73.70100
# Shear Modulus (GPa) = 32.76010 37.69483 35.22747
#
# Velocity S-wave (km/s) = 3.64086 3.90546 3.77548
# Velocity P-wave (km/s) = 6.81316 7.15795 6.98768
#
# Compressibility (1/GPa) = 0.01407690
#
# Stress axis : x y z
#
# Youngs Moduli (GPa) = 76.95171 85.72546 100.42698
#
# Poissons Ratio (x) = 0.32875 0.17668
# Poissons Ratio (y) = 0.29510 0.46963
# Poissons Ratio (z) = 0.13538 0.40088
#
# Static dielectric constant tensor:
#      x y z
#    x 4.406120 0.000000 -0.364320 
#    y 0.000000 4.631650 0.000000 
#    z -0.364320 0.000000 4.528190 
# 
# 
# High freq. dielectric constant tensor:
#      x y z
#    x 1.972620 0.000000 -0.022500 
#    y 0.000000 1.995160 0.000000 
#    z -0.022500 0.000000 1.989000 
# 
# From -- ./inp_files/1398.got.cif
#   From: 2010.03.12/outbox.cif.g09.slc.cpg/sg4_1_cif.got.tgz:1398.got - 2010.03.31 09:31:35.
