data_PCOD8047717
_publ_section_title
;
Structure prediction by ZEFSAII (Michael W. Deem and Ramdas Pophale) SiO2 
 PCOD8047717
Probable space group: P 21
;
_chemical_formula_sum "Si O2"
_cell_formula_units_Z 10
_cell_length_a 9.572334
_cell_length_b 8.390630
_cell_length_c 8.526227
_cell_angle_alpha 90.000000
_cell_angle_beta 150.594210
_cell_angle_gamma 90.000000
_cell_volume 336.235478
_symmetry_space_group_name_H-M "P 21"
_symmetry_group_IT_number 4
_symmetry_cell_setting 'monoclinic'
loop_
_space_group_symop_operation_xyz
x,y,z
-x,1/2+y,-z
loop_
_atom_site_type_symbol
_atom_site_label
_atom_site_fract_x
_atom_site_fract_y
_atom_site_fract_z
Si Si1 0.396398 0.331790 0.222032
Si Si2 0.135861 0.804587 0.091792
Si Si3 0.879033 0.855798 0.403292
Si Si4 0.118613 0.059332 0.400864
Si Si5 0.633375 0.509265 0.951349
O O1 0.099443 0.378087 0.019356
O O2 0.577379 0.488442 0.347265
O O3 0.351945 0.202940 0.034451
O O4 0.598742 0.238953 0.546334
O O5 0.009760 0.666708 0.860964
O O6 0.249383 0.953247 0.102037
O O7 0.837455 0.668508 0.398102
O O8 0.692424 0.958811 0.340955
O O9 0.874333 0.923364 0.215214
O O10 0.203949 0.910950 0.753633
#
# Coordination Sequence:
#
# PCOD8047717 Si02
#       5
#     2   2   2   2   2
#     4  12  26  47  77 109 150 203 256 313 378 451
#     4  11  26  45  74 111 153 197 251 315 379 452
#     4  11  26  47  74 108 151 198 251 314 378 449
#     4  11  27  49  77 112 153 199 255 314 379 451
#     4  11  25  46  70 106 149 197 251 310 378 449
#
# _framework density 29.741060999999998
#
# number of rings (size 3 to 8) (size 9 to 14) (size 15 to 20)
#    0.000    0.800    0.000    6.000    0.000   19.200 
#    0.000    0.000    0.000    0.000    0.000    0.000 
#    0.000    0.000    0.000    0.000    0.000    0.000 
#
# Total GULP energy -124054.651068 kJ/mol
# GULP energy per Si atom -12405.465107 kJ/mol
# Density = 2.967337 g / cm^3
# Si number density = 29.741061 Si / 1000 Ang^3
#
#
#
# Elastic Constant Matrix: (Units=GPa)
#
#
# Indices 1 2 3 4 5 6 
#
# 1 199.7071 71.8214 46.1093 0.0000 16.1874 0.0000
# 2 71.8214 171.7676 25.0633 0.0000 10.9847 0.0000
# 3 46.1093 25.0633 132.4873 0.0000 9.4064 0.0000
# 4 0.0000 0.0000 0.0000 58.7452 0.0000 7.3120
# 5 16.1874 10.9847 9.4064 0.0000 62.1196 0.0000
# 6 0.0000 0.0000 0.0000 7.3120 0.0000 49.0894
#
#
#
# Elastic Compliance Matrix: (Units=1/GPa)
#
#
# Indices 1 2 3 4 5 6 
#
# 1 0.006315 -0.002332 -0.001687 0.000000 -0.000978 0.000000
# 2 -0.002332 0.006898 -0.000455 0.000000 -0.000543 0.000000
# 3 -0.001687 -0.000455 0.008273 0.000000 -0.000733 0.000000
# 4 0.000000 0.000000 0.000000 0.017344 0.000000 -0.002583
# 5 -0.000978 -0.000543 -0.000733 0.000000 0.016560 0.000000
# 6 0.000000 0.000000 0.000000 -0.002583 0.000000 0.020756
#
#
# Mechanical properties :
#
#
# Convention : Reuss Voigt Hill
#
# Bulk Modulus (GPa) = 79.75549 87.77224 83.76386
# Shear Modulus (GPa) = 56.00839 58.05535 57.03187
#
# Velocity S-wave (km/s) = 4.34429 4.42297 4.38381
# Velocity P-wave (km/s) = 7.21379 7.46055 7.33820
#
# Compressibility (1/GPa) = 0.01253832
#
# Stress axis : x y z
#
# Youngs Moduli (GPa) = 158.36153 144.97227 120.87304
#
# Poissons Ratio (x) = 0.33802 0.20393
# Poissons Ratio (y) = 0.36924 0.05498
# Poissons Ratio (z) = 0.26718 0.06594
#
# Static dielectric constant tensor:
#      x y z
#    x 5.960630 0.000000 -0.560360 
#    y 0.000000 5.509710 0.000000 
#    z -0.560360 0.000000 5.965290 
# 
# 
# High freq. dielectric constant tensor:
#      x y z
#    x 2.255680 0.000000 -0.029930 
#    y 0.000000 2.237220 0.000000 
#    z -0.029930 0.000000 2.246900 
# 
# From -- ./inp_files/11927.got.cif
#   From: 2010.03.12/outbox.cif.g09.slc.cpg/sg4_6_cif.got.tgz:11927.got - 2010.03.31 09:31:35.
