data_PCOD8047424
_publ_section_title
;
Structure prediction by ZEFSAII (Michael W. Deem and Ramdas Pophale) SiO2 
 PCOD8047424
Probable space group: P 21
;
_chemical_formula_sum "Si O2"
_cell_formula_units_Z 16
_cell_length_a 11.846723
_cell_length_b 8.166171
_cell_length_c 15.429651
_cell_angle_alpha 90.000000
_cell_angle_beta 151.399984
_cell_angle_gamma 90.000000
_cell_volume 714.544153
_symmetry_space_group_name_H-M "P 21"
_symmetry_group_IT_number 4
_symmetry_cell_setting 'monoclinic'
loop_
_space_group_symop_operation_xyz
x,y,z
-x,1/2+y,-z
loop_
_atom_site_type_symbol
_atom_site_label
_atom_site_fract_x
_atom_site_fract_y
_atom_site_fract_z
Si Si1 0.303750 0.990880 0.743537
Si Si2 0.987492 0.006254 0.378003
Si Si3 0.551138 0.124080 0.176962
Si Si4 0.877463 0.507493 0.196278
Si Si5 0.964558 0.426689 0.877044
Si Si6 0.767345 0.262370 0.578828
Si Si7 0.315445 0.154886 0.189075
Si Si8 0.210175 0.660864 0.918076
O O1 0.355408 0.806910 0.750492
O O2 0.124765 0.972641 0.703018
O O3 0.178852 0.074542 0.576037
O O4 0.526761 0.097868 0.923116
O O5 0.739187 0.994572 0.263224
O O6 0.958114 0.129292 0.278139
O O7 0.075858 0.835669 0.395290
O O8 0.472277 0.070031 0.220007
O O9 0.324196 0.140752 0.961574
O O10 0.805488 0.356140 0.084903
O O11 0.131493 0.578486 0.340053
O O12 0.794818 0.362509 0.686222
O O13 0.808323 0.503039 0.847427
O O14 0.124709 0.573615 0.947791
O O15 0.125886 0.281556 0.022552
O O16 0.489491 0.254737 0.370843
#
# Coordination Sequence:
#
# PCOD8047424 Si02
#       8
#     2   2   2   2   2   2   2   2
#     4  12  22  42  67 103 148 184 228 294 356 431
#     4  11  23  41  70 102 140 188 227 288 366 427
#     4  12  23  43  69 104 142 187 231 286 362 424
#     4  12  24  39  71 104 144 188 228 285 371 426
#     4  11  27  47  75  98 138 188 245 296 351 409
#     4  11  25  49  71 103 148 180 237 307 351 423
#     4  12  26  51  74 101 142 191 240 300 352 417
#     4  11  24  44  65 103 140 182 238 294 349 425
#
# _framework density 22.391898000000001
#
# number of rings (size 3 to 8) (size 9 to 14) (size 15 to 20)
#    0.000    0.500    6.250    1.500    3.500    2.000 
#    2.250    1.250    0.000    0.000    0.000    0.000 
#    0.000    0.000    0.000    0.000    0.000    0.000 
#
# Total GULP energy -198366.647035 kJ/mol
# GULP energy per Si atom -12397.915440 kJ/mol
# Density = 2.234093 g / cm^3
# Si number density = 22.391898 Si / 1000 Ang^3
#
#
#
# Elastic Constant Matrix: (Units=GPa)
#
#
# Indices 1 2 3 4 5 6 
#
# 1 122.3309 40.6959 17.0369 0.0000 -6.1851 0.0000
# 2 40.6959 69.4196 20.8580 0.0000 -1.5506 0.0000
# 3 17.0369 20.8580 123.8470 0.0000 -16.3667 0.0000
# 4 0.0000 0.0000 0.0000 22.9847 0.0000 3.9353
# 5 -6.1851 -1.5506 -16.3667 0.0000 29.9266 0.0000
# 6 0.0000 0.0000 0.0000 3.9353 0.0000 36.5617
#
#
#
# Elastic Compliance Matrix: (Units=1/GPa)
#
#
# Indices 1 2 3 4 5 6 
#
# 1 0.010256 -0.005918 -0.000188 0.000000 0.001710 0.000000
# 2 -0.005918 0.018599 -0.002536 0.000000 -0.001646 0.000000
# 3 -0.000188 -0.002536 0.009168 0.000000 0.004843 0.000000
# 4 0.000000 0.000000 0.000000 0.044324 0.000000 -0.004771
# 5 0.001710 -0.001646 0.004843 0.000000 0.036332 0.000000
# 6 0.000000 0.000000 0.000000 -0.004771 0.000000 0.027865
#
#
# Mechanical properties :
#
#
# Convention : Reuss Voigt Hill
#
# Bulk Modulus (GPa) = 48.21764 52.53100 50.37432
# Shear Modulus (GPa) = 29.28434 33.69506 31.48970
#
# Velocity S-wave (km/s) = 3.62029 3.88337 3.75413
# Velocity P-wave (km/s) = 6.24945 6.60440 6.42938
#
# Compressibility (1/GPa) = 0.02073930
#
# Stress axis : x y z
#
# Youngs Moduli (GPa) = 97.50572 53.76522 109.08060
#
# Poissons Ratio (x) = 0.31816 0.02053
# Poissons Ratio (y) = 0.57699 0.27663
# Poissons Ratio (z) = 0.01835 0.13635
#
# Static dielectric constant tensor:
#      x y z
#    x 4.023570 0.000000 -0.116620 
#    y 0.000000 3.859680 0.000000 
#    z -0.116620 0.000000 4.156750 
# 
# 
# High freq. dielectric constant tensor:
#      x y z
#    x 1.875110 0.000000 -0.015700 
#    y 0.000000 1.868480 0.000000 
#    z -0.015700 0.000000 1.892780 
# 
# From -- ./inp_files/12679.got.cif
#   From: 2010.03.12/outbox.cif.g09.slc.cpg/sg4_7_cif.got.tgz:12679.got - 2010.03.31 09:31:35.
