data_PCOD8047743
_publ_section_title
;
Structure prediction by ZEFSAII (Michael W. Deem and Ramdas Pophale) SiO2 
 PCOD8047743
Probable space group: P 21
;
_chemical_formula_sum "Si O2"
_cell_formula_units_Z 14
_cell_length_a 12.612972
_cell_length_b 4.957693
_cell_length_c 10.592398
_cell_angle_alpha 90.000000
_cell_angle_beta 54.291003
_cell_angle_gamma 90.000000
_cell_volume 537.827545
_symmetry_space_group_name_H-M "P 21"
_symmetry_group_IT_number 4
_symmetry_cell_setting 'monoclinic'
loop_
_space_group_symop_operation_xyz
x,y,z
-x,1/2+y,-z
loop_
_atom_site_type_symbol
_atom_site_label
_atom_site_fract_x
_atom_site_fract_y
_atom_site_fract_z
Si Si1 0.535195 0.202120 0.776989
Si Si2 0.754987 0.642843 0.954429
Si Si3 0.311511 0.188219 0.266637
Si Si4 0.830066 0.985351 0.141204
Si Si5 0.460103 0.533313 0.593209
Si Si6 0.029476 0.739835 0.162871
Si Si7 0.951375 0.477144 0.461764
O O1 0.585070 0.442741 0.836389
O O2 0.536645 0.360191 0.643767
O O3 0.629300 0.945838 0.704475
O O4 0.394202 0.075881 0.906022
O O5 0.747221 0.799081 0.825614
O O6 0.849252 0.392592 0.856520
O O7 0.820786 0.792654 0.025200
O O8 0.199619 0.062770 0.433056
O O9 0.688485 0.104917 0.269317
O O10 0.889832 0.882436 0.232565
O O11 0.927289 0.203960 0.014391
O O12 0.531272 0.823620 0.530752
O O13 0.000800 0.495256 0.280880
O O14 0.967441 0.172432 0.499742
#
# Coordination Sequence:
#
# PCOD8047743 Si02
#       7
#     2   2   2   2   2   2   2
#     4  11  27  44  75 107 145 195 251 298 380 436
#     4  11  25  47  72 104 151 190 251 312 366 453
#     4  12  25  48  72 112 145 197 244 307 372 443
#     4  11  27  46  76 106 147 199 253 310 376 446
#     4  11  27  49  75 108 152 196 247 315 375 446
#     4  12  26  47  75 109 150 199 254 308 378 451
#     4  12  27  49  75 110 154 200 248 312 377 443
#
# _framework density 26.030646999999998
#
# number of rings (size 3 to 8) (size 9 to 14) (size 15 to 20)
#    0.000    0.571    2.857    3.429   14.000    0.000 
#    0.000    0.000    0.000    0.000    0.000    0.000 
#    0.000    0.000    0.000    0.000    0.000    0.000 
#
# Total GULP energy -173460.590811 kJ/mol
# GULP energy per Si atom -12390.042201 kJ/mol
# Density = 2.597140 g / cm^3
# Si number density = 26.030647 Si / 1000 Ang^3
#
#
#
# Elastic Constant Matrix: (Units=GPa)
#
#
# Indices 1 2 3 4 5 6 
#
# 1 118.9264 6.5860 20.6470 0.0000 -11.3934 0.0000
# 2 6.5860 63.6195 -10.5190 0.0000 -16.5827 0.0000
# 3 20.6470 -10.5190 95.6546 0.0000 -1.7185 0.0000
# 4 0.0000 0.0000 0.0000 32.3883 0.0000 7.3024
# 5 -11.3934 -16.5827 -1.7185 0.0000 33.3949 0.0000
# 6 0.0000 0.0000 0.0000 7.3024 0.0000 37.1739
#
#
#
# Elastic Compliance Matrix: (Units=1/GPa)
#
#
# Indices 1 2 3 4 5 6 
#
# 1 0.009040 -0.000555 -0.001964 0.000000 0.002708 0.000000
# 2 -0.000555 0.018542 0.002323 0.000000 0.009137 0.000000
# 3 -0.001964 0.002323 0.011153 0.000000 0.001057 0.000000
# 4 0.000000 0.000000 0.000000 0.032306 0.000000 -0.006346
# 5 0.002708 0.009137 0.001057 0.000000 0.035460 0.000000
# 6 0.000000 0.000000 0.000000 -0.006346 0.000000 0.028147
#
#
# Mechanical properties :
#
#
# Convention : Reuss Voigt Hill
#
# Bulk Modulus (GPa) = 26.08033 34.62538 30.35285
# Shear Modulus (GPa) = 33.82513 38.02384 35.92449
#
# Velocity S-wave (km/s) = 3.60868 3.82610 3.71898
# Velocity P-wave (km/s) = 5.23491 5.73144 5.48879
#
# Compressibility (1/GPa) = 0.03834308
#
# Stress axis : x y z
#
# Youngs Moduli (GPa) = 110.62483 53.93259 89.66552
#
# Poissons Ratio (x) = 0.02992 0.17606
# Poissons Ratio (y) = 0.06137 -0.20828
# Poissons Ratio (z) = 0.21722 -0.12528
#
# Static dielectric constant tensor:
#      x y z
#    x 4.898450 0.000000 -0.061500 
#    y 0.000000 4.817480 0.000000 
#    z -0.061500 0.000000 4.795800 
# 
# 
# High freq. dielectric constant tensor:
#      x y z
#    x 2.064220 0.000000 -0.004130 
#    y 0.000000 2.022820 0.000000 
#    z -0.004130 0.000000 2.047570 
# 
# From -- ./inp_files/9341.got.cif
#   From: 2010.03.12/outbox.cif.g09.slc.cpg/sg4_5_cif.got.tgz:9341.got - 2010.03.31 09:31:35.
