data_PCOD8047587
_publ_section_title
;
Structure prediction by ZEFSAII (Michael W. Deem and Ramdas Pophale) SiO2 
 PCOD8047587
Probable space group: P 21
;
_chemical_formula_sum "Si O2"
_cell_formula_units_Z 14
_cell_length_a 11.255108
_cell_length_b 8.591396
_cell_length_c 9.557993
_cell_angle_alpha 90.000000
_cell_angle_beta 37.915815
_cell_angle_gamma 90.000000
_cell_volume 567.942158
_symmetry_space_group_name_H-M "P 21"
_symmetry_group_IT_number 4
_symmetry_cell_setting 'monoclinic'
loop_
_space_group_symop_operation_xyz
x,y,z
-x,1/2+y,-z
loop_
_atom_site_type_symbol
_atom_site_label
_atom_site_fract_x
_atom_site_fract_y
_atom_site_fract_z
Si Si1 0.572731 0.997330 0.402177
Si Si2 0.937801 0.991611 0.642700
Si Si3 0.361225 0.697730 0.917575
Si Si4 0.352689 0.056055 0.877478
Si Si5 0.722585 0.692748 0.771223
Si Si6 0.887333 0.736334 0.102524
Si Si7 0.841030 0.441583 0.300454
O O1 0.719022 0.858332 0.290898
O O2 0.658862 0.129303 0.220610
O O3 0.521336 0.068301 0.602439
O O4 0.388566 0.925784 0.491647
O O5 0.097633 0.072908 0.396772
O O6 0.057710 0.895137 0.648850
O O7 0.804796 0.868187 0.684204
O O8 0.795745 0.121020 0.836259
O O9 0.578011 0.667463 0.775705
O O10 0.316144 0.879729 0.956813
O O11 0.160502 0.127057 0.986181
O O12 0.396801 0.161187 0.973651
O O13 0.907560 0.622153 0.215911
O O14 0.084558 0.827434 0.891090
#
# Coordination Sequence:
#
# PCOD8047587 Si02
#       7
#     2   2   2   2   2   2   2
#     4  11  24  46  73 108 144 184 235 300 361 425
#     4  12  26  48  75 102 146 189 247 295 350 436
#     4  12  25  47  75 103 146 190 240 297 362 425
#     4  11  24  44  71 105 140 185 238 289 358 427
#     4  12  26  50  70 107 143 195 241 295 360 424
#     4  11  25  44  72 106 145 183 238 295 364 427
#     4  11  24  45  72 107 140 192 233 297 359 420
#
# _framework density 24.650397999999999
#
# number of rings (size 3 to 8) (size 9 to 14) (size 15 to 20)
#    0.000    0.571    4.286    3.429    4.000    2.286 
#    5.143    0.000    0.000    0.000    0.000    0.000 
#    0.000    0.000    0.000    0.000    0.000    0.000 
#
# Total GULP energy -173598.634648 kJ/mol
# GULP energy per Si atom -12399.902475 kJ/mol
# Density = 2.459429 g / cm^3
# Si number density = 24.650398 Si / 1000 Ang^3
#
#
#
# Elastic Constant Matrix: (Units=GPa)
#
#
# Indices 1 2 3 4 5 6 
#
# 1 64.9382 19.4224 28.8520 0.0000 3.6932 0.0000
# 2 19.4224 106.5605 30.7047 0.0000 3.9299 0.0000
# 3 28.8520 30.7047 100.4535 0.0000 3.3832 0.0000
# 4 0.0000 0.0000 0.0000 21.0922 0.0000 -9.1509
# 5 3.6932 3.9299 3.3832 0.0000 33.4385 0.0000
# 6 0.0000 0.0000 0.0000 -9.1509 0.0000 44.2227
#
#
#
# Elastic Compliance Matrix: (Units=1/GPa)
#
#
# Indices 1 2 3 4 5 6 
#
# 1 0.018077 -0.001933 -0.004557 0.000000 -0.001308 0.000000
# 2 -0.001933 0.010524 -0.002636 0.000000 -0.000757 0.000000
# 3 -0.004557 -0.002636 0.012083 0.000000 -0.000409 0.000000
# 4 0.000000 0.000000 0.000000 0.052087 0.000000 0.010778
# 5 -0.001308 -0.000757 -0.000409 0.000000 0.030180 0.000000
# 6 0.000000 0.000000 0.000000 0.010778 0.000000 0.024843
#
#
# Mechanical properties :
#
#
# Convention : Reuss Voigt Hill
#
# Bulk Modulus (GPa) = 44.58072 47.76783 46.17428
# Shear Modulus (GPa) = 28.81439 32.61556 30.71498
#
# Velocity S-wave (km/s) = 3.42266 3.64142 3.53374
# Velocity P-wave (km/s) = 5.80895 6.09099 5.95164
#
# Compressibility (1/GPa) = 0.02243122
#
# Stress axis : x y z
#
# Youngs Moduli (GPa) = 55.32030 95.01905 82.75964
#
# Poissons Ratio (x) = 0.18372 0.37712
# Poissons Ratio (y) = 0.10696 0.21816
# Poissons Ratio (z) = 0.25209 0.25047
#
# Static dielectric constant tensor:
#      x y z
#    x 4.398890 0.000000 -0.006790 
#    y 0.000000 4.641330 0.000000 
#    z -0.006790 0.000000 4.411720 
# 
# 
# High freq. dielectric constant tensor:
#      x y z
#    x 1.976830 0.000000 -0.004570 
#    y 0.000000 1.991220 0.000000 
#    z -0.004570 0.000000 1.978470 
# 
# From -- ./inp_files/7926.got.cif
#   From: 2010.03.12/outbox.cif.g09.slc.cpg/sg4_4_cif.got.tgz:7926.got - 2010.03.31 09:31:35.
