data_PCOD8047785
_publ_section_title
;
Structure prediction by ZEFSAII (Michael W. Deem and Ramdas Pophale) SiO2 
 PCOD8047785
Probable space group: P 21
;
_chemical_formula_sum "Si O2"
_cell_formula_units_Z 14
_cell_length_a 7.122459
_cell_length_b 15.440828
_cell_length_c 7.826973
_cell_angle_alpha 90.000000
_cell_angle_beta 142.291793
_cell_angle_gamma 90.000000
_cell_volume 526.490477
_symmetry_space_group_name_H-M "P 21"
_symmetry_group_IT_number 4
_symmetry_cell_setting 'monoclinic'
loop_
_space_group_symop_operation_xyz
x,y,z
-x,1/2+y,-z
loop_
_atom_site_type_symbol
_atom_site_label
_atom_site_fract_x
_atom_site_fract_y
_atom_site_fract_z
Si Si1 0.122980 0.826570 0.426518
Si Si2 0.553496 0.728654 0.959882
Si Si3 0.756037 0.544263 0.145701
Si Si4 0.397997 0.460835 0.596349
Si Si5 0.523341 0.772962 0.434704
Si Si6 0.762791 0.514918 0.527403
Si Si7 0.101960 0.675675 0.897499
O O1 0.450680 0.792371 0.735163
O O2 0.206741 0.807760 0.289894
O O3 0.064884 0.927879 0.415236
O O4 0.814491 0.776613 0.260346
O O5 0.222180 0.716452 0.808101
O O6 0.699476 0.636348 0.011052
O O7 0.618098 0.550963 0.242254
O O8 0.112054 0.523308 0.424490
O O9 0.622770 0.473276 0.920109
O O10 0.328455 0.357763 0.550585
O O11 0.514506 0.489537 0.491561
O O12 0.798022 0.728134 0.739761
O O13 0.395793 0.691058 0.231945
O O14 0.015880 0.575828 0.799557
#
# Coordination Sequence:
#
# PCOD8047785 Si02
#       7
#     2   2   2   2   2   2   2
#     4  11  27  49  77 106 158 198 256 315 391 455
#     4  12  27  47  72 117 144 202 258 311 389 465
#     4  12  27  49  79 112 152 200 261 318 393 460
#     4  11  28  49  80 112 151 204 258 319 393 466
#     4  11  26  47  74 114 143 204 255 311 395 458
#     4  11  29  52  76 117 157 205 257 325 388 460
#     4  12  26  47  76 110 155 193 259 319 385 456
#
# _framework density 26.591173000000001
#
# number of rings (size 3 to 8) (size 9 to 14) (size 15 to 20)
#    0.000    0.571    0.000    6.000   12.000    8.000 
#    0.000    0.000    0.000    0.000    0.000    0.000 
#    0.000    0.000    0.000    0.000    0.000    0.000 
#
# Total GULP energy -173443.573794 kJ/mol
# GULP energy per Si atom -12388.826700 kJ/mol
# Density = 2.653065 g / cm^3
# Si number density = 26.591173 Si / 1000 Ang^3
#
#
#
# Elastic Constant Matrix: (Units=GPa)
#
#
# Indices 1 2 3 4 5 6 
#
# 1 64.4203 30.1706 19.1165 0.0000 4.0118 0.0000
# 2 30.1706 153.6827 50.4480 0.0000 14.7091 0.0000
# 3 19.1165 50.4480 122.4833 0.0000 8.2863 0.0000
# 4 0.0000 0.0000 0.0000 40.2606 0.0000 -4.3333
# 5 4.0118 14.7091 8.2863 0.0000 42.9849 0.0000
# 6 0.0000 0.0000 0.0000 -4.3333 0.0000 32.0073
#
#
#
# Elastic Compliance Matrix: (Units=1/GPa)
#
#
# Indices 1 2 3 4 5 6 
#
# 1 0.017337 -0.002879 -0.001497 0.000000 -0.000344 0.000000
# 2 -0.002879 0.008177 -0.002784 0.000000 -0.001993 0.000000
# 3 -0.001497 -0.002784 0.009596 0.000000 -0.000758 0.000000
# 4 0.000000 0.000000 0.000000 0.025205 0.000000 0.003412
# 5 -0.000344 -0.001993 -0.000758 0.000000 0.024124 0.000000
# 6 0.000000 0.000000 0.000000 0.003412 0.000000 0.031705
#
#
# Mechanical properties :
#
#
# Convention : Reuss Voigt Hill
#
# Bulk Modulus (GPa) = 48.09924 60.00626 54.05275
# Shear Modulus (GPa) = 36.39194 39.10731 37.74962
#
# Velocity S-wave (km/s) = 3.70344 3.83911 3.77189
# Velocity P-wave (km/s) = 6.03448 6.50130 6.27224
#
# Compressibility (1/GPa) = 0.02079035
#
# Stress axis : x y z
#
# Youngs Moduli (GPa) = 57.67969 122.29976 104.21324
#
# Poissons Ratio (x) = 0.35214 0.15597
# Poissons Ratio (y) = 0.16608 0.29008
# Poissons Ratio (z) = 0.08633 0.34043
#
# Static dielectric constant tensor:
#      x y z
#    x 4.825840 0.000000 -0.104380 
#    y 0.000000 4.868030 0.000000 
#    z -0.104380 0.000000 4.410430 
# 
# 
# High freq. dielectric constant tensor:
#      x y z
#    x 2.073440 0.000000 0.004910 
#    y 0.000000 2.079620 0.000000 
#    z 0.004910 0.000000 2.063470 
# 
# From -- ./inp_files/6701.got.cif
#   From: 2010.03.12/outbox.cif.g09.slc.cpg/sg4_4_cif.got.tgz:6701.got - 2010.03.31 09:31:35.
