data_PCOD8047773
_publ_section_title
;
Structure prediction by ZEFSAII (Michael W. Deem and Ramdas Pophale) SiO2 
 PCOD8047773
Probable space group: P 21
;
_chemical_formula_sum "Si O2"
_cell_formula_units_Z 16
_cell_length_a 8.570777
_cell_length_b 9.333910
_cell_length_c 16.853282
_cell_angle_alpha 90.000000
_cell_angle_beta 30.757549
_cell_angle_gamma 90.000000
_cell_volume 689.500169
_symmetry_space_group_name_H-M "P 21"
_symmetry_group_IT_number 4
_symmetry_cell_setting 'monoclinic'
loop_
_space_group_symop_operation_xyz
x,y,z
-x,1/2+y,-z
loop_
_atom_site_type_symbol
_atom_site_label
_atom_site_fract_x
_atom_site_fract_y
_atom_site_fract_z
Si Si1 0.797572 0.141410 0.526000
Si Si2 0.271357 0.469425 0.911592
Si Si3 0.489729 0.553036 0.080581
Si Si4 0.280776 0.864670 0.153934
Si Si5 0.352894 0.097288 0.388404
Si Si6 0.749451 0.662495 0.125587
Si Si7 0.870009 0.396398 0.386038
Si Si8 0.360449 0.361381 0.488110
O O1 0.528350 0.208437 0.696433
O O2 0.960242 0.265576 0.404326
O O3 0.042546 0.067987 0.476094
O O4 0.649363 0.025574 0.533187
O O5 0.552083 0.456154 0.849827
O O6 0.366761 0.545612 0.787554
O O7 0.122872 0.313389 0.962235
O O8 0.006936 0.573929 0.061374
O O9 0.449917 0.713978 0.064020
O O10 0.630834 0.560322 0.106573
O O11 0.171095 0.469057 0.220099
O O12 0.719454 0.463303 0.924279
O O13 0.938652 0.825696 0.329263
O O14 0.380168 0.263810 0.400562
O O15 0.339983 0.009683 0.475716
O O16 0.667111 0.334019 0.403473
#
# Coordination Sequence:
#
# PCOD8047773 Si02
#       8
#     2   2   2   2   2   2   2   2
#     4  12  25  45  76 104 144 189 241 293 351 422
#     4  11  26  46  72 103 140 186 240 293 356 420
#     4  11  27  47  72 100 149 185 233 291 364 428
#     4  11  26  49  68 105 145 187 232 293 360 432
#     4  12  23  49  74 100 146 189 240 296 346 424
#     4  11  26  46  70 106 137 189 240 293 352 426
#     4  12  26  46  73 106 143 189 235 298 358 414
#     4  12  27  44  73 110 144 186 239 295 355 424
#
# _framework density 23.205217000000001
#
# number of rings (size 3 to 8) (size 9 to 14) (size 15 to 20)
#    0.000    0.500    5.000    2.250    7.000    2.000 
#    0.000    0.000    0.000    0.000    0.000    0.000 
#    0.000    0.000    0.000    0.000    0.000    0.000 
#
# Total GULP energy -198506.119518 kJ/mol
# GULP energy per Si atom -12406.632470 kJ/mol
# Density = 2.315240 g / cm^3
# Si number density = 23.205217 Si / 1000 Ang^3
#
#
#
# Elastic Constant Matrix: (Units=GPa)
#
#
# Indices 1 2 3 4 5 6 
#
# 1 83.5425 25.4819 32.7690 0.0000 -2.4915 0.0000
# 2 25.4819 104.7468 28.2716 0.0000 6.5438 0.0000
# 3 32.7690 28.2716 75.6426 0.0000 -2.3963 0.0000
# 4 0.0000 0.0000 0.0000 45.3802 0.0000 5.9024
# 5 -2.4915 6.5438 -2.3963 0.0000 34.9371 0.0000
# 6 0.0000 0.0000 0.0000 5.9024 0.0000 39.5837
#
#
#
# Elastic Compliance Matrix: (Units=1/GPa)
#
#
# Indices 1 2 3 4 5 6 
#
# 1 0.014858 -0.002173 -0.005590 0.000000 0.001083 0.000000
# 2 -0.002173 0.011118 -0.003292 0.000000 -0.002463 0.000000
# 3 -0.005590 -0.003292 0.016916 0.000000 0.001378 0.000000
# 4 0.000000 0.000000 0.000000 0.022472 0.000000 -0.003351
# 5 0.001083 -0.002463 0.001378 0.000000 0.029256 0.000000
# 6 0.000000 0.000000 0.000000 -0.003351 0.000000 0.025763
#
#
# Mechanical properties :
#
#
# Convention : Reuss Voigt Hill
#
# Bulk Modulus (GPa) = 48.12072 48.55300 48.33686
# Shear Modulus (GPa) = 33.46294 35.80751 34.63523
#
# Velocity S-wave (km/s) = 3.80155 3.93247 3.86756
# Velocity P-wave (km/s) = 6.32859 6.44886 6.38901
#
# Compressibility (1/GPa) = 0.02078107
#
# Stress axis : x y z
#
# Youngs Moduli (GPa) = 67.30485 89.94490 59.11692
#
# Poissons Ratio (x) = 0.19549 0.33046
# Poissons Ratio (y) = 0.14628 0.19460
# Poissons Ratio (z) = 0.37623 0.29608
#
# Static dielectric constant tensor:
#      x y z
#    x 3.962860 0.000000 0.091300 
#    y 0.000000 4.176840 0.000000 
#    z 0.091300 0.000000 4.066540 
# 
# 
# High freq. dielectric constant tensor:
#      x y z
#    x 1.910970 0.000000 0.002360 
#    y 0.000000 1.931610 0.000000 
#    z 0.002360 0.000000 1.910920 
# 
# From -- ./inp_files/5385.got.cif
#   From: 2010.03.12/outbox.cif.g09.slc.cpg/sg4_3_cif.got.tgz:5385.got - 2010.03.31 09:31:35.
