data_PCOD8047651
_publ_section_title
;
Structure prediction by ZEFSAII (Michael W. Deem and Ramdas Pophale) SiO2 
 PCOD8047651
Probable space group: P 21
;
_chemical_formula_sum "Si O2"
_cell_formula_units_Z 16
_cell_length_a 12.331692
_cell_length_b 8.379887
_cell_length_c 9.243262
_cell_angle_alpha 90.000000
_cell_angle_beta 130.090023
_cell_angle_gamma 90.000000
_cell_volume 730.746219
_symmetry_space_group_name_H-M "P 21"
_symmetry_group_IT_number 4
_symmetry_cell_setting 'monoclinic'
loop_
_space_group_symop_operation_xyz
x,y,z
-x,1/2+y,-z
loop_
_atom_site_type_symbol
_atom_site_label
_atom_site_fract_x
_atom_site_fract_y
_atom_site_fract_z
Si Si1 0.331468 0.916620 0.411258
Si Si2 0.179010 0.104413 0.531036
Si Si3 0.851541 0.021943 0.222403
Si Si4 0.016246 0.499018 0.162804
Si Si5 0.225370 0.166551 0.890383
Si Si6 0.740870 0.968264 0.427031
Si Si7 0.475224 0.142723 0.313791
Si Si8 0.862812 0.206749 0.965707
O O1 0.460308 0.810111 0.579866
O O2 0.238371 0.807518 0.224517
O O3 0.243285 0.976299 0.474641
O O4 0.388392 0.068817 0.372763
O O5 0.233357 0.075873 0.742506
O O6 0.233379 0.280266 0.537388
O O7 0.009677 0.085178 0.388500
O O8 0.854468 0.835415 0.187269
O O9 0.750360 0.040470 0.274328
O O10 0.782171 0.129796 0.035002
O O11 0.133723 0.554622 0.377736
O O12 0.063653 0.557427 0.047105
O O13 0.862481 0.562616 0.072351
O O14 0.997407 0.309096 0.135775
O O15 0.381198 0.181948 0.092245
O O16 0.591492 0.012368 0.367732
#
# Coordination Sequence:
#
# PCOD8047651 Si02
#       8
#     2   2   2   2   2   2   2   2
#     4  12  27  46  70 101 147 193 234 295 361 435
#     4  11  24  47  73 106 139 186 240 306 357 416
#     4  11  25  44  74 110 139 185 239 308 358 420
#     4  12  22  43  69 103 136 183 238 294 354 420
#     4  11  26  45  72 105 144 185 245 293 361 437
#     4  11  25  46  71 102 144 184 237 299 359 431
#     4  12  28  48  68 105 146 198 237 292 367 444
#     4  12  25  41  71 106 141 184 236 297 361 425
#
# _framework density 21.895426
#
# number of rings (size 3 to 8) (size 9 to 14) (size 15 to 20)
#    0.000    0.500    5.000    3.000    1.750    5.000 
#    4.500    0.000    0.000    0.000    0.000    0.000 
#    0.000    0.000    0.000    0.000    0.000    0.000 
#
# Total GULP energy -198403.934350 kJ/mol
# GULP energy per Si atom -12400.245897 kJ/mol
# Density = 2.184559 g / cm^3
# Si number density = 21.895426 Si / 1000 Ang^3
#
#
#
# Elastic Constant Matrix: (Units=GPa)
#
#
# Indices 1 2 3 4 5 6 
#
# 1 79.4788 19.7055 35.7290 0.0000 -13.6649 0.0000
# 2 19.7055 73.4305 27.7576 0.0000 -15.0870 0.0000
# 3 35.7290 27.7576 134.7904 0.0000 -12.7614 0.0000
# 4 0.0000 0.0000 0.0000 40.9822 0.0000 -5.7383
# 5 -13.6649 -15.0870 -12.7614 0.0000 35.9568 0.0000
# 6 0.0000 0.0000 0.0000 -5.7383 0.0000 47.0879
#
#
#
# Elastic Compliance Matrix: (Units=1/GPa)
#
#
# Indices 1 2 3 4 5 6 
#
# 1 0.015202 -0.002082 -0.003246 0.000000 0.003752 0.000000
# 2 -0.002082 0.016096 -0.002275 0.000000 0.005155 0.000000
# 3 -0.003246 -0.002275 0.008838 0.000000 0.000949 0.000000
# 4 0.000000 0.000000 0.000000 0.024824 0.000000 0.003025
# 5 0.003752 0.005155 0.000949 0.000000 0.031737 0.000000
# 6 0.000000 0.000000 0.000000 0.003025 0.000000 0.021606
#
#
# Mechanical properties :
#
#
# Convention : Reuss Voigt Hill
#
# Bulk Modulus (GPa) = 40.11043 50.45378 45.28210
# Shear Modulus (GPa) = 35.25654 38.43921 36.84787
#
# Velocity S-wave (km/s) = 4.01711 4.19451 4.10677
# Velocity P-wave (km/s) = 6.31467 6.82288 6.57369
#
# Compressibility (1/GPa) = 0.02493117
#
# Stress axis : x y z
#
# Youngs Moduli (GPa) = 65.77951 62.12702 113.15364
#
# Poissons Ratio (x) = 0.12934 0.36727
# Poissons Ratio (y) = 0.13694 0.25740
# Poissons Ratio (z) = 0.21350 0.14133
#
# Static dielectric constant tensor:
#      x y z
#    x 3.900900 0.000000 -0.231270 
#    y 0.000000 4.025560 0.000000 
#    z -0.231270 0.000000 4.199840 
# 
# 
# High freq. dielectric constant tensor:
#      x y z
#    x 1.857820 0.000000 -0.016570 
#    y 0.000000 1.867670 0.000000 
#    z -0.016570 0.000000 1.873820 
# 
# From -- ./inp_files/5488.got.cif
#   From: 2010.03.12/outbox.cif.g09.slc.cpg/sg4_3_cif.got.tgz:5488.got - 2010.03.31 09:31:35.
