data_PCOD8047204
_publ_section_title
;
Structure prediction by ZEFSAII (Michael W. Deem and Ramdas Pophale) SiO2 
 PCOD8047204
Probable space group: P 21
;
_chemical_formula_sum "Si O2"
_cell_formula_units_Z 14
_cell_length_a 6.378028
_cell_length_b 7.262651
_cell_length_c 12.316233
_cell_angle_alpha 90.000000
_cell_angle_beta 84.690535
_cell_angle_gamma 90.000000
_cell_volume 568.057255
_symmetry_space_group_name_H-M "P 21"
_symmetry_group_IT_number 4
_symmetry_cell_setting 'monoclinic'
loop_
_space_group_symop_operation_xyz
x,y,z
-x,1/2+y,-z
loop_
_atom_site_type_symbol
_atom_site_label
_atom_site_fract_x
_atom_site_fract_y
_atom_site_fract_z
Si Si1 0.181072 0.564770 0.810239
Si Si2 0.150965 0.362497 0.405145
Si Si3 0.493014 0.810775 0.093389
Si Si4 0.839582 0.472285 0.245198
Si Si5 0.830822 0.559041 0.002289
Si Si6 0.571352 0.143646 0.693230
Si Si7 0.902557 0.446018 0.632010
O O1 0.397823 0.465732 0.834681
O O2 0.245191 0.760079 0.753095
O O3 0.034207 0.603529 0.921518
O O4 0.044864 0.437000 0.733907
O O5 0.371960 0.465070 0.382310
O O6 0.033858 0.480399 0.317062
O O7 0.047190 0.384433 0.526232
O O8 0.182291 0.151434 0.376407
O O9 0.297038 0.882216 0.033711
O O10 0.398926 0.649034 0.176225
O O11 0.669814 0.731656 0.003524
O O12 0.681628 0.624661 0.304285
O O13 0.907959 0.532303 0.121538
O O14 0.690255 0.323627 0.641767
#
# Coordination Sequence:
#
# PCOD8047204 Si02
#       7
#     2   2   2   2   2   2   2
#     4  11  24  44  69 103 142 188 230 291 351 427
#     4  11  25  48  71 104 139 187 232 297 350 425
#     4  11  25  40  69 102 142 181 237 282 358 417
#     4  10  26  43  68 106 137 184 239 280 361 418
#     4  11  23  41  67 103 140 189 225 297 343 428
#     4  11  25  45  69 102 139 181 232 295 343 416
#     4  11  24  47  75 100 143 182 237 290 358 411
#
# _framework density 24.645403000000002
#
# number of rings (size 3 to 8) (size 9 to 14) (size 15 to 20)
#    0.000    1.143    2.857    1.714    6.000    8.000 
#    5.143    0.000    0.000    0.000    0.000    0.000 
#    0.000    0.000    0.000    0.000    0.000    0.000 
#
# Total GULP energy -173481.329135 kJ/mol
# GULP energy per Si atom -12391.523510 kJ/mol
# Density = 2.458931 g / cm^3
# Si number density = 24.645403 Si / 1000 Ang^3
#
#
#
# Elastic Constant Matrix: (Units=GPa)
#
#
# Indices 1 2 3 4 5 6 
#
# 1 39.0189 33.7126 40.6094 0.0000 -17.4603 0.0000
# 2 33.7126 61.0855 26.4284 0.0000 -6.5099 0.0000
# 3 40.6094 26.4284 122.2882 0.0000 -24.0961 0.0000
# 4 0.0000 0.0000 0.0000 42.0035 0.0000 -10.1280
# 5 -17.4603 -6.5099 -24.0961 0.0000 34.5257 0.0000
# 6 0.0000 0.0000 0.0000 -10.1280 0.0000 50.5970
#
#
#
# Elastic Compliance Matrix: (Units=1/GPa)
#
#
# Indices 1 2 3 4 5 6 
#
# 1 0.085779 -0.038027 -0.015226 0.000000 0.025584 0.000000
# 2 -0.038027 0.034935 0.002999 0.000000 -0.010551 0.000000
# 3 -0.015226 0.002999 0.012962 0.000000 0.001912 0.000000
# 4 0.000000 0.000000 0.000000 0.025015 0.000000 0.005007
# 5 0.025584 -0.010551 0.001912 0.000000 0.041247 0.000000
# 6 0.000000 0.000000 0.000000 0.005007 0.000000 0.020766
#
#
# Mechanical properties :
#
#
# Convention : Reuss Voigt Hill
#
# Bulk Modulus (GPa) = 30.14909 47.09927 38.62418
# Shear Modulus (GPa) = 15.04799 33.53473 24.29136
#
# Velocity S-wave (km/s) = 2.47367 3.69275 3.14289
# Velocity P-wave (km/s) = 4.51868 6.11017 5.37367
#
# Compressibility (1/GPa) = 0.03316850
#
# Stress axis : x y z
#
# Youngs Moduli (GPa) = 11.65780 28.62420 77.14658
#
# Poissons Ratio (x) = 1.08849 1.17466
# Poissons Ratio (y) = 0.44331 -0.23136
# Poissons Ratio (z) = 0.17750 -0.08584
#
# Static dielectric constant tensor:
#      x y z
#    x 4.277790 0.000000 -0.056650 
#    y 0.000000 4.626320 0.000000 
#    z -0.056650 0.000000 4.549870 
# 
# 
# High freq. dielectric constant tensor:
#      x y z
#    x 1.968200 0.000000 -0.011470 
#    y 0.000000 1.991920 0.000000 
#    z -0.011470 0.000000 1.982270 
# 
# From -- ./inp_files/2418.got.cif
#   From: 2010.03.12/outbox.cif.g09.slc.cpg/sg4_2_cif.got.tgz:2418.got - 2010.03.31 09:31:35.
