data_PCOD8047025
_publ_section_title
;
Structure prediction by ZEFSAII (Michael W. Deem and Ramdas Pophale) SiO2 
 PCOD8047025
Probable space group: P 21
;
_chemical_formula_sum "Si O2"
_cell_formula_units_Z 12
_cell_length_a 13.985493
_cell_length_b 10.277414
_cell_length_c 5.307110
_cell_angle_alpha 90.000000
_cell_angle_beta 131.781386
_cell_angle_gamma 90.000000
_cell_volume 568.826075
_symmetry_space_group_name_H-M "P 21"
_symmetry_group_IT_number 4
_symmetry_cell_setting 'monoclinic'
loop_
_space_group_symop_operation_xyz
x,y,z
-x,1/2+y,-z
loop_
_atom_site_type_symbol
_atom_site_label
_atom_site_fract_x
_atom_site_fract_y
_atom_site_fract_z
Si Si1 0.597302 0.547330 0.629737
Si Si2 0.902697 0.438294 0.370275
Si Si3 0.188403 0.826452 0.278777
Si Si4 0.688402 0.659176 0.278793
Si Si5 0.460611 0.770146 0.628096
Si Si6 0.039391 0.215482 0.371918
O O1 0.668874 0.573197 0.491756
O O2 0.483277 0.653481 0.467978
O O3 0.530446 0.406770 0.502971
O O4 0.694352 0.562895 0.041223
O O5 0.831140 0.412438 0.508299
O O6 0.969547 0.578859 0.497005
O O7 0.016724 0.332147 0.532033
O O8 0.805638 0.422723 0.958787
O O9 0.323845 0.751460 0.526666
O O10 0.072738 0.722941 0.037972
O O11 0.823843 0.734172 0.526652
O O12 0.572736 0.762685 0.037985
#
# Coordination Sequence:
#
# PCOD8047025 Si02
#       6
#     2   2   2   2   2   2
#     4  10  24  39  66  85 125 156 203 240 303 354
#     4  10  24  39  66  85 125 156 203 240 303 354
#     4  10  24  37  67  85 125 155 203 240 302 354
#     4  10  24  37  67  85 125 155 203 240 302 354
#     4  10  24  41  63  91 119 161 198 248 297 355
#     4  10  24  41  63  91 119 161 198 248 297 355
#
# _framework density 21.096077999999999
#
# number of rings (size 3 to 8) (size 9 to 14) (size 15 to 20)
#    2.000    0.000    0.000    2.000    9.333    1.333 
#    0.000    3.333    0.000    0.000    0.000    0.000 
#    0.000    0.000    0.000    0.000    0.000    0.000 
#
# Total GULP energy -148733.295799 kJ/mol
# GULP energy per Si atom -12394.441317 kJ/mol
# Density = 2.104806 g / cm^3
# Si number density = 21.096078 Si / 1000 Ang^3
#
#
#
# Elastic Constant Matrix: (Units=GPa)
#
#
# Indices 1 2 3 4 5 6 
#
# 1 105.2970 33.1121 76.3682 0.0000 7.8404 0.0000
# 2 33.1121 112.6378 54.1479 0.0000 9.5334 0.0000
# 3 76.3682 54.1479 112.9701 0.0000 3.9500 0.0000
# 4 0.0000 0.0000 0.0000 28.2254 0.0000 -2.3716
# 5 7.8404 9.5334 3.9500 0.0000 46.7662 0.0000
# 6 0.0000 0.0000 0.0000 -2.3716 0.0000 26.4685
#
#
#
# Elastic Compliance Matrix: (Units=1/GPa)
#
#
# Indices 1 2 3 4 5 6 
#
# 1 0.018911 0.000961 -0.013166 0.000000 -0.002254 0.000000
# 2 0.000961 0.011754 -0.006212 0.000000 -0.002032 0.000000
# 3 -0.013166 -0.006212 0.020669 0.000000 0.001728 0.000000
# 4 0.000000 0.000000 0.000000 0.035698 0.000000 0.003199
# 5 -0.002254 -0.002032 0.001728 0.000000 0.022029 0.000000
# 6 0.000000 0.000000 0.000000 0.003199 0.000000 0.038067
#
#
# Mechanical properties :
#
#
# Convention : Reuss Voigt Hill
#
# Bulk Modulus (GPa) = 68.96604 73.12903 71.04753
# Shear Modulus (GPa) = 26.48353 31.44381 28.96367
#
# Velocity S-wave (km/s) = 3.54697 3.86489 3.70934
# Velocity P-wave (km/s) = 7.03826 7.39301 7.21781
#
# Compressibility (1/GPa) = 0.01449989
#
# Stress axis : x y z
#
# Youngs Moduli (GPa) = 52.87818 85.07769 48.38148
#
# Poissons Ratio (x) = -0.08172 0.63698
# Poissons Ratio (y) = -0.05079 0.30055
# Poissons Ratio (z) = 0.69618 0.52851
#
# Static dielectric constant tensor:
#      x y z
#    x 3.650930 0.000000 0.085590 
#    y 0.000000 3.677000 0.000000 
#    z 0.085590 0.000000 3.730270 
# 
# 
# High freq. dielectric constant tensor:
#      x y z
#    x 1.833810 0.000000 0.004980 
#    y 0.000000 1.821470 0.000000 
#    z 0.004980 0.000000 1.828680 
# 
# From -- ./inp_files/3782.got.cif
#   From: 2010.03.12/outbox.cif.g09.slc.cpg/sg4_2_cif.got.tgz:3782.got - 2010.03.31 09:31:35.
