data_PCOD8047981
_publ_section_title
;
Structure prediction by ZEFSAII (Michael W. Deem and Ramdas Pophale) SiO2 
 PCOD8047981
Probable space group: P 21
;
_chemical_formula_sum "Si O2"
_cell_formula_units_Z 16
_cell_length_a 9.465983
_cell_length_b 8.869618
_cell_length_c 10.878172
_cell_angle_alpha 90.000000
_cell_angle_beta 131.002710
_cell_angle_gamma 90.000000
_cell_volume 689.268709
_symmetry_space_group_name_H-M "P 21"
_symmetry_group_IT_number 4
_symmetry_cell_setting 'monoclinic'
loop_
_space_group_symop_operation_xyz
x,y,z
-x,1/2+y,-z
loop_
_atom_site_type_symbol
_atom_site_label
_atom_site_fract_x
_atom_site_fract_y
_atom_site_fract_z
Si Si1 0.149077 0.188260 0.997777
Si Si2 0.159000 0.344406 0.753669
Si Si3 0.173106 0.696198 0.805216
Si Si4 0.469159 0.036746 0.321082
Si Si5 0.769149 0.243602 0.432114
Si Si6 0.506000 0.980053 0.613683
Si Si7 0.516893 0.243667 0.811569
Si Si8 0.070218 0.383593 0.165312
O O1 0.213204 0.284062 0.918021
O O2 0.338606 0.157989 0.179759
O O3 0.019004 0.292272 0.011027
O O4 0.042821 0.038610 0.896768
O O5 0.126057 0.523549 0.744498
O O6 0.321011 0.298778 0.753267
O O7 0.975302 0.258007 0.603550
O O8 0.230690 0.781299 0.712811
O O9 0.989328 0.778841 0.753709
O O10 0.340828 0.711360 0.997116
O O11 0.685914 0.075408 0.409354
O O12 0.430818 0.051846 0.444318
O O13 0.409212 0.873107 0.237087
O O14 0.631450 0.347206 0.430587
O O15 0.497518 0.094531 0.721177
O O16 0.711609 0.918358 0.702540
#
# Coordination Sequence:
#
# PCOD8047981 Si02
#       8
#     2   2   2   2   2   2   2   2
#     4  12  26  48  75 116 147 209 253 326 387 480
#     4  12  30  48  81 112 162 204 270 326 406 478
#     4  12  29  52  78 118 158 208 266 331 403 482
#     4  12  26  51  73 114 156 204 260 320 393 474
#     4  12  29  49  78 116 155 208 264 326 401 475
#     4  12  29  47  80 114 159 205 260 328 399 472
#     4  12  28  50  79 115 158 208 257 331 396 475
#     4  12  27  47  80 111 161 202 268 318 405 470
#
# _framework density 23.213007000000001
#
# number of rings (size 3 to 8) (size 9 to 14) (size 15 to 20)
#    0.000    0.000    3.750    4.500   10.500    0.000 
#    0.000    0.000    0.000    0.000    0.000    0.000 
#    0.000    0.000    0.000    0.000    0.000    0.000 
#
# Total GULP energy -198471.815302 kJ/mol
# GULP energy per Si atom -12404.488456 kJ/mol
# Density = 2.316017 g / cm^3
# Si number density = 23.213007 Si / 1000 Ang^3
#
#
#
# Elastic Constant Matrix: (Units=GPa)
#
#
# Indices 1 2 3 4 5 6 
#
# 1 115.9723 38.3774 34.1972 0.0000 -27.4541 0.0000
# 2 38.3774 81.0156 20.9444 0.0000 -7.8888 0.0000
# 3 34.1972 20.9444 128.9064 0.0000 -22.4354 0.0000
# 4 0.0000 0.0000 0.0000 28.6039 0.0000 -5.8269
# 5 -27.4541 -7.8888 -22.4354 0.0000 41.5457 0.0000
# 6 0.0000 0.0000 0.0000 -5.8269 0.0000 46.5490
#
#
#
# Elastic Compliance Matrix: (Units=1/GPa)
#
#
# Indices 1 2 3 4 5 6 
#
# 1 0.012101 -0.004769 -0.001326 0.000000 0.006375 0.000000
# 2 -0.004769 0.014844 -0.001330 0.000000 -0.001051 0.000000
# 3 -0.001326 -0.001330 0.008972 0.000000 0.003717 0.000000
# 4 0.000000 0.000000 0.000000 0.035875 0.000000 0.004491
# 5 0.006375 -0.001051 0.003717 0.000000 0.030090 0.000000
# 6 0.000000 0.000000 0.000000 0.004491 0.000000 0.022045
#
#
# Mechanical properties :
#
#
# Convention : Reuss Voigt Hill
#
# Bulk Modulus (GPa) = 47.46428 56.99247 52.22838
# Shear Modulus (GPa) = 34.29404 38.83141 36.56273
#
# Velocity S-wave (km/s) = 3.84782 4.09446 3.97305
# Velocity P-wave (km/s) = 6.34292 6.85260 6.60268
#
# Compressibility (1/GPa) = 0.02106847
#
# Stress axis : x y z
#
# Youngs Moduli (GPa) = 82.63826 67.36881 111.45583
#
# Poissons Ratio (x) = 0.32126 0.14778
# Poissons Ratio (y) = 0.39408 0.14818
# Poissons Ratio (z) = 0.10957 0.08957
#
# Static dielectric constant tensor:
#      x y z
#    x 4.481990 0.000000 -0.103160 
#    y 0.000000 4.325960 0.000000 
#    z -0.103160 0.000000 4.273730 
# 
# 
# High freq. dielectric constant tensor:
#      x y z
#    x 1.931410 0.000000 -0.008500 
#    y 0.000000 1.930610 0.000000 
#    z -0.008500 0.000000 1.927840 
# 
# From -- ./inp_files/5403.got.cif
#   From: 2010.03.12/outbox.cif.g09.slc.cpg/sg4_3_cif.got.tgz:5403.got - 2010.03.31 09:31:35.
