data_PCOD8047020
_publ_section_title
;
Structure prediction by ZEFSAII (Michael W. Deem and Ramdas Pophale) SiO2 
 PCOD8047020
Probable space group: P 21
;
_chemical_formula_sum "Si O2"
_cell_formula_units_Z 10
_cell_length_a 7.766128
_cell_length_b 5.264481
_cell_length_c 12.111273
_cell_angle_alpha 90.000000
_cell_angle_beta 124.755183
_cell_angle_gamma 90.000000
_cell_volume 406.825236
_symmetry_space_group_name_H-M "P 21"
_symmetry_group_IT_number 4
_symmetry_cell_setting 'monoclinic'
loop_
_space_group_symop_operation_xyz
x,y,z
-x,1/2+y,-z
loop_
_atom_site_type_symbol
_atom_site_label
_atom_site_fract_x
_atom_site_fract_y
_atom_site_fract_z
Si Si1 0.011792 0.347760 0.152240
Si Si2 0.664098 0.802872 0.338201
Si Si3 0.448924 0.720331 0.042043
Si Si4 0.219236 0.856611 0.252072
Si Si5 0.024060 0.097448 0.376193
O O1 0.136119 0.100633 0.152139
O O2 0.004618 0.336673 0.285247
O O3 0.778446 0.342035 0.017981
O O4 0.866234 0.102256 0.838563
O O5 0.564775 0.653208 0.198359
O O6 0.825217 0.630721 0.464223
O O7 0.471602 0.877825 0.348109
O O8 0.792169 0.043668 0.338371
O O9 0.423190 0.451019 0.970032
O O10 0.125703 0.864914 0.342550
#
# Coordination Sequence:
#
# PCOD8047020 Si02
#       5
#     2   2   2   2   2
#     4  10  23  49  71  98 159 176 244 315 358 423
#     4  12  27  45  81 106 148 206 244 297 397 425
#     4  12  25  47  73 111 144 194 247 309 361 450
#     4  10  26  48  72 109 145 191 242 318 356 445
#     4  10  27  45  69 110 146 187 251 303 352 457
#
# _framework density 24.580582
#
# number of rings (size 3 to 8) (size 9 to 14) (size 15 to 20)
#    1.200    0.000    2.000    2.400    8.400    4.800 
#    0.000    0.000    0.000    0.000    0.000    0.000 
#    0.000    0.000    0.000    0.000    0.000    0.000 
#
# Total GULP energy -123928.839367 kJ/mol
# GULP energy per Si atom -12392.883937 kJ/mol
# Density = 2.452464 g / cm^3
# Si number density = 24.580582 Si / 1000 Ang^3
#
#
#
# Elastic Constant Matrix: (Units=GPa)
#
#
# Indices 1 2 3 4 5 6 
#
# 1 133.2185 23.8201 11.7649 0.0000 31.7096 0.0000
# 2 23.8201 122.8131 1.7163 0.0000 6.2673 0.0000
# 3 11.7649 1.7163 125.9819 0.0000 21.6772 0.0000
# 4 0.0000 0.0000 0.0000 27.2702 0.0000 14.7904
# 5 31.7096 6.2673 21.6772 0.0000 40.4940 0.0000
# 6 0.0000 0.0000 0.0000 14.7904 0.0000 25.2669
#
#
#
# Elastic Compliance Matrix: (Units=1/GPa)
#
#
# Indices 1 2 3 4 5 6 
#
# 1 0.009502 -0.001469 0.000412 0.000000 -0.007434 0.000000
# 2 -0.001469 0.008436 0.000054 0.000000 -0.000184 0.000000
# 3 0.000412 0.000054 0.008762 0.000000 -0.005022 0.000000
# 4 0.000000 0.000000 0.000000 0.053728 0.000000 -0.031450
# 5 -0.007434 -0.000184 -0.005022 0.000000 0.033233 0.000000
# 6 0.000000 0.000000 0.000000 -0.031450 0.000000 0.057988
#
#
# Mechanical properties :
#
#
# Convention : Reuss Voigt Hill
#
# Bulk Modulus (GPa) = 40.49647 50.73512 45.61580
# Shear Modulus (GPa) = 27.48950 41.58703 34.53826
#
# Velocity S-wave (km/s) = 3.34779 4.11769 3.75254
# Velocity P-wave (km/s) = 5.60842 6.57969 6.11337
#
# Compressibility (1/GPa) = 0.02469351
#
# Stress axis : x y z
#
# Youngs Moduli (GPa) = 105.23748 118.53844 114.12274
#
# Poissons Ratio (x) = 0.17418 -0.04699
# Poissons Ratio (y) = 0.15464 -0.00616
# Poissons Ratio (z) = -0.04333 -0.00639
#
# Static dielectric constant tensor:
#      x y z
#    x 4.535500 0.000000 0.091720 
#    y 0.000000 3.991230 0.000000 
#    z 0.091720 0.000000 4.240110 
# 
# 
# High freq. dielectric constant tensor:
#      x y z
#    x 1.983330 0.000000 0.006830 
#    y 0.000000 1.956840 0.000000 
#    z 0.006830 0.000000 1.980840 
# 
# From -- ./inp_files/10686.got.cif
#   From: 2010.03.12/outbox.cif.g09.slc.cpg/sg4_6_cif.got.tgz:10686.got - 2010.03.31 09:31:35.
