data_PCOD8047104
_publ_section_title
;
Structure prediction by ZEFSAII (Michael W. Deem and Ramdas Pophale) SiO2 
 PCOD8047104
Probable space group: P 21
;
_chemical_formula_sum "Si O2"
_cell_formula_units_Z 14
_cell_length_a 5.169688
_cell_length_b 7.996789
_cell_length_c 12.993917
_cell_angle_alpha 90.000000
_cell_angle_beta 68.132632
_cell_angle_gamma 90.000000
_cell_volume 498.529368
_symmetry_space_group_name_H-M "P 21"
_symmetry_group_IT_number 4
_symmetry_cell_setting 'monoclinic'
loop_
_space_group_symop_operation_xyz
x,y,z
-x,1/2+y,-z
loop_
_atom_site_type_symbol
_atom_site_label
_atom_site_fract_x
_atom_site_fract_y
_atom_site_fract_z
Si Si1 0.426603 0.236770 0.185372
Si Si2 0.678874 0.872601 0.354794
Si Si3 0.372041 0.401437 0.879574
Si Si4 0.316940 0.180056 0.426547
Si Si5 0.716884 0.061237 0.577591
Si Si6 0.829594 0.174782 0.772993
Si Si7 0.009040 0.916243 0.885396
O O1 0.263990 0.192308 0.313092
O O2 0.265176 0.362358 0.136604
O O3 0.725604 0.307098 0.177137
O O4 0.472064 0.071357 0.110265
O O5 0.651289 0.904542 0.238768
O O6 0.501371 0.709290 0.423038
O O7 0.005984 0.819836 0.317745
O O8 0.580092 0.054295 0.417888
O O9 0.571361 0.245810 0.878254
O O10 0.073061 0.402996 0.982093
O O11 0.355306 0.374874 0.462451
O O12 0.035714 0.098224 0.507233
O O13 0.707432 0.044923 0.704809
O O14 0.046766 0.099548 0.826608
#
# Coordination Sequence:
#
# PCOD8047104 Si02
#       7
#     2   2   2   2   2   2   2
#     4  11  27  47  70 112 149 193 248 315 366 455
#     4  10  24  45  69 107 145 189 251 311 367 455
#     4  10  26  43  74 103 149 195 248 304 375 444
#     4  11  22  47  73 102 146 192 249 305 384 439
#     4  11  22  47  72 105 145 196 247 313 377 452
#     4  11  25  47  71 106 149 190 254 311 375 447
#     4  12  26  46  77 107 153 195 253 303 380 442
#
# _framework density 28.082595999999999
#
# number of rings (size 3 to 8) (size 9 to 14) (size 15 to 20)
#    0.000    1.143    2.857    1.714   10.000    0.000 
#    7.714    0.000    0.000    0.000    0.000    0.000 
#    0.000    0.000    0.000    0.000    0.000    0.000 
#
# Total GULP energy -173550.247922 kJ/mol
# GULP energy per Si atom -12396.446280 kJ/mol
# Density = 2.801868 g / cm^3
# Si number density = 28.082596 Si / 1000 Ang^3
#
#
#
# Elastic Constant Matrix: (Units=GPa)
#
#
# Indices 1 2 3 4 5 6 
#
# 1 72.6823 38.6679 18.9655 0.0000 -12.3507 0.0000
# 2 38.6679 131.1122 60.1169 0.0000 12.8540 0.0000
# 3 18.9655 60.1169 122.9672 0.0000 -14.7428 0.0000
# 4 0.0000 0.0000 0.0000 42.2684 0.0000 -1.2401
# 5 -12.3507 12.8540 -14.7428 0.0000 26.2539 0.0000
# 6 0.0000 0.0000 0.0000 -1.2401 0.0000 46.8839
#
#
#
# Elastic Compliance Matrix: (Units=1/GPa)
#
#
# Indices 1 2 3 4 5 6 
#
# 1 0.020413 -0.009012 0.003150 0.000000 0.015784 0.000000
# 2 -0.009012 0.015704 -0.008275 0.000000 -0.016575 0.000000
# 3 0.003150 -0.008275 0.013247 0.000000 0.012972 0.000000
# 4 0.000000 0.000000 0.000000 0.023677 0.000000 0.000626
# 5 0.015784 -0.016575 0.012972 0.000000 0.060914 0.000000
# 6 0.000000 0.000000 0.000000 0.000626 0.000000 0.021346
#
#
# Mechanical properties :
#
#
# Convention : Reuss Voigt Hill
#
# Bulk Modulus (GPa) = 47.41456 62.47360 54.94408
# Shear Modulus (GPa) = 26.23223 37.01534 31.62379
#
# Velocity S-wave (km/s) = 3.05964 3.63449 3.35938
# Velocity P-wave (km/s) = 5.42240 6.31723 5.88684
#
# Compressibility (1/GPa) = 0.02109057
#
# Stress axis : x y z
#
# Youngs Moduli (GPa) = 48.98769 63.67824 75.48850
#
# Poissons Ratio (x) = 0.57387 -0.23778
# Poissons Ratio (y) = 0.44148 0.62464
# Poissons Ratio (z) = -0.15431 0.52692
#
# Static dielectric constant tensor:
#      x y z
#    x 4.846780 0.000000 0.142440 
#    y 0.000000 5.893430 0.000000 
#    z 0.142440 0.000000 5.714230 
# 
# 
# High freq. dielectric constant tensor:
#      x y z
#    x 2.122230 0.000000 0.014570 
#    y 0.000000 2.160350 0.000000 
#    z 0.014570 0.000000 2.172310 
# 
# From -- ./inp_files/2558.got.cif
#   From: 2010.03.12/outbox.cif.g09.slc.cpg/sg4_2_cif.got.tgz:2558.got - 2010.03.31 09:31:35.
