data_PCOD8047984
_publ_section_title
;
Structure prediction by ZEFSAII (Michael W. Deem and Ramdas Pophale) SiO2 
 PCOD8047984
Probable space group: P 21
;
_chemical_formula_sum "Si O2"
_cell_formula_units_Z 16
_cell_length_a 12.127854
_cell_length_b 5.181360
_cell_length_c 17.941275
_cell_angle_alpha 90.000000
_cell_angle_beta 146.119319
_cell_angle_gamma 90.000000
_cell_volume 628.490624
_symmetry_space_group_name_H-M "P 21"
_symmetry_group_IT_number 4
_symmetry_cell_setting 'monoclinic'
loop_
_space_group_symop_operation_xyz
x,y,z
-x,1/2+y,-z
loop_
_atom_site_type_symbol
_atom_site_label
_atom_site_fract_x
_atom_site_fract_y
_atom_site_fract_z
Si Si1 0.302957 0.783940 0.719083
Si Si2 0.053651 0.687339 0.840234
Si Si3 0.149031 0.113994 0.421734
Si Si4 0.034783 0.613096 0.446915
Si Si5 0.465974 0.736901 0.434500
Si Si6 0.743500 0.864734 0.924859
Si Si7 0.382905 0.837353 0.927049
Si Si8 0.875231 0.063197 0.847442
O O1 0.169393 0.582594 0.596767
O O2 0.519041 0.774111 0.804276
O O3 0.310457 0.699132 0.809814
O O4 0.194064 0.067377 0.655370
O O5 0.202229 0.890091 0.882784
O O6 0.932703 0.546572 0.706852
O O7 0.199155 0.500317 0.966164
O O8 0.894768 0.808127 0.807862
O O9 0.075202 0.386877 0.410752
O O10 0.385835 0.130939 0.546191
O O11 0.080643 0.887586 0.437206
O O12 0.461102 0.516558 0.496273
O O13 0.249398 0.765620 0.273416
O O14 0.757362 0.033190 0.858041
O O15 0.900475 0.633864 0.004751
O O16 0.526247 0.616377 0.041501
#
# Coordination Sequence:
#
# PCOD8047984 Si02
#       8
#     2   2   2   2   2   2   2   2
#     4  12  28  52  82 116 167 210 267 335 405 493
#     4  12  26  48  77 110 155 203 261 327 394 468
#     4  12  27  49  81 116 163 211 265 337 400 482
#     4  12  29  51  77 120 160 210 264 329 414 485
#     4  12  26  48  80 116 161 214 272 336 403 478
#     4  12  27  51  79 113 161 210 272 330 411 474
#     4  12  28  48  79 115 151 203 255 322 391 466
#     4  12  27  49  77 114 156 213 266 336 392 488
#
# _framework density 25.457816999999999
#
# number of rings (size 3 to 8) (size 9 to 14) (size 15 to 20)
#    0.000    0.000    5.000    3.750    3.500    2.000 
#    9.000    0.000    0.000    0.000    0.000    0.000 
#    0.000    0.000    0.000    0.000    0.000    0.000 
#
# Total GULP energy -198317.305338 kJ/mol
# GULP energy per Si atom -12394.831584 kJ/mol
# Density = 2.539987 g / cm^3
# Si number density = 25.457817 Si / 1000 Ang^3
#
#
#
# Elastic Constant Matrix: (Units=GPa)
#
#
# Indices 1 2 3 4 5 6 
#
# 1 116.1679 3.4715 30.3406 0.0000 -2.6145 0.0000
# 2 3.4715 59.1956 -2.8949 0.0000 -8.7494 0.0000
# 3 30.3406 -2.8949 127.9933 0.0000 -4.4790 0.0000
# 4 0.0000 0.0000 0.0000 37.6324 0.0000 -4.0327
# 5 -2.6145 -8.7494 -4.4790 0.0000 54.6245 0.0000
# 6 0.0000 0.0000 0.0000 -4.0327 0.0000 33.9357
#
#
#
# Elastic Compliance Matrix: (Units=1/GPa)
#
#
# Indices 1 2 3 4 5 6 
#
# 1 0.009202 -0.000623 -0.002190 0.000000 0.000161 0.000000
# 2 -0.000623 0.017376 0.000639 0.000000 0.002806 0.000000
# 3 -0.002190 0.000639 0.008370 0.000000 0.000684 0.000000
# 4 0.000000 0.000000 0.000000 0.026916 0.000000 0.003198
# 5 0.000161 0.002806 0.000684 0.000000 0.018820 0.000000
# 6 0.000000 0.000000 0.000000 0.003198 0.000000 0.029848
#
#
# Mechanical properties :
#
#
# Convention : Reuss Voigt Hill
#
# Bulk Modulus (GPa) = 32.67922 40.57680 36.62801
# Shear Modulus (GPa) = 39.97452 43.40117 41.68784
#
# Velocity S-wave (km/s) = 3.96691 4.13343 4.05103
# Velocity P-wave (km/s) = 5.81776 6.22526 6.02495
#
# Compressibility (1/GPa) = 0.03060048
#
# Stress axis : x y z
#
# Youngs Moduli (GPa) = 108.66707 57.55194 119.46865
#
# Poissons Ratio (x) = 0.03585 0.26162
# Poissons Ratio (y) = 0.06769 -0.07632
# Poissons Ratio (z) = 0.23797 -0.03677
#
# Static dielectric constant tensor:
#      x y z
#    x 5.027450 0.000000 0.067730 
#    y 0.000000 4.129160 0.000000 
#    z 0.067730 0.000000 5.000470 
# 
# 
# High freq. dielectric constant tensor:
#      x y z
#    x 2.040390 0.000000 -0.002260 
#    y 0.000000 1.988480 0.000000 
#    z -0.002260 0.000000 2.035490 
# 
# From -- ./inp_files/15091.got.cif
#   From: 2010.03.12/outbox.cif.g09.slc.cpg/sg4_8_cif.got.tgz:15091.got - 2010.03.31 09:31:35.
