data_PCOD8047167
_publ_section_title
;
Structure prediction by ZEFSAII (Michael W. Deem and Ramdas Pophale) SiO2 
 PCOD8047167
Probable space group: P 21
;
_chemical_formula_sum "Si O2"
_cell_formula_units_Z 12
_cell_length_a 5.232994
_cell_length_b 8.901005
_cell_length_c 9.377175
_cell_angle_alpha 90.000000
_cell_angle_beta 89.453949
_cell_angle_gamma 90.000000
_cell_volume 436.758715
_symmetry_space_group_name_H-M "P 21"
_symmetry_group_IT_number 4
_symmetry_cell_setting 'monoclinic'
loop_
_space_group_symop_operation_xyz
x,y,z
-x,1/2+y,-z
loop_
_atom_site_type_symbol
_atom_site_label
_atom_site_fract_x
_atom_site_fract_y
_atom_site_fract_z
Si Si1 0.826230 0.826200 0.809299
Si Si2 0.688518 0.654228 0.551375
Si Si3 0.985976 0.884981 0.360466
Si Si4 0.166221 0.581661 0.886729
Si Si5 0.671980 0.643594 0.042236
Si Si6 0.648708 0.130363 0.696643
O O1 0.645850 0.712798 0.713112
O O2 0.107908 0.746701 0.813131
O O3 0.823777 0.991892 0.746657
O O4 0.707757 0.811223 0.971241
O O5 0.865018 0.507748 0.546336
O O6 0.424444 0.613058 0.470660
O O7 0.815175 0.793500 0.469963
O O8 0.186962 0.778389 0.277252
O O9 0.813001 0.959103 0.238711
O O10 0.924340 0.545940 0.997407
O O11 0.417820 0.572038 0.977902
O O12 0.619504 0.645724 0.212558
#
# Coordination Sequence:
#
# PCOD8047167 Si02
#       6
#     2   2   2   2   2   2
#     4   9  24  45  69 105 142 191 237 301 351 430
#     4  11  25  46  69 105 142 190 245 295 361 426
#     4  11  26  43  73 104 145 192 240 301 357 430
#     4   9  24  46  74 101 149 182 239 289 365 414
#     4  10  25  45  75 107 144 188 234 302 354 431
#     4  12  26  41  74 104 144 187 245 292 368 421
#
# _framework density 27.475121999999999
#
# number of rings (size 3 to 8) (size 9 to 14) (size 15 to 20)
#    1.000    0.667    0.000    2.000    7.000    9.333 
#    0.000    0.000    0.000    0.000    0.000    0.000 
#    0.000    0.000    0.000    0.000    0.000    0.000 
#
# Total GULP energy -148730.845408 kJ/mol
# GULP energy per Si atom -12394.237117 kJ/mol
# Density = 2.741259 g / cm^3
# Si number density = 27.475122 Si / 1000 Ang^3
#
#
#
# Elastic Constant Matrix: (Units=GPa)
#
#
# Indices 1 2 3 4 5 6 
#
# 1 72.7883 -15.7325 -23.6252 0.0000 7.1713 0.0000
# 2 -15.7325 82.5399 -12.4754 0.0000 7.3720 0.0000
# 3 -23.6252 -12.4754 69.5956 0.0000 7.9929 0.0000
# 4 0.0000 0.0000 0.0000 29.6405 0.0000 -16.0209
# 5 7.1713 7.3720 7.9929 0.0000 41.8178 0.0000
# 6 0.0000 0.0000 0.0000 -16.0209 0.0000 13.3861
#
#
#
# Elastic Compliance Matrix: (Units=1/GPa)
#
#
# Indices 1 2 3 4 5 6 
#
# 1 0.017808 0.005018 0.007563 0.000000 -0.005384 0.000000
# 2 0.005018 0.014168 0.004733 0.000000 -0.004263 0.000000
# 3 0.007563 0.004733 0.018434 0.000000 -0.005655 0.000000
# 4 0.000000 0.000000 0.000000 0.095545 0.000000 0.114351
# 5 -0.005384 -0.004263 -0.005655 0.000000 0.026669 0.000000
# 6 0.000000 0.000000 0.000000 0.114351 0.000000 0.211563
#
#
# Mechanical properties :
#
#
# Convention : Reuss Voigt Hill
#
# Bulk Modulus (GPa) = 11.75925 13.47308 12.61617
# Shear Modulus (GPa) = 13.23083 35.41934 24.32509
#
# Velocity S-wave (km/s) = 2.19682 3.59436 2.97871
# Velocity P-wave (km/s) = 3.27474 4.70534 4.05365
#
# Compressibility (1/GPa) = 0.08503943
#
# Stress axis : x y z
#
# Youngs Moduli (GPa) = 56.15311 70.58178 54.24759
#
# Poissons Ratio (x) = -0.35421 -0.41029
# Poissons Ratio (y) = -0.28180 -0.25674
# Poissons Ratio (z) = -0.42470 -0.33405
#
# Static dielectric constant tensor:
#      x y z
#    x 4.594950 0.000000 0.148770 
#    y 0.000000 4.894730 0.000000 
#    z 0.148770 0.000000 5.540400 
# 
# 
# High freq. dielectric constant tensor:
#      x y z
#    x 2.085630 0.000000 0.014600 
#    y 0.000000 2.113050 0.000000 
#    z 0.014600 0.000000 2.125740 
# 
# From -- ./inp_files/2449.got.cif
#   From: 2010.03.12/outbox.cif.g09.slc.cpg/sg4_2_cif.got.tgz:2449.got - 2010.03.31 09:31:35.
