data_PCOD8047137
_publ_section_title
;
Structure prediction by ZEFSAII (Michael W. Deem and Ramdas Pophale) SiO2 
 PCOD8047137
Probable space group: P 21
;
_chemical_formula_sum "Si O2"
_cell_formula_units_Z 10
_cell_length_a 6.214830
_cell_length_b 11.489086
_cell_length_c 5.836131
_cell_angle_alpha 90.000000
_cell_angle_beta 74.585603
_cell_angle_gamma 90.000000
_cell_volume 401.725782
_symmetry_space_group_name_H-M "P 21"
_symmetry_group_IT_number 4
_symmetry_cell_setting 'monoclinic'
loop_
_space_group_symop_operation_xyz
x,y,z
-x,1/2+y,-z
loop_
_atom_site_type_symbol
_atom_site_label
_atom_site_fract_x
_atom_site_fract_y
_atom_site_fract_z
Si Si1 0.052005 0.271080 0.427037
Si Si2 0.788006 0.454956 0.242865
Si Si3 0.902844 0.094409 0.114330
Si Si4 0.317491 0.783685 0.094148
Si Si5 0.384597 0.384309 0.634755
O O1 0.300107 0.303012 0.447632
O O2 0.983549 0.370501 0.269823
O O3 0.031819 0.149242 0.296642
O O4 0.898305 0.269145 0.690825
O O5 0.592746 0.464275 0.488653
O O6 0.683309 0.404942 0.039531
O O7 0.910890 0.575685 0.140084
O O8 0.807417 0.969864 0.221120
O O9 0.697865 0.174365 0.078522
O O10 0.538594 0.792037 0.190226
#
# Coordination Sequence:
#
# PCOD8047137 Si02
#       5
#     2   2   2   2   2
#     4  10  24  48  69 106 146 180 244 297 339 435
#     4  10  24  48  70 101 144 188 234 296 354 415
#     4  11  25  49  73 102 150 193 226 298 366 405
#     4  10  24  48  69 108 141 186 242 290 352 424
#     4  11  25  49  73 105 147 183 244 295 345 433
#
# _framework density 24.892602
#
# number of rings (size 3 to 8) (size 9 to 14) (size 15 to 20)
#    0.000    1.600    2.000    0.000    5.600    0.000 
#   28.800    0.000    0.000    0.000    0.000    0.000 
#    0.000    0.000    0.000    0.000    0.000    0.000 
#
# Total GULP energy -123957.153684 kJ/mol
# GULP energy per Si atom -12395.715368 kJ/mol
# Density = 2.483595 g / cm^3
# Si number density = 24.892602 Si / 1000 Ang^3
#
#
#
# Elastic Constant Matrix: (Units=GPa)
#
#
# Indices 1 2 3 4 5 6 
#
# 1 130.7917 47.9373 30.8088 0.0000 33.9985 0.0000
# 2 47.9373 89.4698 27.4101 0.0000 12.3276 0.0000
# 3 30.8088 27.4101 78.5642 0.0000 21.5960 0.0000
# 4 0.0000 0.0000 0.0000 39.0707 0.0000 1.6535
# 5 33.9985 12.3276 21.5960 0.0000 45.6099 0.0000
# 6 0.0000 0.0000 0.0000 1.6535 0.0000 31.3031
#
#
#
# Elastic Compliance Matrix: (Units=1/GPa)
#
#
# Indices 1 2 3 4 5 6 
#
# 1 0.011413 -0.004907 -0.000908 0.000000 -0.006751 0.000000
# 2 -0.004907 0.014715 -0.003589 0.000000 0.001380 0.000000
# 3 -0.000908 -0.003589 0.015961 0.000000 -0.005911 0.000000
# 4 0.000000 0.000000 0.000000 0.025652 0.000000 -0.001355
# 5 -0.006751 0.001380 -0.005911 0.000000 0.029384 0.000000
# 6 0.000000 0.000000 0.000000 -0.001355 0.000000 0.032017
#
#
# Mechanical properties :
#
#
# Convention : Reuss Voigt Hill
#
# Bulk Modulus (GPa) = 42.95058 56.79313 49.87185
# Shear Modulus (GPa) = 32.11086 36.04138 34.07612
#
# Velocity S-wave (km/s) = 3.59552 3.80922 3.70391
# Velocity P-wave (km/s) = 5.87612 6.49705 6.19437
#
# Compressibility (1/GPa) = 0.02328257
#
# Stress axis : x y z
#
# Youngs Moduli (GPa) = 87.61997 67.95621 62.65097
#
# Poissons Ratio (x) = 0.33343 0.05688
# Poissons Ratio (y) = 0.42992 0.22486
# Poissons Ratio (z) = 0.07955 0.24390
#
# Static dielectric constant tensor:
#      x y z
#    x 4.422090 0.000000 0.284270 
#    y 0.000000 4.209600 0.000000 
#    z 0.284270 0.000000 4.595140 
# 
# 
# High freq. dielectric constant tensor:
#      x y z
#    x 1.985330 0.000000 0.012350 
#    y 0.000000 1.969570 0.000000 
#    z 0.012350 0.000000 2.009080 
# 
# From -- ./inp_files/192.got.cif
#   From: 2010.03.12/outbox.cif.g09.slc.cpg/sg4_1_cif.got.tgz:192.got - 2010.03.31 09:31:35.
