data_PCOD8047261
_publ_section_title
;
Structure prediction by ZEFSAII (Michael W. Deem and Ramdas Pophale) SiO2 
 PCOD8047261
Probable space group: P 21
;
_chemical_formula_sum "Si O2"
_cell_formula_units_Z 10
_cell_length_a 16.985150
_cell_length_b 4.902441
_cell_length_c 23.707161
_cell_angle_alpha 90.000000
_cell_angle_beta 166.651085
_cell_angle_gamma 90.000000
_cell_volume 455.772937
_symmetry_space_group_name_H-M "P 21"
_symmetry_group_IT_number 4
_symmetry_cell_setting 'monoclinic'
loop_
_space_group_symop_operation_xyz
x,y,z
-x,1/2+y,-z
loop_
_atom_site_type_symbol
_atom_site_label
_atom_site_fract_x
_atom_site_fract_y
_atom_site_fract_z
Si Si1 0.103785 0.914240 0.805374
Si Si2 0.233253 0.458623 0.544680
Si Si3 0.287340 0.185825 0.361322
Si Si4 0.453808 0.936590 0.866980
Si Si5 0.405031 0.474027 0.160430
O O1 0.846373 0.826047 0.674954
O O2 0.325532 0.650289 0.941911
O O3 0.893824 0.031690 0.606305
O O4 0.365642 0.143822 0.008555
O O5 0.413419 0.166664 0.667529
O O6 0.922289 0.434879 0.371104
O O7 0.518051 0.668051 0.765888
O O8 0.461953 0.433354 0.448296
O O9 0.996062 0.042580 0.120345
O O10 0.436021 0.038617 0.790182
#
# Coordination Sequence:
#
# PCOD8047261 Si02
#       5
#     2   2   2   2   2
#     4  11  23  39  63  92 122 163 207 242 298 369
#     4  12  22  38  61  97 131 153 191 257 304 356
#     4  11  23  44  67  84 114 166 216 258 302 361
#     4  11  21  39  61  91 130 170 193 227 300 386
#     4  11  23  38  62  92 121 160 205 246 302 364
#
# _framework density 21.940750999999999
#
# number of rings (size 3 to 8) (size 9 to 14) (size 15 to 20)
#    0.000    0.800    0.000   10.800    0.000    0.000 
#    0.000    4.000    0.000    2.400    0.000    0.000 
#    0.000    0.000    0.000    0.000    0.000    0.000 
#
# Total GULP energy -124021.147167 kJ/mol
# GULP energy per Si atom -12402.114717 kJ/mol
# Density = 2.189081 g / cm^3
# Si number density = 21.940751 Si / 1000 Ang^3
#
#
#
# Elastic Constant Matrix: (Units=GPa)
#
#
# Indices 1 2 3 4 5 6 
#
# 1 33.9579 30.2108 35.0361 0.0000 1.3827 0.0000
# 2 30.2108 141.0270 51.1651 0.0000 16.9300 0.0000
# 3 35.0361 51.1651 96.8684 0.0000 12.2337 0.0000
# 4 0.0000 0.0000 0.0000 58.3870 0.0000 0.4630
# 5 1.3827 16.9300 12.2337 0.0000 36.4966 0.0000
# 6 0.0000 0.0000 0.0000 0.4630 0.0000 28.1022
#
#
#
# Elastic Compliance Matrix: (Units=1/GPa)
#
#
# Indices 1 2 3 4 5 6 
#
# 1 0.051059 -0.005810 -0.016179 0.000000 0.006184 0.000000
# 2 -0.005810 0.009681 -0.002582 0.000000 -0.003405 0.000000
# 3 -0.016179 -0.002582 0.018075 0.000000 -0.004248 0.000000
# 4 0.000000 0.000000 0.000000 0.017129 0.000000 -0.000282
# 5 0.006184 -0.003405 -0.004248 0.000000 0.030169 0.000000
# 6 0.000000 0.000000 0.000000 -0.000282 0.000000 0.035589
#
#
# Mechanical properties :
#
#
# Convention : Reuss Voigt Hill
#
# Bulk Modulus (GPa) = 33.70173 56.07526 44.88849
# Shear Modulus (GPa) = 22.65144 34.95993 28.80568
#
# Velocity S-wave (km/s) = 3.21657 3.99605 3.62731
# Velocity P-wave (km/s) = 5.40266 6.84867 6.16819
#
# Compressibility (1/GPa) = 0.02967207
#
# Stress axis : x y z
#
# Youngs Moduli (GPa) = 19.58529 103.29495 55.32363
#
# Poissons Ratio (x) = 0.60017 0.89511
# Poissons Ratio (y) = 0.11380 0.14284
# Poissons Ratio (z) = 0.31688 0.26670
#
# Static dielectric constant tensor:
#      x y z
#    x 3.636830 0.000000 0.096790 
#    y 0.000000 4.241880 0.000000 
#    z 0.096790 0.000000 4.060390 
# 
# 
# High freq. dielectric constant tensor:
#      x y z
#    x 1.836110 0.000000 0.002380 
#    y 0.000000 1.886940 0.000000 
#    z 0.002380 0.000000 1.870900 
# 
# From -- ./inp_files/9988.got.cif
#   From: 2010.03.12/outbox.cif.g09.slc.cpg/sg4_5_cif.got.tgz:9988.got - 2010.03.31 09:31:35.
