data_PCOD8047929
_publ_section_title
;
Structure prediction by ZEFSAII (Michael W. Deem and Ramdas Pophale) SiO2 
 PCOD8047929
Probable space group: P 21
;
_chemical_formula_sum "Si O2"
_cell_formula_units_Z 10
_cell_length_a 13.978867
_cell_length_b 4.951131
_cell_length_c 18.144812
_cell_angle_alpha 90.000000
_cell_angle_beta 161.138804
_cell_angle_gamma 90.000000
_cell_volume 405.978592
_symmetry_space_group_name_H-M "P 21"
_symmetry_group_IT_number 4
_symmetry_cell_setting 'monoclinic'
loop_
_space_group_symop_operation_xyz
x,y,z
-x,1/2+y,-z
loop_
_atom_site_type_symbol
_atom_site_label
_atom_site_fract_x
_atom_site_fract_y
_atom_site_fract_z
Si Si1 0.249999 0.081270 0.500000
Si Si2 0.395208 0.690553 0.965735
Si Si3 0.822751 0.471210 0.393295
Si Si4 0.895195 0.190625 0.965726
Si Si5 0.322751 0.971295 0.393293
O O1 0.242611 0.899101 0.568751
O O2 0.257403 0.899121 0.431254
O O3 0.952665 0.263305 0.278858
O O4 0.547312 0.263331 0.721129
O O5 0.429113 0.458330 0.928564
O O6 0.527359 0.580976 0.138704
O O7 0.926467 0.203124 0.427250
O O8 0.027354 0.081067 0.138702
O O9 0.070843 0.458421 0.071406
O O10 0.573504 0.203247 0.572747
#
# Coordination Sequence:
#
# PCOD8047929 Si02
#       5
#     2   2   2   2   2
#     4  12  26  46  80  98 148 190 234 286 376 390
#     4  12  25  47  72 105 143 184 238 292 347 426
#     4  12  25  47  72 105 143 184 238 292 347 426
#     4  12  25  47  72 105 143 184 238 292 347 426
#     4  12  25  47  72 105 143 184 238 292 347 426
#
# _framework density 24.631841000000001
#
# number of rings (size 3 to 8) (size 9 to 14) (size 15 to 20)
#    0.000    0.000    8.000    1.200    0.000    6.400 
#    0.000    8.000    0.000    0.000    0.000    0.000 
#    0.000    0.000    0.000    0.000    0.000    0.000 
#
# Total GULP energy -124003.762339 kJ/mol
# GULP energy per Si atom -12400.376234 kJ/mol
# Density = 2.457578 g / cm^3
# Si number density = 24.631841 Si / 1000 Ang^3
#
#
#
# Elastic Constant Matrix: (Units=GPa)
#
#
# Indices 1 2 3 4 5 6 
#
# 1 180.3957 31.4518 58.3541 0.0000 -8.3427 0.0000
# 2 31.4518 109.2888 25.7393 0.0000 13.6999 0.0000
# 3 58.3541 25.7393 183.3802 0.0000 -0.6920 0.0000
# 4 0.0000 0.0000 0.0000 27.4532 0.0000 -12.1425
# 5 -8.3427 13.6999 -0.6920 0.0000 42.2672 0.0000
# 6 0.0000 0.0000 0.0000 -12.1425 0.0000 22.6750
#
#
#
# Elastic Compliance Matrix: (Units=1/GPa)
#
#
# Indices 1 2 3 4 5 6 
#
# 1 0.006509 -0.001667 -0.001831 0.000000 0.001795 0.000000
# 2 -0.001667 0.010311 -0.000931 0.000000 -0.003686 0.000000
# 3 -0.001831 -0.000931 0.006166 0.000000 0.000041 0.000000
# 4 0.000000 0.000000 0.000000 0.047731 0.000000 0.025560
# 5 0.001795 -0.003686 0.000041 0.000000 0.025209 0.000000
# 6 0.000000 0.000000 0.000000 0.025560 0.000000 0.057789
#
#
# Mechanical properties :
#
#
# Convention : Reuss Voigt Hill
#
# Bulk Modulus (GPa) = 70.77125 78.23946 74.50535
# Shear Modulus (GPa) = 29.88963 42.31372 36.10168
#
# Velocity S-wave (km/s) = 3.48725 4.14919 3.83254
# Velocity P-wave (km/s) = 6.70884 7.40181 7.06383
#
# Compressibility (1/GPa) = 0.01413003
#
# Stress axis : x y z
#
# Youngs Moduli (GPa) = 153.62878 96.98235 162.16811
#
# Poissons Ratio (x) = 0.16169 0.29685
# Poissons Ratio (y) = 0.25612 0.15093
# Poissons Ratio (z) = 0.28122 0.09026
#
# Static dielectric constant tensor:
#      x y z
#    x 4.562880 0.000000 -0.125410 
#    y 0.000000 4.004290 0.000000 
#    z -0.125410 0.000000 4.609470 
# 
# 
# High freq. dielectric constant tensor:
#      x y z
#    x 1.992870 0.000000 -0.025950 
#    y 0.000000 1.940510 0.000000 
#    z -0.025950 0.000000 2.002800 
# 
# From -- ./inp_files/57.got.cif
#   From: 2010.03.12/outbox.cif.g09.slc.cpg/sg4_1_cif.got.tgz:57.got - 2010.03.31 09:31:35.
