data_PCOD8047400
_publ_section_title
;
Structure prediction by ZEFSAII (Michael W. Deem and Ramdas Pophale) SiO2 
 PCOD8047400
Probable space group: P 21
;
_chemical_formula_sum "Si O2"
_cell_formula_units_Z 16
_cell_length_a 12.740811
_cell_length_b 9.710065
_cell_length_c 5.457047
_cell_angle_alpha 90.000000
_cell_angle_beta 83.391542
_cell_angle_gamma 90.000000
_cell_volume 670.628076
_symmetry_space_group_name_H-M "P 21"
_symmetry_group_IT_number 4
_symmetry_cell_setting 'monoclinic'
loop_
_space_group_symop_operation_xyz
x,y,z
-x,1/2+y,-z
loop_
_atom_site_type_symbol
_atom_site_label
_atom_site_fract_x
_atom_site_fract_y
_atom_site_fract_z
Si Si1 0.183089 0.451270 0.655324
Si Si2 0.239426 0.804291 0.374125
Si Si3 0.648998 0.831954 0.741014
Si Si4 0.963755 0.173472 0.437141
Si Si5 0.582227 0.336579 0.287622
Si Si6 0.683702 0.097963 0.015694
Si Si7 0.094277 0.202618 0.902567
Si Si8 0.712595 0.551995 0.975699
O O1 0.249976 0.356695 0.454350
O O2 0.083805 0.518947 0.543862
O O3 0.143139 0.356241 0.889837
O O4 0.250902 0.576399 0.750919
O O5 0.129229 0.789649 0.550748
O O6 0.347376 0.805730 0.496908
O O7 0.240156 0.665075 0.208703
O O8 0.235056 0.945498 0.226446
O O9 0.541434 0.842068 0.608833
O O10 0.660997 0.682589 0.856643
O O11 0.637006 0.950939 0.948801
O O12 0.030805 0.186844 0.666687
O O13 0.029230 0.190387 0.169816
O O14 0.592805 0.210184 0.092444
O O15 0.620658 0.479784 0.157584
O O16 0.191339 0.095244 0.872548
#
# Coordination Sequence:
#
# PCOD8047400 Si02
#       8
#     2   2   2   2   2   2   2   2
#     4  12  27  50  76 111 157 199 267 327 385 476
#     4  11  26  48  74 110 155 196 265 323 382 473
#     4  12  25  48  78 113 156 202 260 318 404 471
#     4  12  28  51  80 114 151 213 260 318 401 464
#     4  11  26  45  81 111 153 210 253 323 399 471
#     4  11  22  49  74 103 155 201 259 312 389 462
#     4  12  30  50  79 115 156 207 261 330 392 457
#     4  11  28  49  72 115 159 192 265 329 384 474
#
# _framework density 23.858229999999999
#
# number of rings (size 3 to 8) (size 9 to 14) (size 15 to 20)
#    0.000    0.500    3.750    2.250    7.000    4.000 
#    0.000    0.000    0.000    0.000    0.000    0.000 
#    0.000    0.000    0.000    0.000    0.000    0.000 
#
# Total GULP energy -198413.958606 kJ/mol
# GULP energy per Si atom -12400.872413 kJ/mol
# Density = 2.380393 g / cm^3
# Si number density = 23.858230 Si / 1000 Ang^3
#
#
#
# Elastic Constant Matrix: (Units=GPa)
#
#
# Indices 1 2 3 4 5 6 
#
# 1 117.6747 36.9957 30.7115 0.0000 11.2644 0.0000
# 2 36.9957 149.2238 27.1505 0.0000 4.3397 0.0000
# 3 30.7115 27.1505 101.2348 0.0000 9.3004 0.0000
# 4 0.0000 0.0000 0.0000 42.4682 0.0000 7.7066
# 5 11.2644 4.3397 9.3004 0.0000 40.7627 0.0000
# 6 0.0000 0.0000 0.0000 7.7066 0.0000 24.9505
#
#
#
# Elastic Compliance Matrix: (Units=1/GPa)
#
#
# Indices 1 2 3 4 5 6 
#
# 1 0.009911 -0.001982 -0.002291 0.000000 -0.002005 0.000000
# 2 -0.001982 0.007446 -0.001403 0.000000 0.000075 0.000000
# 3 -0.002291 -0.001403 0.011110 0.000000 -0.001753 0.000000
# 4 0.000000 0.000000 0.000000 0.024945 0.000000 -0.007705
# 5 -0.002005 0.000075 -0.001753 0.000000 0.025478 0.000000
# 6 0.000000 0.000000 0.000000 -0.007705 0.000000 0.042459
#
#
# Mechanical properties :
#
#
# Convention : Reuss Voigt Hill
#
# Bulk Modulus (GPa) = 58.42488 61.98321 60.20405
# Shear Modulus (GPa) = 36.12567 39.85465 37.99016
#
# Velocity S-wave (km/s) = 3.89547 4.09158 3.99473
# Velocity P-wave (km/s) = 6.69137 6.95396 6.82393
#
# Compressibility (1/GPa) = 0.01711600
#
# Stress axis : x y z
#
# Youngs Moduli (GPa) = 100.89846 134.30535 90.00773
#
# Poissons Ratio (x) = 0.26619 0.20620
# Poissons Ratio (y) = 0.19998 0.12624
# Poissons Ratio (z) = 0.23115 0.18836
#
# Static dielectric constant tensor:
#      x y z
#    x 4.344540 0.000000 0.016550 
#    y 0.000000 4.590130 0.000000 
#    z 0.016550 0.000000 4.204430 
# 
# 
# High freq. dielectric constant tensor:
#      x y z
#    x 1.949710 0.000000 0.004430 
#    y 0.000000 1.965650 0.000000 
#    z 0.004430 0.000000 1.943200 
# 
# From -- ./inp_files/2576.got.cif
#   From: 2010.03.12/outbox.cif.g09.slc.cpg/sg4_2_cif.got.tgz:2576.got - 2010.03.31 09:31:35.
