data_PCOD8047038
_publ_section_title
;
Structure prediction by ZEFSAII (Michael W. Deem and Ramdas Pophale) SiO2 
 PCOD8047038
Probable space group: P 21
;
_chemical_formula_sum "Si O2"
_cell_formula_units_Z 16
_cell_length_a 6.817118
_cell_length_b 8.204641
_cell_length_c 19.236407
_cell_angle_alpha 90.000000
_cell_angle_beta 41.479570
_cell_angle_gamma 90.000000
_cell_volume 712.645959
_symmetry_space_group_name_H-M "P 21"
_symmetry_group_IT_number 4
_symmetry_cell_setting 'monoclinic'
loop_
_space_group_symop_operation_xyz
x,y,z
-x,1/2+y,-z
loop_
_atom_site_type_symbol
_atom_site_label
_atom_site_fract_x
_atom_site_fract_y
_atom_site_fract_z
Si Si1 0.144505 0.780320 0.216472
Si Si2 0.417771 0.569843 0.496304
Si Si3 0.751849 0.238467 0.173944
Si Si4 0.144228 0.926076 0.716528
Si Si5 0.417699 0.136458 0.996329
Si Si6 0.248189 0.967955 0.326088
Si Si7 0.459137 0.310665 0.115972
Si Si8 0.540991 0.895624 0.383995
O O1 0.421323 0.781927 0.090346
O O2 0.259461 0.831588 0.262753
O O3 0.000260 0.603162 0.249983
O O4 0.880182 0.904738 0.264383
O O5 0.578879 0.424421 0.409592
O O6 0.520703 0.742957 0.441195
O O7 0.513684 0.553227 0.552273
O O8 0.067081 0.552694 0.583226
O O9 0.740945 0.374992 0.237122
O O10 0.689952 0.327359 0.116962
O O11 0.499909 0.103293 0.250101
O O12 0.066978 0.153557 0.083306
O O13 0.880073 0.801527 0.764417
O O14 0.520595 0.963353 0.941211
O O15 0.513794 0.153071 0.052239
O O16 0.310131 0.878907 0.383025
#
# Coordination Sequence:
#
# PCOD8047038 Si02
#       8
#     2   2   2   2   2   2   2   2
#     4   9  22  44  65  93 130 176 220 272 333 400
#     4  10  24  41  68  93 130 177 215 273 337 399
#     4  11  26  39  67 103 134 169 229 280 334 398
#     4   9  22  44  65  93 130 176 220 272 333 400
#     4  10  24  41  68  93 130 177 215 273 337 399
#     4  11  26  39  67 103 134 169 229 280 334 398
#     4  10  24  42  66  95 133 172 224 270 336 398
#     4  10  24  42  66  95 133 172 224 270 336 398
#
# _framework density 22.451540000000001
#
# number of rings (size 3 to 8) (size 9 to 14) (size 15 to 20)
#    0.000    2.000    0.000    0.000   10.500   10.000 
#    0.000    0.000    0.000    0.000    0.000    0.000 
#    0.000    0.000    0.000    0.000    0.000    0.000 
#
# Total GULP energy -198277.058271 kJ/mol
# GULP energy per Si atom -12392.316142 kJ/mol
# Density = 2.240044 g / cm^3
# Si number density = 22.451540 Si / 1000 Ang^3
#
#
#
# Elastic Constant Matrix: (Units=GPa)
#
#
# Indices 1 2 3 4 5 6 
#
# 1 152.0709 21.7641 40.5935 0.0000 15.7279 0.0000
# 2 21.7641 61.6548 21.1298 0.0000 4.6236 0.0000
# 3 40.5935 21.1298 118.2700 0.0000 -17.8086 0.0000
# 4 0.0000 0.0000 0.0000 16.6743 0.0000 17.7536
# 5 15.7279 4.6236 -17.8086 0.0000 36.9729 0.0000
# 6 0.0000 0.0000 0.0000 17.7536 0.0000 32.9312
#
#
#
# Elastic Compliance Matrix: (Units=1/GPa)
#
#
# Indices 1 2 3 4 5 6 
#
# 1 0.008156 -0.001387 -0.003286 0.000000 -0.004879 0.000000
# 2 -0.001387 0.018060 -0.003236 0.000000 -0.003227 0.000000
# 3 -0.003286 -0.003236 0.011249 0.000000 0.007221 0.000000
# 4 0.000000 0.000000 0.000000 0.140783 0.000000 -0.075898
# 5 -0.004879 -0.003227 0.007221 0.000000 0.033004 0.000000
# 6 0.000000 0.000000 0.000000 -0.075898 0.000000 0.071284
#
#
# Mechanical properties :
#
#
# Convention : Reuss Voigt Hill
#
# Bulk Modulus (GPa) = 46.19902 55.44115 50.82009
# Shear Modulus (GPa) = 16.36282 33.88290 25.12286
#
# Velocity S-wave (km/s) = 2.70257 3.88900 3.34875
# Velocity P-wave (km/s) = 5.51003 6.70172 6.13488
#
# Compressibility (1/GPa) = 0.02164548
#
# Stress axis : x y z
#
# Youngs Moduli (GPa) = 122.60561 55.37053 88.89938
#
# Poissons Ratio (x) = 0.07680 0.29215
# Poissons Ratio (y) = 0.17005 0.28772
# Poissons Ratio (z) = 0.40292 0.17921
#
# Static dielectric constant tensor:
#      x y z
#    x 4.226250 0.000000 -0.093790 
#    y 0.000000 3.895540 0.000000 
#    z -0.093790 0.000000 4.978420 
# 
# 
# High freq. dielectric constant tensor:
#      x y z
#    x 1.880310 0.000000 -0.002130 
#    y 0.000000 1.878320 0.000000 
#    z -0.002130 0.000000 1.908920 
# 
# From -- ./inp_files/3663.got.cif
#   From: 2010.03.12/outbox.cif.g09.slc.cpg/sg4_2_cif.got.tgz:3663.got - 2010.03.31 09:31:35.
