data_PCOD8047599
_publ_section_title
;
Structure prediction by ZEFSAII (Michael W. Deem and Ramdas Pophale) SiO2 
 PCOD8047599
Probable space group: P 21
;
_chemical_formula_sum "Si O2"
_cell_formula_units_Z 14
_cell_length_a 5.127424
_cell_length_b 12.699814
_cell_length_c 9.322870
_cell_angle_alpha 90.000000
_cell_angle_beta 81.091761
_cell_angle_gamma 90.000000
_cell_volume 599.757571
_symmetry_space_group_name_H-M "P 21"
_symmetry_group_IT_number 4
_symmetry_cell_setting 'monoclinic'
loop_
_space_group_symop_operation_xyz
x,y,z
-x,1/2+y,-z
loop_
_atom_site_type_symbol
_atom_site_label
_atom_site_fract_x
_atom_site_fract_y
_atom_site_fract_z
Si Si1 0.948395 0.237830 0.290011
Si Si2 0.435944 0.101348 0.324661
Si Si3 0.211719 0.403281 0.431797
Si Si4 0.867614 0.577143 0.363696
Si Si5 0.668333 0.407226 0.179165
Si Si6 0.580184 0.400026 0.863538
Si Si7 0.142337 0.313387 0.729755
O O1 0.710742 0.157931 0.332531
O O2 0.890315 0.313390 0.155955
O O3 0.221654 0.173698 0.259932
O O4 0.967324 0.322958 0.418989
O O5 0.342808 0.063687 0.490009
O O6 0.490992 0.005400 0.214661
O O7 0.453082 0.366108 0.312286
O O8 0.266964 0.388453 0.595192
O O9 0.136588 0.523728 0.399842
O O10 0.779788 0.518613 0.225682
O O11 0.919879 0.697626 0.323119
O O12 0.542431 0.423520 0.034782
O O13 0.365902 0.311808 0.834484
O O14 0.875701 0.363284 0.810740
#
# Coordination Sequence:
#
# PCOD8047599 Si02
#       7
#     2   2   2   2   2   2   2
#     4  11  24  44  75 102 140 185 240 292 360 414
#     4  12  24  45  76 109 137 186 248 297 355 422
#     4  11  24  48  75 108 140 188 240 300 354 429
#     4  11  26  42  81 106 143 186 248 297 358 423
#     4  11  27  48  71 105 154 189 236 292 371 431
#     4  12  30  47  68 107 151 190 235 301 360 435
#     4  12  27  48  74 105 143 188 247 297 358 420
#
# _framework density 23.342763000000001
#
# number of rings (size 3 to 8) (size 9 to 14) (size 15 to 20)
#    0.000    0.571    4.286    1.714   12.000    2.286 
#    0.000    0.000    0.000    0.000    0.000    0.000 
#    0.000    0.000    0.000    0.000    0.000    0.000 
#
# Total GULP energy -173572.478876 kJ/mol
# GULP energy per Si atom -12398.034205 kJ/mol
# Density = 2.328963 g / cm^3
# Si number density = 23.342763 Si / 1000 Ang^3
#
#
#
# Elastic Constant Matrix: (Units=GPa)
#
#
# Indices 1 2 3 4 5 6 
#
# 1 106.4129 19.9675 31.5947 0.0000 5.7343 0.0000
# 2 19.9675 94.2198 36.9198 0.0000 12.8397 0.0000
# 3 31.5947 36.9198 114.3741 0.0000 22.6701 0.0000
# 4 0.0000 0.0000 0.0000 18.7739 0.0000 7.4560
# 5 5.7343 12.8397 22.6701 0.0000 35.8710 0.0000
# 6 0.0000 0.0000 0.0000 7.4560 0.0000 42.6646
#
#
#
# Elastic Compliance Matrix: (Units=1/GPa)
#
#
# Indices 1 2 3 4 5 6 
#
# 1 0.010365 -0.001257 -0.002536 0.000000 0.000396 0.000000
# 2 -0.001257 0.012448 -0.003233 0.000000 -0.002212 0.000000
# 3 -0.002536 -0.003233 0.011635 0.000000 -0.005791 0.000000
# 4 0.000000 0.000000 0.000000 0.057238 0.000000 -0.010003
# 5 0.000396 -0.002212 -0.005791 0.000000 0.032266 0.000000
# 6 0.000000 0.000000 0.000000 -0.010003 0.000000 0.025187
#
#
# Mechanical properties :
#
#
# Convention : Reuss Voigt Hill
#
# Bulk Modulus (GPa) = 49.02646 54.66342 51.84494
# Shear Modulus (GPa) = 29.41385 34.56355 31.98870
#
# Velocity S-wave (km/s) = 3.55362 3.85216 3.70589
# Velocity P-wave (km/s) = 6.15516 6.57678 6.36946
#
# Compressibility (1/GPa) = 0.02039715
#
# Stress axis : x y z
#
# Youngs Moduli (GPa) = 96.48055 80.33473 85.94743
#
# Poissons Ratio (x) = 0.10096 0.21795
# Poissons Ratio (y) = 0.12125 0.27783
# Poissons Ratio (z) = 0.24466 0.25969
#
# Static dielectric constant tensor:
#      x y z
#    x 4.422430 0.000000 0.315890 
#    y 0.000000 4.340810 0.000000 
#    z 0.315890 0.000000 4.048380 
# 
# 
# High freq. dielectric constant tensor:
#      x y z
#    x 1.937920 0.000000 0.021720 
#    y 0.000000 1.938020 0.000000 
#    z 0.021720 0.000000 1.901760 
# 
# From -- ./inp_files/1377.got.cif
#   From: 2010.03.12/outbox.cif.g09.slc.cpg/sg4_1_cif.got.tgz:1377.got - 2010.03.31 09:31:35.
