data_PCOD8047585
_publ_section_title
;
Structure prediction by ZEFSAII (Michael W. Deem and Ramdas Pophale) SiO2 
 PCOD8047585
Probable space group: P 21
;
_chemical_formula_sum "Si O2"
_cell_formula_units_Z 14
_cell_length_a 12.853941
_cell_length_b 8.524872
_cell_length_c 5.813647
_cell_angle_alpha 90.000000
_cell_angle_beta 119.547538
_cell_angle_gamma 90.000000
_cell_volume 554.198747
_symmetry_space_group_name_H-M "P 21"
_symmetry_group_IT_number 4
_symmetry_cell_setting 'monoclinic'
loop_
_space_group_symop_operation_xyz
x,y,z
-x,1/2+y,-z
loop_
_atom_site_type_symbol
_atom_site_label
_atom_site_fract_x
_atom_site_fract_y
_atom_site_fract_z
Si Si1 0.420836 0.539730 0.460343
Si Si2 0.347820 0.803312 0.042927
Si Si3 0.748285 0.820499 0.459470
Si Si4 0.860846 0.307631 0.481075
Si Si5 0.219250 0.009008 0.225366
Si Si6 0.991709 0.995193 0.689588
Si Si7 0.548090 0.780783 0.884255
O O1 0.313291 0.469243 0.490514
O O2 0.518843 0.608643 0.748359
O O3 0.472464 0.409648 0.340503
O O4 0.374941 0.685641 0.272958
O O5 0.230520 0.729297 0.798380
O O6 0.461146 0.826364 0.001435
O O7 0.310331 0.970483 0.116778
O O8 0.740312 0.675302 0.627265
O O9 0.886709 0.865960 0.580836
O O10 0.682620 0.781866 0.142706
O O11 0.770402 0.373369 0.573164
O O12 0.949987 0.173192 0.652100
O O13 0.933714 0.456414 0.459315
O O14 0.079810 0.991904 0.003223
#
# Coordination Sequence:
#
# PCOD8047585 Si02
#       7
#     2   2   2   2   2   2   2
#     4  12  28  47  73 105 147 196 243 300 368 438
#     4  11  26  48  72 104 144 192 244 301 364 438
#     4  12  28  47  75 113 149 194 249 304 367 442
#     4  11  24  44  71 102 144 194 247 308 368 432
#     4  11  26  46  75 105 144 194 246 307 374 433
#     4  11  24  45  71 106 146 190 248 309 369 434
#     4  12  28  49  73 107 148 192 245 303 366 441
#
# _framework density 25.261696000000001
#
# number of rings (size 3 to 8) (size 9 to 14) (size 15 to 20)
#    0.000    0.571    0.000    6.857    0.000   20.571 
#    0.000    0.000    0.000    0.000    0.000    0.000 
#    0.000    0.000    0.000    0.000    0.000    0.000 
#
# Total GULP energy -173555.962872 kJ/mol
# GULP energy per Si atom -12396.854491 kJ/mol
# Density = 2.520420 g / cm^3
# Si number density = 25.261696 Si / 1000 Ang^3
#
#
#
# Elastic Constant Matrix: (Units=GPa)
#
#
# Indices 1 2 3 4 5 6 
#
# 1 99.0919 32.8846 52.6887 0.0000 9.3617 0.0000
# 2 32.8846 80.7327 53.3370 0.0000 21.7715 0.0000
# 3 52.6887 53.3370 135.0694 0.0000 12.5797 0.0000
# 4 0.0000 0.0000 0.0000 49.2367 0.0000 0.2282
# 5 9.3617 21.7715 12.5797 0.0000 34.2544 0.0000
# 6 0.0000 0.0000 0.0000 0.2282 0.0000 49.9218
#
#
#
# Elastic Compliance Matrix: (Units=1/GPa)
#
#
# Indices 1 2 3 4 5 6 
#
# 1 0.013148 -0.002524 -0.004087 0.000000 -0.000488 0.000000
# 2 -0.002524 0.020040 -0.006013 0.000000 -0.009839 0.000000
# 3 -0.004087 -0.006013 0.011299 0.000000 0.000789 0.000000
# 4 0.000000 0.000000 0.000000 0.020310 0.000000 -0.000093
# 5 -0.000488 -0.009839 0.000789 0.000000 0.035291 0.000000
# 6 0.000000 0.000000 0.000000 -0.000093 0.000000 0.020032
#
#
# Mechanical properties :
#
#
# Convention : Reuss Voigt Hill
#
# Bulk Modulus (GPa) = 51.97386 65.85718 58.91552
# Shear Modulus (GPa) = 32.94219 38.41484 35.67852
#
# Velocity S-wave (km/s) = 3.61506 3.90381 3.76221
# Velocity P-wave (km/s) = 6.16796 6.81515 6.49962
#
# Compressibility (1/GPa) = 0.01924044
#
# Stress axis : x y z
#
# Youngs Moduli (GPa) = 76.05473 49.89911 88.50607
#
# Poissons Ratio (x) = 0.12594 0.36171
# Poissons Ratio (y) = 0.19196 0.53216
# Poissons Ratio (z) = 0.31082 0.30003
#
# Static dielectric constant tensor:
#      x y z
#    x 4.588850 0.000000 0.034630 
#    y 0.000000 4.542080 0.000000 
#    z 0.034630 0.000000 4.947420 
# 
# 
# High freq. dielectric constant tensor:
#      x y z
#    x 2.017290 0.000000 0.008790 
#    y 0.000000 2.016910 0.000000 
#    z 0.008790 0.000000 2.026900 
# 
# From -- ./inp_files/2518.got.cif
#   From: 2010.03.12/outbox.cif.g09.slc.cpg/sg4_2_cif.got.tgz:2518.got - 2010.03.31 09:31:35.
