data_PCOD8047722
_publ_section_title
;
Structure prediction by ZEFSAII (Michael W. Deem and Ramdas Pophale) SiO2 
 PCOD8047722
Probable space group: P 21
;
_chemical_formula_sum "Si O2"
_cell_formula_units_Z 16
_cell_length_a 6.550631
_cell_length_b 8.417864
_cell_length_c 12.968425
_cell_angle_alpha 90.000000
_cell_angle_beta 73.616023
_cell_angle_gamma 90.000000
_cell_volume 686.070544
_symmetry_space_group_name_H-M "P 21"
_symmetry_group_IT_number 4
_symmetry_cell_setting 'monoclinic'
loop_
_space_group_symop_operation_xyz
x,y,z
-x,1/2+y,-z
loop_
_atom_site_type_symbol
_atom_site_label
_atom_site_fract_x
_atom_site_fract_y
_atom_site_fract_z
Si Si1 0.315126 0.961220 0.185518
Si Si2 0.246173 0.304244 0.164652
Si Si3 0.052035 0.742955 0.625835
Si Si4 0.609503 0.034422 0.328490
Si Si5 0.069420 0.256256 0.702514
Si Si6 0.696294 0.345015 0.028837
Si Si7 0.180710 0.039234 0.496638
Si Si8 0.017207 0.570073 0.079310
O O1 0.508982 0.021639 0.228756
O O2 0.153353 0.851534 0.273764
O O3 0.193102 0.116682 0.157592
O O4 0.396144 0.862818 0.074584
O O5 0.500700 0.326013 0.135513
O O6 0.158139 0.416430 0.087692
O O7 0.129511 0.346638 0.289259
O O8 0.231575 0.684976 0.681910
O O9 0.948464 0.587770 0.587687
O O10 0.144169 0.853340 0.522760
O O11 0.729755 0.871145 0.331193
O O12 0.430646 0.062371 0.441070
O O13 0.095206 0.137280 0.605033
O O14 0.075503 0.160331 0.808607
O O15 0.821153 0.504550 0.041022
O O16 0.843732 0.188077 0.011544
#
# Coordination Sequence:
#
# PCOD8047722 Si02
#       8
#     2   2   2   2   2   2   2   2
#     4  11  25  46  73 102 145 187 239 297 364 432
#     4  12  24  46  70 106 142 191 235 300 363 426
#     4  12  26  46  74 104 149 187 242 299 364 433
#     4  12  24  45  73 104 140 197 238 297 357 434
#     4  11  25  46  72 106 148 180 243 305 361 431
#     4  11  27  47  76 109 143 195 236 303 366 434
#     4  12  25  48  71 106 142 193 239 300 366 428
#     4  11  26  48  75 107 145 190 244 301 357 446
#
# _framework density 23.321217000000001
#
# number of rings (size 3 to 8) (size 9 to 14) (size 15 to 20)
#    0.000    0.500    3.750    3.750    1.750    7.000 
#    6.750    0.000    0.000    0.000    0.000    0.000 
#    0.000    0.000    0.000    0.000    0.000    0.000 
#
# Total GULP energy -198392.189416 kJ/mol
# GULP energy per Si atom -12399.511839 kJ/mol
# Density = 2.326814 g / cm^3
# Si number density = 23.321217 Si / 1000 Ang^3
#
#
#
# Elastic Constant Matrix: (Units=GPa)
#
#
# Indices 1 2 3 4 5 6 
#
# 1 139.2664 50.9538 80.2205 0.0000 -12.3858 0.0000
# 2 50.9538 97.5603 35.4251 0.0000 -2.3422 0.0000
# 3 80.2205 35.4251 96.6731 0.0000 -11.4917 0.0000
# 4 0.0000 0.0000 0.0000 50.2387 0.0000 5.1949
# 5 -12.3858 -2.3422 -11.4917 0.0000 38.8830 0.0000
# 6 0.0000 0.0000 0.0000 5.1949 0.0000 39.4634
#
#
#
# Elastic Compliance Matrix: (Units=1/GPa)
#
#
# Indices 1 2 3 4 5 6 
#
# 1 0.014946 -0.003839 -0.010838 0.000000 0.001327 0.000000
# 2 -0.003839 0.012822 -0.001624 0.000000 -0.000930 0.000000
# 3 -0.010838 -0.001624 0.020221 0.000000 0.002426 0.000000
# 4 0.000000 0.000000 0.000000 0.020180 0.000000 -0.002656
# 5 0.001327 -0.000930 0.002426 0.000000 0.026802 0.000000
# 6 0.000000 0.000000 0.000000 -0.002656 0.000000 0.025690
#
#
# Mechanical properties :
#
#
# Convention : Reuss Voigt Hill
#
# Bulk Modulus (GPa) = 64.98455 74.07762 69.53108
# Shear Modulus (GPa) = 31.56766 36.84372 34.20569
#
# Velocity S-wave (km/s) = 3.68313 3.97903 3.83393
# Velocity P-wave (km/s) = 6.78327 7.27621 7.03406
#
# Compressibility (1/GPa) = 0.01538827
#
# Stress axis : x y z
#
# Youngs Moduli (GPa) = 66.90860 77.98961 49.45374
#
# Poissons Ratio (x) = 0.29938 0.53597
# Poissons Ratio (y) = 0.25684 0.08030
# Poissons Ratio (z) = 0.72514 0.12664
#
# Static dielectric constant tensor:
#      x y z
#    x 4.051740 0.000000 -0.172330 
#    y 0.000000 4.325920 0.000000 
#    z -0.172330 0.000000 4.193490 
# 
# 
# High freq. dielectric constant tensor:
#      x y z
#    x 1.912940 0.000000 -0.013340 
#    y 0.000000 1.934000 0.000000 
#    z -0.013340 0.000000 1.931170 
# 
# From -- ./inp_files/10325.got.cif
#   From: 2010.03.12/outbox.cif.g09.slc.cpg/sg4_6_cif.got.tgz:10325.got - 2010.03.31 09:31:35.
