data_PCOD8047720
_publ_section_title
;
Structure prediction by ZEFSAII (Michael W. Deem and Ramdas Pophale) SiO2 
 PCOD8047720
Probable space group: P 21
;
_chemical_formula_sum "Si O2"
_cell_formula_units_Z 16
_cell_length_a 8.156467
_cell_length_b 9.675701
_cell_length_c 16.134330
_cell_angle_alpha 90.000000
_cell_angle_beta 32.510956
_cell_angle_gamma 90.000000
_cell_volume 684.356362
_symmetry_space_group_name_H-M "P 21"
_symmetry_group_IT_number 4
_symmetry_cell_setting 'monoclinic'
loop_
_space_group_symop_operation_xyz
x,y,z
-x,1/2+y,-z
loop_
_atom_site_type_symbol
_atom_site_label
_atom_site_fract_x
_atom_site_fract_y
_atom_site_fract_z
Si Si1 0.614888 0.578350 0.194737
Si Si2 0.511405 0.931886 0.904036
Si Si3 0.354942 0.643491 0.580246
Si Si4 0.800744 0.405832 0.439755
Si Si5 0.275217 0.998695 0.179970
Si Si6 0.278892 0.681279 0.928913
Si Si7 0.206341 0.831643 0.375346
Si Si8 0.527784 0.785823 0.664565
O O1 0.534637 0.572403 0.129812
O O2 0.437757 0.711521 0.302686
O O3 0.518789 0.445091 0.289416
O O4 0.969684 0.597864 0.060650
O O5 0.254911 0.841203 0.964483
O O6 0.862498 0.885029 0.742679
O O7 0.414238 0.924665 0.040475
O O8 0.643785 0.539575 0.463522
O O9 0.379123 0.759342 0.497598
O O10 0.321395 0.741666 0.674906
O O11 0.070557 0.541962 0.688417
O O12 0.819123 0.429295 0.531606
O O13 0.319764 0.910650 0.244944
O O14 0.490428 0.129872 0.098768
O O15 0.436516 0.673918 0.772295
O O16 0.881281 0.764817 0.491881
#
# Coordination Sequence:
#
# PCOD8047720 Si02
#       8
#     2   2   2   2   2   2   2   2
#     4  11  27  44  80 107 150 202 264 311 399 463
#     4  11  26  49  70 108 148 200 246 328 379 462
#     4  12  27  47  77 115 151 201 257 323 387 459
#     4  12  27  50  79 110 159 197 261 320 395 464
#     4  12  28  45  74 107 153 199 254 314 388 456
#     4  11  25  46  72 103 150 196 254 306 390 458
#     4  12  27  48  77 113 151 204 258 321 390 466
#     4  11  25  49  77 109 150 199 256 323 384 466
#
# _framework density 23.379631
#
# number of rings (size 3 to 8) (size 9 to 14) (size 15 to 20)
#    0.000    0.500    3.750    3.000   14.000    0.000 
#    0.000    0.000    0.000    0.000    0.000    0.000 
#    0.000    0.000    0.000    0.000    0.000    0.000 
#
# Total GULP energy -198303.125615 kJ/mol
# GULP energy per Si atom -12393.945351 kJ/mol
# Density = 2.332642 g / cm^3
# Si number density = 23.379631 Si / 1000 Ang^3
#
#
#
# Elastic Constant Matrix: (Units=GPa)
#
#
# Indices 1 2 3 4 5 6 
#
# 1 126.2494 37.6217 48.3864 0.0000 8.9552 0.0000
# 2 37.6217 84.3539 34.5365 0.0000 -3.1527 0.0000
# 3 48.3864 34.5365 103.0094 0.0000 6.9838 0.0000
# 4 0.0000 0.0000 0.0000 26.4413 0.0000 -5.4209
# 5 8.9552 -3.1527 6.9838 0.0000 51.1732 0.0000
# 6 0.0000 0.0000 0.0000 -5.4209 0.0000 51.0236
#
#
#
# Elastic Compliance Matrix: (Units=1/GPa)
#
#
# Indices 1 2 3 4 5 6 
#
# 1 0.010398 -0.003171 -0.003719 0.000000 -0.001507 0.000000
# 2 -0.003171 0.014822 -0.003613 0.000000 0.001961 0.000000
# 3 -0.003719 -0.003613 0.012755 0.000000 -0.001312 0.000000
# 4 0.000000 0.000000 0.000000 0.038662 0.000000 0.004108
# 5 -0.001507 0.001961 -0.001312 0.000000 0.020105 0.000000
# 6 0.000000 0.000000 0.000000 0.004108 0.000000 0.020035
#
#
# Mechanical properties :
#
#
# Convention : Reuss Voigt Hill
#
# Bulk Modulus (GPa) = 58.93065 61.63355 60.28210
# Shear Modulus (GPa) = 34.85816 38.59884 36.72850
#
# Velocity S-wave (km/s) = 3.86549 4.06761 3.96784
# Velocity P-wave (km/s) = 6.72186 6.96275 6.84336
#
# Compressibility (1/GPa) = 0.01696910
#
# Stress axis : x y z
#
# Youngs Moduli (GPa) = 96.17183 67.46906 78.40128
#
# Poissons Ratio (x) = 0.21396 0.29156
# Poissons Ratio (y) = 0.30499 0.28324
# Poissons Ratio (z) = 0.35764 0.24374
#
# Static dielectric constant tensor:
#      x y z
#    x 4.469710 0.000000 0.107070 
#    y 0.000000 4.171340 0.000000 
#    z 0.107070 0.000000 4.034560 
# 
# 
# High freq. dielectric constant tensor:
#      x y z
#    x 1.943060 0.000000 -0.001020 
#    y 0.000000 1.928770 0.000000 
#    z -0.001020 0.000000 1.914250 
# 
# From -- ./inp_files/14963.got.cif
#   From: 2010.03.12/outbox.cif.g09.slc.cpg/sg4_8_cif.got.tgz:14963.got - 2010.03.31 09:31:35.
