data_PCOD8047493
_publ_section_title
;
Structure prediction by ZEFSAII (Michael W. Deem and Ramdas Pophale) SiO2 
 PCOD8047493
Probable space group: P 21
;
_chemical_formula_sum "Si O2"
_cell_formula_units_Z 16
_cell_length_a 6.508630
_cell_length_b 12.064996
_cell_length_c 11.310075
_cell_angle_alpha 90.000000
_cell_angle_beta 126.232168
_cell_angle_gamma 90.000000
_cell_volume 716.400475
_symmetry_space_group_name_H-M "P 21"
_symmetry_group_IT_number 4
_symmetry_cell_setting 'monoclinic'
loop_
_space_group_symop_operation_xyz
x,y,z
-x,1/2+y,-z
loop_
_atom_site_type_symbol
_atom_site_label
_atom_site_fract_x
_atom_site_fract_y
_atom_site_fract_z
Si Si1 0.000142 0.334860 0.906865
Si Si2 0.063927 0.253428 0.659834
Si Si3 0.731315 0.563831 0.776397
Si Si4 0.694537 0.061708 0.554807
Si Si5 0.477761 0.084272 0.730675
Si Si6 0.488147 0.743954 0.853434
Si Si7 0.915101 0.394970 0.399728
Si Si8 0.775225 0.171709 0.013098
O O1 0.039823 0.296042 0.785451
O O2 0.854116 0.451381 0.867908
O O3 0.819792 0.252672 0.917436
O O4 0.276156 0.330901 0.067438
O O5 0.331609 0.197093 0.718472
O O6 0.844430 0.165278 0.550466
O O7 0.037654 0.358762 0.565110
O O8 0.569236 0.541813 0.603824
O O9 0.558062 0.626933 0.814574
O O10 0.970352 0.643098 0.826631
O O11 0.647301 0.097951 0.672306
O O12 0.864303 0.949048 0.607252
O O13 0.660352 0.062313 0.906982
O O14 0.293780 0.984630 0.639812
O O15 0.227776 0.793696 0.712151
O O16 0.435975 0.719236 0.972093
#
# Coordination Sequence:
#
# PCOD8047493 Si02
#       8
#     2   2   2   2   2   2   2   2
#     4  11  24  45  71 103 137 187 235 284 353 412
#     4  11  23  45  69 101 140 180 233 285 352 410
#     4  11  26  43  71 106 137 182 239 287 348 423
#     4  11  25  44  70 102 140 180 232 287 347 419
#     4  11  24  44  70  99 137 186 231 284 350 420
#     4  11  25  47  68 103 147 182 234 290 344 422
#     4  11  26  42  71 102 136 185 229 288 353 410
#     4  11  25  44  70  98 144 186 227 295 339 420
#
# _framework density 22.333877000000001
#
# number of rings (size 3 to 8) (size 9 to 14) (size 15 to 20)
#    0.000    1.000    3.750    1.500    3.500    7.000 
#    0.000    0.000    0.000    0.000    0.000    0.000 
#    0.000    0.000    0.000    0.000    0.000    0.000 
#
# Total GULP energy -198318.533457 kJ/mol
# GULP energy per Si atom -12394.908341 kJ/mol
# Density = 2.228304 g / cm^3
# Si number density = 22.333877 Si / 1000 Ang^3
#
#
#
# Elastic Constant Matrix: (Units=GPa)
#
#
# Indices 1 2 3 4 5 6 
#
# 1 125.8791 46.8576 45.1779 0.0000 -7.2827 0.0000
# 2 46.8576 104.1119 29.8810 0.0000 -0.7522 0.0000
# 3 45.1779 29.8810 108.2843 0.0000 6.5563 0.0000
# 4 0.0000 0.0000 0.0000 33.2395 0.0000 7.8396
# 5 -7.2827 -0.7522 6.5563 0.0000 38.9513 0.0000
# 6 0.0000 0.0000 0.0000 7.8396 0.0000 35.3358
#
#
#
# Elastic Compliance Matrix: (Units=1/GPa)
#
#
# Indices 1 2 3 4 5 6 
#
# 1 0.010806 -0.003808 -0.003612 0.000000 0.002555 0.000000
# 2 -0.003808 0.011792 -0.001653 0.000000 -0.000206 0.000000
# 3 -0.003612 -0.001653 0.011357 0.000000 -0.002619 0.000000
# 4 0.000000 0.000000 0.000000 0.031746 0.000000 -0.007043
# 5 0.002555 -0.000206 -0.002619 0.000000 0.026588 0.000000
# 6 0.000000 0.000000 0.000000 -0.007043 0.000000 0.029863
#
#
# Mechanical properties :
#
#
# Convention : Reuss Voigt Hill
#
# Bulk Modulus (GPa) = 63.25800 64.67870 63.96835
# Shear Modulus (GPa) = 34.34871 35.92924 35.13898
#
# Velocity S-wave (km/s) = 3.92594 4.01525 3.97085
# Velocity P-wave (km/s) = 6.99543 7.10768 7.05178
#
# Compressibility (1/GPa) = 0.01580828
#
# Stress axis : x y z
#
# Youngs Moduli (GPa) = 92.54156 84.80443 88.05436
#
# Poissons Ratio (x) = 0.32295 0.31807
# Poissons Ratio (y) = 0.35242 0.14552
# Poissons Ratio (z) = 0.33428 0.14015
#
# Static dielectric constant tensor:
#      x y z
#    x 4.050290 0.000000 0.252230 
#    y 0.000000 3.912540 0.000000 
#    z 0.252230 0.000000 4.018540 
# 
# 
# High freq. dielectric constant tensor:
#      x y z
#    x 1.888730 0.000000 0.014630 
#    y 0.000000 1.873150 0.000000 
#    z 0.014630 0.000000 1.890810 
# 
# From -- ./inp_files/1341.got.cif
#   From: 2010.03.12/outbox.cif.g09.slc.cpg/sg4_1_cif.got.tgz:1341.got - 2010.03.31 09:31:35.
