data_PCOD8047127
_publ_section_title
;
Structure prediction by ZEFSAII (Michael W. Deem and Ramdas Pophale) SiO2 
 PCOD8047127
Probable space group: P 21
;
_chemical_formula_sum "Si O2"
_cell_formula_units_Z 10
_cell_length_a 8.638602
_cell_length_b 9.178406
_cell_length_c 5.392725
_cell_angle_alpha 90.000000
_cell_angle_beta 105.093586
_cell_angle_gamma 90.000000
_cell_volume 412.830795
_symmetry_space_group_name_H-M "P 21"
_symmetry_group_IT_number 4
_symmetry_cell_setting 'monoclinic'
loop_
_space_group_symop_operation_xyz
x,y,z
-x,1/2+y,-z
loop_
_atom_site_type_symbol
_atom_site_label
_atom_site_fract_x
_atom_site_fract_y
_atom_site_fract_z
Si Si1 0.263231 0.077010 0.479265
Si Si2 0.698183 0.812274 0.154001
Si Si3 0.517827 0.089147 0.206943
Si Si4 0.186044 0.798993 0.694402
Si Si5 0.036730 0.867865 0.145235
O O1 0.234445 0.243885 0.558039
O O2 0.444708 0.067650 0.450013
O O3 0.260400 0.961185 0.705405
O O4 0.125470 0.025704 0.221932
O O5 0.843593 0.883752 0.057604
O O6 0.556297 0.928102 0.123336
O O7 0.622063 0.670397 0.997811
O O8 0.682037 0.175380 0.269491
O O9 0.075973 0.767993 0.404342
O O10 0.093310 0.789239 0.917095
#
# Coordination Sequence:
#
# PCOD8047127 Si02
#       5
#     2   2   2   2   2
#     4  10  24  46  74 108 146 194 247 304 364 441
#     4  12  27  45  77 108 156 196 246 315 361 455
#     4  12  26  45  74 114 147 200 246 306 378 432
#     4  10  25  50  77 110 150 192 251 305 370 446
#     4  10  26  48  78 106 149 194 250 302 371 436
#
# _framework density 24.222995999999998
#
# number of rings (size 3 to 8) (size 9 to 14) (size 15 to 20)
#    1.200    0.000    0.000    4.800    8.400    1.600 
#    0.000    0.000    0.000    0.000    0.000    0.000 
#    0.000    0.000    0.000    0.000    0.000    0.000 
#
# Total GULP energy -123886.383967 kJ/mol
# GULP energy per Si atom -12388.638397 kJ/mol
# Density = 2.416786 g / cm^3
# Si number density = 24.222996 Si / 1000 Ang^3
#
#
#
# Elastic Constant Matrix: (Units=GPa)
#
#
# Indices 1 2 3 4 5 6 
#
# 1 171.8901 57.7545 54.0480 0.0000 -33.3040 0.0000
# 2 57.7545 110.4507 24.9885 0.0000 -4.8552 0.0000
# 3 54.0480 24.9885 120.1356 0.0000 -23.4106 0.0000
# 4 0.0000 0.0000 0.0000 24.5596 0.0000 -3.7069
# 5 -33.3040 -4.8552 -23.4106 0.0000 35.4346 0.0000
# 6 0.0000 0.0000 0.0000 -3.7069 0.0000 34.8936
#
#
#
# Elastic Compliance Matrix: (Units=1/GPa)
#
#
# Indices 1 2 3 4 5 6 
#
# 1 0.009073 -0.004010 -0.001943 0.000000 0.006694 0.000000
# 2 -0.004010 0.011274 -0.001118 0.000000 -0.002963 0.000000
# 3 -0.001943 -0.001118 0.010382 0.000000 0.004879 0.000000
# 4 0.000000 0.000000 0.000000 0.041381 0.000000 0.004396
# 5 0.006694 -0.002963 0.004879 0.000000 0.037330 0.000000
# 6 0.000000 0.000000 0.000000 0.004396 0.000000 0.029126
#
#
# Mechanical properties :
#
#
# Convention : Reuss Voigt Hill
#
# Bulk Modulus (GPa) = 60.29669 75.11760 67.70715
# Shear Modulus (GPa) = 31.59817 36.68991 34.14404
#
# Velocity S-wave (km/s) = 3.61566 3.89610 3.75850
# Velocity P-wave (km/s) = 6.50977 7.16363 6.84451
#
# Compressibility (1/GPa) = 0.01658466
#
# Stress axis : x y z
#
# Youngs Moduli (GPa) = 110.21423 88.70299 96.32463
#
# Poissons Ratio (x) = 0.35574 0.18719
# Poissons Ratio (y) = 0.44201 0.10770
# Poissons Ratio (z) = 0.21418 0.09918
#
# Static dielectric constant tensor:
#      x y z
#    x 4.268020 0.000000 -0.193850 
#    y 0.000000 4.077620 0.000000 
#    z -0.193850 0.000000 4.222080 
# 
# 
# High freq. dielectric constant tensor:
#      x y z
#    x 1.974550 0.000000 -0.009790 
#    y 0.000000 1.953530 0.000000 
#    z -0.009790 0.000000 1.949290 
# 
# From -- ./inp_files/965.got.cif
#   From: 2010.03.12/outbox.cif.g09.slc.cpg/sg4_1_cif.got.tgz:965.got - 2010.03.31 09:31:35.
