data_PCOD8047790
_publ_section_title
;
Structure prediction by ZEFSAII (Michael W. Deem and Ramdas Pophale) SiO2 
 PCOD8047790
Probable space group: P 21
;
_chemical_formula_sum "Si O2"
_cell_formula_units_Z 14
_cell_length_a 9.067270
_cell_length_b 4.986277
_cell_length_c 23.596628
_cell_angle_alpha 90.000000
_cell_angle_beta 151.339381
_cell_angle_gamma 90.000000
_cell_volume 511.682577
_symmetry_space_group_name_H-M "P 21"
_symmetry_group_IT_number 4
_symmetry_cell_setting 'monoclinic'
loop_
_space_group_symop_operation_xyz
x,y,z
-x,1/2+y,-z
loop_
_atom_site_type_symbol
_atom_site_label
_atom_site_fract_x
_atom_site_fract_y
_atom_site_fract_z
Si Si1 0.224644 0.773990 0.645230
Si Si2 0.200182 0.789387 0.079913
Si Si3 0.721912 0.169670 0.771220
Si Si4 0.382937 0.378115 0.427449
Si Si5 0.596587 0.650007 0.001037
Si Si6 0.677769 0.383099 0.200031
Si Si7 0.638145 0.041478 0.417994
O O1 0.346914 0.708682 0.749585
O O2 0.188880 0.539806 0.586460
O O3 0.900950 0.923552 0.547805
O O4 0.474979 0.937697 0.693741
O O5 0.293307 0.852509 0.176576
O O6 0.487563 0.662491 0.141761
O O7 0.070628 0.061679 0.008898
O O8 0.650324 0.344037 0.690392
O O9 0.057281 0.036553 0.879684
O O10 0.577917 0.625770 0.517133
O O11 0.025646 0.456933 0.300934
O O12 0.513255 0.306210 0.408392
O O13 0.470276 0.686764 0.895443
O O14 0.387983 0.438151 0.963324
#
# Coordination Sequence:
#
# PCOD8047790 Si02
#       7
#     2   2   2   2   2   2   2
#     4  11  26  48  79 116 155 207 266 326 394 464
#     4  11  26  48  79 115 156 200 260 329 394 468
#     4  11  27  46  77 112 151 208 258 328 390 468
#     4  12  30  51  80 115 159 212 267 322 395 473
#     4  12  30  52  78 116 159 210 262 324 399 476
#     4  11  27  52  80 116 157 211 261 328 392 480
#     4  12  26  49  79 114 161 208 264 327 396 471
#
# _framework density 27.360711999999999
#
# number of rings (size 3 to 8) (size 9 to 14) (size 15 to 20)
#    0.000    0.571    4.286    0.857   14.000    2.286 
#    2.571    0.000    0.000    0.000    0.000    0.000 
#    0.000    0.000    0.000    0.000    0.000    0.000 
#
# Total GULP energy -173594.849000 kJ/mol
# GULP energy per Si atom -12399.632071 kJ/mol
# Density = 2.729844 g / cm^3
# Si number density = 27.360712 Si / 1000 Ang^3
#
#
#
# Elastic Constant Matrix: (Units=GPa)
#
#
# Indices 1 2 3 4 5 6 
#
# 1 124.4477 12.9243 51.1625 0.0000 -14.1256 0.0000
# 2 12.9243 64.9471 17.8802 0.0000 -13.0687 0.0000
# 3 51.1625 17.8802 153.5246 0.0000 -2.6191 0.0000
# 4 0.0000 0.0000 0.0000 17.2346 0.0000 -1.2631
# 5 -14.1256 -13.0687 -2.6191 0.0000 50.5354 0.0000
# 6 0.0000 0.0000 0.0000 -1.2631 0.0000 50.1539
#
#
#
# Elastic Compliance Matrix: (Units=1/GPa)
#
#
# Indices 1 2 3 4 5 6 
#
# 1 0.009643 -0.000585 -0.003105 0.000000 0.002383 0.000000
# 2 -0.000585 0.016803 -0.001692 0.000000 0.004094 0.000000
# 3 -0.003105 -0.001692 0.007730 0.000000 -0.000905 0.000000
# 4 0.000000 0.000000 0.000000 0.058130 0.000000 0.001464
# 5 0.002383 0.004094 -0.000905 0.000000 0.021466 0.000000
# 6 0.000000 0.000000 0.000000 0.001464 0.000000 0.019976
#
#
# Mechanical properties :
#
#
# Convention : Reuss Voigt Hill
#
# Bulk Modulus (GPa) = 42.71163 56.31704 49.51434
# Shear Modulus (GPa) = 32.82648 40.98161 36.90404
#
# Velocity S-wave (km/s) = 3.46752 3.87438 3.67658
# Velocity P-wave (km/s) = 5.62815 6.37513 6.01325
#
# Compressibility (1/GPa) = 0.02341283
#
# Stress axis : x y z
#
# Youngs Moduli (GPa) = 103.69987 59.51231 129.36636
#
# Poissons Ratio (x) = 0.03479 0.40167
# Poissons Ratio (y) = 0.06062 0.21893
# Poissons Ratio (z) = 0.32198 0.10071
#
# Static dielectric constant tensor:
#      x y z
#    x 5.021050 0.000000 -0.157200 
#    y 0.000000 4.537510 0.000000 
#    z -0.157200 0.000000 5.246960 
# 
# 
# High freq. dielectric constant tensor:
#      x y z
#    x 2.116790 0.000000 -0.006860 
#    y 0.000000 2.079550 0.000000 
#    z -0.006860 0.000000 2.128240 
# 
# From -- ./inp_files/7220.got.cif
#   From: 2010.03.12/outbox.cif.g09.slc.cpg/sg4_4_cif.got.tgz:7220.got - 2010.03.31 09:31:35.
