data_PCOD8047561
_publ_section_title
;
Structure prediction by ZEFSAII (Michael W. Deem and Ramdas Pophale) SiO2 
 PCOD8047561
Probable space group: P 21
;
_chemical_formula_sum "Si O2"
_cell_formula_units_Z 16
_cell_length_a 19.781427
_cell_length_b 8.547542
_cell_length_c 5.308753
_cell_angle_alpha 90.000000
_cell_angle_beta 49.067663
_cell_angle_gamma 90.000000
_cell_volume 678.135608
_symmetry_space_group_name_H-M "P 21"
_symmetry_group_IT_number 4
_symmetry_cell_setting 'monoclinic'
loop_
_space_group_symop_operation_xyz
x,y,z
-x,1/2+y,-z
loop_
_atom_site_type_symbol
_atom_site_label
_atom_site_fract_x
_atom_site_fract_y
_atom_site_fract_z
Si Si1 0.952879 0.577860 0.830960
Si Si2 0.408765 0.591076 0.037313
Si Si3 0.508877 0.409959 0.168498
Si Si4 0.333972 0.386675 0.836315
Si Si5 0.039323 0.445070 0.117757
Si Si6 0.224890 0.572762 0.754476
Si Si7 0.668078 0.552537 0.998549
Si Si8 0.762386 0.437265 0.264404
O O1 0.967378 0.760617 0.834669
O O2 0.009932 0.526326 0.449653
O O3 0.850234 0.542310 0.023231
O O4 0.979965 0.489638 0.021581
O O5 0.494569 0.507460 0.949431
O O6 0.314111 0.538475 0.383174
O O7 0.417614 0.775122 0.049877
O O8 0.396243 0.530230 0.786398
O O9 0.412589 0.327223 0.456605
O O10 0.560606 0.524829 0.239510
O O11 0.242083 0.465132 0.961453
O O12 0.310004 0.239016 0.070270
O O13 0.139940 0.503479 0.815412
O O14 0.211024 0.756013 0.840084
O O15 0.719066 0.469733 0.642134
O O16 0.697797 0.484647 0.194432
#
# Coordination Sequence:
#
# PCOD8047561 Si02
#       8
#     2   2   2   2   2   2   2   2
#     4  12  27  50  79 112 148 196 240 306 369 445
#     4  11  24  43  68 100 143 190 246 301 365 427
#     4  11  24  42  67 100 142 194 246 304 363 436
#     4  11  26  41  70 100 146 191 249 301 370 424
#     4  12  27  49  80 110 151 190 247 298 373 443
#     4  11  26  45  72 106 145 193 242 304 362 440
#     4  12  27  44  73 103 147 189 247 304 361 437
#     4  12  27  48  73 107 146 189 245 298 369 432
#
# _framework density 23.594100000000001
#
# number of rings (size 3 to 8) (size 9 to 14) (size 15 to 20)
#    0.000    0.500    1.250    6.000   10.500    2.000 
#    0.000    0.000    0.000    0.000    0.000    0.000 
#    0.000    0.000    0.000    0.000    0.000    0.000 
#
# Total GULP energy -198294.750407 kJ/mol
# GULP energy per Si atom -12393.421900 kJ/mol
# Density = 2.354040 g / cm^3
# Si number density = 23.594100 Si / 1000 Ang^3
#
#
#
# Elastic Constant Matrix: (Units=GPa)
#
#
# Indices 1 2 3 4 5 6 
#
# 1 103.5938 6.6134 16.8424 0.0000 2.7663 0.0000
# 2 6.6134 124.8148 18.0785 0.0000 4.9750 0.0000
# 3 16.8424 18.0785 64.6781 0.0000 1.0522 0.0000
# 4 0.0000 0.0000 0.0000 31.2781 0.0000 -3.5532
# 5 2.7663 4.9750 1.0522 0.0000 35.9341 0.0000
# 6 0.0000 0.0000 0.0000 -3.5532 0.0000 50.1265
#
#
#
# Elastic Compliance Matrix: (Units=1/GPa)
#
#
# Indices 1 2 3 4 5 6 
#
# 1 0.010100 -0.000134 -0.002581 0.000000 -0.000683 0.000000
# 2 -0.000134 0.008394 -0.002294 0.000000 -0.001085 0.000000
# 3 -0.002581 -0.002294 0.016774 0.000000 0.000025 0.000000
# 4 0.000000 0.000000 0.000000 0.032231 0.000000 0.002285
# 5 -0.000683 -0.001085 0.000025 0.000000 0.028031 0.000000
# 6 0.000000 0.000000 0.000000 0.002285 0.000000 0.020111
#
#
# Mechanical properties :
#
#
# Convention : Reuss Voigt Hill
#
# Bulk Modulus (GPa) = 39.60441 41.79503 40.69972
# Shear Modulus (GPa) = 37.29224 40.23792 38.76508
#
# Velocity S-wave (km/s) = 3.97996 4.13416 4.05779
# Velocity P-wave (km/s) = 6.15973 6.36718 6.26431
#
# Compressibility (1/GPa) = 0.02524971
#
# Stress axis : x y z
#
# Youngs Moduli (GPa) = 99.01402 119.12630 59.61561
#
# Poissons Ratio (x) = 0.01596 0.15389
# Poissons Ratio (y) = 0.01327 0.13675
# Poissons Ratio (z) = 0.25559 0.27326
#
# Static dielectric constant tensor:
#      x y z
#    x 4.528690 0.000000 0.044750 
#    y 0.000000 4.346570 0.000000 
#    z 0.044750 0.000000 4.159800 
# 
# 
# High freq. dielectric constant tensor:
#      x y z
#    x 1.949670 0.000000 -0.008660 
#    y 0.000000 1.951730 0.000000 
#    z -0.008660 0.000000 1.928290 
# 
# From -- ./inp_files/3417.got.cif
#   From: 2010.03.12/outbox.cif.g09.slc.cpg/sg4_2_cif.got.tgz:3417.got - 2010.03.31 09:31:35.
