data_PCOD8047694
_publ_section_title
;
Structure prediction by ZEFSAII (Michael W. Deem and Ramdas Pophale) SiO2 
 PCOD8047694
Probable space group: P 21
;
_chemical_formula_sum "Si O2"
_cell_formula_units_Z 16
_cell_length_a 10.982763
_cell_length_b 8.083230
_cell_length_c 11.998070
_cell_angle_alpha 90.000000
_cell_angle_beta 39.796868
_cell_angle_gamma 90.000000
_cell_volume 681.763666
_symmetry_space_group_name_H-M "P 21"
_symmetry_group_IT_number 4
_symmetry_cell_setting 'monoclinic'
loop_
_space_group_symop_operation_xyz
x,y,z
-x,1/2+y,-z
loop_
_atom_site_type_symbol
_atom_site_label
_atom_site_fract_x
_atom_site_fract_y
_atom_site_fract_z
Si Si1 0.242312 0.304010 0.484968
Si Si2 0.596795 0.150054 0.630870
Si Si3 0.630038 0.473040 0.724910
Si Si4 0.577766 0.249522 0.400786
Si Si5 0.920537 0.438567 0.138649
Si Si6 0.261614 0.637711 0.947623
Si Si7 0.825436 0.394918 0.817015
Si Si8 0.826559 0.625761 0.998220
O O1 0.295828 0.486510 0.397986
O O2 0.361101 0.289298 0.517703
O O3 0.017665 0.295520 0.657492
O O4 0.292050 0.152386 0.368336
O O5 0.697863 0.323036 0.595598
O O6 0.577288 0.134654 0.510282
O O7 0.393511 0.162156 0.831066
O O8 0.400416 0.489253 0.890457
O O9 0.701953 0.423920 0.795435
O O10 0.709130 0.410952 0.340628
O O11 0.686400 0.169229 0.218690
O O12 0.890172 0.470697 0.029232
O O13 0.039604 0.584246 0.114670
O O14 0.047125 0.277478 0.056632
O O15 0.296950 0.792428 0.005167
O O16 0.870579 0.573837 0.839716
#
# Coordination Sequence:
#
# PCOD8047694 Si02
#       8
#     2   2   2   2   2   2   2   2
#     4  11  28  49  73 111 151 191 251 312 371 452
#     4  12  27  48  77 111 151 198 243 312 386 448
#     4  11  29  52  75 106 147 205 257 302 380 437
#     4  11  25  41  74 112 151 185 240 304 389 444
#     4  12  22  42  70 109 148 183 245 303 374 445
#     4  11  25  47  72 111 144 193 249 311 369 440
#     4  12  28  51  75 104 151 200 253 312 366 448
#     4  12  24  44  72 108 147 197 246 306 379 446
#
# _framework density 23.468544999999999
#
# number of rings (size 3 to 8) (size 9 to 14) (size 15 to 20)
#    0.000    0.500    5.000    1.500   12.250    0.000 
#    2.250    0.000    0.000    0.000    0.000    0.000 
#    0.000    0.000    0.000    0.000    0.000    0.000 
#
# Total GULP energy -198292.419180 kJ/mol
# GULP energy per Si atom -12393.276199 kJ/mol
# Density = 2.341513 g / cm^3
# Si number density = 23.468545 Si / 1000 Ang^3
#
#
#
# Elastic Constant Matrix: (Units=GPa)
#
#
# Indices 1 2 3 4 5 6 
#
# 1 113.7569 32.9337 37.8213 0.0000 9.4612 0.0000
# 2 32.9337 124.6796 19.9085 0.0000 18.7126 0.0000
# 3 37.8213 19.9085 51.6432 0.0000 8.8132 0.0000
# 4 0.0000 0.0000 0.0000 34.5127 0.0000 -3.0975
# 5 9.4612 18.7126 8.8132 0.0000 33.7778 0.0000
# 6 0.0000 0.0000 0.0000 -3.0975 0.0000 34.1690
#
#
#
# Elastic Compliance Matrix: (Units=1/GPa)
#
#
# Indices 1 2 3 4 5 6 
#
# 1 0.012024 -0.001855 -0.008050 0.000000 -0.000240 0.000000
# 2 -0.001855 0.009399 -0.001533 0.000000 -0.004287 0.000000
# 3 -0.008050 -0.001533 0.026500 0.000000 -0.003810 0.000000
# 4 0.000000 0.000000 0.000000 0.029213 0.000000 0.002648
# 5 -0.000240 -0.004287 -0.003810 0.000000 0.033042 0.000000
# 6 0.000000 0.000000 0.000000 0.002648 0.000000 0.029506
#
#
# Mechanical properties :
#
#
# Convention : Reuss Voigt Hill
#
# Bulk Modulus (GPa) = 39.92442 52.37853 46.15148
# Shear Modulus (GPa) = 29.25541 33.78631 31.52086
#
# Velocity S-wave (km/s) = 3.53452 3.79838 3.66882
# Velocity P-wave (km/s) = 5.80568 6.45011 6.13636
#
# Compressibility (1/GPa) = 0.02504732
#
# Stress axis : x y z
#
# Youngs Moduli (GPa) = 83.16714 106.39717 37.73535
#
# Poissons Ratio (x) = 0.19733 0.30377
# Poissons Ratio (y) = 0.15425 0.05786
# Poissons Ratio (z) = 0.66949 0.16314
#
# Static dielectric constant tensor:
#      x y z
#    x 4.416250 0.000000 -0.333850 
#    y 0.000000 4.485120 0.000000 
#    z -0.333850 0.000000 4.110870 
# 
# 
# High freq. dielectric constant tensor:
#      x y z
#    x 1.924250 0.000000 -0.015910 
#    y 0.000000 1.945560 0.000000 
#    z -0.015910 0.000000 1.910420 
# 
# From -- ./inp_files/12108.got.cif
#   From: 2010.03.12/outbox.cif.g09.slc.cpg/sg4_7_cif.got.tgz:12108.got - 2010.03.31 09:31:35.
