data_PCOD8047926
_publ_section_title
;
Structure prediction by ZEFSAII (Michael W. Deem and Ramdas Pophale) SiO2 
 PCOD8047926
Probable space group: P 21
;
_chemical_formula_sum "Si O2"
_cell_formula_units_Z 16
_cell_length_a 17.364297
_cell_length_b 4.956986
_cell_length_c 9.202477
_cell_angle_alpha 90.000000
_cell_angle_beta 125.846013
_cell_angle_gamma 90.000000
_cell_volume 642.070787
_symmetry_space_group_name_H-M "P 21"
_symmetry_group_IT_number 4
_symmetry_cell_setting 'monoclinic'
loop_
_space_group_symop_operation_xyz
x,y,z
-x,1/2+y,-z
loop_
_atom_site_type_symbol
_atom_site_label
_atom_site_fract_x
_atom_site_fract_y
_atom_site_fract_z
Si Si1 0.308441 0.664360 0.120881
Si Si2 0.958849 0.110260 0.536441
Si Si3 0.745022 0.179649 0.246484
Si Si4 0.665003 0.544219 0.411340
Si Si5 0.971160 0.605093 0.057094
Si Si6 0.759167 0.647153 0.796774
Si Si7 0.498710 0.941410 0.594415
Si Si8 0.439584 0.402998 0.898811
O O1 0.247192 0.435924 0.133906
O O2 0.414495 0.550260 0.208142
O O3 0.317345 0.927268 0.232216
O O4 0.253819 0.781150 0.918227
O O5 0.846083 0.052717 0.400792
O O6 0.984337 0.102646 0.733606
O O7 0.981524 0.399667 0.492519
O O8 0.715192 0.409424 0.328137
O O9 0.663936 0.949794 0.143915
O O10 0.745009 0.668628 0.606162
O O11 0.592531 0.339225 0.412648
O O12 0.590130 0.782631 0.289492
O O13 0.025209 0.399999 0.010889
O O14 0.861604 0.521054 0.945118
O O15 0.462775 0.191220 0.455286
O O16 0.500365 0.178698 0.054872
#
# Coordination Sequence:
#
# PCOD8047926 Si02
#       8
#     2   2   2   2   2   2   2   2
#     4  12  26  48  71 107 149 203 251 311 383 459
#     4  12  28  52  81 117 162 208 262 325 405 475
#     4  12  30  48  83 113 159 204 267 321 393 464
#     4  12  28  47  78 109 156 200 268 315 384 458
#     4  12  26  48  79 113 152 195 259 325 390 466
#     4  12  27  48  76 108 151 199 254 316 391 461
#     4  12  25  47  69 104 145 201 247 307 370 454
#     4  12  28  48  71 111 154 200 256 320 386 449
#
# _framework density 24.919374000000001
#
# number of rings (size 3 to 8) (size 9 to 14) (size 15 to 20)
#    0.000    0.000    3.750    4.500    8.750    0.000 
#    0.000    0.000    0.000    0.000    0.000    0.000 
#    0.000    0.000    0.000    0.000    0.000    0.000 
#
# Total GULP energy -198374.202309 kJ/mol
# GULP energy per Si atom -12398.387644 kJ/mol
# Density = 2.486266 g / cm^3
# Si number density = 24.919374 Si / 1000 Ang^3
#
#
#
# Elastic Constant Matrix: (Units=GPa)
#
#
# Indices 1 2 3 4 5 6 
#
# 1 100.7202 36.9833 67.0386 0.0000 5.0085 0.0000
# 2 36.9833 114.6487 39.3642 0.0000 -6.2468 0.0000
# 3 67.0386 39.3642 208.7551 0.0000 0.3267 0.0000
# 4 0.0000 0.0000 0.0000 32.9727 0.0000 -5.6419
# 5 5.0085 -6.2468 0.3267 0.0000 47.7376 0.0000
# 6 0.0000 0.0000 0.0000 -5.6419 0.0000 34.4952
#
#
#
# Elastic Compliance Matrix: (Units=1/GPa)
#
#
# Indices 1 2 3 4 5 6 
#
# 1 0.013733 -0.003226 -0.003799 0.000000 -0.001837 0.000000
# 2 -0.003226 0.010157 -0.000882 0.000000 0.001674 0.000000
# 3 -0.003799 -0.000882 0.006176 0.000000 0.000241 0.000000
# 4 0.000000 0.000000 0.000000 0.031201 0.000000 0.005103
# 5 -0.001837 0.001674 0.000241 0.000000 0.021358 0.000000
# 6 0.000000 0.000000 0.000000 0.005103 0.000000 0.029824
#
#
# Mechanical properties :
#
#
# Convention : Reuss Voigt Hill
#
# Bulk Modulus (GPa) = 70.16231 78.98847 74.57539
# Shear Modulus (GPa) = 37.59021 41.75697 39.67359
#
# Velocity S-wave (km/s) = 3.88812 4.09795 3.99441
# Velocity P-wave (km/s) = 6.95511 7.35917 7.15999
#
# Compressibility (1/GPa) = 0.01425267
#
# Stress axis : x y z
#
# Youngs Moduli (GPa) = 72.81823 98.45580 161.91137
#
# Poissons Ratio (x) = 0.31758 0.61510
# Poissons Ratio (y) = 0.23489 0.14280
# Poissons Ratio (z) = 0.27663 0.08684
#
# Static dielectric constant tensor:
#      x y z
#    x 4.438680 0.000000 -0.032970 
#    y 0.000000 4.352450 0.000000 
#    z -0.032970 0.000000 4.798730 
# 
# 
# High freq. dielectric constant tensor:
#      x y z
#    x 1.991430 0.000000 0.003060 
#    y 0.000000 1.988150 0.000000 
#    z 0.003060 0.000000 2.019800 
# 
# From -- ./inp_files/9520.got.cif
#   From: 2010.03.12/outbox.cif.g09.slc.cpg/sg4_5_cif.got.tgz:9520.got - 2010.03.31 09:31:35.
