data_PCOD8047901
_publ_section_title
;
Structure prediction by ZEFSAII (Michael W. Deem and Ramdas Pophale) SiO2 
 PCOD8047901
Probable space group: P 21
;
_chemical_formula_sum "Si O2"
_cell_formula_units_Z 16
_cell_length_a 13.165362
_cell_length_b 8.842753
_cell_length_c 10.659983
_cell_angle_alpha 90.000000
_cell_angle_beta 33.119784
_cell_angle_gamma 90.000000
_cell_volume 678.079319
_symmetry_space_group_name_H-M "P 21"
_symmetry_group_IT_number 4
_symmetry_cell_setting 'monoclinic'
loop_
_space_group_symop_operation_xyz
x,y,z
-x,1/2+y,-z
loop_
_atom_site_type_symbol
_atom_site_label
_atom_site_fract_x
_atom_site_fract_y
_atom_site_fract_z
Si Si1 0.426095 0.740780 0.432883
Si Si2 0.830964 0.981921 0.927468
Si Si3 0.887429 0.677033 0.261716
Si Si4 0.717961 0.862609 0.778922
Si Si5 0.970166 0.441808 0.737230
Si Si6 0.503955 0.086230 0.387044
Si Si7 0.994138 0.212276 0.131002
Si Si8 0.593776 0.562713 0.027432
O O1 0.497781 0.626767 0.465517
O O2 0.209883 0.779998 0.674175
O O3 0.481990 0.659997 0.246171
O O4 0.513462 0.905488 0.354956
O O5 0.762071 0.945205 0.861984
O O6 0.845872 0.832771 0.999543
O O7 0.036795 0.054671 0.716390
O O8 0.702866 0.119700 0.116881
O O9 0.663384 0.674400 0.509431
O O10 0.983549 0.837262 0.190334
O O11 0.938597 0.629353 0.065810
O O12 0.903457 0.878776 0.505287
O O13 0.544259 0.946503 0.896454
O O14 0.676211 0.684411 0.842841
O O15 0.027086 0.605990 0.726020
O O16 0.754909 0.454715 0.918058
#
# Coordination Sequence:
#
# PCOD8047901 Si02
#       8
#     2   2   2   2   2   2   2   2
#     4  12  26  46  78 110 156 200 245 315 378 458
#     4  12  26  47  74 108 150 198 249 312 377 447
#     4  12  28  43  77 114 150 193 254 314 376 459
#     4  12  30  49  76 106 151 203 254 313 375 453
#     4  12  29  48  78 110 150 201 252 309 382 449
#     4  12  26  46  74 112 155 197 246 307 390 442
#     4  12  24  51  74 109 156 196 245 317 384 445
#     4  12  29  52  75 107 152 200 259 313 376 447
#
# _framework density 23.596056999999998
#
# number of rings (size 3 to 8) (size 9 to 14) (size 15 to 20)
#    0.000    0.000    6.250    2.250    8.750    1.000 
#    0.000    0.000    0.000    0.000    0.000    0.000 
#    0.000    0.000    0.000    0.000    0.000    0.000 
#
# Total GULP energy -198340.395126 kJ/mol
# GULP energy per Si atom -12396.274695 kJ/mol
# Density = 2.354235 g / cm^3
# Si number density = 23.596057 Si / 1000 Ang^3
#
#
#
# Elastic Constant Matrix: (Units=GPa)
#
#
# Indices 1 2 3 4 5 6 
#
# 1 152.4505 49.6014 43.6428 0.0000 -13.4331 0.0000
# 2 49.6014 82.2003 20.3839 0.0000 -9.4288 0.0000
# 3 43.6428 20.3839 95.4987 0.0000 -8.2688 0.0000
# 4 0.0000 0.0000 0.0000 33.7785 0.0000 0.7188
# 5 -13.4331 -9.4288 -8.2688 0.0000 29.6643 0.0000
# 6 0.0000 0.0000 0.0000 0.7188 0.0000 53.6955
#
#
#
# Elastic Compliance Matrix: (Units=1/GPa)
#
#
# Indices 1 2 3 4 5 6 
#
# 1 0.009049 -0.004503 -0.003016 0.000000 0.001826 0.000000
# 2 -0.004503 0.015430 -0.001012 0.000000 0.002583 0.000000
# 3 -0.003016 -0.001012 0.012214 0.000000 0.001717 0.000000
# 4 0.000000 0.000000 0.000000 0.029613 0.000000 -0.000396
# 5 0.001826 0.002583 0.001717 0.000000 0.035837 0.000000
# 6 0.000000 0.000000 0.000000 -0.000396 0.000000 0.018629
#
#
# Mechanical properties :
#
#
# Convention : Reuss Voigt Hill
#
# Bulk Modulus (GPa) = 50.93960 61.93398 56.43679
# Shear Modulus (GPa) = 34.63138 37.86242 36.24690
#
# Velocity S-wave (km/s) = 3.83518 4.01010 3.92362
# Velocity P-wave (km/s) = 6.42235 6.90983 6.67055
#
# Compressibility (1/GPa) = 0.01963109
#
# Stress axis : x y z
#
# Youngs Moduli (GPa) = 110.51070 64.80960 81.87058
#
# Poissons Ratio (x) = 0.29183 0.24693
# Poissons Ratio (y) = 0.49762 0.08285
# Poissons Ratio (z) = 0.33331 0.06558
#
# Static dielectric constant tensor:
#      x y z
#    x 4.560670 0.000000 -0.256980 
#    y 0.000000 4.280310 0.000000 
#    z -0.256980 0.000000 4.349040 
# 
# 
# High freq. dielectric constant tensor:
#      x y z
#    x 1.955960 0.000000 -0.017530 
#    y 0.000000 1.932400 0.000000 
#    z -0.017530 0.000000 1.938490 
# 
# From -- ./inp_files/7944.got.cif
#   From: 2010.03.12/outbox.cif.g09.slc.cpg/sg4_4_cif.got.tgz:7944.got - 2010.03.31 09:31:35.
