data_PCOD8047737
_publ_section_title
;
Structure prediction by ZEFSAII (Michael W. Deem and Ramdas Pophale) SiO2 
 PCOD8047737
Probable space group: P 21
;
_chemical_formula_sum "Si O2"
_cell_formula_units_Z 14
_cell_length_a 13.893291
_cell_length_b 7.664182
_cell_length_c 14.314433
_cell_angle_alpha 90.000000
_cell_angle_beta 159.773229
_cell_angle_gamma 90.000000
_cell_volume 526.975628
_symmetry_space_group_name_H-M "P 21"
_symmetry_group_IT_number 4
_symmetry_cell_setting 'monoclinic'
loop_
_space_group_symop_operation_xyz
x,y,z
-x,1/2+y,-z
loop_
_atom_site_type_symbol
_atom_site_label
_atom_site_fract_x
_atom_site_fract_y
_atom_site_fract_z
Si Si1 0.586575 0.965510 0.668896
Si Si2 0.872883 0.722378 0.210278
Si Si3 0.545584 0.764808 0.151962
Si Si4 0.102511 0.891217 0.881940
Si Si5 0.190834 0.059153 0.462103
Si Si6 0.134546 0.826871 0.120419
Si Si7 0.721255 0.128683 0.266160
O O1 0.330674 0.937486 0.366652
O O2 0.469537 0.982618 0.667394
O O3 0.753935 0.134181 0.788731
O O4 0.821661 0.814627 0.878974
O O5 0.002794 0.570941 0.262402
O O6 0.995694 0.692870 0.427027
O O7 0.540316 0.706672 0.913881
O O8 0.952152 0.911977 0.243093
O O9 0.746023 0.609379 0.371551
O O10 0.718339 0.918441 0.259394
O O11 0.403636 0.842914 0.115189
O O12 0.301454 0.694384 0.861535
O O13 0.894264 0.730476 0.673476
O O14 0.124454 0.924493 0.011565
#
# Coordination Sequence:
#
# PCOD8047737 Si02
#       7
#     2   2   2   2   2   2   2
#     4  12  28  50  80 116 153 206 255 325 396 468
#     4  11  28  47  76 115 158 201 267 313 389 460
#     4  11  25  46  81 108 164 199 264 319 396 456
#     4  11  26  52  76 111 162 207 255 331 389 460
#     4  12  26  50  79 113 156 211 260 322 394 470
#     4  12  27  52  78 115 157 199 261 322 394 468
#     4  11  26  47  74 120 150 211 254 324 384 466
#
# _framework density 26.566693999999998
#
# number of rings (size 3 to 8) (size 9 to 14) (size 15 to 20)
#    0.000    0.571    2.857    3.429    8.000    0.000 
#    7.714    0.000    0.000    0.000    0.000    0.000 
#    0.000    0.000    0.000    0.000    0.000    0.000 
#
# Total GULP energy -173692.587268 kJ/mol
# GULP energy per Si atom -12406.613376 kJ/mol
# Density = 2.650623 g / cm^3
# Si number density = 26.566694 Si / 1000 Ang^3
#
#
#
# Elastic Constant Matrix: (Units=GPa)
#
#
# Indices 1 2 3 4 5 6 
#
# 1 58.8457 27.1242 2.7873 0.0000 -15.4348 0.0000
# 2 27.1242 106.3708 8.2732 0.0000 -3.9060 0.0000
# 3 2.7873 8.2732 84.3607 0.0000 -19.8944 0.0000
# 4 0.0000 0.0000 0.0000 43.4830 0.0000 3.6736
# 5 -15.4348 -3.9060 -19.8944 0.0000 40.5449 0.0000
# 6 0.0000 0.0000 0.0000 3.6736 0.0000 42.3282
#
#
#
# Elastic Compliance Matrix: (Units=1/GPa)
#
#
# Indices 1 2 3 4 5 6 
#
# 1 0.021631 -0.005342 0.001843 0.000000 0.008624 0.000000
# 2 -0.005342 0.010802 -0.001263 0.000000 -0.001613 0.000000
# 3 0.001843 -0.001263 0.013631 0.000000 0.007268 0.000000
# 4 0.000000 0.000000 0.000000 0.023167 0.000000 -0.002011
# 5 0.008624 -0.001613 0.007268 0.000000 0.031358 0.000000
# 6 0.000000 0.000000 0.000000 -0.002011 0.000000 0.023799
#
#
# Mechanical properties :
#
#
# Convention : Reuss Voigt Hill
#
# Bulk Modulus (GPa) = 27.36814 36.21629 31.79222
# Shear Modulus (GPa) = 34.22455 39.36404 36.79430
#
# Velocity S-wave (km/s) = 3.59311 3.85347 3.72557
# Velocity P-wave (km/s) = 5.24767 5.78453 5.52263
#
# Compressibility (1/GPa) = 0.03653884
#
# Stress axis : x y z
#
# Youngs Moduli (GPa) = 46.23019 92.57196 73.36282
#
# Poissons Ratio (x) = 0.49456 -0.13521
# Poissons Ratio (y) = 0.24698 0.09267
# Poissons Ratio (z) = -0.08520 0.11694
#
# Static dielectric constant tensor:
#      x y z
#    x 4.824060 0.000000 -0.010480 
#    y 0.000000 4.881480 0.000000 
#    z -0.010480 0.000000 4.776390 
# 
# 
# High freq. dielectric constant tensor:
#      x y z
#    x 2.070970 0.000000 0.002950 
#    y 0.000000 2.074300 0.000000 
#    z 0.002950 0.000000 2.068150 
# 
# From -- ./inp_files/14203.got.cif
#   From: 2010.03.12/outbox.cif.g09.slc.cpg/sg4_8_cif.got.tgz:14203.got - 2010.03.31 09:31:35.
