data_PCOD8047529
_publ_section_title
;
Structure prediction by ZEFSAII (Michael W. Deem and Ramdas Pophale) SiO2 
 PCOD8047529
Probable space group: P 21
;
_chemical_formula_sum "Si O2"
_cell_formula_units_Z 16
_cell_length_a 11.253962
_cell_length_b 8.859119
_cell_length_c 13.536944
_cell_angle_alpha 90.000000
_cell_angle_beta 146.619298
_cell_angle_gamma 90.000000
_cell_volume 742.569009
_symmetry_space_group_name_H-M "P 21"
_symmetry_group_IT_number 4
_symmetry_cell_setting 'monoclinic'
loop_
_space_group_symop_operation_xyz
x,y,z
-x,1/2+y,-z
loop_
_atom_site_type_symbol
_atom_site_label
_atom_site_fract_x
_atom_site_fract_y
_atom_site_fract_z
Si Si1 0.209241 0.752520 0.441033
Si Si2 0.265596 0.818218 0.258775
Si Si3 0.285254 0.406136 0.515597
Si Si4 0.064538 0.124730 0.066421
Si Si5 0.084959 0.725375 0.830348
Si Si6 0.491261 0.931156 0.131360
Si Si7 0.591604 0.748829 0.839944
Si Si8 0.223127 0.412995 0.856212
O O1 0.256014 0.835826 0.370081
O O2 0.250015 0.575766 0.453507
O O3 0.365023 0.807114 0.637895
O O4 0.966186 0.795414 0.304085
O O5 0.514627 0.829442 0.401901
O O6 0.121638 0.947341 0.104902
O O7 0.158832 0.659558 0.148118
O O8 0.326439 0.397273 0.660950
O O9 0.063488 0.322397 0.344047
O O10 0.258627 0.213861 0.149420
O O11 0.052326 0.178105 0.170216
O O12 0.144694 0.584302 0.803419
O O13 0.289786 0.821172 0.008372
O O14 0.584770 0.898155 0.088503
O O15 0.421366 0.104952 0.096019
O O16 0.689113 0.882934 0.972490
#
# Coordination Sequence:
#
# PCOD8047529 Si02
#       8
#     2   2   2   2   2   2   2   2
#     4  11  24  44  70  97 139 179 224 281 349 412
#     4  12  24  44  70 107 136 176 224 283 347 421
#     4  11  26  44  69  99 138 181 221 281 355 407
#     4  12  21  44  73 100 136 176 219 279 356 406
#     4  12  25  44  69 105 136 175 232 289 340 414
#     4  11  25  47  69  96 137 186 234 283 338 404
#     4  11  23  47  71  97 139 184 221 286 356 402
#     4  12  26  44  69 101 135 183 239 282 333 406
#
# _framework density 21.546817999999998
#
# number of rings (size 3 to 8) (size 9 to 14) (size 15 to 20)
#    0.000    0.500    6.250    2.250    1.750    4.000 
#    4.500    0.000    0.000    0.000    0.000    0.000 
#    0.000    0.000    0.000    0.000    0.000    0.000 
#
# Total GULP energy -198468.963666 kJ/mol
# GULP energy per Si atom -12404.310229 kJ/mol
# Density = 2.149778 g / cm^3
# Si number density = 21.546818 Si / 1000 Ang^3
#
#
#
# Elastic Constant Matrix: (Units=GPa)
#
#
# Indices 1 2 3 4 5 6 
#
# 1 97.5302 21.7933 14.5735 0.0000 5.3449 0.0000
# 2 21.7933 46.2073 37.2675 0.0000 -3.9114 0.0000
# 3 14.5735 37.2675 109.6257 0.0000 -3.1583 0.0000
# 4 0.0000 0.0000 0.0000 39.0882 0.0000 -1.8418
# 5 5.3449 -3.9114 -3.1583 0.0000 23.8433 0.0000
# 6 0.0000 0.0000 0.0000 -1.8418 0.0000 27.7548
#
#
#
# Elastic Compliance Matrix: (Units=1/GPa)
#
#
# Indices 1 2 3 4 5 6 
#
# 1 0.011773 -0.006216 0.000444 0.000000 -0.003600 0.000000
# 2 -0.006216 0.033403 -0.010371 0.000000 0.005499 0.000000
# 3 0.000444 -0.010371 0.012585 0.000000 -0.000134 0.000000
# 4 0.000000 0.000000 0.000000 0.025663 0.000000 0.001703
# 5 -0.003600 0.005499 -0.000134 0.000000 0.043632 0.000000
# 6 0.000000 0.000000 0.000000 0.001703 0.000000 0.036143
#
#
# Mechanical properties :
#
#
# Convention : Reuss Voigt Hill
#
# Bulk Modulus (GPa) = 39.25215 44.51465 41.88340
# Shear Modulus (GPa) = 24.51284 30.11922 27.31603
#
# Velocity S-wave (km/s) = 3.37657 3.74284 3.56441
# Velocity P-wave (km/s) = 5.78432 6.27557 6.03495
#
# Compressibility (1/GPa) = 0.02547631
#
# Stress axis : x y z
#
# Youngs Moduli (GPa) = 84.93987 29.93752 79.46238
#
# Poissons Ratio (x) = 0.18608 -0.03530
# Poissons Ratio (y) = 0.52796 0.82408
# Poissons Ratio (z) = -0.03773 0.31047
#
# Static dielectric constant tensor:
#      x y z
#    x 3.778310 0.000000 0.038660 
#    y 0.000000 3.952440 0.000000 
#    z 0.038660 0.000000 4.013530 
# 
# 
# High freq. dielectric constant tensor:
#      x y z
#    x 1.846300 0.000000 -0.001110 
#    y 0.000000 1.843680 0.000000 
#    z -0.001110 0.000000 1.854520 
# 
# From -- ./inp_files/12543.got.cif
#   From: 2010.03.12/outbox.cif.g09.slc.cpg/sg4_7_cif.got.tgz:12543.got - 2010.03.31 09:31:35.
