data_PCOD8047955
_publ_section_title
;
Structure prediction by ZEFSAII (Michael W. Deem and Ramdas Pophale) SiO2 
 PCOD8047955
Probable space group: P 21
;
_chemical_formula_sum "Si O2"
_cell_formula_units_Z 14
_cell_length_a 11.491125
_cell_length_b 8.576490
_cell_length_c 8.606412
_cell_angle_alpha 90.000000
_cell_angle_beta 39.852225
_cell_angle_gamma 90.000000
_cell_volume 543.529799
_symmetry_space_group_name_H-M "P 21"
_symmetry_group_IT_number 4
_symmetry_cell_setting 'monoclinic'
loop_
_space_group_symop_operation_xyz
x,y,z
-x,1/2+y,-z
loop_
_atom_site_type_symbol
_atom_site_label
_atom_site_fract_x
_atom_site_fract_y
_atom_site_fract_z
Si Si1 0.945643 0.901980 0.243398
Si Si2 0.312887 0.911546 0.702205
Si Si3 0.573364 0.628426 0.947514
Si Si4 0.661250 0.767500 0.326736
Si Si5 0.744409 0.198636 0.518535
Si Si6 0.693431 0.938402 0.963097
Si Si7 0.069418 0.917687 0.449851
O O1 0.819163 0.777795 0.289920
O O2 0.964495 0.864888 0.403629
O O3 0.868393 0.077317 0.294786
O O4 0.134797 0.866966 0.972368
O O5 0.479765 0.816774 0.603559
O O6 0.299327 0.854264 0.535998
O O7 0.357715 0.088578 0.692195
O O8 0.634171 0.809390 0.893137
O O9 0.760518 0.530037 0.763557
O O10 0.439154 0.610775 0.236004
O O11 0.450977 0.580213 0.921158
O O12 0.684735 0.873598 0.148034
O O13 0.859384 0.257548 0.547951
O O14 0.904721 0.990870 0.722764
#
# Coordination Sequence:
#
# PCOD8047955 Si02
#       7
#     2   2   2   2   2   2   2
#     4  12  28  48  80 117 162 208 270 326 407 480
#     4  12  26  52  80 111 162 210 264 333 391 488
#     4  12  25  51  80 113 159 205 266 335 395 470
#     4  12  28  50  77 116 160 212 264 325 408 479
#     4  12  26  55  75 118 162 214 274 330 397 483
#     4  12  27  51  82 118 161 210 267 336 401 480
#     4  12  26  47  82 113 160 207 269 335 399 472
#
# _framework density 25.757558
#
# number of rings (size 3 to 8) (size 9 to 14) (size 15 to 20)
#    0.000    0.000    4.286    5.143    2.000    3.429 
#   10.286    0.000    0.000    0.000    0.000    0.000 
#    0.000    0.000    0.000    0.000    0.000    0.000 
#
# Total GULP energy -173488.049466 kJ/mol
# GULP energy per Si atom -12392.003533 kJ/mol
# Density = 2.569893 g / cm^3
# Si number density = 25.757558 Si / 1000 Ang^3
#
#
#
# Elastic Constant Matrix: (Units=GPa)
#
#
# Indices 1 2 3 4 5 6 
#
# 1 169.7177 10.7698 10.7253 0.0000 -35.3792 0.0000
# 2 10.7698 28.2148 6.1668 0.0000 -2.8409 0.0000
# 3 10.7253 6.1668 169.3480 0.0000 -28.6479 0.0000
# 4 0.0000 0.0000 0.0000 -20.6972 0.0000 12.2338
# 5 -35.3792 -2.8409 -28.6479 0.0000 54.5673 0.0000
# 6 0.0000 0.0000 0.0000 12.2338 0.0000 52.0717
#
#
#
# Elastic Compliance Matrix: (Units=1/GPa)
#
#
# Indices 1 2 3 4 5 6 
#
# 1 0.006975 -0.002289 0.000424 0.000000 0.004626 0.000000
# 2 -0.002289 0.036561 -0.001224 0.000000 -0.000224 0.000000
# 3 0.000424 -0.001224 0.006539 0.000000 0.003644 0.000000
# 4 0.000000 0.000000 0.000000 -0.042424 0.000000 0.009967
# 5 0.004626 -0.000224 0.003644 0.000000 0.023227 0.000000
# 6 0.000000 0.000000 0.000000 0.009967 0.000000 0.016863
#
#
# Mechanical properties :
#
#
# Convention : Reuss Voigt Hill
#
# Bulk Modulus (GPa) = 22.78078 46.95602 34.86840
# Shear Modulus (GPa) = 72.93802 39.82961 56.38382
#
# Velocity S-wave (km/s) = 5.32716 3.93660 4.68377
# Velocity P-wave (km/s) = 6.83386 6.23955 6.54346
#
# Compressibility (1/GPa) = 0.04389666
#
# Stress axis : x y z
#
# Youngs Moduli (GPa) = 143.37176 27.35134 152.92338
#
# Poissons Ratio (x) = 0.06262 -0.06486
# Poissons Ratio (y) = 0.32822 0.18721
# Poissons Ratio (z) = -0.06081 0.03348
#
# Static dielectric constant tensor:
#      x y z
#    x 5.139700 0.000000 -0.179690 
#    y 0.000000 4.370420 0.000000 
#    z -0.179690 0.000000 5.250560 
# 
# 
# High freq. dielectric constant tensor:
#      x y z
#    x 2.038870 0.000000 -0.025250 
#    y 0.000000 2.016400 0.000000 
#    z -0.025250 0.000000 2.047650 
# 
# From -- ./inp_files/7935.got.cif
#   From: 2010.03.12/outbox.cif.g09.slc.cpg/sg4_4_cif.got.tgz:7935.got - 2010.03.31 09:31:35.
