data_PCOD8047972
_publ_section_title
;
Structure prediction by ZEFSAII (Michael W. Deem and Ramdas Pophale) SiO2 
 PCOD8047972
Probable space group: P 21
;
_chemical_formula_sum "Si O2"
_cell_formula_units_Z 12
_cell_length_a 19.197103
_cell_length_b 5.285350
_cell_length_c 18.572806
_cell_angle_alpha 90.000000
_cell_angle_beta 165.350314
_cell_angle_gamma 90.000000
_cell_volume 476.595900
_symmetry_space_group_name_H-M "P 21"
_symmetry_group_IT_number 4
_symmetry_cell_setting 'monoclinic'
loop_
_space_group_symop_operation_xyz
x,y,z
-x,1/2+y,-z
loop_
_atom_site_type_symbol
_atom_site_label
_atom_site_fract_x
_atom_site_fract_y
_atom_site_fract_z
Si Si1 0.509563 0.679550 0.553028
Si Si2 0.829035 0.385414 0.089013
Si Si3 0.990403 0.284030 0.533867
Si Si4 0.329034 0.078278 0.569050
Si Si5 0.022431 0.748323 0.160391
Si Si6 0.477541 0.215393 0.115506
O O1 0.596193 0.418928 0.600108
O O2 0.263280 0.594432 0.360335
O O3 0.772031 0.797590 0.856344
O O4 0.115354 0.255522 0.399085
O O5 0.906137 0.616494 0.115162
O O6 0.615349 0.208161 0.831611
O O7 0.670074 0.459812 0.003634
O O8 0.903815 0.544617 0.407704
O O9 0.727879 0.166087 0.312184
O O10 0.236630 0.369238 0.833697
O O11 0.170083 0.003892 0.336511
O O12 0.406124 0.847206 0.697097
#
# Coordination Sequence:
#
# PCOD8047972 Si02
#       6
#     2   2   2   2   2   2
#     4  12  29  50  78 110 155 212 256 314 378 462
#     4  12  26  46  80 114 150 198 246 334 392 450
#     4  12  29  50  78 110 155 212 256 314 378 462
#     4  12  26  46  80 114 150 198 246 334 392 450
#     4  12  27  50  72 116 149 194 268 310 388 462
#     4  12  27  50  72 116 149 194 268 310 388 462
#
# _framework density 25.178563
#
# number of rings (size 3 to 8) (size 9 to 14) (size 15 to 20)
#    0.000    0.000    0.000   10.000   14.000    0.000 
#    0.000    0.000    0.000    0.000    0.000    0.000 
#    0.000    0.000    0.000    0.000    0.000    0.000 
#
# Total GULP energy -148796.287720 kJ/mol
# GULP energy per Si atom -12399.690643 kJ/mol
# Density = 2.512126 g / cm^3
# Si number density = 25.178563 Si / 1000 Ang^3
#
#
#
# Elastic Constant Matrix: (Units=GPa)
#
#
# Indices 1 2 3 4 5 6 
#
# 1 36.4955 -120.0285 -484.8939 0.0000 -110.7048 0.0000
# 2 -120.0285 -372.2973-1744.7887 0.0000 -443.0082 0.0000
# 3 -484.8939-1744.7887-6510.8640 0.0000-1674.5638 0.0000
# 4 0.0000 0.0000 0.0000 46.4494 0.0000 11.0261
# 5 -110.7048 -443.0082-1674.5638 0.0000 -368.7020 0.0000
# 6 0.0000 0.0000 0.0000 11.0261 0.0000 5.9675
#
#
#
# Elastic Compliance Matrix: (Units=1/GPa)
#
#
# Indices 1 2 3 4 5 6 
#
# 1 0.014565 -0.001325 0.000085 0.000000 -0.003169 0.000000
# 2 -0.001325 0.010676 -0.002585 0.000000 -0.000690 0.000000
# 3 0.000085 -0.002585 0.001543 0.000000 -0.003929 0.000000
# 4 0.000000 0.000000 0.000000 0.038348 0.000000 -0.070856
# 5 -0.003169 -0.000690 -0.003929 0.000000 0.016912 0.000000
# 6 0.000000 0.000000 0.000000 -0.070856 0.000000 0.298492
#
#
# Mechanical properties :
#
#
# Convention : Reuss Voigt Hill
#
# Bulk Modulus (GPa) = 52.25970 -1282.89867 -615.31948
# Shear Modulus (GPa) = 12.67225 -363.05399 -175.19087
#
# Velocity S-wave (km/s) = 2.24586 -12.02101 -8.35047
# Velocity P-wave (km/s) = 5.24651 26.51979 18.38170
#
# Compressibility (1/GPa) = 0.01913520
#
# Stress axis : x y z
#
# Youngs Moduli (GPa) = 68.65887 93.67205 647.99151
#
# Poissons Ratio (x) = 0.12407 -0.05520
# Poissons Ratio (y) = 0.09094 1.67492
# Poissons Ratio (z) = -0.00585 0.24212
#
# Static dielectric constant tensor:
#      x y z
#    x 4.624610 0.000000 0.404170 
#    y 0.000000 4.247040 0.000000 
#    z 0.404170 0.000000 6.107980 
# 
# 
# High freq. dielectric constant tensor:
#      x y z
#    x 2.001570 0.000000 0.009090 
#    y 0.000000 1.991280 0.000000 
#    z 0.009090 0.000000 2.034870 
# 
# From -- ./inp_files/14126.got.cif
#   From: 2010.03.12/outbox.cif.g09.slc.cpg/sg4_8_cif.got.tgz:14126.got - 2010.03.31 09:31:35.
