data_PCOD8047488
_publ_section_title
;
Structure prediction by ZEFSAII (Michael W. Deem and Ramdas Pophale) SiO2 
 PCOD8047488
Probable space group: P 21
;
_chemical_formula_sum "Si O2"
_cell_formula_units_Z 12
_cell_length_a 5.515097
_cell_length_b 6.752725
_cell_length_c 13.989451
_cell_angle_alpha 90.000000
_cell_angle_beta 98.301221
_cell_angle_gamma 90.000000
_cell_volume 515.535596
_symmetry_space_group_name_H-M "P 21"
_symmetry_group_IT_number 4
_symmetry_cell_setting 'monoclinic'
loop_
_space_group_symop_operation_xyz
x,y,z
-x,1/2+y,-z
loop_
_atom_site_type_symbol
_atom_site_label
_atom_site_fract_x
_atom_site_fract_y
_atom_site_fract_z
Si Si1 0.820702 0.604550 0.405289
Si Si2 0.610946 0.059720 0.739159
Si Si3 0.956806 0.392160 0.711482
Si Si4 0.783017 0.026509 0.101613
Si Si5 0.278593 0.267716 0.084368
Si Si6 0.183828 0.275006 0.400284
O O1 0.668837 0.611539 0.297155
O O2 0.005063 0.782344 0.387597
O O3 0.694846 0.673703 0.498201
O O4 0.936006 0.385814 0.420909
O O5 0.656948 0.937120 0.836365
O O6 0.653431 0.939482 0.641726
O O7 0.759577 0.262897 0.758952
O O8 0.192020 0.420638 0.794053
O O9 0.859611 0.610394 0.682276
O O10 0.522688 0.137032 0.086633
O O11 0.030223 0.157449 0.102118
O O12 0.779018 0.861054 0.020683
#
# Coordination Sequence:
#
# PCOD8047488 Si02
#       6
#     2   2   2   2   2   2
#     4  11  25  41  70  97 146 186 243 297 358 434
#     4  11  27  42  71 102 142 184 246 298 362 433
#     4  11  25  45  70 102 142 188 238 298 363 425
#     4  12  27  48  78 107 150 189 241 302 365 436
#     4  12  27  49  76 110 146 191 241 301 366 437
#     4  11  23  45  63 106 138 190 237 298 362 425
#
# _framework density 23.276765000000001
#
# number of rings (size 3 to 8) (size 9 to 14) (size 15 to 20)
#    0.000    0.667    3.333    3.000    9.333    1.333 
#    0.000    0.000    0.000    0.000    0.000    0.000 
#    0.000    0.000    0.000    0.000    0.000    0.000 
#
# Total GULP energy -148665.778545 kJ/mol
# GULP energy per Si atom -12388.814879 kJ/mol
# Density = 2.322379 g / cm^3
# Si number density = 23.276765 Si / 1000 Ang^3
#
#
#
# Elastic Constant Matrix: (Units=GPa)
#
#
# Indices 1 2 3 4 5 6 
#
# 1 73.7241 16.9096 10.1056 0.0000 5.7860 0.0000
# 2 16.9096 109.8295 37.4651 0.0000 -1.0558 0.0000
# 3 10.1056 37.4651 121.7097 0.0000 8.3226 0.0000
# 4 0.0000 0.0000 0.0000 53.8268 0.0000 5.2089
# 5 5.7860 -1.0558 8.3226 0.0000 35.3871 0.0000
# 6 0.0000 0.0000 0.0000 5.2089 0.0000 26.3044
#
#
#
# Elastic Compliance Matrix: (Units=1/GPa)
#
#
# Indices 1 2 3 4 5 6 
#
# 1 0.014277 -0.002089 -0.000385 0.000000 -0.002306 0.000000
# 2 -0.002089 0.010518 -0.003160 0.000000 0.001399 0.000000
# 3 -0.000385 -0.003160 0.009374 0.000000 -0.002236 0.000000
# 4 0.000000 0.000000 0.000000 0.018941 0.000000 -0.003751
# 5 -0.002306 0.001399 -0.002236 0.000000 0.029204 0.000000
# 6 0.000000 0.000000 0.000000 -0.003751 0.000000 0.038759
#
#
# Mechanical properties :
#
#
# Convention : Reuss Voigt Hill
#
# Bulk Modulus (GPa) = 43.66513 48.24711 45.95612
# Shear Modulus (GPa) = 35.72105 39.15589 37.43847
#
# Velocity S-wave (km/s) = 3.92168 4.10590 4.01484
# Velocity P-wave (km/s) = 6.26944 6.57651 6.42481
#
# Compressibility (1/GPa) = 0.02290157
#
# Stress axis : x y z
#
# Youngs Moduli (GPa) = 70.04294 95.07511 106.68047
#
# Poissons Ratio (x) = 0.19862 0.04104
# Poissons Ratio (y) = 0.14632 0.33710
# Poissons Ratio (z) = 0.02694 0.30042
#
# Static dielectric constant tensor:
#      x y z
#    x 4.119100 0.000000 -0.026180 
#    y 0.000000 4.254330 0.000000 
#    z -0.026180 0.000000 4.238400 
# 
# 
# High freq. dielectric constant tensor:
#      x y z
#    x 1.905360 0.000000 -0.000320 
#    y 0.000000 1.938550 0.000000 
#    z -0.000320 0.000000 1.942410 
# 
# From -- ./inp_files/3284.got.cif
#   From: 2010.03.12/outbox.cif.g09.slc.cpg/sg4_2_cif.got.tgz:3284.got - 2010.03.31 09:31:35.
