data_PCOD8047802
_publ_section_title
;
Structure prediction by ZEFSAII (Michael W. Deem and Ramdas Pophale) SiO2 
 PCOD8047802
Probable space group: P 21
;
_chemical_formula_sum "Si O2"
_cell_formula_units_Z 10
_cell_length_a 9.011403
_cell_length_b 8.480772
_cell_length_c 8.795348
_cell_angle_alpha 90.000000
_cell_angle_beta 146.912107
_cell_angle_gamma 90.000000
_cell_volume 366.955800
_symmetry_space_group_name_H-M "P 21"
_symmetry_group_IT_number 4
_symmetry_cell_setting 'monoclinic'
loop_
_space_group_symop_operation_xyz
x,y,z
-x,1/2+y,-z
loop_
_atom_site_type_symbol
_atom_site_label
_atom_site_fract_x
_atom_site_fract_y
_atom_site_fract_z
Si Si1 0.354342 0.152530 0.072407
Si Si2 0.916404 0.075448 0.106726
Si Si3 0.927299 0.909097 0.723289
Si Si4 0.237521 0.429779 0.738002
Si Si5 0.464560 0.901781 0.544756
O O1 0.519615 0.230541 0.356303
O O2 0.505510 0.007156 0.124084
O O3 0.304225 0.279811 0.898232
O O4 0.073123 0.074537 0.894435
O O5 0.943290 0.257174 0.082020
O O6 0.913830 0.058662 0.287651
O O7 0.157437 0.960361 0.253883
O O8 0.628060 0.021865 0.793532
O O9 0.957273 0.880988 0.568118
O O10 0.612039 0.907900 0.507294
#
# Coordination Sequence:
#
# PCOD8047802 Si02
#       5
#     2   2   2   2   2
#     4  11  27  48  74 113 149 202 250 319 374 454
#     4  11  28  49  73 112 150 201 250 315 375 452
#     4  12  27  45  80 106 151 201 255 309 380 449
#     4  11  27  45  77 105 152 195 260 304 384 440
#     4  11  29  49  76 110 158 193 255 309 385 445
#
# _framework density 27.251239999999999
#
# number of rings (size 3 to 8) (size 9 to 14) (size 15 to 20)
#    0.000    0.800    0.000    3.600   28.000    0.000 
#    0.000    0.000    0.000    0.000    0.000    0.000 
#    0.000    0.000    0.000    0.000    0.000    0.000 
#
# Total GULP energy -123976.247126 kJ/mol
# GULP energy per Si atom -12397.624713 kJ/mol
# Density = 2.718922 g / cm^3
# Si number density = 27.251240 Si / 1000 Ang^3
#
#
#
# Elastic Constant Matrix: (Units=GPa)
#
#
# Indices 1 2 3 4 5 6 
#
# 1 120.0307 28.6966 -1.8568 0.0000 -5.8001 0.0000
# 2 28.6966 145.1460 27.0043 0.0000 -4.1181 0.0000
# 3 -1.8568 27.0043 35.7995 0.0000 0.6952 0.0000
# 4 0.0000 0.0000 0.0000 35.1304 0.0000 7.9761
# 5 -5.8001 -4.1181 0.6952 0.0000 45.6418 0.0000
# 6 0.0000 0.0000 0.0000 7.9761 0.0000 47.6519
#
#
#
# Elastic Compliance Matrix: (Units=1/GPa)
#
#
# Indices 1 2 3 4 5 6 
#
# 1 0.008913 -0.002116 0.002041 0.000000 0.000911 0.000000
# 2 -0.002116 0.008547 -0.006569 0.000000 0.000602 0.000000
# 3 0.002041 -0.006569 0.033010 0.000000 -0.000836 0.000000
# 4 0.000000 0.000000 0.000000 0.029590 0.000000 -0.004953
# 5 0.000911 0.000602 -0.000836 0.000000 0.022093 0.000000
# 6 0.000000 0.000000 0.000000 -0.004953 0.000000 0.021815
#
#
# Mechanical properties :
#
#
# Convention : Reuss Voigt Hill
#
# Bulk Modulus (GPa) = 26.89460 45.40714 36.15087
# Shear Modulus (GPa) = 33.41149 42.16030 37.78590
#
# Velocity S-wave (km/s) = 3.50530 3.93758 3.72771
# Velocity P-wave (km/s) = 5.12576 6.11321 5.64113
#
# Compressibility (1/GPa) = 0.03718218
#
# Stress axis : x y z
#
# Youngs Moduli (GPa) = 112.20013 116.99816 30.29353
#
# Poissons Ratio (x) = 0.24756 -0.06182
# Poissons Ratio (y) = 0.23741 0.19899
# Poissons Ratio (z) = -0.22896 0.76853
#
# Static dielectric constant tensor:
#      x y z
#    x 5.303500 0.000000 -0.236740 
#    y 0.000000 5.122720 0.000000 
#    z -0.236740 0.000000 4.612180 
# 
# 
# High freq. dielectric constant tensor:
#      x y z
#    x 2.115850 0.000000 -0.014500 
#    y 0.000000 2.111660 0.000000 
#    z -0.014500 0.000000 2.083490 
# 
# From -- ./inp_files/906.got.cif
#   From: 2010.03.12/outbox.cif.g09.slc.cpg/sg4_1_cif.got.tgz:906.got - 2010.03.31 09:31:35.
