data_PCOD8047197
_publ_section_title
;
Structure prediction by ZEFSAII (Michael W. Deem and Ramdas Pophale) SiO2 
 PCOD8047197
Probable space group: P 21
;
_chemical_formula_sum "Si O2"
_cell_formula_units_Z 16
_cell_length_a 6.403376
_cell_length_b 13.699262
_cell_length_c 8.663910
_cell_angle_alpha 90.000000
_cell_angle_beta 58.661044
_cell_angle_gamma 90.000000
_cell_volume 649.129847
_symmetry_space_group_name_H-M "P 21"
_symmetry_group_IT_number 4
_symmetry_cell_setting 'monoclinic'
loop_
_space_group_symop_operation_xyz
x,y,z
-x,1/2+y,-z
loop_
_atom_site_type_symbol
_atom_site_label
_atom_site_fract_x
_atom_site_fract_y
_atom_site_fract_z
Si Si1 0.609461 0.253010 0.656144
Si Si2 0.805151 0.504256 0.850050
Si Si3 0.371345 0.186147 0.224723
Si Si4 0.137323 0.377248 0.896276
Si Si5 0.308553 0.115980 0.585761
Si Si6 0.140942 0.931393 0.508934
Si Si7 0.836359 0.204401 0.898155
Si Si8 0.327477 0.408297 0.151544
O O1 0.380854 0.327207 0.738867
O O2 0.544500 0.152627 0.591206
O O3 0.813128 0.314954 0.481314
O O4 0.694701 0.228841 0.794187
O O5 0.806202 0.620884 0.816903
O O6 0.781852 0.449071 0.696634
O O7 0.060549 0.475666 0.832887
O O8 0.571325 0.473201 0.045254
O O9 0.290861 0.175867 0.432458
O O10 0.385728 0.297377 0.169144
O O11 0.648287 0.147118 0.083805
O O12 0.912548 0.303698 0.954502
O O13 0.162736 0.408686 0.062036
O O14 0.067075 0.135907 0.778961
O O15 0.315043 0.000260 0.548665
O O16 0.854115 0.954150 0.649098
#
# Coordination Sequence:
#
# PCOD8047197 Si02
#       8
#     2   2   2   2   2   2   2   2
#     4  11  22  44  69  92 137 173 215 276 329 389
#     4  11  24  47  64  97 138 172 218 277 333 390
#     4  11  23  43  68  97 131 170 226 268 325 404
#     4  11  21  42  68  90 131 175 209 267 338 377
#     4  10  26  42  66 100 130 179 219 271 337 383
#     4  11  23  46  64  98 138 166 226 278 320 402
#     4  11  21  45  65  91 133 171 216 276 321 388
#     4  12  24  43  68 101 130 176 221 273 331 395
#
# _framework density 24.64838
#
# number of rings (size 3 to 8) (size 9 to 14) (size 15 to 20)
#    0.000    1.000    5.000    1.500    3.500    1.000 
#    9.000    0.000    0.000    0.000    0.000    0.000 
#    0.000    0.000    0.000    0.000    0.000    0.000 
#
# Total GULP energy -198347.333694 kJ/mol
# GULP energy per Si atom -12396.708356 kJ/mol
# Density = 2.459228 g / cm^3
# Si number density = 24.648380 Si / 1000 Ang^3
#
#
#
# Elastic Constant Matrix: (Units=GPa)
#
#
# Indices 1 2 3 4 5 6 
#
# 1 49.7484 -14.6500 -22.1327 0.0000 0.1595 0.0000
# 2 -14.6500 48.2703 -14.0733 0.0000 4.2639 0.0000
# 3 -22.1327 -14.0733 72.1707 0.0000 -23.0455 0.0000
# 4 0.0000 0.0000 0.0000 23.2631 0.0000 0.5842
# 5 0.1595 4.2639 -23.0455 0.0000 20.3800 0.0000
# 6 0.0000 0.0000 0.0000 0.5842 0.0000 28.3597
#
#
#
# Elastic Compliance Matrix: (Units=1/GPa)
#
#
# Indices 1 2 3 4 5 6 
#
# 1 0.031957 0.013400 0.017902 0.000000 0.017190 0.000000
# 2 0.013400 0.027586 0.011914 0.000000 0.007596 0.000000
# 3 0.017902 0.011914 0.032600 0.000000 0.034231 0.000000
# 4 0.000000 0.000000 0.000000 0.043009 0.000000 -0.000886
# 5 0.017190 0.007596 0.034231 0.000000 0.086053 0.000000
# 6 0.000000 0.000000 0.000000 -0.000886 0.000000 0.035280
#
#
# Mechanical properties :
#
#
# Convention : Reuss Voigt Hill
#
# Bulk Modulus (GPa) = 5.59987 7.60859 6.60423
# Shear Modulus (GPa) = 21.77925 29.13691 25.45808
#
# Velocity S-wave (km/s) = 2.97576 3.44190 3.21728
# Velocity P-wave (km/s) = 3.75283 4.34616 4.06035
#
# Compressibility (1/GPa) = 0.17857564
#
# Stress axis : x y z
#
# Youngs Moduli (GPa) = 31.29238 36.25010 30.67466
#
# Poissons Ratio (x) = -0.48574 -0.54915
# Poissons Ratio (y) = -0.41931 -0.36546
# Poissons Ratio (z) = -0.56021 -0.43189
#
# Static dielectric constant tensor:
#      x y z
#    x 4.377880 0.000000 -0.186370 
#    y 0.000000 4.501230 0.000000 
#    z -0.186370 0.000000 4.609820 
# 
# 
# High freq. dielectric constant tensor:
#      x y z
#    x 1.968280 0.000000 -0.012080 
#    y 0.000000 1.981750 0.000000 
#    z -0.012080 0.000000 1.983590 
# 
# From -- ./inp_files/4793.got.cif
#   From: 2010.03.12/outbox.cif.g09.slc.cpg/sg4_3_cif.got.tgz:4793.got - 2010.03.31 09:31:35.
