data_PCOD8047248
_publ_section_title
;
Structure prediction by ZEFSAII (Michael W. Deem and Ramdas Pophale) SiO2 
 PCOD8047248
Probable space group: P 21
;
_chemical_formula_sum "Si O2"
_cell_formula_units_Z 16
_cell_length_a 10.931426
_cell_length_b 15.298523
_cell_length_c 9.734970
_cell_angle_alpha 90.000000
_cell_angle_beta 27.372275
_cell_angle_gamma 90.000000
_cell_volume 748.517033
_symmetry_space_group_name_H-M "P 21"
_symmetry_group_IT_number 4
_symmetry_cell_setting 'monoclinic'
loop_
_space_group_symop_operation_xyz
x,y,z
-x,1/2+y,-z
loop_
_atom_site_type_symbol
_atom_site_label
_atom_site_fract_x
_atom_site_fract_y
_atom_site_fract_z
Si Si1 0.535876 0.714140 0.745296
Si Si2 0.955476 0.325983 0.806579
Si Si3 0.078340 0.835274 0.831686
Si Si4 0.969778 0.010412 0.412563
Si Si5 0.454042 0.104881 0.533784
Si Si6 0.468765 0.037566 0.090059
Si Si7 0.957369 0.143619 0.193040
Si Si8 0.425030 0.435557 0.742051
O O1 0.819514 0.760185 0.470453
O O2 0.483005 0.672451 0.649668
O O3 0.519094 0.638903 0.877120
O O4 0.315361 0.788605 0.988736
O O5 0.005023 0.422978 0.702020
O O6 0.944193 0.327623 0.982141
O O7 0.993068 0.746506 0.840414
O O8 0.378856 0.855049 0.484658
O O9 0.880755 0.908982 0.971900
O O10 0.034572 0.094490 0.255053
O O11 0.173402 0.012536 0.336057
O O12 0.671061 0.019120 0.765242
O O13 0.649102 0.126951 0.464751
O O14 0.505246 0.006244 0.441347
O O15 0.146310 0.109387 0.882540
O O16 0.539157 0.972537 0.142334
#
# Coordination Sequence:
#
# PCOD8047248 Si02
#       8
#     2   2   2   2   2   2   2   2
#     4  11  22  43  71  95 129 177 221 278 317 405
#     4  12  23  42  71 102 132 169 228 277 338 394
#     4  12  23  42  67 108 131 162 221 276 347 397
#     4  12  26  46  65  99 136 183 222 277 322 394
#     4  11  20  41  67  97 129 169 212 269 346 385
#     4  11  26  49  65  93 136 180 237 254 329 400
#     4  12  24  42  65  99 143 164 209 282 339 395
#     4  11  24  41  69  95 130 176 216 275 320 396
#
# _framework density 21.375599000000001
#
# number of rings (size 3 to 8) (size 9 to 14) (size 15 to 20)
#    0.000    0.500    2.500    6.750    0.000    4.000 
#   13.500    0.000    0.000    0.000    0.000    0.000 
#    0.000    0.000    0.000    0.000    0.000    0.000 
#
# Total GULP energy -198520.626186 kJ/mol
# GULP energy per Si atom -12407.539137 kJ/mol
# Density = 2.132695 g / cm^3
# Si number density = 21.375599 Si / 1000 Ang^3
#
#
#
# Elastic Constant Matrix: (Units=GPa)
#
#
# Indices 1 2 3 4 5 6 
#
# 1 62.5943 38.0146 11.7838 0.0000 -1.1941 0.0000
# 2 38.0146 109.6740 19.6791 0.0000 15.9593 0.0000
# 3 11.7838 19.6791 92.7884 0.0000 4.6948 0.0000
# 4 0.0000 0.0000 0.0000 43.5966 0.0000 -3.3932
# 5 -1.1941 15.9593 4.6948 0.0000 35.0446 0.0000
# 6 0.0000 0.0000 0.0000 -3.3932 0.0000 28.3615
#
#
#
# Elastic Compliance Matrix: (Units=1/GPa)
#
#
# Indices 1 2 3 4 5 6 
#
# 1 0.020957 -0.007676 -0.001255 0.000000 0.004378 0.000000
# 2 -0.007676 0.012906 -0.001462 0.000000 -0.005943 0.000000
# 3 -0.001255 -0.001462 0.011292 0.000000 -0.000890 0.000000
# 4 0.000000 0.000000 0.000000 0.023153 0.000000 0.002770
# 5 0.004378 -0.005943 -0.000890 0.000000 0.031510 0.000000
# 6 0.000000 0.000000 0.000000 0.002770 0.000000 0.035590
#
#
# Mechanical properties :
#
#
# Convention : Reuss Voigt Hill
#
# Bulk Modulus (GPa) = 41.03512 44.89020 42.96266
# Shear Modulus (GPa) = 30.42906 34.43915 32.43411
#
# Velocity S-wave (km/s) = 3.77708 4.01826 3.89953
# Velocity P-wave (km/s) = 6.18552 6.52494 6.35749
#
# Compressibility (1/GPa) = 0.02436937
#
# Stress axis : x y z
#
# Youngs Moduli (GPa) = 47.71566 77.48572 88.56140
#
# Poissons Ratio (x) = 0.59478 0.11115
# Poissons Ratio (y) = 0.36627 0.12944
# Poissons Ratio (z) = 0.05989 0.11325
#
# Static dielectric constant tensor:
#      x y z
#    x 3.692580 0.000000 -0.035210 
#    y 0.000000 4.018330 0.000000 
#    z -0.035210 0.000000 3.989580 
# 
# 
# High freq. dielectric constant tensor:
#      x y z
#    x 1.828020 0.000000 -0.006680 
#    y 0.000000 1.854460 0.000000 
#    z -0.006680 0.000000 1.854760 
# 
# From -- ./inp_files/1747.got.cif
#   From: 2010.03.12/outbox.cif.g09.slc.cpg/sg4_1_cif.got.tgz:1747.got - 2010.03.31 09:31:35.
