data_PCOD8047175
_publ_section_title
;
Structure prediction by ZEFSAII (Michael W. Deem and Ramdas Pophale) SiO2 
 PCOD8047175
Probable space group: P 21
;
_chemical_formula_sum "Si O2"
_cell_formula_units_Z 14
_cell_length_a 6.412354
_cell_length_b 9.256665
_cell_length_c 10.929130
_cell_angle_alpha 90.000000
_cell_angle_beta 70.704458
_cell_angle_gamma 90.000000
_cell_volume 612.279715
_symmetry_space_group_name_H-M "P 21"
_symmetry_group_IT_number 4
_symmetry_cell_setting 'monoclinic'
loop_
_space_group_symop_operation_xyz
x,y,z
-x,1/2+y,-z
loop_
_atom_site_type_symbol
_atom_site_label
_atom_site_fract_x
_atom_site_fract_y
_atom_site_fract_z
Si Si1 0.773674 0.487560 0.465960
Si Si2 0.998631 0.833137 0.787496
Si Si3 0.521603 0.216151 0.563966
Si Si4 0.603583 0.984163 0.998399
Si Si5 0.765367 0.851078 0.205245
Si Si6 0.777869 0.293359 0.002417
Si Si7 0.079999 0.558195 0.615543
O O1 0.574771 0.372987 0.500002
O O2 0.667606 0.646386 0.484249
O O3 0.919713 0.460952 0.316920
O O4 0.901789 0.473301 0.568905
O O5 0.175107 0.800593 0.861575
O O6 0.966922 0.686025 0.716515
O O7 0.765758 0.887564 0.884193
O O8 0.415085 0.228528 0.721242
O O9 0.744663 0.121771 0.516698
O O10 0.649245 0.953346 0.130704
O O11 0.635036 0.156616 0.982768
O O12 0.353566 0.939326 0.010415
O O13 0.810441 0.943015 0.317456
O O14 0.988957 0.781031 0.111773
#
# Coordination Sequence:
#
# PCOD8047175 Si02
#       7
#     2   2   2   2   2   2   2
#     4  11  26  44  73 104 143 191 237 297 366 432
#     4  10  25  47  69 101 146 180 246 299 351 436
#     4  11  25  44  70 106 142 186 238 300 358 435
#     4  11  26  46  74 102 141 194 237 298 366 421
#     4  11  25  45  71 103 146 180 247 294 353 433
#     4  11  26  45  74 105 141 193 238 304 358 426
#     4  11  25  45  73 103 143 190 237 300 368 427
#
# _framework density 22.865368
#
# number of rings (size 3 to 8) (size 9 to 14) (size 15 to 20)
#    0.000    1.143    2.857    0.857    8.000    6.857 
#    0.000    0.000    0.000    0.000    0.000    0.000 
#    0.000    0.000    0.000    0.000    0.000    0.000 
#
# Total GULP energy -173580.356106 kJ/mol
# GULP energy per Si atom -12398.596865 kJ/mol
# Density = 2.281333 g / cm^3
# Si number density = 22.865368 Si / 1000 Ang^3
#
#
#
# Elastic Constant Matrix: (Units=GPa)
#
#
# Indices 1 2 3 4 5 6 
#
# 1 67.3582 27.8301 50.8305 0.0000 5.8514 0.0000
# 2 27.8301 84.0092 40.6457 0.0000 14.7024 0.0000
# 3 50.8305 40.6457 124.8144 0.0000 6.0321 0.0000
# 4 0.0000 0.0000 0.0000 37.7749 0.0000 1.1289
# 5 5.8514 14.7024 6.0321 0.0000 19.8151 0.0000
# 6 0.0000 0.0000 0.0000 1.1289 0.0000 39.8504
#
#
#
# Elastic Compliance Matrix: (Units=1/GPa)
#
#
# Indices 1 2 3 4 5 6 
#
# 1 0.022345 -0.003242 -0.007959 0.000000 -0.001770 0.000000
# 2 -0.003242 0.016480 -0.003554 0.000000 -0.010189 0.000000
# 3 -0.007959 -0.003554 0.012351 0.000000 0.001227 0.000000
# 4 0.000000 0.000000 0.000000 0.026495 0.000000 -0.000751
# 5 -0.001770 -0.010189 0.001227 0.000000 0.058176 0.000000
# 6 0.000000 0.000000 0.000000 -0.000751 0.000000 0.025115
#
#
# Mechanical properties :
#
#
# Convention : Reuss Voigt Hill
#
# Bulk Modulus (GPa) = 46.15330 57.19937 51.67634
# Shear Modulus (GPa) = 25.29164 29.94644 27.61904
#
# Velocity S-wave (km/s) = 3.32943 3.62288 3.47925
# Velocity P-wave (km/s) = 5.91682 6.52460 6.22813
#
# Compressibility (1/GPa) = 0.02166692
#
# Stress axis : x y z
#
# Youngs Moduli (GPa) = 44.75246 60.67937 80.96414
#
# Poissons Ratio (x) = 0.19672 0.64437
# Poissons Ratio (y) = 0.14508 0.28775
# Poissons Ratio (z) = 0.35617 0.21566
#
# Static dielectric constant tensor:
#      x y z
#    x 3.921430 0.000000 -0.176810 
#    y 0.000000 4.080740 0.000000 
#    z -0.176810 0.000000 4.336590 
# 
# 
# High freq. dielectric constant tensor:
#      x y z
#    x 1.895410 0.000000 -0.011360 
#    y 0.000000 1.905300 0.000000 
#    z -0.011360 0.000000 1.913930 
# 
# From -- ./inp_files/2498.got.cif
#   From: 2010.03.12/outbox.cif.g09.slc.cpg/sg4_2_cif.got.tgz:2498.got - 2010.03.31 09:31:35.
