data_PCOD8047301
_publ_section_title
;
Structure prediction by ZEFSAII (Michael W. Deem and Ramdas Pophale) SiO2 
 PCOD8047301
Probable space group: P 21
;
_chemical_formula_sum "Si O2"
_cell_formula_units_Z 16
_cell_length_a 5.601744
_cell_length_b 8.798062
_cell_length_c 14.043440
_cell_angle_alpha 90.000000
_cell_angle_beta 74.251630
_cell_angle_gamma 90.000000
_cell_volume 666.143513
_symmetry_space_group_name_H-M "P 21"
_symmetry_group_IT_number 4
_symmetry_cell_setting 'monoclinic'
loop_
_space_group_symop_operation_xyz
x,y,z
-x,1/2+y,-z
loop_
_atom_site_type_symbol
_atom_site_label
_atom_site_fract_x
_atom_site_fract_y
_atom_site_fract_z
Si Si1 0.622946 0.895330 0.356841
Si Si2 0.002735 0.180795 0.629023
Si Si3 0.592224 0.508202 0.813430
Si Si4 0.849221 0.391880 0.485371
Si Si5 0.949074 0.173857 0.302693
Si Si6 0.828027 0.565384 0.063826
Si Si7 0.728938 0.188271 0.845158
Si Si8 0.165952 0.717699 0.892873
O O1 0.516629 0.915093 0.263541
O O2 0.444688 0.909286 0.468030
O O3 0.742809 0.725887 0.344301
O O4 0.828285 0.021380 0.353490
O O5 0.937723 0.331036 0.576889
O O6 0.797409 0.140082 0.729706
O O7 0.029782 0.054435 0.545760
O O8 0.725285 0.373356 0.860030
O O9 0.387552 0.600005 0.897909
O O10 0.767686 0.638928 0.752736
O O11 0.925954 0.298556 0.385293
O O12 0.819664 0.240092 0.222063
O O13 0.053517 0.621913 0.109680
O O14 0.549833 0.625124 0.111283
O O15 0.811707 0.382639 0.061397
O O16 0.909878 0.634074 0.952250
#
# Coordination Sequence:
#
# PCOD8047301 Si02
#       8
#     2   2   2   2   2   2   2   2
#     4  11  21  45  66 105 141 205 254 313 387 459
#     4  12  25  42  70 104 152 196 265 314 392 461
#     4  11  24  46  79 104 155 201 257 325 400 465
#     4  12  25  42  67 107 147 206 254 322 380 476
#     4  11  25  46  73 107 153 195 258 319 394 457
#     4  12  30  51  82 119 154 211 263 330 404 474
#     4  12  27  50  79 115 158 205 266 329 398 474
#     4  11  29  50  80 115 154 205 261 332 397 480
#
# _framework density 24.018851000000002
#
# number of rings (size 3 to 8) (size 9 to 14) (size 15 to 20)
#    0.000    0.500    2.500    4.500    8.750    1.000 
#    2.250    0.000    0.000    0.000    0.000    0.000 
#    0.000    0.000    0.000    0.000    0.000    0.000 
#
# Total GULP energy -198298.330049 kJ/mol
# GULP energy per Si atom -12393.645628 kJ/mol
# Density = 2.396418 g / cm^3
# Si number density = 24.018851 Si / 1000 Ang^3
#
#
#
# Elastic Constant Matrix: (Units=GPa)
#
#
# Indices 1 2 3 4 5 6 
#
# 1 107.3661 26.0448 43.8934 0.0000 -24.0002 0.0000
# 2 26.0448 104.6640 46.3196 0.0000 -12.5274 0.0000
# 3 43.8934 46.3196 108.8967 0.0000 -27.8431 0.0000
# 4 0.0000 0.0000 0.0000 48.0195 0.0000 -11.1453
# 5 -24.0002 -12.5274 -27.8431 0.0000 52.1530 0.0000
# 6 0.0000 0.0000 0.0000 -11.1453 0.0000 37.2421
#
#
#
# Elastic Compliance Matrix: (Units=1/GPa)
#
#
# Indices 1 2 3 4 5 6 
#
# 1 0.011704 -0.000989 -0.003452 0.000000 0.003306 0.000000
# 2 -0.000989 0.011855 -0.004670 0.000000 -0.000101 0.000000
# 3 -0.003452 -0.004670 0.013744 0.000000 0.004627 0.000000
# 4 0.000000 0.000000 0.000000 0.022379 0.000000 0.006697
# 5 0.003306 -0.000101 0.004627 0.000000 0.023142 0.000000
# 6 0.000000 0.000000 0.000000 0.006697 0.000000 0.028856
#
#
# Mechanical properties :
#
#
# Convention : Reuss Voigt Hill
#
# Bulk Modulus (GPa) = 52.40585 61.49359 56.94972
# Shear Modulus (GPa) = 36.69438 41.12753 38.91096
#
# Velocity S-wave (km/s) = 3.91286 4.14249 4.02931
# Velocity P-wave (km/s) = 6.50231 6.96693 6.73862
#
# Compressibility (1/GPa) = 0.01908184
#
# Stress axis : x y z
#
# Youngs Moduli (GPa) = 85.44164 84.35226 72.76125
#
# Poissons Ratio (x) = 0.08345 0.25114
# Poissons Ratio (y) = 0.08452 0.33976
# Poissons Ratio (z) = 0.29490 0.39389
#
# Static dielectric constant tensor:
#      x y z
#    x 4.522190 0.000000 -0.236410 
#    y 0.000000 4.639090 0.000000 
#    z -0.236410 0.000000 4.465690 
# 
# 
# High freq. dielectric constant tensor:
#      x y z
#    x 1.956210 0.000000 -0.008660 
#    y 0.000000 1.955810 0.000000 
#    z -0.008660 0.000000 1.969900 
# 
# From -- ./inp_files/3403.got.cif
#   From: 2010.03.12/outbox.cif.g09.slc.cpg/sg4_2_cif.got.tgz:3403.got - 2010.03.31 09:31:35.
