data_PCOD8047315
_publ_section_title
;
Structure prediction by ZEFSAII (Michael W. Deem and Ramdas Pophale) SiO2 
 PCOD8047315
Probable space group: P 21
;
_chemical_formula_sum "Si O2"
_cell_formula_units_Z 16
_cell_length_a 11.257201
_cell_length_b 8.696080
_cell_length_c 8.871918
_cell_angle_alpha 90.000000
_cell_angle_beta 124.127988
_cell_angle_gamma 90.000000
_cell_volume 718.935186
_symmetry_space_group_name_H-M "P 21"
_symmetry_group_IT_number 4
_symmetry_cell_setting 'monoclinic'
loop_
_space_group_symop_operation_xyz
x,y,z
-x,1/2+y,-z
loop_
_atom_site_type_symbol
_atom_site_label
_atom_site_fract_x
_atom_site_fract_y
_atom_site_fract_z
Si Si1 0.668418 0.707480 0.543285
Si Si2 0.521596 0.529964 0.199221
Si Si3 0.467966 0.704343 0.667550
Si Si4 0.223333 0.516654 0.360549
Si Si5 0.944507 0.446112 0.315902
Si Si6 0.216791 0.442784 0.002428
Si Si7 0.683624 0.610287 0.029728
Si Si8 0.039661 0.098355 0.351766
O O1 0.541346 0.618073 0.370344
O O2 0.604219 0.747178 0.660699
O O3 0.815904 0.607970 0.647222
O O4 0.706518 0.872833 0.499521
O O5 0.569729 0.352046 0.256418
O O6 0.353630 0.537873 0.036796
O O7 0.621732 0.621303 0.154825
O O8 0.327640 0.658909 0.472868
O O9 0.541890 0.573016 0.826659
O O10 0.202342 0.474167 0.170710
O O11 0.069171 0.546165 0.324906
O O12 0.800930 0.473995 0.113566
O O13 0.921357 0.511556 0.466645
O O14 0.975965 0.265871 0.342097
O O15 0.238472 0.265816 0.969674
O O16 0.073377 0.500320 0.822093
#
# Coordination Sequence:
#
# PCOD8047315 Si02
#       8
#     2   2   2   2   2   2   2   2
#     4  11  21  47  68  97 139 181 231 284 348 419
#     4  11  24  43  71 102 137 183 233 290 352 410
#     4  11  24  45  71 101 138 181 233 289 351 413
#     4  11  25  43  69  99 139 182 228 289 343 415
#     4  11  26  44  66 103 135 182 233 283 350 415
#     4  11  25  46  66 102 138 181 232 286 348 413
#     4  11  25  45  69 100 142 182 232 292 343 421
#     4  11  26  43  70  98 138 182 230 287 351 412
#
# _framework density 22.255136
#
# number of rings (size 3 to 8) (size 9 to 14) (size 15 to 20)
#    0.000    1.000    5.000    0.750    7.000    4.000 
#    2.250    0.000    0.000    0.000    0.000    0.000 
#    0.000    0.000    0.000    0.000    0.000    0.000 
#
# Total GULP energy -198259.365965 kJ/mol
# GULP energy per Si atom -12391.210373 kJ/mol
# Density = 2.220448 g / cm^3
# Si number density = 22.255136 Si / 1000 Ang^3
#
#
#
# Elastic Constant Matrix: (Units=GPa)
#
#
# Indices 1 2 3 4 5 6 
#
# 1 68.1045 -0.7905 9.3230 0.0000 -4.1178 0.0000
# 2 -0.7905 36.8486 17.1820 0.0000 -6.0788 0.0000
# 3 9.3230 17.1820 85.2702 0.0000 -0.5955 0.0000
# 4 0.0000 0.0000 0.0000 35.0503 0.0000 5.1023
# 5 -4.1178 -6.0788 -0.5955 0.0000 19.1872 0.0000
# 6 0.0000 0.0000 0.0000 5.1023 0.0000 33.7526
#
#
#
# Elastic Compliance Matrix: (Units=1/GPa)
#
#
# Indices 1 2 3 4 5 6 
#
# 1 0.015212 0.001895 -0.002018 0.000000 0.003802 0.000000
# 2 0.001895 0.031946 -0.006572 0.000000 0.010324 0.000000
# 3 -0.002018 -0.006572 0.013258 0.000000 -0.002104 0.000000
# 4 0.000000 0.000000 0.000000 0.029172 0.000000 -0.004410
# 5 0.003802 0.010324 -0.002104 0.000000 0.056140 0.000000
# 6 0.000000 0.000000 0.000000 -0.004410 0.000000 0.030294
#
#
# Mechanical properties :
#
#
# Convention : Reuss Voigt Hill
#
# Bulk Modulus (GPa) = 21.26584 26.85025 24.05804
# Shear Modulus (GPa) = 24.37978 28.56527 26.47252
#
# Velocity S-wave (km/s) = 3.31338 3.58653 3.45266
# Velocity P-wave (km/s) = 4.92079 5.40758 5.16992
#
# Compressibility (1/GPa) = 0.04702377
#
# Stress axis : x y z
#
# Youngs Moduli (GPa) = 65.73970 31.30246 75.42772
#
# Poissons Ratio (x) = -0.05931 0.15224
# Poissons Ratio (y) = -0.12456 0.49573
# Poissons Ratio (z) = 0.13269 0.20573
#
# Static dielectric constant tensor:
#      x y z
#    x 4.145240 0.000000 0.110420 
#    y 0.000000 3.826890 0.000000 
#    z 0.110420 0.000000 4.070170 
# 
# 
# High freq. dielectric constant tensor:
#      x y z
#    x 1.891710 0.000000 0.008320 
#    y 0.000000 1.861730 0.000000 
#    z 0.008320 0.000000 1.879340 
# 
# From -- ./inp_files/7650.got.cif
#   From: 2010.03.12/outbox.cif.g09.slc.cpg/sg4_4_cif.got.tgz:7650.got - 2010.03.31 09:31:35.
