data_PCOD8047680
_publ_section_title
;
Structure prediction by ZEFSAII (Michael W. Deem and Ramdas Pophale) SiO2 
 PCOD8047680
Probable space group: P 21
;
_chemical_formula_sum "Si O2"
_cell_formula_units_Z 16
_cell_length_a 6.705505
_cell_length_b 8.398782
_cell_length_c 14.900851
_cell_angle_alpha 90.000000
_cell_angle_beta 126.113148
_cell_angle_gamma 90.000000
_cell_volume 677.941319
_symmetry_space_group_name_H-M "P 21"
_symmetry_group_IT_number 4
_symmetry_cell_setting 'monoclinic'
loop_
_space_group_symop_operation_xyz
x,y,z
-x,1/2+y,-z
loop_
_atom_site_type_symbol
_atom_site_label
_atom_site_fract_x
_atom_site_fract_y
_atom_site_fract_z
Si Si1 0.274200 0.895970 0.349755
Si Si2 0.303940 0.167963 0.507259
Si Si3 0.873963 0.287592 0.306329
Si Si4 0.442026 0.077117 0.733702
Si Si5 0.312491 0.981906 0.002907
Si Si6 0.138570 0.365691 0.196139
Si Si7 0.448334 0.076426 0.226746
Si Si8 0.261246 0.265125 0.847895
O O1 0.433956 0.755911 0.437958
O O2 0.007684 0.828921 0.250058
O O3 0.260256 0.038306 0.417185
O O4 0.422046 0.943329 0.297445
O O5 0.288236 0.097290 0.602090
O O6 0.069448 0.288016 0.440285
O O7 0.679320 0.428239 0.249235
O O8 0.730656 0.115288 0.270096
O O9 0.049817 0.319739 0.270007
O O10 0.412174 0.224803 0.795378
O O11 0.728046 0.039360 0.782758
O O12 0.282968 0.039114 0.096467
O O13 0.582549 0.903329 0.060520
O O14 0.256193 0.116082 0.913539
O O15 0.095837 0.851750 0.932264
O O16 0.352026 0.241096 0.238265
#
# Coordination Sequence:
#
# PCOD8047680 Si02
#       8
#     2   2   2   2   2   2   2   2
#     4  12  29  49  76 116 155 198 266 316 379 473
#     4  12  27  45  80 103 152 201 247 312 394 441
#     4  11  24  49  74 110 150 193 251 315 375 468
#     4  11  27  46  75 110 152 195 253 312 386 450
#     4  12  27  45  80 103 152 201 247 312 394 441
#     4  11  24  49  74 110 150 193 251 315 375 468
#     4  11  27  46  75 110 152 195 253 312 386 450
#     4  12  29  49  76 116 155 198 266 316 379 473
#
# _framework density 23.600861999999999
#
# number of rings (size 3 to 8) (size 9 to 14) (size 15 to 20)
#    0.000    0.500    2.500    3.750   14.000    0.000 
#    0.000    0.000    0.000    0.000    0.000    0.000 
#    0.000    0.000    0.000    0.000    0.000    0.000 
#
# Total GULP energy -198273.311811 kJ/mol
# GULP energy per Si atom -12392.081988 kJ/mol
# Density = 2.354715 g / cm^3
# Si number density = 23.600862 Si / 1000 Ang^3
#
#
#
# Elastic Constant Matrix: (Units=GPa)
#
#
# Indices 1 2 3 4 5 6 
#
# 1 92.3949 40.0927 38.0468 0.0000 -3.4206 0.0000
# 2 40.0927 73.1119 47.5198 0.0000 9.5406 0.0000
# 3 38.0468 47.5198 159.7830 0.0000 11.8923 0.0000
# 4 0.0000 0.0000 0.0000 56.9704 0.0000 0.2334
# 5 -3.4206 9.5406 11.8923 0.0000 54.1266 0.0000
# 6 0.0000 0.0000 0.0000 0.2334 0.0000 41.9153
#
#
#
# Elastic Compliance Matrix: (Units=1/GPa)
#
#
# Indices 1 2 3 4 5 6 
#
# 1 0.014773 -0.007470 -0.001488 0.000000 0.002577 0.000000
# 2 -0.007470 0.020930 -0.004205 0.000000 -0.003237 0.000000
# 3 -0.001488 -0.004205 0.007945 0.000000 -0.001098 0.000000
# 4 0.000000 0.000000 0.000000 0.017553 0.000000 -0.000098
# 5 0.002577 -0.003237 -0.001098 0.000000 0.019450 0.000000
# 6 0.000000 0.000000 0.000000 -0.000098 0.000000 0.023858
#
#
# Mechanical properties :
#
#
# Convention : Reuss Voigt Hill
#
# Bulk Modulus (GPa) = 57.73114 64.06761 60.89937
# Shear Modulus (GPa) = 36.60095 43.91117 40.25606
#
# Velocity S-wave (km/s) = 3.94233 4.31812 4.13450
# Velocity P-wave (km/s) = 6.72586 7.21573 6.97510
#
# Compressibility (1/GPa) = 0.01732168
#
# Stress axis : x y z
#
# Youngs Moduli (GPa) = 67.69224 47.77926 125.86526
#
# Poissons Ratio (x) = 0.35693 0.18725
# Poissons Ratio (y) = 0.50568 0.52923
# Poissons Ratio (z) = 0.10071 0.20090
#
# Static dielectric constant tensor:
#      x y z
#    x 4.849360 0.000000 0.251660 
#    y 0.000000 4.485210 0.000000 
#    z 0.251660 0.000000 4.356540 
# 
# 
# High freq. dielectric constant tensor:
#      x y z
#    x 1.941110 0.000000 0.006020 
#    y 0.000000 1.940260 0.000000 
#    z 0.006020 0.000000 1.949500 
# 
# From -- ./inp_files/10353.got.cif
#   From: 2010.03.12/outbox.cif.g09.slc.cpg/sg4_6_cif.got.tgz:10353.got - 2010.03.31 09:31:35.
