data_PCOD8047933
_publ_section_title
;
Structure prediction by ZEFSAII (Michael W. Deem and Ramdas Pophale) SiO2 
 PCOD8047933
Probable space group: P 21
;
_chemical_formula_sum "Si O2"
_cell_formula_units_Z 16
_cell_length_a 9.791050
_cell_length_b 13.224247
_cell_length_c 6.761813
_cell_angle_alpha 90.000000
_cell_angle_beta 56.509869
_cell_angle_gamma 90.000000
_cell_volume 730.162409
_symmetry_space_group_name_H-M "P 21"
_symmetry_group_IT_number 4
_symmetry_cell_setting 'monoclinic'
loop_
_space_group_symop_operation_xyz
x,y,z
-x,1/2+y,-z
loop_
_atom_site_type_symbol
_atom_site_label
_atom_site_fract_x
_atom_site_fract_y
_atom_site_fract_z
Si Si1 0.793987 0.437270 0.817259
Si Si2 0.778581 0.059030 0.970367
Si Si3 0.579749 0.159488 0.457270
Si Si4 0.426988 0.476963 0.231971
Si Si5 0.849882 0.279525 0.449332
Si Si6 0.281139 0.274213 0.533608
Si Si7 0.940461 0.630893 0.507742
Si Si8 0.031857 0.392523 0.972511
O O1 0.810111 0.330268 0.692262
O O2 0.873283 0.521958 0.616781
O O3 0.889351 0.435553 0.947150
O O4 0.605320 0.461117 0.000890
O O5 0.939863 0.120115 0.776446
O O6 0.694107 0.010638 0.845531
O O7 0.654561 0.133729 0.182339
O O8 0.831783 0.975940 0.087748
O O9 0.683503 0.247916 0.476096
O O10 0.402660 0.208046 0.568839
O O11 0.565653 0.061216 0.604639
O O12 0.364660 0.372352 0.372986
O O13 0.957332 0.178653 0.393148
O O14 0.949092 0.358917 0.240814
O O15 0.212209 0.203974 0.414109
O O16 0.126516 0.301493 0.792500
#
# Coordination Sequence:
#
# PCOD8047933 Si02
#       8
#     2   2   2   2   2   2   2   2
#     4  12  28  47  73 107 145 187 240 301 358 430
#     4  12  25  49  74 104 148 188 237 303 359 423
#     4  12  28  46  73 106 146 193 236 293 366 433
#     4  12  28  49  71 107 153 185 236 304 364 427
#     4  12  26  47  72 102 144 188 238 296 357 427
#     4  12  27  46  73 108 142 191 243 291 365 429
#     4  12  25  47  75 105 140 190 244 292 359 424
#     4  12  25  47  75 103 142 188 242 298 354 427
#
# _framework density 21.912934
#
# number of rings (size 3 to 8) (size 9 to 14) (size 15 to 20)
#    0.000    0.000    5.000    4.500    7.000    3.000 
#    0.000    0.000    0.000    0.000    0.000    0.000 
#    0.000    0.000    0.000    0.000    0.000    0.000 
#
# Total GULP energy -198520.731546 kJ/mol
# GULP energy per Si atom -12407.545722 kJ/mol
# Density = 2.186306 g / cm^3
# Si number density = 21.912934 Si / 1000 Ang^3
#
#
#
# Elastic Constant Matrix: (Units=GPa)
#
#
# Indices 1 2 3 4 5 6 
#
# 1 111.1246 31.3299 23.5858 0.0000 -3.0997 0.0000
# 2 31.3299 95.2641 28.1607 0.0000 0.4332 0.0000
# 3 23.5858 28.1607 88.2060 0.0000 -2.6209 0.0000
# 4 0.0000 0.0000 0.0000 15.9921 0.0000 4.4148
# 5 -3.0997 0.4332 -2.6209 0.0000 37.4031 0.0000
# 6 0.0000 0.0000 0.0000 4.4148 0.0000 48.4203
#
#
#
# Elastic Compliance Matrix: (Units=1/GPa)
#
#
# Indices 1 2 3 4 5 6 
#
# 1 0.010199 -0.002825 -0.001803 0.000000 0.000752 0.000000
# 2 -0.002825 0.012379 -0.003215 0.000000 -0.000603 0.000000
# 3 -0.001803 -0.003215 0.012869 0.000000 0.000790 0.000000
# 4 0.000000 0.000000 0.000000 0.064146 0.000000 -0.005849
# 5 0.000752 -0.000603 0.000790 0.000000 0.026860 0.000000
# 6 0.000000 0.000000 0.000000 -0.005849 0.000000 0.021186
#
#
# Mechanical properties :
#
#
# Convention : Reuss Voigt Hill
#
# Bulk Modulus (GPa) = 50.60150 51.19415 50.89782
# Shear Modulus (GPa) = 29.42718 34.46432 31.94575
#
# Velocity S-wave (km/s) = 3.66855 3.97014 3.82232
# Velocity P-wave (km/s) = 6.40988 6.66553 6.53895
#
# Compressibility (1/GPa) = 0.01976226
#
# Stress axis : x y z
#
# Youngs Moduli (GPa) = 98.04973 80.78118 77.70589
#
# Poissons Ratio (x) = 0.22817 0.14011
# Poissons Ratio (y) = 0.27695 0.24981
# Poissons Ratio (z) = 0.17679 0.25969
#
# Static dielectric constant tensor:
#      x y z
#    x 4.065910 0.000000 -0.056950 
#    y 0.000000 4.074080 0.000000 
#    z -0.056950 0.000000 3.939250 
# 
# 
# High freq. dielectric constant tensor:
#      x y z
#    x 1.877080 0.000000 -0.001760 
#    y 0.000000 1.876420 0.000000 
#    z -0.001760 0.000000 1.867370 
# 
# From -- ./inp_files/1384.got.cif
#   From: 2010.03.12/outbox.cif.g09.slc.cpg/sg4_1_cif.got.tgz:1384.got - 2010.03.31 09:31:35.
