data_PCOD8047894
_publ_section_title
;
Structure prediction by ZEFSAII (Michael W. Deem and Ramdas Pophale) SiO2 
 PCOD8047894
Probable space group: P 21
;
_chemical_formula_sum "Si O2"
_cell_formula_units_Z 16
_cell_length_a 21.425725
_cell_length_b 4.849844
_cell_length_c 10.136040
_cell_angle_alpha 90.000000
_cell_angle_beta 35.299784
_cell_angle_gamma 90.000000
_cell_volume 608.625504
_symmetry_space_group_name_H-M "P 21"
_symmetry_group_IT_number 4
_symmetry_cell_setting 'monoclinic'
loop_
_space_group_symop_operation_xyz
x,y,z
-x,1/2+y,-z
loop_
_atom_site_type_symbol
_atom_site_label
_atom_site_fract_x
_atom_site_fract_y
_atom_site_fract_z
Si Si1 0.262587 0.924940 0.919569
Si Si2 0.293033 0.570827 0.612734
Si Si3 0.432601 0.328347 0.579132
Si Si4 0.974054 0.386931 0.623877
Si Si5 0.267424 0.651974 0.177559
Si Si6 0.151649 0.154577 0.479957
Si Si7 0.572968 0.139210 0.876727
Si Si8 0.922479 0.866309 0.130795
O O1 0.288393 0.814925 0.728614
O O2 0.336034 0.188739 0.829167
O O3 0.138915 0.021477 0.139951
O O4 0.285811 0.695947 0.990916
O O5 0.384087 0.361462 0.514445
O O6 0.337627 0.672489 0.394442
O O7 0.169937 0.447792 0.817298
O O8 0.464749 0.620301 0.591589
O O9 0.046638 0.641161 0.446719
O O10 0.030185 0.237368 0.649414
O O11 0.239101 0.332930 0.249462
O O12 0.374274 0.727479 0.075878
O O13 0.171835 0.840171 0.405747
O O14 0.154580 0.219110 0.629003
O O15 0.468060 0.327262 0.036722
O O16 0.988201 0.138335 0.069415
#
# Coordination Sequence:
#
# PCOD8047894 Si02
#       8
#     2   2   2   2   2   2   2   2
#     4  12  29  49  86 120 161 212 272 333 406 479
#     4  12  31  54  88 120 168 207 286 337 405 500
#     4  12  30  52  79 120 161 206 273 351 409 466
#     4  12  25  45  73 116 162 209 259 319 396 480
#     4  12  27  49  77 113 155 211 262 324 397 475
#     4  12  24  49  74 107 168 206 260 325 393 475
#     4  12  31  54  82 115 157 214 265 333 412 480
#     4  12  29  50  81 121 166 219 271 334 408 487
#
# _framework density 26.288743
#
# number of rings (size 3 to 8) (size 9 to 14) (size 15 to 20)
#    0.000    0.000    5.000    2.250   10.500    1.000 
#    0.000    0.000    0.000    0.000    0.000    0.000 
#    0.000    0.000    0.000    0.000    0.000    0.000 
#
# Total GULP energy -198340.240125 kJ/mol
# GULP energy per Si atom -12396.265008 kJ/mol
# Density = 2.622891 g / cm^3
# Si number density = 26.288743 Si / 1000 Ang^3
#
#
#
# Elastic Constant Matrix: (Units=GPa)
#
#
# Indices 1 2 3 4 5 6 
#
# 1 136.4584 17.9723 16.9003 0.0000 -21.9273 0.0000
# 2 17.9723 81.5092 7.4524 0.0000 -12.1748 0.0000
# 3 16.9003 7.4524 90.7635 0.0000 -11.4746 0.0000
# 4 0.0000 0.0000 0.0000 41.5558 0.0000 -11.2922
# 5 -21.9273 -12.1748 -11.4746 0.0000 40.2078 0.0000
# 6 0.0000 0.0000 0.0000 -11.2922 0.0000 40.2047
#
#
#
# Elastic Compliance Matrix: (Units=1/GPa)
#
#
# Indices 1 2 3 4 5 6 
#
# 1 0.008218 -0.001148 -0.000947 0.000000 0.003863 0.000000
# 2 -0.001148 0.013040 -0.000453 0.000000 0.003193 0.000000
# 3 -0.000947 -0.000453 0.011566 0.000000 0.002647 0.000000
# 4 0.000000 0.000000 0.000000 0.026052 0.000000 0.007317
# 5 0.003863 0.003193 0.002647 0.000000 0.028700 0.000000
# 6 0.000000 0.000000 0.000000 0.007317 0.000000 0.026928
#
#
# Mechanical properties :
#
#
# Convention : Reuss Voigt Hill
#
# Bulk Modulus (GPa) = 36.06751 43.70903 39.88827
# Shear Modulus (GPa) = 38.80676 42.15406 40.48041
#
# Velocity S-wave (km/s) = 3.84627 4.00872 3.92833
# Velocity P-wave (km/s) = 5.78572 6.17163 5.98179
#
# Compressibility (1/GPa) = 0.02772578
#
# Stress axis : x y z
#
# Youngs Moduli (GPa) = 121.68985 76.68656 86.46119
#
# Poissons Ratio (x) = 0.08806 0.08192
# Poissons Ratio (y) = 0.13973 0.03919
# Poissons Ratio (z) = 0.11529 0.03476
#
# Static dielectric constant tensor:
#      x y z
#    x 4.981760 0.000000 -0.148110 
#    y 0.000000 4.724540 0.000000 
#    z -0.148110 0.000000 4.452160 
# 
# 
# High freq. dielectric constant tensor:
#      x y z
#    x 2.070400 0.000000 -0.016800 
#    y 0.000000 2.057770 0.000000 
#    z -0.016800 0.000000 2.046210 
# 
# From -- ./inp_files/9769.got.cif
#   From: 2010.03.12/outbox.cif.g09.slc.cpg/sg4_5_cif.got.tgz:9769.got - 2010.03.31 09:31:35.
