data_PCOD8047709
_publ_section_title
;
Structure prediction by ZEFSAII (Michael W. Deem and Ramdas Pophale) SiO2 
 PCOD8047709
Probable space group: P 21
;
_chemical_formula_sum "Si O2"
_cell_formula_units_Z 16
_cell_length_a 16.592401
_cell_length_b 8.255237
_cell_length_c 8.360917
_cell_angle_alpha 90.000000
_cell_angle_beta 36.045642
_cell_angle_gamma 90.000000
_cell_volume 673.887116
_symmetry_space_group_name_H-M "P 21"
_symmetry_group_IT_number 4
_symmetry_cell_setting 'monoclinic'
loop_
_space_group_symop_operation_xyz
x,y,z
-x,1/2+y,-z
loop_
_atom_site_type_symbol
_atom_site_label
_atom_site_fract_x
_atom_site_fract_y
_atom_site_fract_z
Si Si1 0.358681 0.409030 0.593568
Si Si2 0.932834 0.785305 0.409567
Si Si3 0.134070 0.969357 0.290443
Si Si4 0.615642 0.565254 0.318556
Si Si5 0.924498 0.058869 0.046394
Si Si6 0.642961 0.793813 0.748585
Si Si7 0.598786 0.448956 0.703328
Si Si8 0.139708 0.799464 0.605588
O O1 0.463877 0.542867 0.489994
O O2 0.353468 0.256781 0.723521
O O3 0.207490 0.480379 0.823579
O O4 0.410693 0.354254 0.336378
O O5 0.883780 0.646098 0.608555
O O6 0.800208 0.846974 0.524023
O O7 0.002533 0.933467 0.391122
O O8 0.043859 0.718028 0.107860
O O9 0.136374 0.825777 0.420138
O O10 0.274867 0.969436 0.965227
O O11 0.622809 0.492499 0.482749
O O12 0.909117 0.121069 0.255931
O O13 0.050526 0.936451 0.838154
O O14 0.627208 0.599623 0.777304
O O15 0.552912 0.877057 0.030944
O O16 0.704701 0.309790 0.583054
#
# Coordination Sequence:
#
# PCOD8047709 Si02
#       8
#     2   2   2   2   2   2   2   2
#     4  11  28  47  75 105 143 195 238 304 365 431
#     4  11  26  47  70 107 146 192 244 298 367 432
#     4  11  26  46  74 105 152 188 242 306 362 430
#     4  11  28  47  71 108 146 188 248 299 366 434
#     4  11  25  46  75 105 145 190 245 295 367 430
#     4  11  25  50  68 108 141 191 246 295 369 433
#     4  11  25  46  75 100 144 189 240 304 359 437
#     4  11  25  45  74 108 143 193 241 297 363 433
#
# _framework density 23.742849
#
# number of rings (size 3 to 8) (size 9 to 14) (size 15 to 20)
#    0.000    1.000    2.500    2.250   12.250    2.000 
#    2.250    0.000    0.000    0.000    0.000    0.000 
#    0.000    0.000    0.000    0.000    0.000    0.000 
#
# Total GULP energy -198466.551784 kJ/mol
# GULP energy per Si atom -12404.159487 kJ/mol
# Density = 2.368881 g / cm^3
# Si number density = 23.742849 Si / 1000 Ang^3
#
#
#
# Elastic Constant Matrix: (Units=GPa)
#
#
# Indices 1 2 3 4 5 6 
#
# 1 117.7870 40.3928 39.5382 0.0000 -9.3660 0.0000
# 2 40.3928 59.9604 46.0050 0.0000 5.7090 0.0000
# 3 39.5382 46.0050 129.3762 0.0000 -0.9535 0.0000
# 4 0.0000 0.0000 0.0000 41.5540 0.0000 -2.5085
# 5 -9.3660 5.7090 -0.9535 0.0000 37.2868 0.0000
# 6 0.0000 0.0000 0.0000 -2.5085 0.0000 47.2801
#
#
#
# Elastic Compliance Matrix: (Units=1/GPa)
#
#
# Indices 1 2 3 4 5 6 
#
# 1 0.011716 -0.007643 -0.000832 0.000000 0.004092 0.000000
# 2 -0.007643 0.028450 -0.007828 0.000000 -0.006476 0.000000
# 3 -0.000832 -0.007828 0.010777 0.000000 0.001265 0.000000
# 4 0.000000 0.000000 0.000000 0.024142 0.000000 0.001281
# 5 0.004092 -0.006476 0.001265 0.000000 0.028871 0.000000
# 6 0.000000 0.000000 0.000000 0.001281 0.000000 0.021218
#
#
# Mechanical properties :
#
#
# Convention : Reuss Voigt Hill
#
# Bulk Modulus (GPa) = 54.54313 62.11062 58.32688
# Shear Modulus (GPa) = 30.50760 37.30335 33.90548
#
# Velocity S-wave (km/s) = 3.58846 3.96806 3.78303
# Velocity P-wave (km/s) = 6.33970 6.87099 6.61068
#
# Compressibility (1/GPa) = 0.01833411
#
# Stress axis : x y z
#
# Youngs Moduli (GPa) = 85.35447 35.14982 92.79235
#
# Poissons Ratio (x) = 0.26867 0.07724
# Poissons Ratio (y) = 0.65240 0.72640
# Poissons Ratio (z) = 0.07104 0.27516
#
# Static dielectric constant tensor:
#      x y z
#    x 4.289350 0.000000 0.111790 
#    y 0.000000 4.249090 0.000000 
#    z 0.111790 0.000000 4.304720 
# 
# 
# High freq. dielectric constant tensor:
#      x y z
#    x 1.946950 0.000000 0.001780 
#    y 0.000000 1.939370 0.000000 
#    z 0.001780 0.000000 1.947690 
# 
# From -- ./inp_files/9630.got.cif
#   From: 2010.03.12/outbox.cif.g09.slc.cpg/sg4_5_cif.got.tgz:9630.got - 2010.03.31 09:31:35.
