data_PCOD8047756
_publ_section_title
;
Structure prediction by ZEFSAII (Michael W. Deem and Ramdas Pophale) SiO2 
 PCOD8047756
Probable space group: P 21
;
_chemical_formula_sum "Si O2"
_cell_formula_units_Z 14
_cell_length_a 15.743519
_cell_length_b 5.085213
_cell_length_c 14.158559
_cell_angle_alpha 90.000000
_cell_angle_beta 151.337030
_cell_angle_gamma 90.000000
_cell_volume 543.701275
_symmetry_space_group_name_H-M "P 21"
_symmetry_group_IT_number 4
_symmetry_cell_setting 'monoclinic'
loop_
_space_group_symop_operation_xyz
x,y,z
-x,1/2+y,-z
loop_
_atom_site_type_symbol
_atom_site_label
_atom_site_fract_x
_atom_site_fract_y
_atom_site_fract_z
Si Si1 0.393507 0.547920 0.638478
Si Si2 0.573154 0.879739 0.121956
Si Si3 0.092580 0.710778 0.922152
Si Si4 0.593073 0.909806 0.707768
Si Si5 0.004859 0.714301 0.275722
Si Si6 0.079848 0.130367 0.605986
Si Si7 0.264623 0.190947 0.339084
O O1 0.463621 0.399822 0.801105
O O2 0.559973 0.725957 0.766796
O O3 0.218177 0.715380 0.495226
O O4 0.337436 0.359411 0.498215
O O5 0.774282 0.798050 0.306118
O O6 0.452139 0.656998 0.955979
O O7 0.057307 0.513785 0.800143
O O8 0.941937 0.618204 0.850986
O O9 0.296730 0.671885 0.153997
O O10 0.059545 0.017876 0.870135
O O11 0.720315 0.799708 0.751175
O O12 0.397247 0.942339 0.471618
O O13 0.897740 0.601737 0.260532
O O14 0.917016 0.336756 0.433762
#
# Coordination Sequence:
#
# PCOD8047756 Si02
#       7
#     2   2   2   2   2   2   2
#     4  11  26  50  76 106 154 205 258 316 393 457
#     4  12  30  49  74 114 159 199 255 326 385 458
#     4  11  28  46  76 112 158 195 259 319 386 458
#     4  12  26  47  80 110 153 208 257 320 390 464
#     4  11  25  49  73 111 147 206 255 317 381 468
#     4  12  25  46  77 106 146 202 260 307 385 457
#     4  11  26  47  76 111 155 203 258 317 394 460
#
# _framework density 25.749433
#
# number of rings (size 3 to 8) (size 9 to 14) (size 15 to 20)
#    0.000    0.571    4.286    1.714    8.000    3.429 
#    0.000    0.000    0.000    0.000    0.000    0.000 
#    0.000    0.000    0.000    0.000    0.000    0.000 
#
# Total GULP energy -173492.893411 kJ/mol
# GULP energy per Si atom -12392.349529 kJ/mol
# Density = 2.569083 g / cm^3
# Si number density = 25.749433 Si / 1000 Ang^3
#
#
#
# Elastic Constant Matrix: (Units=GPa)
#
#
# Indices 1 2 3 4 5 6 
#
# 1 130.4650 9.7105 36.7324 0.0000 -9.9256 0.0000
# 2 9.7105 66.3226 21.3151 0.0000 -3.2725 0.0000
# 3 36.7324 21.3151 70.3872 0.0000 2.0661 0.0000
# 4 0.0000 0.0000 0.0000 48.8731 0.0000 1.8529
# 5 -9.9256 -3.2725 2.0661 0.0000 36.0083 0.0000
# 6 0.0000 0.0000 0.0000 1.8529 0.0000 36.2897
#
#
#
# Elastic Compliance Matrix: (Units=1/GPa)
#
#
# Indices 1 2 3 4 5 6 
#
# 1 0.009275 0.000407 -0.005048 0.000000 0.002883 0.000000
# 2 0.000407 0.016840 -0.005369 0.000000 0.001951 0.000000
# 3 -0.005048 -0.005369 0.018554 0.000000 -0.002944 0.000000
# 4 0.000000 0.000000 0.000000 0.020501 0.000000 -0.001047
# 5 0.002883 0.001951 -0.002944 0.000000 0.028912 0.000000
# 6 0.000000 0.000000 0.000000 -0.001047 0.000000 0.027609
#
#
# Mechanical properties :
#
#
# Convention : Reuss Voigt Hill
#
# Bulk Modulus (GPa) = 40.57121 44.74340 42.65731
# Shear Modulus (GPa) = 33.34907 37.52869 35.43888
#
# Velocity S-wave (km/s) = 3.60271 3.82181 3.71387
# Velocity P-wave (km/s) = 5.75294 6.07364 5.91547
#
# Compressibility (1/GPa) = 0.02464802
#
# Stress axis : x y z
#
# Youngs Moduli (GPa) = 107.81319 59.38220 53.89696
#
# Poissons Ratio (x) = -0.02415 0.27208
# Poissons Ratio (y) = -0.04384 0.28938
# Poissons Ratio (z) = 0.54426 0.31883
#
# Static dielectric constant tensor:
#      x y z
#    x 4.922140 0.000000 0.256520 
#    y 0.000000 4.576860 0.000000 
#    z 0.256520 0.000000 4.615410 
# 
# 
# High freq. dielectric constant tensor:
#      x y z
#    x 2.047180 0.000000 0.010620 
#    y 0.000000 2.024550 0.000000 
#    z 0.010620 0.000000 2.023960 
# 
# From -- ./inp_files/14274.got.cif
#   From: 2010.03.12/outbox.cif.g09.slc.cpg/sg4_8_cif.got.tgz:14274.got - 2010.03.31 09:31:35.
