data_PCOD8047900
_publ_section_title
;
Structure prediction by ZEFSAII (Michael W. Deem and Ramdas Pophale) SiO2 
 PCOD8047900
Probable space group: P 21
;
_chemical_formula_sum "Si O2"
_cell_formula_units_Z 12
_cell_length_a 9.853946
_cell_length_b 5.514478
_cell_length_c 8.165450
_cell_angle_alpha 90.000000
_cell_angle_beta 104.056574
_cell_angle_gamma 90.000000
_cell_volume 430.419250
_symmetry_space_group_name_H-M "P 21"
_symmetry_group_IT_number 4
_symmetry_cell_setting 'monoclinic'
loop_
_space_group_symop_operation_xyz
x,y,z
-x,1/2+y,-z
loop_
_atom_site_type_symbol
_atom_site_label
_atom_site_fract_x
_atom_site_fract_y
_atom_site_fract_z
Si Si1 0.383810 0.743710 0.133615
Si Si2 0.180220 0.776639 0.570695
Si Si3 0.326479 0.443201 0.832005
Si Si4 0.520830 0.443183 0.412772
Si Si5 0.042637 0.510808 0.253047
Si Si6 0.822770 0.648078 0.933420
O O1 0.531990 0.868071 0.217138
O O2 0.400098 0.490245 0.239268
O O3 0.362431 0.695459 0.935826
O O4 0.252664 0.903791 0.155809
O O5 0.212124 0.511565 0.661499
O O6 0.319699 0.942729 0.609091
O O7 0.124816 0.726432 0.370592
O O8 0.066612 0.907656 0.648576
O O9 0.274241 0.255129 0.951273
O O10 0.509044 0.673751 0.530489
O O11 0.971721 0.604109 0.064812
O O12 0.152282 0.310153 0.220398
#
# Coordination Sequence:
#
# PCOD8047900 Si02
#       6
#     2   2   2   2   2   2
#     4  12  26  48  86 123 168 218 287 368 439 518
#     4  12  28  54  84 125 172 228 289 361 443 526
#     4  12  24  50  84 126 165 221 288 366 449 508
#     4  12  31  53  86 134 172 223 289 374 450 510
#     4  12  29  54  82 122 174 233 292 353 430 538
#     4  12  28  51  84 126 169 231 297 356 435 530
#
# _framework density 27.879792999999999
#
# number of rings (size 3 to 8) (size 9 to 14) (size 15 to 20)
#    0.000    0.000    3.333    5.000    4.667    4.000 
#    0.000    0.000    0.000    0.000    0.000    0.000 
#    0.000    0.000    0.000    0.000    0.000    0.000 
#
# Total GULP energy -148772.144816 kJ/mol
# GULP energy per Si atom -12397.678735 kJ/mol
# Density = 2.781634 g / cm^3
# Si number density = 27.879793 Si / 1000 Ang^3
#
#
#
# Elastic Constant Matrix: (Units=GPa)
#
#
# Indices 1 2 3 4 5 6 
#
# 1 124.0469 26.5101 44.4992 0.0000 2.2480 0.0000
# 2 26.5101 86.9559 33.2878 0.0000 1.1928 0.0000
# 3 44.4992 33.2878 85.9167 0.0000 6.2690 0.0000
# 4 0.0000 0.0000 0.0000 58.1298 0.0000 3.2559
# 5 2.2480 1.1928 6.2690 0.0000 42.7470 0.0000
# 6 0.0000 0.0000 0.0000 3.2559 0.0000 61.0915
#
#
#
# Elastic Compliance Matrix: (Units=1/GPa)
#
#
# Indices 1 2 3 4 5 6 
#
# 1 0.010018 -0.001250 -0.004719 0.000000 0.000200 0.000000
# 2 -0.001250 0.013665 -0.004674 0.000000 0.000370 0.000000
# 3 -0.004719 -0.004674 0.016038 0.000000 -0.001973 0.000000
# 4 0.000000 0.000000 0.000000 0.017254 0.000000 -0.000920
# 5 0.000200 0.000370 -0.001973 0.000000 0.023662 0.000000
# 6 0.000000 0.000000 0.000000 -0.000920 0.000000 0.016418
#
#
# Mechanical properties :
#
#
# Convention : Reuss Voigt Hill
#
# Bulk Modulus (GPa) = 54.24420 56.16820 55.20620
# Shear Modulus (GPa) = 40.16491 45.23516 42.70003
#
# Velocity S-wave (km/s) = 3.79970 4.03241 3.91778
# Velocity P-wave (km/s) = 6.22487 6.47076 6.34900
#
# Compressibility (1/GPa) = 0.01843515
#
# Stress axis : x y z
#
# Youngs Moduli (GPa) = 99.82230 73.17710 62.35189
#
# Poissons Ratio (x) = 0.09151 0.29422
# Poissons Ratio (y) = 0.12483 0.29143
# Poissons Ratio (z) = 0.47103 0.34202
#
# Static dielectric constant tensor:
#      x y z
#    x 5.110630 0.000000 0.243280 
#    y 0.000000 5.121900 0.000000 
#    z 0.243280 0.000000 5.361930 
# 
# 
# High freq. dielectric constant tensor:
#      x y z
#    x 2.139760 0.000000 0.000490 
#    y 0.000000 2.125430 0.000000 
#    z 0.000490 0.000000 2.142330 
# 
# From -- ./inp_files/5172.got.cif
#   From: 2010.03.12/outbox.cif.g09.slc.cpg/sg4_3_cif.got.tgz:5172.got - 2010.03.31 09:31:35.
