data_PCOD8047255
_publ_section_title
;
Structure prediction by ZEFSAII (Michael W. Deem and Ramdas Pophale) SiO2 
 PCOD8047255
Probable space group: P 21
;
_chemical_formula_sum "Si O2"
_cell_formula_units_Z 16
_cell_length_a 12.649208
_cell_length_b 8.623460
_cell_length_c 9.599774
_cell_angle_alpha 90.000000
_cell_angle_beta 143.600693
_cell_angle_gamma 90.000000
_cell_volume 621.384099
_symmetry_space_group_name_H-M "P 21"
_symmetry_group_IT_number 4
_symmetry_cell_setting 'monoclinic'
loop_
_space_group_symop_operation_xyz
x,y,z
-x,1/2+y,-z
loop_
_atom_site_type_symbol
_atom_site_label
_atom_site_fract_x
_atom_site_fract_y
_atom_site_fract_z
Si Si1 0.993288 0.016670 0.828431
Si Si2 0.353683 0.860858 0.234922
Si Si3 0.196448 0.349881 0.608259
Si Si4 0.518802 0.799236 0.741293
Si Si5 0.093067 0.336750 0.808741
Si Si6 0.655347 0.053853 0.648116
Si Si7 0.245612 0.020445 0.574323
Si Si8 0.547537 0.513565 0.942946
O O1 0.841223 0.991951 0.783711
O O2 0.007683 0.195741 0.802812
O O3 0.957791 0.925524 0.648485
O O4 0.175915 0.953689 0.088951
O O5 0.319389 0.675227 0.198222
O O6 0.421283 0.904858 0.155981
O O7 0.511837 0.910243 0.517381
O O8 0.113594 0.297025 0.667243
O O9 0.352219 0.476137 0.797197
O O10 0.268683 0.205130 0.593496
O O11 0.443801 0.658575 0.571859
O O12 0.377556 0.937075 0.606465
O O13 0.561286 0.700096 0.929159
O O14 0.715332 0.876546 0.912639
O O15 0.958757 0.480465 0.679793
O O16 0.300181 0.964770 0.786793
#
# Coordination Sequence:
#
# PCOD8047255 Si02
#       8
#     2   2   2   2   2   2   2   2
#     4  12  24  49  71  99 146 182 226 290 351 405
#     4  11  25  48  75  95 133 185 239 284 349 394
#     4  12  23  39  70 105 139 182 228 273 348 425
#     4  11  22  44  66  94 136 184 222 278 351 400
#     4  12  22  41  69  99 142 184 218 279 348 414
#     4  11  25  49  75  96 131 188 233 291 341 403
#     4  12  23  39  66 106 142 176 226 273 340 428
#     4  11  20  45  68  96 141 185 220 282 342 405
#
# _framework density 25.748968000000001
#
# number of rings (size 3 to 8) (size 9 to 14) (size 15 to 20)
#    0.000    0.500    8.750    1.500    0.000    2.000 
#    9.000    0.000    0.000    0.000    0.000    0.000 
#    0.000    0.000    0.000    0.000    0.000    0.000 
#
# Total GULP energy -198419.440394 kJ/mol
# GULP energy per Si atom -12401.215025 kJ/mol
# Density = 2.569036 g / cm^3
# Si number density = 25.748968 Si / 1000 Ang^3
#
#
#
# Elastic Constant Matrix: (Units=GPa)
#
#
# Indices 1 2 3 4 5 6 
#
# 1 76.2102 4.4159 18.3742 0.0000 31.0604 0.0000
# 2 4.4159 64.8554 3.4130 0.0000 21.4900 0.0000
# 3 18.3742 3.4130 137.5983 0.0000 27.2752 0.0000
# 4 0.0000 0.0000 0.0000 36.3610 0.0000 8.0961
# 5 31.0604 21.4900 27.2752 0.0000 41.6225 0.0000
# 6 0.0000 0.0000 0.0000 8.0961 0.0000 34.2218
#
#
#
# Elastic Compliance Matrix: (Units=1/GPa)
#
#
# Indices 1 2 3 4 5 6 
#
# 1 0.019856 0.004436 0.000724 0.000000 -0.017581 0.000000
# 2 0.004436 0.019927 0.001849 0.000000 -0.014810 0.000000
# 3 0.000724 0.001849 0.008529 0.000000 -0.007084 0.000000
# 4 0.000000 0.000000 0.000000 0.029031 0.000000 -0.006868
# 5 -0.017581 -0.014810 -0.007084 0.000000 0.049434 0.000000
# 6 0.000000 0.000000 0.000000 -0.006868 0.000000 0.030846
#
#
# Mechanical properties :
#
#
# Convention : Reuss Voigt Hill
#
# Bulk Modulus (GPa) = 16.04397 36.78556 26.41477
# Shear Modulus (GPa) = 30.41680 39.27177 34.84428
#
# Velocity S-wave (km/s) = 3.44071 3.90959 3.68262
# Velocity P-wave (km/s) = 4.69351 5.89042 5.32570
#
# Compressibility (1/GPa) = 0.06232872
#
# Stress axis : x y z
#
# Youngs Moduli (GPa) = 50.36340 50.18313 117.24383
#
# Poissons Ratio (x) = -0.22259 -0.08484
# Poissons Ratio (y) = -0.22339 -0.21680
# Poissons Ratio (z) = -0.03644 -0.09280
#
# Static dielectric constant tensor:
#      x y z
#    x 4.482780 0.000000 -0.103370 
#    y 0.000000 5.220450 0.000000 
#    z -0.103370 0.000000 5.129220 
# 
# 
# High freq. dielectric constant tensor:
#      x y z
#    x 2.026400 0.000000 -0.004680 
#    y 0.000000 2.034280 0.000000 
#    z -0.004680 0.000000 2.056170 
# 
# From -- ./inp_files/12594.got.cif
#   From: 2010.03.12/outbox.cif.g09.slc.cpg/sg4_7_cif.got.tgz:12594.got - 2010.03.31 09:31:35.
