data_PCOD8047789
_publ_section_title
;
Structure prediction by ZEFSAII (Michael W. Deem and Ramdas Pophale) SiO2 
 PCOD8047789
Probable space group: P 21
;
_chemical_formula_sum "Si O2"
_cell_formula_units_Z 16
_cell_length_a 8.716659
_cell_length_b 8.652690
_cell_length_c 9.245673
_cell_angle_alpha 90.000000
_cell_angle_beta 67.827543
_cell_angle_gamma 90.000000
_cell_volume 645.765972
_symmetry_space_group_name_H-M "P 21"
_symmetry_group_IT_number 4
_symmetry_cell_setting 'monoclinic'
loop_
_space_group_symop_operation_xyz
x,y,z
-x,1/2+y,-z
loop_
_atom_site_type_symbol
_atom_site_label
_atom_site_fract_x
_atom_site_fract_y
_atom_site_fract_z
Si Si1 0.922896 0.106380 0.237559
Si Si2 0.139545 0.361298 0.241413
Si Si3 0.278352 0.814073 0.137665
Si Si4 0.082958 0.925622 0.439771
Si Si5 0.292003 0.048075 0.626642
Si Si6 0.441827 0.144272 0.106172
Si Si7 0.972769 0.121716 0.901782
Si Si8 0.573069 0.210065 0.371957
O O1 0.734825 0.111372 0.359534
O O2 0.991374 0.281484 0.202535
O O3 0.038890 0.024923 0.313798
O O4 0.944215 0.042243 0.067609
O O5 0.314057 0.284804 0.156170
O O6 0.083610 0.355235 0.431086
O O7 0.139259 0.532414 0.177787
O O8 0.207256 0.796435 0.328317
O O9 0.121685 0.788352 0.080930
O O10 0.354465 0.986027 0.089748
O O11 0.422209 0.688184 0.062369
O O12 0.183844 0.023056 0.521065
O O13 0.168656 0.122705 0.791071
O O14 0.431124 0.176353 0.540912
O O15 0.382845 0.892256 0.649856
O O16 0.524401 0.139801 0.234260
#
# Coordination Sequence:
#
# PCOD8047789 Si02
#       8
#     2   2   2   2   2   2   2   2
#     4  12  25  48  78 107 157 199 257 324 376 458
#     4  11  26  49  76 112 150 204 264 305 380 464
#     4  12  26  48  76 109 154 200 256 305 393 450
#     4  11  26  48  77 107 148 213 251 303 385 461
#     4  11  27  51  76 112 155 202 256 317 385 457
#     4  12  27  49  74 114 157 199 251 324 378 463
#     4  11  27  48  78 112 152 206 259 315 381 459
#     4  12  26  51  73 117 157 189 262 321 382 446
#
# _framework density 24.776776000000002
#
# number of rings (size 3 to 8) (size 9 to 14) (size 15 to 20)
#    0.000    0.500    6.250    0.750   10.500    0.000 
#    4.500    0.000    0.000    0.000    0.000    0.000 
#    0.000    0.000    0.000    0.000    0.000    0.000 
#
# Total GULP energy -198295.645346 kJ/mol
# GULP energy per Si atom -12393.477834 kJ/mol
# Density = 2.472038 g / cm^3
# Si number density = 24.776776 Si / 1000 Ang^3
#
#
#
# Elastic Constant Matrix: (Units=GPa)
#
#
# Indices 1 2 3 4 5 6 
#
# 1 122.4410 40.5741 50.1759 0.0000 -26.4140 0.0000
# 2 40.5741 83.0299 36.3203 0.0000 -13.5461 0.0000
# 3 50.1759 36.3203 143.3626 0.0000 -27.7604 0.0000
# 4 0.0000 0.0000 0.0000 31.7147 0.0000 -4.7545
# 5 -26.4140 -13.5461 -27.7604 0.0000 46.9014 0.0000
# 6 0.0000 0.0000 0.0000 -4.7545 0.0000 52.1238
#
#
#
# Elastic Compliance Matrix: (Units=1/GPa)
#
#
# Indices 1 2 3 4 5 6 
#
# 1 0.011184 -0.003878 -0.002179 0.000000 0.003889 0.000000
# 2 -0.003878 0.015079 -0.002307 0.000000 0.000806 0.000000
# 3 -0.002179 -0.002307 0.008986 0.000000 0.003425 0.000000
# 4 0.000000 0.000000 0.000000 0.031968 0.000000 0.002916
# 5 0.003889 0.000806 0.003425 0.000000 0.025772 0.000000
# 6 0.000000 0.000000 0.000000 0.002916 0.000000 0.019451
#
#
# Mechanical properties :
#
#
# Convention : Reuss Voigt Hill
#
# Bulk Modulus (GPa) = 53.99049 66.99714 60.49381
# Shear Modulus (GPa) = 36.94363 40.93218 38.93790
#
# Velocity S-wave (km/s) = 3.86561 4.06894 3.96858
# Velocity P-wave (km/s) = 6.46235 7.01242 6.74300
#
# Compressibility (1/GPa) = 0.01852178
#
# Stress axis : x y z
#
# Youngs Moduli (GPa) = 89.41301 66.31538 111.28885
#
# Poissons Ratio (x) = 0.25715 0.24249
# Poissons Ratio (y) = 0.34672 0.25676
# Poissons Ratio (z) = 0.19482 0.15300
#
# Static dielectric constant tensor:
#      x y z
#    x 4.604070 0.000000 -0.390330 
#    y 0.000000 4.421130 0.000000 
#    z -0.390330 0.000000 4.768720 
# 
# 
# High freq. dielectric constant tensor:
#      x y z
#    x 1.993860 0.000000 -0.022770 
#    y 0.000000 1.978260 0.000000 
#    z -0.022770 0.000000 1.993890 
# 
# From -- ./inp_files/5388.got.cif
#   From: 2010.03.12/outbox.cif.g09.slc.cpg/sg4_3_cif.got.tgz:5388.got - 2010.03.31 09:31:35.
