data_PCOD8047812
_publ_section_title
;
Structure prediction by ZEFSAII (Michael W. Deem and Ramdas Pophale) SiO2 
 PCOD8047812
Probable space group: P 21
;
_chemical_formula_sum "Si O2"
_cell_formula_units_Z 16
_cell_length_a 9.407991
_cell_length_b 6.701834
_cell_length_c 12.085048
_cell_angle_alpha 90.000000
_cell_angle_beta 107.871291
_cell_angle_gamma 90.000000
_cell_volume 725.205426
_symmetry_space_group_name_H-M "P 21"
_symmetry_group_IT_number 4
_symmetry_cell_setting 'monoclinic'
loop_
_space_group_symop_operation_xyz
x,y,z
-x,1/2+y,-z
loop_
_atom_site_type_symbol
_atom_site_label
_atom_site_fract_x
_atom_site_fract_y
_atom_site_fract_z
Si Si1 0.295667 0.691790 0.538519
Si Si2 0.795671 0.191139 0.038937
Si Si3 0.434414 0.591458 0.196362
Si Si4 0.934069 0.091507 0.696870
Si Si5 0.749860 0.743444 0.750173
Si Si6 0.750176 0.423861 0.250055
Si Si7 0.050575 0.912325 0.108552
Si Si8 0.550140 0.412371 0.608983
O O1 0.145626 0.677608 0.430794
O O2 0.250666 0.782891 0.644036
O O3 0.376128 0.477042 0.575320
O O4 0.417126 0.831084 0.505765
O O5 0.751105 0.280624 0.145062
O O6 0.645445 0.177272 0.931351
O O7 0.916629 0.331538 0.006280
O O8 0.876472 0.976422 0.074980
O O9 0.364638 0.377136 0.207391
O O10 0.608027 0.568132 0.210672
O O11 0.410737 0.743105 0.292115
O O12 0.910009 0.242804 0.792671
O O13 0.864237 0.877099 0.707581
O O14 0.107761 0.068376 0.711447
O O15 0.845815 0.605524 0.853721
O O16 0.654061 0.605285 0.646702
#
# Coordination Sequence:
#
# PCOD8047812 Si02
#       8
#     2   2   2   2   2   2   2   2
#     4  12  25  46  75 106 146 192 236 299 361 423
#     4  12  25  46  75 106 146 192 236 299 361 423
#     4  12  26  49  73 109 144 191 244 300 357 425
#     4  12  26  49  73 109 144 191 244 300 357 425
#     4  12  20  48  82 104 138 182 254 298 344 428
#     4  12  30  44  68 114 150 186 238 292 374 428
#     4  12  24  47  81 106 139 194 252 294 351 433
#     4  12  24  47  81 106 139 194 252 294 351 433
#
# _framework density 22.062714
#
# number of rings (size 3 to 8) (size 9 to 14) (size 15 to 20)
#    0.000    0.000    7.500    3.000    0.000    7.000 
#    0.000    0.000    0.000    0.000    0.000    0.000 
#    0.000    0.000    0.000    0.000    0.000    0.000 
#
# Total GULP energy -198498.040609 kJ/mol
# GULP energy per Si atom -12406.127538 kJ/mol
# Density = 2.201250 g / cm^3
# Si number density = 22.062714 Si / 1000 Ang^3
#
#
#
# Elastic Constant Matrix: (Units=GPa)
#
#
# Indices 1 2 3 4 5 6 
#
# 1 134.0453 43.2104 43.0767 0.0000 -0.5003 0.0000
# 2 43.2104 111.3208 50.7881 0.0000 -7.1827 0.0000
# 3 43.0767 50.7881 144.7471 0.0000 -17.6066 0.0000
# 4 0.0000 0.0000 0.0000 24.1496 0.0000 14.9794
# 5 -0.5003 -7.1827 -17.6066 0.0000 33.8735 0.0000
# 6 0.0000 0.0000 0.0000 14.9794 0.0000 46.6532
#
#
#
# Elastic Compliance Matrix: (Units=1/GPa)
#
#
# Indices 1 2 3 4 5 6 
#
# 1 0.008930 -0.002699 -0.001883 0.000000 -0.001419 0.000000
# 2 -0.002699 0.011514 -0.003144 0.000000 0.000768 0.000000
# 3 -0.001883 -0.003144 0.009060 0.000000 0.004015 0.000000
# 4 0.000000 0.000000 0.000000 0.051706 0.000000 -0.016602
# 5 -0.001419 0.000768 0.004015 0.000000 0.031750 0.000000
# 6 0.000000 0.000000 0.000000 -0.016602 0.000000 0.026765
#
#
# Mechanical properties :
#
#
# Convention : Reuss Voigt Hill
#
# Bulk Modulus (GPa) = 71.15564 73.80708 72.48136
# Shear Modulus (GPa) = 31.27691 37.80444 34.54067
#
# Velocity S-wave (km/s) = 3.76924 4.14393 3.96102
# Velocity P-wave (km/s) = 7.15992 7.51147 7.33780
#
# Compressibility (1/GPa) = 0.01405370
#
# Stress axis : x y z
#
# Youngs Moduli (GPa) = 111.98199 86.84861 110.36973
#
# Poissons Ratio (x) = 0.23437 0.20786
# Poissons Ratio (y) = 0.30220 0.34696
# Poissons Ratio (z) = 0.21090 0.27302
#
# Static dielectric constant tensor:
#      x y z
#    x 4.119940 0.000000 0.258060 
#    y 0.000000 4.158580 0.000000 
#    z 0.258060 0.000000 3.994790 
# 
# 
# High freq. dielectric constant tensor:
#      x y z
#    x 1.870990 0.000000 0.021680 
#    y 0.000000 1.874720 0.000000 
#    z 0.021680 0.000000 1.878190 
# 
# From -- ./inp_files/10759.got.cif
#   From: 2010.03.12/outbox.cif.g09.slc.cpg/sg4_6_cif.got.tgz:10759.got - 2010.03.31 09:31:35.
