data_PCOD8047071
_publ_section_title
;
Structure prediction by ZEFSAII (Michael W. Deem and Ramdas Pophale) SiO2 
 PCOD8047071
Probable space group: P 21
;
_chemical_formula_sum "Si O2"
_cell_formula_units_Z 10
_cell_length_a 9.184989
_cell_length_b 8.352234
_cell_length_c 9.539146
_cell_angle_alpha 90.000000
_cell_angle_beta 150.469013
_cell_angle_gamma 90.000000
_cell_volume 360.698633
_symmetry_space_group_name_H-M "P 21"
_symmetry_group_IT_number 4
_symmetry_cell_setting 'monoclinic'
loop_
_space_group_symop_operation_xyz
x,y,z
-x,1/2+y,-z
loop_
_atom_site_type_symbol
_atom_site_label
_atom_site_fract_x
_atom_site_fract_y
_atom_site_fract_z
Si Si1 0.106429 0.273860 0.517732
Si Si2 0.253463 0.857859 0.513117
Si Si3 0.707001 0.124354 0.965974
Si Si4 0.200005 0.887128 0.168097
Si Si5 0.797596 0.019661 0.620623
O O1 0.452656 0.237473 0.822063
O O2 0.062251 0.442615 0.401867
O O3 0.970042 0.303997 0.554347
O O4 0.956470 0.124824 0.301352
O O5 0.074180 0.924906 0.222820
O O6 0.358750 0.689458 0.534003
O O7 0.543980 0.954534 0.801658
O O8 0.838925 0.209814 0.935688
O O9 0.550838 0.903826 0.478260
O O10 0.061119 0.023743 0.954251
#
# Coordination Sequence:
#
# PCOD8047071 Si02
#       5
#     2   2   2   2   2
#     4  10  24  44  65  95 136 172 218 278 338 396
#     4  12  24  42  74 100 128 182 234 274 336 408
#     4  10  24  44  64  95 134 173 219 278 334 398
#     4  10  24  44  65  95 136 172 218 278 338 396
#     4  10  24  44  64  95 134 173 219 278 334 398
#
# _framework density 27.723970999999999
#
# number of rings (size 3 to 8) (size 9 to 14) (size 15 to 20)
#    0.000    1.600    0.000    2.400    0.000   19.200 
#    0.000    0.000    0.000    0.000    0.000    0.000 
#    0.000    0.000    0.000    0.000    0.000    0.000 
#
# Total GULP energy -123929.153182 kJ/mol
# GULP energy per Si atom -12392.915318 kJ/mol
# Density = 2.766087 g / cm^3
# Si number density = 27.723971 Si / 1000 Ang^3
#
#
#
# Elastic Constant Matrix: (Units=GPa)
#
#
# Indices 1 2 3 4 5 6 
#
# 1 152.8803 0.3259 21.4886 0.0000 -35.5626 0.0000
# 2 0.3259 96.9813 -8.7764 0.0000 -19.1980 0.0000
# 3 21.4886 -8.7764 91.8147 0.0000 -2.8029 0.0000
# 4 0.0000 0.0000 0.0000 41.4640 0.0000 -2.4973
# 5 -35.5626 -19.1980 -2.8029 0.0000 38.3486 0.0000
# 6 0.0000 0.0000 0.0000 -2.4973 0.0000 37.8566
#
#
#
# Elastic Compliance Matrix: (Units=1/GPa)
#
#
# Indices 1 2 3 4 5 6 
#
# 1 0.008829 0.001574 -0.001646 0.000000 0.008855 0.000000
# 2 0.001574 0.011876 0.000995 0.000000 0.007478 0.000000
# 3 -0.001646 0.000995 0.011366 0.000000 -0.000197 0.000000
# 4 0.000000 0.000000 0.000000 0.024214 0.000000 0.001597
# 5 0.008855 0.007478 -0.000197 0.000000 0.038018 0.000000
# 6 0.000000 0.000000 0.000000 0.001597 0.000000 0.026521
#
#
# Mechanical properties :
#
#
# Convention : Reuss Voigt Hill
#
# Bulk Modulus (GPa) = 29.48209 40.86140 35.17175
# Shear Modulus (GPa) = 38.37837 45.44306 41.91072
#
# Velocity S-wave (km/s) = 3.72466 4.05300 3.89229
# Velocity P-wave (km/s) = 5.39951 6.05583 5.73706
#
# Compressibility (1/GPa) = 0.03391890
#
# Stress axis : x y z
#
# Youngs Moduli (GPa) = 113.26421 84.20070 87.98386
#
# Poissons Ratio (x) = -0.13256 0.14478
# Poissons Ratio (y) = -0.17832 -0.08755
# Poissons Ratio (z) = 0.18638 -0.08379
#
# Static dielectric constant tensor:
#      x y z
#    x 5.040650 0.000000 -0.117650 
#    y 0.000000 5.337260 0.000000 
#    z -0.117650 0.000000 4.955290 
# 
# 
# High freq. dielectric constant tensor:
#      x y z
#    x 2.133400 0.000000 -0.001090 
#    y 0.000000 2.134430 0.000000 
#    z -0.001090 0.000000 2.118680 
# 
# From -- ./inp_files/917.got.cif
#   From: 2010.03.12/outbox.cif.g09.slc.cpg/sg4_1_cif.got.tgz:917.got - 2010.03.31 09:31:35.
