data_PCOD8047710
_publ_section_title
;
Structure prediction by ZEFSAII (Michael W. Deem and Ramdas Pophale) SiO2 
 PCOD8047710
Probable space group: P 21
;
_chemical_formula_sum "Si O2"
_cell_formula_units_Z 16
_cell_length_a 16.905805
_cell_length_b 5.136820
_cell_length_c 9.426662
_cell_angle_alpha 90.000000
_cell_angle_beta 138.224166
_cell_angle_gamma 90.000000
_cell_volume 545.386637
_symmetry_space_group_name_H-M "P 21"
_symmetry_group_IT_number 4
_symmetry_cell_setting 'monoclinic'
loop_
_space_group_symop_operation_xyz
x,y,z
-x,1/2+y,-z
loop_
_atom_site_type_symbol
_atom_site_label
_atom_site_fract_x
_atom_site_fract_y
_atom_site_fract_z
Si Si1 0.400841 0.545940 0.788718
Si Si2 0.196731 0.502995 0.043794
Si Si3 0.653182 0.372420 0.055689
Si Si4 0.994419 0.276174 0.401754
Si Si5 0.652733 0.306832 0.549913
Si Si6 0.927321 0.618477 0.924157
Si Si7 0.213298 0.135960 0.532270
Si Si8 0.607072 0.644813 0.729469
O O1 0.378102 0.584239 0.927887
O O2 0.346188 0.793719 0.622019
O O3 0.330871 0.294102 0.646249
O O4 0.540685 0.551681 0.950892
O O5 0.229808 0.673336 0.226321
O O6 0.122320 0.246771 0.996947
O O7 0.318867 0.404092 0.130917
O O8 0.125402 0.668957 0.832965
O O9 0.766424 0.451129 0.303314
O O10 0.665332 0.406994 0.902889
O O11 0.971107 0.562999 0.432403
O O12 0.101367 0.308960 0.432444
O O13 0.635031 0.587840 0.600358
O O14 0.533551 0.145951 0.436109
O O15 0.824487 0.520310 0.674246
O O16 0.997969 0.351575 0.053396
#
# Coordination Sequence:
#
# PCOD8047710 Si02
#       8
#     2   2   2   2   2   2   2   2
#     4  11  25  45  75 113 157 202 261 317 397 472
#     4  12  27  49  80 109 152 204 262 325 395 471
#     4  11  26  46  71 113 156 206 252 323 392 485
#     4  12  32  54  77 113 157 212 269 330 393 465
#     4  11  25  45  74 114 154 204 259 322 392 477
#     4  12  30  52  79 116 152 208 270 332 388 460
#     4  12  27  49  77 111 151 205 261 323 395 468
#     4  11  26  46  73 113 159 203 256 318 400 472
#
# _framework density 29.336988000000002
#
# number of rings (size 3 to 8) (size 9 to 14) (size 15 to 20)
#    0.000    0.500    5.000    0.750   12.250    2.000 
#    0.000    0.000    0.000    0.000    0.000    0.000 
#    0.000    0.000    0.000    0.000    0.000    0.000 
#
# Total GULP energy -198272.290697 kJ/mol
# GULP energy per Si atom -12392.018169 kJ/mol
# Density = 2.927022 g / cm^3
# Si number density = 29.336988 Si / 1000 Ang^3
#
#
#
# Elastic Constant Matrix: (Units=GPa)
#
#
# Indices 1 2 3 4 5 6 
#
# 1 67.3764 -17.8287 17.4687 0.0000 -9.8085 0.0000
# 2 -17.8287 58.7829 15.6833 0.0000 8.1057 0.0000
# 3 17.4687 15.6833 139.2490 0.0000 6.6322 0.0000
# 4 0.0000 0.0000 0.0000 55.9699 0.0000 -1.9299
# 5 -9.8085 8.1057 6.6322 0.0000 46.1275 0.0000
# 6 0.0000 0.0000 0.0000 -1.9299 0.0000 41.8356
#
#
#
# Elastic Compliance Matrix: (Units=1/GPa)
#
#
# Indices 1 2 3 4 5 6 
#
# 1 0.017589 0.005698 -0.002999 0.000000 0.003170 0.000000
# 2 0.005698 0.019756 -0.002852 0.000000 -0.001850 0.000000
# 3 -0.002999 -0.002852 0.007940 0.000000 -0.001278 0.000000
# 4 0.000000 0.000000 0.000000 0.017895 0.000000 0.000826
# 5 0.003170 -0.001850 -0.001278 0.000000 0.022862 0.000000
# 6 0.000000 0.000000 0.000000 0.000826 0.000000 0.023941
#
#
# Mechanical properties :
#
#
# Convention : Reuss Voigt Hill
#
# Bulk Modulus (GPa) = 22.23319 32.89499 27.56409
# Shear Modulus (GPa) = 39.91008 45.45894 42.68451
#
# Velocity S-wave (km/s) = 3.69236 3.94069 3.81855
# Velocity P-wave (km/s) = 5.07672 5.65178 5.37195
#
# Compressibility (1/GPa) = 0.04497780
#
# Stress axis : x y z
#
# Youngs Moduli (GPa) = 56.85447 50.61810 125.94960
#
# Poissons Ratio (x) = -0.28841 0.37775
# Poissons Ratio (y) = -0.32394 0.35917
# Poissons Ratio (z) = 0.17052 0.14435
#
# Static dielectric constant tensor:
#      x y z
#    x 5.475140 0.000000 0.107410 
#    y 0.000000 5.023360 0.000000 
#    z 0.107410 0.000000 5.802070 
# 
# 
# High freq. dielectric constant tensor:
#      x y z
#    x 2.208690 0.000000 0.010880 
#    y 0.000000 2.182350 0.000000 
#    z 0.010880 0.000000 2.219580 
# 
# From -- ./inp_files/9547.got.cif
#   From: 2010.03.12/outbox.cif.g09.slc.cpg/sg4_5_cif.got.tgz:9547.got - 2010.03.31 09:31:35.
