data_PCOD8047704
_publ_section_title
;
Structure prediction by ZEFSAII (Michael W. Deem and Ramdas Pophale) SiO2 
 PCOD8047704
Probable space group: P 21
;
_chemical_formula_sum "Si O2"
_cell_formula_units_Z 14
_cell_length_a 12.431825
_cell_length_b 7.659823
_cell_length_c 8.841301
_cell_angle_alpha 90.000000
_cell_angle_beta 136.142452
_cell_angle_gamma 90.000000
_cell_volume 583.337846
_symmetry_space_group_name_H-M "P 21"
_symmetry_group_IT_number 4
_symmetry_cell_setting 'monoclinic'
loop_
_space_group_symop_operation_xyz
x,y,z
-x,1/2+y,-z
loop_
_atom_site_type_symbol
_atom_site_label
_atom_site_fract_x
_atom_site_fract_y
_atom_site_fract_z
Si Si1 0.498717 0.854460 0.662789
Si Si2 0.316879 0.547044 0.598788
Si Si3 0.041233 0.507267 0.101379
Si Si4 0.943570 0.984929 0.431723
Si Si5 0.113349 0.786073 0.833997
Si Si6 0.140400 0.310203 0.936482
Si Si7 0.537962 0.251078 0.718332
O O1 0.400944 0.735598 0.680460
O O2 0.675935 0.808335 0.872921
O O3 0.449917 0.809103 0.442722
O O4 0.463421 0.058246 0.656969
O O5 0.207695 0.543433 0.341950
O O6 0.221027 0.527290 0.655511
O O7 0.436747 0.387280 0.710617
O O8 0.074686 0.486227 0.955898
O O9 0.969666 0.321726 0.088968
O O10 0.913522 0.647855 0.018712
O O11 0.981227 0.140279 0.354606
O O12 0.079834 0.958592 0.693763
O O13 0.923610 0.814401 0.300312
O O14 0.293412 0.746597 0.033812
#
# Coordination Sequence:
#
# PCOD8047704 Si02
#       7
#     2   2   2   2   2   2   2
#     4  12  25  46  76 112 143 198 243 320 370 447
#     4  11  26  47  71 109 151 192 251 301 384 448
#     4  11  25  44  76 111 142 198 254 306 365 447
#     4  11  25  50  69 105 153 191 244 312 369 453
#     4  11  25  48  71 105 147 195 248 305 374 446
#     4  12  24  46  75 108 150 190 250 311 369 434
#     4  12  24  47  78 108 152 190 254 313 373 449
#
# _framework density 23.999814000000001
#
# number of rings (size 3 to 8) (size 9 to 14) (size 15 to 20)
#    0.000    0.571    4.286    3.429    2.000    1.143 
#   12.857    0.000    0.000    0.000    0.000    0.000 
#    0.000    0.000    0.000    0.000    0.000    0.000 
#
# Total GULP energy -173596.088021 kJ/mol
# GULP energy per Si atom -12399.720573 kJ/mol
# Density = 2.394519 g / cm^3
# Si number density = 23.999814 Si / 1000 Ang^3
#
#
#
# Elastic Constant Matrix: (Units=GPa)
#
#
# Indices 1 2 3 4 5 6 
#
# 1 103.7892 31.0634 15.3234 0.0000 -11.7829 0.0000
# 2 31.0634 118.0868 5.8603 0.0000 18.6408 0.0000
# 3 15.3234 5.8603 90.8481 0.0000 -3.9174 0.0000
# 4 0.0000 0.0000 0.0000 31.7528 0.0000 2.4991
# 5 -11.7829 18.6408 -3.9174 0.0000 33.8259 0.0000
# 6 0.0000 0.0000 0.0000 2.4991 0.0000 42.0016
#
#
#
# Elastic Compliance Matrix: (Units=1/GPa)
#
#
# Indices 1 2 3 4 5 6 
#
# 1 0.011735 -0.003979 -0.001459 0.000000 0.006112 0.000000
# 2 -0.003979 0.010686 -0.000334 0.000000 -0.007314 0.000000
# 3 -0.001459 -0.000334 0.011318 0.000000 0.000986 0.000000
# 4 0.000000 0.000000 0.000000 0.031642 0.000000 -0.001883
# 5 0.006112 -0.007314 0.000986 0.000000 0.035837 0.000000
# 6 0.000000 0.000000 0.000000 -0.001883 0.000000 0.023921
#
#
# Mechanical properties :
#
#
# Convention : Reuss Voigt Hill
#
# Bulk Modulus (GPa) = 45.05540 46.35760 45.70650
# Shear Modulus (GPa) = 34.70289 38.88119 36.79204
#
# Velocity S-wave (km/s) = 3.80671 4.02937 3.91962
# Velocity P-wave (km/s) = 6.17538 6.40355 6.29050
#
# Compressibility (1/GPa) = 0.02219490
#
# Stress axis : x y z
#
# Youngs Moduli (GPa) = 85.21372 93.57842 88.35847
#
# Poissons Ratio (x) = 0.37238 0.12893
# Poissons Ratio (y) = 0.33910 0.02947
# Poissons Ratio (z) = 0.12434 0.03121
#
# Static dielectric constant tensor:
#      x y z
#    x 4.368600 0.000000 -0.198590 
#    y 0.000000 4.852630 0.000000 
#    z -0.198590 0.000000 4.292290 
# 
# 
# High freq. dielectric constant tensor:
#      x y z
#    x 1.948670 0.000000 -0.011950 
#    y 0.000000 1.979290 0.000000 
#    z -0.011950 0.000000 1.951800 
# 
# From -- ./inp_files/7608.got.cif
#   From: 2010.03.12/outbox.cif.g09.slc.cpg/sg4_4_cif.got.tgz:7608.got - 2010.03.31 09:31:35.
