data_PCOD8047485
_publ_section_title
;
Structure prediction by ZEFSAII (Michael W. Deem and Ramdas Pophale) SiO2 
 PCOD8047485
Probable space group: P 21
;
_chemical_formula_sum "Si O2"
_cell_formula_units_Z 16
_cell_length_a 13.703279
_cell_length_b 5.696486
_cell_length_c 21.405739
_cell_angle_alpha 90.000000
_cell_angle_beta 22.807225
_cell_angle_gamma 90.000000
_cell_volume 647.710880
_symmetry_space_group_name_H-M "P 21"
_symmetry_group_IT_number 4
_symmetry_cell_setting 'monoclinic'
loop_
_space_group_symop_operation_xyz
x,y,z
-x,1/2+y,-z
loop_
_atom_site_type_symbol
_atom_site_label
_atom_site_fract_x
_atom_site_fract_y
_atom_site_fract_z
Si Si1 0.416127 0.978510 0.250432
Si Si2 0.167832 0.560460 0.582414
Si Si3 0.406641 0.637061 0.146536
Si Si4 0.172720 0.956443 0.672279
Si Si5 0.962434 0.793432 0.589866
Si Si6 0.419909 0.727211 0.634164
Si Si7 0.755280 0.277662 0.889711
Si Si8 0.848894 0.043887 0.092446
O O1 0.499678 0.835979 0.139209
O O2 0.233151 0.811934 0.398287
O O3 0.255402 0.210386 0.328718
O O4 0.659458 0.049990 0.145945
O O5 0.423618 0.417070 0.417031
O O6 0.000929 0.591606 0.618810
O O7 0.997701 0.433190 0.733476
O O8 0.232747 0.806956 0.574865
O O9 0.125280 0.542843 0.328872
O O10 0.414190 0.738179 0.071870
O O11 0.589027 0.407417 0.040523
O O12 0.396688 0.143369 0.530297
O O13 0.880727 0.040949 0.842837
O O14 0.192188 0.842650 0.729359
O O15 0.302344 0.541120 0.752357
O O16 0.001034 0.294257 0.999049
#
# Coordination Sequence:
#
# PCOD8047485 Si02
#       8
#     2   2   2   2   2   2   2   2
#     4  12  29  50  81 116 158 217 283 339 419 496
#     4  11  23  44  75 111 157 200 257 335 415 487
#     4  12  26  47  72 117 158 203 258 337 424 504
#     4  11  23  46  75 118 147 208 257 340 407 490
#     4  12  25  46  80 115 155 209 274 347 415 494
#     4  11  26  47  81 112 156 206 282 332 405 498
#     4  11  26  43  70 112 162 200 253 328 427 502
#     4  12  34  59  82 119 171 231 284 346 412 497
#
# _framework density 24.702379000000001
#
# number of rings (size 3 to 8) (size 9 to 14) (size 15 to 20)
#    0.000    0.500    5.000    1.500    8.750    2.000 
#    0.000    0.000    0.000    0.000    0.000    0.000 
#    0.000    0.000    0.000    0.000    0.000    0.000 
#
# Total GULP energy -198355.496226 kJ/mol
# GULP energy per Si atom -12397.218514 kJ/mol
# Density = 2.464616 g / cm^3
# Si number density = 24.702379 Si / 1000 Ang^3
#
#
#
# Elastic Constant Matrix: (Units=GPa)
#
#
# Indices 1 2 3 4 5 6 
#
# 1 140.7090 28.9593 37.5103 0.0000 -26.5693 0.0000
# 2 28.9593 88.1851 28.4745 0.0000 -10.8856 0.0000
# 3 37.5103 28.4745 93.7289 0.0000 -9.1805 0.0000
# 4 0.0000 0.0000 0.0000 45.8370 0.0000 0.5201
# 5 -26.5693 -10.8856 -9.1805 0.0000 37.0133 0.0000
# 6 0.0000 0.0000 0.0000 0.5201 0.0000 46.0513
#
#
#
# Elastic Compliance Matrix: (Units=1/GPa)
#
#
# Indices 1 2 3 4 5 6 
#
# 1 0.009158 -0.001465 -0.002684 0.000000 0.005477 0.000000
# 2 -0.001465 0.013101 -0.003197 0.000000 0.002009 0.000000
# 3 -0.002684 -0.003197 0.012743 0.000000 0.000294 0.000000
# 4 0.000000 0.000000 0.000000 0.021819 0.000000 -0.000246
# 5 0.005477 0.002009 0.000294 0.000000 0.031613 0.000000
# 6 0.000000 0.000000 0.000000 -0.000246 0.000000 0.021718
#
#
# Mechanical properties :
#
#
# Convention : Reuss Voigt Hill
#
# Bulk Modulus (GPa) = 49.23364 56.94568 53.08966
# Shear Modulus (GPa) = 37.99009 40.95892 39.47450
#
# Velocity S-wave (km/s) = 3.92588 4.07639 4.00184
# Velocity P-wave (km/s) = 6.36585 6.72746 6.54915
#
# Compressibility (1/GPa) = 0.02031132
#
# Stress axis : x y z
#
# Youngs Moduli (GPa) = 109.19419 76.32963 78.47382
#
# Poissons Ratio (x) = 0.11181 0.21059
# Poissons Ratio (y) = 0.15994 0.25089
# Poissons Ratio (z) = 0.29303 0.24403
#
# Static dielectric constant tensor:
#      x y z
#    x 4.307390 0.000000 -0.056640 
#    y 0.000000 4.582320 0.000000 
#    z -0.056640 0.000000 4.381880 
# 
# 
# High freq. dielectric constant tensor:
#      x y z
#    x 1.981310 0.000000 -0.004910 
#    y 0.000000 1.987190 0.000000 
#    z -0.004910 0.000000 1.985680 
# 
# From -- ./inp_files/16068.got.cif
#   From: 2010.03.12/outbox.cif.g09.slc.cpg/sg4_9_cif.got.tgz:16068.got - 2010.03.31 09:31:35.
