data_PCOD8047550
_publ_section_title
;
Structure prediction by ZEFSAII (Michael W. Deem and Ramdas Pophale) SiO2 
 PCOD8047550
Probable space group: P 21
;
_chemical_formula_sum "Si O2"
_cell_formula_units_Z 14
_cell_length_a 9.447441
_cell_length_b 8.628262
_cell_length_c 8.496967
_cell_angle_alpha 90.000000
_cell_angle_beta 125.123968
_cell_angle_gamma 90.000000
_cell_volume 566.508577
_symmetry_space_group_name_H-M "P 21"
_symmetry_group_IT_number 4
_symmetry_cell_setting 'monoclinic'
loop_
_space_group_symop_operation_xyz
x,y,z
-x,1/2+y,-z
loop_
_atom_site_type_symbol
_atom_site_label
_atom_site_fract_x
_atom_site_fract_y
_atom_site_fract_z
Si Si1 0.090723 0.404220 0.761655
Si Si2 0.110325 0.675674 0.549862
Si Si3 0.623766 0.715458 0.681684
Si Si4 0.737331 0.408983 0.127249
Si Si5 0.042360 0.020457 0.009693
Si Si6 0.579429 0.738592 0.007061
Si Si7 0.295905 0.549088 0.383306
O O1 0.037809 0.560916 0.637051
O O2 0.296567 0.388444 0.899180
O O3 0.040459 0.235683 0.660126
O O4 0.009536 0.406861 0.882699
O O5 0.172847 0.840218 0.660143
O O6 0.246664 0.579061 0.533826
O O7 0.807849 0.632795 0.830647
O O8 0.483049 0.631694 0.476797
O O9 0.672653 0.869038 0.621113
O O10 0.529937 0.734099 0.790244
O O11 0.656708 0.576113 0.115678
O O12 0.876555 0.414244 0.076536
O O13 0.587100 0.282271 0.993226
O O14 0.864216 0.103547 0.832821
#
# Coordination Sequence:
#
# PCOD8047550 Si02
#       7
#     2   2   2   2   2   2   2
#     4  12  27  49  78 114 158 213 270 334 408 479
#     4  12  27  48  75 114 159 209 270 334 400 483
#     4  11  27  50  78 120 160 213 266 335 404 483
#     4  11  25  49  77 116 156 207 269 330 404 479
#     4  11  28  50  85 115 158 214 272 332 408 480
#     4  11  23  51  74 113 156 206 271 326 404 479
#     4  12  27  53  77 120 165 208 272 333 406 483
#
# _framework density 24.712774
#
# number of rings (size 3 to 8) (size 9 to 14) (size 15 to 20)
#    0.000    0.571    2.857    4.286    8.000    0.000 
#    7.714    0.000    0.000    0.000    0.000    0.000 
#    0.000    0.000    0.000    0.000    0.000    0.000 
#
# Total GULP energy -173471.921593 kJ/mol
# GULP energy per Si atom -12390.851542 kJ/mol
# Density = 2.465653 g / cm^3
# Si number density = 24.712774 Si / 1000 Ang^3
#
#
#
# Elastic Constant Matrix: (Units=GPa)
#
#
# Indices 1 2 3 4 5 6 
#
# 1 72.4540 26.0565 68.9409 0.0000 30.3678 0.0000
# 2 26.0565 102.3013 66.1900 0.0000 9.3060 0.0000
# 3 68.9409 66.1900 137.8480 0.0000 27.7199 0.0000
# 4 0.0000 0.0000 0.0000 49.1912 0.0000 -6.3929
# 5 30.3678 9.3060 27.7199 0.0000 43.1852 0.0000
# 6 0.0000 0.0000 0.0000 -6.3929 0.0000 36.4211
#
#
#
# Elastic Compliance Matrix: (Units=1/GPa)
#
#
# Indices 1 2 3 4 5 6 
#
# 1 0.032967 0.002488 -0.014826 0.000000 -0.014202 0.000000
# 2 0.002488 0.014455 -0.008275 0.000000 0.000447 0.000000
# 3 -0.014826 -0.008275 0.018587 0.000000 0.000278 0.000000
# 4 0.000000 0.000000 0.000000 0.020803 0.000000 0.003652
# 5 -0.014202 0.000447 0.000278 0.000000 0.032868 0.000000
# 6 0.000000 0.000000 0.000000 0.003652 0.000000 0.028098
#
#
# Mechanical properties :
#
#
# Convention : Reuss Voigt Hill
#
# Bulk Modulus (GPa) = 40.35238 70.55310 55.45274
# Shear Modulus (GPa) = 25.34682 35.85388 30.60035
#
# Velocity S-wave (km/s) = 3.20606 3.81310 3.52268
# Velocity P-wave (km/s) = 5.48353 6.92803 6.24767
#
# Compressibility (1/GPa) = 0.02478168
#
# Stress axis : x y z
#
# Youngs Moduli (GPa) = 30.33345 69.18238 53.80231
#
# Poissons Ratio (x) = -0.17211 0.79769
# Poissons Ratio (y) = -0.07546 0.44520
# Poissons Ratio (z) = 0.44973 0.57247
#
# Static dielectric constant tensor:
#      x y z
#    x 4.553860 0.000000 0.292950 
#    y 0.000000 4.276070 0.000000 
#    z 0.292950 0.000000 4.734260 
# 
# 
# High freq. dielectric constant tensor:
#      x y z
#    x 1.983660 0.000000 0.018760 
#    y 0.000000 1.985870 0.000000 
#    z 0.018760 0.000000 1.990880 
# 
# From -- ./inp_files/5289.got.cif
#   From: 2010.03.12/outbox.cif.g09.slc.cpg/sg4_3_cif.got.tgz:5289.got - 2010.03.31 09:31:35.
