data_PCOD8047442
_publ_section_title
;
Structure prediction by ZEFSAII (Michael W. Deem and Ramdas Pophale) SiO2 
 PCOD8047442
Probable space group: P 21
;
_chemical_formula_sum "Si O2"
_cell_formula_units_Z 16
_cell_length_a 10.367422
_cell_length_b 13.411627
_cell_length_c 10.611109
_cell_angle_alpha 90.000000
_cell_angle_beta 26.903758
_cell_angle_gamma 90.000000
_cell_volume 667.613449
_symmetry_space_group_name_H-M "P 21"
_symmetry_group_IT_number 4
_symmetry_cell_setting 'monoclinic'
loop_
_space_group_symop_operation_xyz
x,y,z
-x,1/2+y,-z
loop_
_atom_site_type_symbol
_atom_site_label
_atom_site_fract_x
_atom_site_fract_y
_atom_site_fract_z
Si Si1 0.790076 0.576170 0.294763
Si Si2 0.789905 0.999455 0.269810
Si Si3 0.194548 0.482966 0.145303
Si Si4 0.218018 0.001952 0.277095
Si Si5 0.813369 0.789891 0.370606
Si Si6 0.852974 0.143112 0.437443
Si Si7 0.359479 0.269003 0.984821
Si Si8 0.399981 0.816407 0.962236
O O1 0.495564 0.514590 0.564920
O O2 0.714865 0.693618 0.375354
O O3 0.009092 0.545838 0.211901
O O4 0.935878 0.548590 0.035404
O O5 0.846404 0.882729 0.245787
O O6 0.739244 0.058816 0.443293
O O7 0.338044 0.383882 0.960270
O O8 0.985559 0.448821 0.441854
O O9 0.478225 0.545807 0.937302
O O10 0.296192 0.926769 0.095565
O O11 0.032601 0.094547 0.393727
O O12 0.592359 0.822392 0.670532
O O13 0.111800 0.758806 0.175594
O O14 0.065333 0.222724 0.192464
O O15 0.593479 0.207198 0.709807
O O16 0.427437 0.263809 0.075574
#
# Coordination Sequence:
#
# PCOD8047442 Si02
#       8
#     2   2   2   2   2   2   2   2
#     4  12  29  49  74 109 141 204 255 302 370 430
#     4  12  28  50  72 105 148 196 256 306 359 442
#     4  11  25  46  70 107 153 191 242 309 375 435
#     4  11  23  42  73 108 148 188 234 312 375 443
#     4  12  26  47  75 103 143 196 246 313 356 445
#     4  12  25  42  71 111 143 199 238 301 374 440
#     4  11  25  40  69 113 152 191 234 304 379 450
#     4  11  23  44  70 108 148 187 243 293 378 439
#
# _framework density 23.965966000000002
#
# number of rings (size 3 to 8) (size 9 to 14) (size 15 to 20)
#    0.000    0.500    1.250    7.500    7.000    3.000 
#    0.000    0.000    0.000    0.000    0.000    0.000 
#    0.000    0.000    0.000    0.000    0.000    0.000 
#
# Total GULP energy -198384.221713 kJ/mol
# GULP energy per Si atom -12399.013857 kJ/mol
# Density = 2.391142 g / cm^3
# Si number density = 23.965966 Si / 1000 Ang^3
#
#
#
# Elastic Constant Matrix: (Units=GPa)
#
#
# Indices 1 2 3 4 5 6 
#
# 1 61.1932 37.5432 22.6053 0.0000 -11.5768 0.0000
# 2 37.5432 131.0701 43.8848 0.0000 8.3847 0.0000
# 3 22.6053 43.8848 158.5682 0.0000 -7.5869 0.0000
# 4 0.0000 0.0000 0.0000 34.1600 0.0000 -9.3912
# 5 -11.5768 8.3847 -7.5869 0.0000 48.7430 0.0000
# 6 0.0000 0.0000 0.0000 -9.3912 0.0000 28.1815
#
#
#
# Elastic Compliance Matrix: (Units=1/GPa)
#
#
# Indices 1 2 3 4 5 6 
#
# 1 0.021721 -0.006249 -0.001077 0.000000 0.006066 0.000000
# 2 -0.006249 0.010370 -0.002152 0.000000 -0.003603 0.000000
# 3 -0.001077 -0.002152 0.007114 0.000000 0.001222 0.000000
# 4 0.000000 0.000000 0.000000 0.032226 0.000000 0.010739
# 5 0.006066 -0.003603 0.001222 0.000000 0.022767 0.000000
# 6 0.000000 0.000000 0.000000 0.010739 0.000000 0.039063
#
#
# Mechanical properties :
#
#
# Convention : Reuss Voigt Hill
#
# Bulk Modulus (GPa) = 49.38229 62.09980 55.74105
# Shear Modulus (GPa) = 31.45316 38.67010 35.06163
#
# Velocity S-wave (km/s) = 3.62665 4.02125 3.82904
# Velocity P-wave (km/s) = 6.17954 6.89409 6.54657
#
# Compressibility (1/GPa) = 0.02025017
#
# Stress axis : x y z
#
# Youngs Moduli (GPa) = 46.03810 96.42822 140.57077
#
# Poissons Ratio (x) = 0.60261 0.15136
# Poissons Ratio (y) = 0.28770 0.30245
# Poissons Ratio (z) = 0.04957 0.20747
#
# Static dielectric constant tensor:
#      x y z
#    x 4.331270 0.000000 -0.265510 
#    y 0.000000 4.245590 0.000000 
#    z -0.265510 0.000000 4.606310 
# 
# 
# High freq. dielectric constant tensor:
#      x y z
#    x 1.941580 0.000000 -0.017310 
#    y 0.000000 1.952980 0.000000 
#    z -0.017310 0.000000 1.968660 
# 
# From -- ./inp_files/12354.got.cif
#   From: 2010.03.12/outbox.cif.g09.slc.cpg/sg4_7_cif.got.tgz:12354.got - 2010.03.31 09:31:35.
