data_PCOD8047333
_publ_section_title
;
Structure prediction by ZEFSAII (Michael W. Deem and Ramdas Pophale) SiO2 
 PCOD8047333
Probable space group: P 21
;
_chemical_formula_sum "Si O2"
_cell_formula_units_Z 16
_cell_length_a 15.787436
_cell_length_b 5.108447
_cell_length_c 25.650083
_cell_angle_alpha 90.000000
_cell_angle_beta 19.225463
_cell_angle_gamma 90.000000
_cell_volume 681.181653
_symmetry_space_group_name_H-M "P 21"
_symmetry_group_IT_number 4
_symmetry_cell_setting 'monoclinic'
loop_
_space_group_symop_operation_xyz
x,y,z
-x,1/2+y,-z
loop_
_atom_site_type_symbol
_atom_site_label
_atom_site_fract_x
_atom_site_fract_y
_atom_site_fract_z
Si Si1 0.562357 0.980560 0.908590
Si Si2 0.610445 0.102466 0.557591
Si Si3 0.525913 0.649639 0.785841
Si Si4 0.771652 0.165728 0.687915
Si Si5 0.813848 0.114866 0.923900
Si Si6 0.338889 0.103363 0.402354
Si Si7 0.903567 0.740337 0.784091
Si Si8 0.365611 0.265012 0.601164
O O1 0.840026 0.954948 0.775919
O O2 0.602533 0.191401 0.839184
O O3 0.451606 0.715781 0.947041
O O4 0.348678 0.059687 0.075077
O O5 0.643464 0.316931 0.583012
O O6 0.373370 0.169994 0.657379
O O7 0.839038 0.092544 0.381408
O O8 0.592820 0.818261 0.593620
O O9 0.740673 0.430381 0.673695
O O10 0.458404 0.631557 0.763337
O O11 0.660811 0.925689 0.718923
O O12 0.259144 0.588424 0.972306
O O13 0.064901 0.136069 0.534211
O O14 0.057904 0.310502 0.771639
O O15 0.909796 0.848560 0.839741
O O16 0.521524 0.535382 0.502204
#
# Coordination Sequence:
#
# PCOD8047333 Si02
#       8
#     2   2   2   2   2   2   2   2
#     4  11  23  34  63  99 137 168 208 265 348 403
#     4  12  27  42  68  96 132 177 225 269 334 388
#     4  11  24  43  66  96 134 175 227 267 331 388
#     4  11  22  40  63  99 133 180 216 267 327 404
#     4  11  25  42  65  96 129 176 217 276 327 398
#     4  12  25  44  65  96 134 179 224 275 318 394
#     4  12  22  38  62  99 136 171 206 275 338 412
#     4  12  26  47  70  97 133 172 221 270 329 399
#
# _framework density 23.488596000000001
#
# number of rings (size 3 to 8) (size 9 to 14) (size 15 to 20)
#    0.000    0.500    5.000    3.750    5.250    0.000 
#    0.000    1.250    0.000    0.000    0.000    0.000 
#    0.000    0.000    0.000    0.000    0.000    0.000 
#
# Total GULP energy -198303.856715 kJ/mol
# GULP energy per Si atom -12393.991045 kJ/mol
# Density = 2.343513 g / cm^3
# Si number density = 23.488596 Si / 1000 Ang^3
#
#
#
# Elastic Constant Matrix: (Units=GPa)
#
#
# Indices 1 2 3 4 5 6 
#
# 1 64.6865 -4.0597 23.8716 0.0000 28.8725 0.0000
# 2 -4.0597 67.5812 0.8191 0.0000 12.9849 0.0000
# 3 23.8716 0.8191 81.6107 0.0000 20.0420 0.0000
# 4 0.0000 0.0000 0.0000 23.2229 0.0000 7.1313
# 5 28.8725 12.9849 20.0420 0.0000 44.6554 0.0000
# 6 0.0000 0.0000 0.0000 7.1313 0.0000 36.8052
#
#
#
# Elastic Compliance Matrix: (Units=1/GPa)
#
#
# Indices 1 2 3 4 5 6 
#
# 1 0.023685 0.004368 -0.003258 0.000000 -0.015122 0.000000
# 2 0.004368 0.016563 0.000486 0.000000 -0.007858 0.000000
# 3 -0.003258 0.000486 0.014294 0.000000 -0.004450 0.000000
# 4 0.000000 0.000000 0.000000 0.045785 0.000000 -0.008871
# 5 -0.015122 -0.007858 -0.004450 0.000000 0.036453 0.000000
# 6 0.000000 0.000000 0.000000 -0.008871 0.000000 0.028889
#
#
# Mechanical properties :
#
#
# Convention : Reuss Voigt Hill
#
# Bulk Modulus (GPa) = 17.32085 28.34893 22.83489
# Shear Modulus (GPa) = 27.51427 33.81986 30.66706
#
# Velocity S-wave (km/s) = 3.42627 3.79864 3.61725
# Velocity P-wave (km/s) = 4.80027 5.59777 5.21429
#
# Compressibility (1/GPa) = 0.05773389
#
# Stress axis : x y z
#
# Youngs Moduli (GPa) = 42.22051 60.37402 69.95764
#
# Poissons Ratio (x) = -0.26370 0.22794
# Poissons Ratio (y) = -0.18441 -0.03400
# Poissons Ratio (z) = 0.13757 -0.02935
#
# Static dielectric constant tensor:
#      x y z
#    x 4.503360 0.000000 0.367530 
#    y 0.000000 4.072180 0.000000 
#    z 0.367530 0.000000 4.403520 
# 
# 
# High freq. dielectric constant tensor:
#      x y z
#    x 1.929220 0.000000 0.021070 
#    y 0.000000 1.929630 0.000000 
#    z 0.021070 0.000000 1.917080 
# 
# From -- ./inp_files/11770.got.cif
#   From: 2010.03.12/outbox.cif.g09.slc.cpg/sg4_6_cif.got.tgz:11770.got - 2010.03.31 09:31:35.
