data_PCOD8047507
_publ_section_title
;
Structure prediction by ZEFSAII (Michael W. Deem and Ramdas Pophale) SiO2 
 PCOD8047507
Probable space group: P 21
;
_chemical_formula_sum "Si O2"
_cell_formula_units_Z 14
_cell_length_a 5.435382
_cell_length_b 13.886104
_cell_length_c 7.545697
_cell_angle_alpha 90.000000
_cell_angle_beta 95.952875
_cell_angle_gamma 90.000000
_cell_volume 566.450013
_symmetry_space_group_name_H-M "P 21"
_symmetry_group_IT_number 4
_symmetry_cell_setting 'monoclinic'
loop_
_space_group_symop_operation_xyz
x,y,z
-x,1/2+y,-z
loop_
_atom_site_type_symbol
_atom_site_label
_atom_site_fract_x
_atom_site_fract_y
_atom_site_fract_z
Si Si1 0.026619 0.503140 0.663400
Si Si2 0.723582 0.207994 0.758263
Si Si3 0.716753 0.500688 0.968242
Si Si4 0.219497 0.307990 0.764392
Si Si5 0.881654 0.007092 0.715022
Si Si6 0.589246 0.843582 0.859862
Si Si7 0.333043 0.661674 0.862035
O O1 0.232343 0.420577 0.709749
O O2 0.951363 0.500579 0.450470
O O3 0.137291 0.607822 0.722745
O O4 0.791186 0.480133 0.769384
O O5 0.459434 0.257275 0.695144
O O6 0.699756 0.098608 0.682294
O O7 0.959368 0.260392 0.681747
O O8 0.784577 0.210354 0.973023
O O9 0.612682 0.404683 0.047098
O O10 0.958022 0.529889 0.098962
O O11 0.528787 0.587911 0.960669
O O12 0.222257 0.302896 0.978815
O O13 0.727013 0.908017 0.723491
O O14 0.459557 0.749699 0.759244
#
# Coordination Sequence:
#
# PCOD8047507 Si02
#       7
#     2   2   2   2   2   2   2
#     4  12  26  44  70 108 144 191 243 307 366 438
#     4  11  23  45  75 107 143 195 244 302 366 433
#     4  12  22  50  70  98 150 192 242 300 376 430
#     4  11  23  45  75 107 143 195 244 302 366 433
#     4  12  26  44  70 108 144 191 243 307 366 438
#     4  11  24  43  75  99 139 197 245 299 363 444
#     4  11  24  43  75  99 139 197 245 299 363 444
#
# _framework density 24.715330000000002
#
# number of rings (size 3 to 8) (size 9 to 14) (size 15 to 20)
#    0.000    0.571    5.714    3.429    0.000    2.286 
#    5.143    0.000    0.000    0.000    0.000    0.000 
#    0.000    0.000    0.000    0.000    0.000    0.000 
#
# Total GULP energy -173573.853787 kJ/mol
# GULP energy per Si atom -12398.132413 kJ/mol
# Density = 2.465908 g / cm^3
# Si number density = 24.715330 Si / 1000 Ang^3
#
#
#
# Elastic Constant Matrix: (Units=GPa)
#
#
# Indices 1 2 3 4 5 6 
#
# 1 118.1099 32.6164 8.8606 0.0000 -7.3989 0.0000
# 2 32.6164 123.3439 -7.8798 0.0000 5.2259 0.0000
# 3 8.8606 -7.8798 62.0637 0.0000 -29.6643 0.0000
# 4 0.0000 0.0000 0.0000 17.9805 0.0000 1.4002
# 5 -7.3989 5.2259 -29.6643 0.0000 21.1234 0.0000
# 6 0.0000 0.0000 0.0000 1.4002 0.0000 39.4877
#
#
#
# Elastic Compliance Matrix: (Units=1/GPa)
#
#
# Indices 1 2 3 4 5 6 
#
# 1 0.009460 -0.002667 0.000639 0.000000 0.004870 0.000000
# 2 -0.002667 0.008946 0.000037 0.000000 -0.003095 0.000000
# 3 0.000639 0.000037 0.049056 0.000000 0.069105 0.000000
# 4 0.000000 0.000000 0.000000 0.055770 0.000000 -0.001977
# 5 0.004870 -0.003095 0.069105 0.000000 0.146860 0.000000
# 6 0.000000 0.000000 0.000000 -0.001977 0.000000 0.025394
#
#
# Mechanical properties :
#
#
# Convention : Reuss Voigt Hill
#
# Bulk Modulus (GPa) = 15.75305 41.19021 28.47163
# Shear Modulus (GPa) = 15.59434 33.71302 24.65368
#
# Velocity S-wave (km/s) = 2.51461 3.69732 3.16176
# Velocity P-wave (km/s) = 3.84950 5.91007 4.98736
#
# Compressibility (1/GPa) = 0.06347976
#
# Stress axis : x y z
#
# Youngs Moduli (GPa) = 105.70322 111.77878 20.38488
#
# Poissons Ratio (x) = 0.29814 -0.01302
# Poissons Ratio (y) = 0.28193 -0.00076
# Poissons Ratio (z) = -0.06750 -0.00416
#
# Static dielectric constant tensor:
#      x y z
#    x 4.254230 0.000000 -0.131970 
#    y 0.000000 4.793680 0.000000 
#    z -0.131970 0.000000 3.999930 
# 
# 
# High freq. dielectric constant tensor:
#      x y z
#    x 1.974080 0.000000 -0.012710 
#    y 0.000000 2.008300 0.000000 
#    z -0.012710 0.000000 1.940620 
# 
# From -- ./inp_files/1604.got.cif
#   From: 2010.03.12/outbox.cif.g09.slc.cpg/sg4_1_cif.got.tgz:1604.got - 2010.03.31 09:31:35.
