data_PCOD8047963
_publ_section_title
;
Structure prediction by ZEFSAII (Michael W. Deem and Ramdas Pophale) SiO2 
 PCOD8047963
Probable space group: P 21
;
_chemical_formula_sum "Si O2"
_cell_formula_units_Z 16
_cell_length_a 14.825482
_cell_length_b 5.432774
_cell_length_c 9.712151
_cell_angle_alpha 90.000000
_cell_angle_beta 128.175608
_cell_angle_gamma 90.000000
_cell_volume 614.942887
_symmetry_space_group_name_H-M "P 21"
_symmetry_group_IT_number 4
_symmetry_cell_setting 'monoclinic'
loop_
_space_group_symop_operation_xyz
x,y,z
-x,1/2+y,-z
loop_
_atom_site_type_symbol
_atom_site_label
_atom_site_fract_x
_atom_site_fract_y
_atom_site_fract_z
Si Si1 0.434364 0.555120 0.929615
Si Si2 0.713964 0.985243 0.966847
Si Si3 0.102075 0.850572 0.946825
Si Si4 0.565636 0.055123 0.570386
Si Si5 0.713965 0.985241 0.466848
Si Si6 0.869204 0.646901 0.777951
Si Si7 0.897926 0.350570 0.553176
Si Si8 0.869203 0.646900 0.277951
O O1 0.377223 0.437508 0.739197
O O2 0.504150 0.314337 0.051724
O O3 0.345853 0.640828 0.966673
O O4 0.622776 0.937504 0.760802
O O5 0.758880 0.745605 0.091138
O O6 0.821107 0.107731 0.988831
O O7 0.976140 0.832179 0.897288
O O8 0.081601 0.929103 0.770713
O O9 0.168925 0.047942 0.107701
O O10 0.495843 0.814347 0.448268
O O11 0.654150 0.140826 0.533330
O O12 0.758880 0.745597 0.591135
O O13 0.821109 0.107728 0.488836
O O14 0.918403 0.429104 0.729291
O O15 0.831075 0.547939 0.392299
O O16 0.023860 0.332173 0.602709
#
# Coordination Sequence:
#
# PCOD8047963 Si02
#       8
#     2   2   2   2   2   2   2   2
#     4  12  30  54  80 114 154 208 280 344 396 466
#     4  12  28  50  78 112 152 214 254 328 412 466
#     4  12  26  45  73 114 162 205 254 312 394 493
#     4  12  30  54  80 114 154 208 280 344 396 466
#     4  12  28  50  78 112 152 214 254 328 412 466
#     4  12  26  45  73 114 162 205 254 312 394 493
#     4  12  26  45  73 114 162 205 254 312 394 493
#     4  12  26  45  73 114 162 205 254 312 394 493
#
# _framework density 26.018675000000002
#
# number of rings (size 3 to 8) (size 9 to 14) (size 15 to 20)
#    0.000    0.000    2.500    6.000   14.000    0.000 
#    0.000    0.000    0.000    0.000    0.000    0.000 
#    0.000    0.000    0.000    0.000    0.000    0.000 
#
# Total GULP energy -198280.948957 kJ/mol
# GULP energy per Si atom -12392.559310 kJ/mol
# Density = 2.595946 g / cm^3
# Si number density = 26.018675 Si / 1000 Ang^3
#
#
#
# Elastic Constant Matrix: (Units=GPa)
#
#
# Indices 1 2 3 4 5 6 
#
# 1 85.8102 -0.6773 15.7900 0.0000 -17.9246 0.0000
# 2 -0.6773 87.8508 24.2649 0.0000 8.6374 0.0000
# 3 15.7900 24.2649 149.4746 0.0000 -17.8463 0.0000
# 4 0.0000 0.0000 0.0000 39.3806 0.0000 -16.2950
# 5 -17.9246 8.6374 -17.8463 0.0000 34.7677 0.0000
# 6 0.0000 0.0000 0.0000 -16.2950 0.0000 30.1950
#
#
#
# Elastic Compliance Matrix: (Units=1/GPa)
#
#
# Indices 1 2 3 4 5 6 
#
# 1 0.013126 -0.000399 -0.000535 0.000000 0.006592 0.000000
# 2 -0.000399 0.012538 -0.002546 0.000000 -0.004627 0.000000
# 3 -0.000535 -0.002546 0.007673 0.000000 0.004295 0.000000
# 4 0.000000 0.000000 0.000000 0.032694 0.000000 0.017644
# 5 0.006592 -0.004627 0.004295 0.000000 0.035515 0.000000
# 6 0.000000 0.000000 0.000000 0.017644 0.000000 0.042640
#
#
# Mechanical properties :
#
#
# Convention : Reuss Voigt Hill
#
# Bulk Modulus (GPa) = 37.91154 44.65453 41.28303
# Shear Modulus (GPa) = 31.26242 39.78585 35.52414
#
# Velocity S-wave (km/s) = 3.47008 3.91465 3.69905
# Velocity P-wave (km/s) = 5.53695 6.13452 5.84338
#
# Compressibility (1/GPa) = 0.02637719
#
# Stress axis : x y z
#
# Youngs Moduli (GPa) = 76.18583 79.75796 130.33326
#
# Poissons Ratio (x) = 0.03184 0.06970
# Poissons Ratio (y) = 0.03041 0.33178
# Poissons Ratio (z) = 0.04074 0.20303
#
# Static dielectric constant tensor:
#      x y z
#    x 4.854700 0.000000 0.001840 
#    y 0.000000 4.332910 0.000000 
#    z 0.001840 0.000000 4.914740 
# 
# 
# High freq. dielectric constant tensor:
#      x y z
#    x 2.045840 0.000000 -0.014110 
#    y 0.000000 2.022470 0.000000 
#    z -0.014110 0.000000 2.061240 
# 
# From -- ./inp_files/9005.got.cif
#   From: 2010.03.12/outbox.cif.g09.slc.cpg/sg4_5_cif.got.tgz:9005.got - 2010.03.31 09:31:35.
