data_PCOD8047406
_publ_section_title
;
Structure prediction by ZEFSAII (Michael W. Deem and Ramdas Pophale) SiO2 
 PCOD8047406
Probable space group: P 21
;
_chemical_formula_sum "Si O2"
_cell_formula_units_Z 16
_cell_length_a 17.250475
_cell_length_b 5.101942
_cell_length_c 9.177695
_cell_angle_alpha 90.000000
_cell_angle_beta 50.690750
_cell_angle_gamma 90.000000
_cell_volume 624.977081
_symmetry_space_group_name_H-M "P 21"
_symmetry_group_IT_number 4
_symmetry_cell_setting 'monoclinic'
loop_
_space_group_symop_operation_xyz
x,y,z
-x,1/2+y,-z
loop_
_atom_site_type_symbol
_atom_site_label
_atom_site_fract_x
_atom_site_fract_y
_atom_site_fract_z
Si Si1 0.436652 0.077220 0.098641
Si Si2 0.257420 0.660103 0.731881
Si Si3 0.420358 0.308916 0.411801
Si Si4 0.019656 0.056486 0.070053
Si Si5 0.777960 0.749835 0.690312
Si Si6 0.807604 0.779822 0.976376
Si Si7 0.162848 0.748951 0.553703
Si Si8 0.603529 0.553363 0.277150
O O1 0.334713 0.149549 0.134055
O O2 0.402343 0.096573 0.308368
O O3 0.527457 0.280090 0.964129
O O4 0.175455 0.535157 0.941322
O O5 0.200832 0.823602 0.673012
O O6 0.337931 0.803449 0.733430
O O7 0.314503 0.443027 0.566182
O O8 0.458646 0.172525 0.513950
O O9 0.518413 0.492157 0.254613
O O10 0.949549 0.143029 0.289511
O O11 0.987614 0.771513 0.050974
O O12 0.131063 0.048696 0.012488
O O13 0.773891 0.020693 0.603835
O O14 0.836757 0.517239 0.537890
O O15 0.837363 0.808554 0.771360
O O16 0.687258 0.746551 0.116583
#
# Coordination Sequence:
#
# PCOD8047406 Si02
#       8
#     2   2   2   2   2   2   2   2
#     4  12  27  43  68  98 146 196 243 286 362 433
#     4  11  23  44  71 100 140 191 244 306 363 432
#     4  11  23  39  66  99 137 189 243 296 351 438
#     4  12  26  49  81 113 141 187 248 309 370 448
#     4  12  28  48  71 108 153 191 242 304 373 442
#     4  11  28  45  72 108 143 187 244 312 370 438
#     4  12  26  48  76 104 147 195 242 301 380 440
#     4  11  23  40  69 100 141 184 246 302 365 415
#
# _framework density 25.600936000000001
#
# number of rings (size 3 to 8) (size 9 to 14) (size 15 to 20)
#    0.000    0.500    3.750    3.750    7.000    1.000 
#    0.000    0.000    0.000    0.000    0.000    0.000 
#    0.000    0.000    0.000    0.000    0.000    0.000 
#
# Total GULP energy -198306.956709 kJ/mol
# GULP energy per Si atom -12394.184794 kJ/mol
# Density = 2.554267 g / cm^3
# Si number density = 25.600936 Si / 1000 Ang^3
#
#
#
# Elastic Constant Matrix: (Units=GPa)
#
#
# Indices 1 2 3 4 5 6 
#
# 1 92.4171 -6.1956 7.9631 0.0000 16.8046 0.0000
# 2 -6.1956 77.8952 10.3716 0.0000 16.0034 0.0000
# 3 7.9631 10.3716 73.7895 0.0000 12.7289 0.0000
# 4 0.0000 0.0000 0.0000 30.6491 0.0000 -3.1433
# 5 16.8046 16.0034 12.7289 0.0000 47.0434 0.0000
# 6 0.0000 0.0000 0.0000 -3.1433 0.0000 31.0295
#
#
#
# Elastic Compliance Matrix: (Units=1/GPa)
#
#
# Indices 1 2 3 4 5 6 
#
# 1 0.011880 0.002016 -0.000750 0.000000 -0.004726 0.000000
# 2 0.002016 0.014244 -0.001321 0.000000 -0.005208 0.000000
# 3 -0.000750 -0.001321 0.014365 0.000000 -0.003170 0.000000
# 4 0.000000 0.000000 0.000000 0.032970 0.000000 0.003340
# 5 -0.004726 -0.005208 -0.003170 0.000000 0.025575 0.000000
# 6 0.000000 0.000000 0.000000 0.003340 0.000000 0.032566
#
#
# Mechanical properties :
#
#
# Convention : Reuss Voigt Hill
#
# Bulk Modulus (GPa) = 24.76580 29.82001 27.29290
# Shear Modulus (GPa) = 34.44242 37.20858 35.82550
#
# Velocity S-wave (km/s) = 3.67189 3.81649 3.74489
# Velocity P-wave (km/s) = 5.26040 5.57621 5.42061
#
# Compressibility (1/GPa) = 0.04037827
#
# Stress axis : x y z
#
# Youngs Moduli (GPa) = 84.17728 70.20497 69.61128
#
# Poissons Ratio (x) = -0.14152 0.05221
# Poissons Ratio (y) = -0.16968 0.09197
# Poissons Ratio (z) = 0.06314 0.09276
#
# Static dielectric constant tensor:
#      x y z
#    x 4.813470 0.000000 -0.102660 
#    y 0.000000 4.459720 0.000000 
#    z -0.102660 0.000000 4.839260 
# 
# 
# High freq. dielectric constant tensor:
#      x y z
#    x 2.022600 0.000000 0.002900 
#    y 0.000000 2.013830 0.000000 
#    z 0.002900 0.000000 2.031590 
# 
# From -- ./inp_files/8644.got.cif
#   From: 2010.03.12/outbox.cif.g09.slc.cpg/sg4_5_cif.got.tgz:8644.got - 2010.03.31 09:31:35.
