data_PCOD8047369
_publ_section_title
;
Structure prediction by ZEFSAII (Michael W. Deem and Ramdas Pophale) SiO2 
 PCOD8047369
Probable space group: P 21
;
_chemical_formula_sum "Si O2"
_cell_formula_units_Z 16
_cell_length_a 13.162635
_cell_length_b 7.934857
_cell_length_c 12.123768
_cell_angle_alpha 90.000000
_cell_angle_beta 30.313049
_cell_angle_gamma 90.000000
_cell_volume 639.107228
_symmetry_space_group_name_H-M "P 21"
_symmetry_group_IT_number 4
_symmetry_cell_setting 'monoclinic'
loop_
_space_group_symop_operation_xyz
x,y,z
-x,1/2+y,-z
loop_
_atom_site_type_symbol
_atom_site_label
_atom_site_fract_x
_atom_site_fract_y
_atom_site_fract_z
Si Si1 0.598407 0.125000 0.167030
Si Si2 0.089274 0.427355 0.263552
Si Si3 0.479357 0.447280 0.539985
Si Si4 0.713177 0.476205 0.112310
Si Si5 0.684592 0.451680 0.728606
Si Si6 0.087267 0.273033 0.845382
Si Si7 0.117351 0.884488 0.754985
Si Si8 0.598635 0.666208 0.009975
O O1 0.578122 0.324809 0.189599
O O2 0.395849 0.052113 0.303232
O O3 0.626913 0.064797 0.268232
O O4 0.789157 0.075078 0.912403
O O5 0.245528 0.307411 0.179604
O O6 0.925164 0.484556 0.508579
O O7 0.948828 0.331043 0.305105
O O8 0.618033 0.544432 0.317306
O O9 0.316048 0.340316 0.625405
O O10 0.648135 0.333730 0.445320
O O11 0.690538 0.622112 0.043663
O O12 0.938611 0.401576 0.918970
O O13 0.588382 0.515078 0.933373
O O14 0.620872 0.254650 0.777184
O O15 0.079863 0.086049 0.803701
O O16 0.020325 0.270152 0.036101
#
# Coordination Sequence:
#
# PCOD8047369 Si02
#       8
#     2   2   2   2   2   2   2   2
#     4  11  22  44  72 103 142 181 235 289 341 418
#     4  11  24  45  72 100 135 183 228 290 352 411
#     4  11  23  38  67 106 144 190 229 272 342 409
#     4  11  25  42  68 105 141 190 234 285 346 409
#     4  11  26  50  75 101 135 179 230 299 356 411
#     4  11  23  41  63  98 146 184 227 278 329 413
#     4  11  23  41  65  98 139 187 229 276 342 399
#     4  11  28  49  72 105 136 178 238 293 350 426
#
# _framework density 25.034922999999999
#
# number of rings (size 3 to 8) (size 9 to 14) (size 15 to 20)
#    0.000    1.000    3.750    1.500    3.500    7.000 
#    0.000    0.000    0.000    0.000    0.000    0.000 
#    0.000    0.000    0.000    0.000    0.000    0.000 
#
# Total GULP energy -198328.489679 kJ/mol
# GULP energy per Si atom -12395.530605 kJ/mol
# Density = 2.497794 g / cm^3
# Si number density = 25.034923 Si / 1000 Ang^3
#
#
#
# Elastic Constant Matrix: (Units=GPa)
#
#
# Indices 1 2 3 4 5 6 
#
# 1 69.1299 7.1045 13.1093 0.0000 3.3146 0.0000
# 2 7.1045 44.1644 25.3227 0.0000 -1.3273 0.0000
# 3 13.1093 25.3227 122.2621 0.0000 -17.3924 0.0000
# 4 0.0000 0.0000 0.0000 24.4250 0.0000 3.6597
# 5 3.3146 -1.3273 -17.3924 0.0000 43.7256 0.0000
# 6 0.0000 0.0000 0.0000 3.6597 0.0000 39.3676
#
#
#
# Elastic Compliance Matrix: (Units=1/GPa)
#
#
# Indices 1 2 3 4 5 6 
#
# 1 0.015006 -0.001587 -0.001536 0.000000 -0.001797 0.000000
# 2 -0.001587 0.025945 -0.005379 0.000000 -0.001232 0.000000
# 3 -0.001536 -0.005379 0.010018 0.000000 0.003938 0.000000
# 4 0.000000 0.000000 0.000000 0.041520 0.000000 -0.003860
# 5 -0.001797 -0.001232 0.003938 0.000000 0.024535 0.000000
# 6 0.000000 0.000000 0.000000 -0.003860 0.000000 0.025760
#
#
# Mechanical properties :
#
#
# Convention : Reuss Voigt Hill
#
# Bulk Modulus (GPa) = 29.44171 36.29217 32.86694
# Shear Modulus (GPa) = 29.22097 34.17162 31.69629
#
# Velocity S-wave (km/s) = 3.42015 3.69854 3.56207
# Velocity P-wave (km/s) = 5.23281 5.72425 5.48404
#
# Compressibility (1/GPa) = 0.03396542
#
# Stress axis : x y z
#
# Youngs Moduli (GPa) = 66.63992 38.54310 99.82000
#
# Poissons Ratio (x) = 0.06118 0.15330
# Poissons Ratio (y) = 0.10578 0.53690
# Poissons Ratio (z) = 0.10235 0.20731
#
# Static dielectric constant tensor:
#      x y z
#    x 4.608780 0.000000 -0.224340 
#    y 0.000000 4.129440 0.000000 
#    z -0.224340 0.000000 4.625770 
# 
# 
# High freq. dielectric constant tensor:
#      x y z
#    x 2.002040 0.000000 -0.015700 
#    y 0.000000 1.973400 0.000000 
#    z -0.015700 0.000000 1.998760 
# 
# From -- ./inp_files/12652.got.cif
#   From: 2010.03.12/outbox.cif.g09.slc.cpg/sg4_7_cif.got.tgz:12652.got - 2010.03.31 09:31:35.
