data_PCOD8047662
_publ_section_title
;
Structure prediction by ZEFSAII (Michael W. Deem and Ramdas Pophale) SiO2 
 PCOD8047662
Probable space group: P 21
;
_chemical_formula_sum "Si O2"
_cell_formula_units_Z 12
_cell_length_a 6.057539
_cell_length_b 9.649703
_cell_length_c 8.800863
_cell_angle_alpha 90.000000
_cell_angle_beta 73.494166
_cell_angle_gamma 90.000000
_cell_volume 493.241136
_symmetry_space_group_name_H-M "P 21"
_symmetry_group_IT_number 4
_symmetry_cell_setting 'monoclinic'
loop_
_space_group_symop_operation_xyz
x,y,z
-x,1/2+y,-z
loop_
_atom_site_type_symbol
_atom_site_label
_atom_site_fract_x
_atom_site_fract_y
_atom_site_fract_z
Si Si1 0.474728 0.885400 0.035417
Si Si2 0.635561 0.828614 0.340121
Si Si3 0.070092 0.489249 0.154812
Si Si4 0.265203 0.044449 0.524263
Si Si5 0.130505 0.725796 0.940714
Si Si6 0.043841 0.022422 0.258262
O O1 0.575945 0.825792 0.172895
O O2 0.257941 0.984571 0.109383
O O3 0.392281 0.757901 0.943236
O O4 0.652856 0.973527 0.897211
O O5 0.618724 0.675272 0.414958
O O6 0.455460 0.926647 0.463420
O O7 0.893110 0.885503 0.319754
O O8 0.941467 0.474500 0.338506
O O9 0.002192 0.368539 0.051491
O O10 0.003684 0.639064 0.098819
O O11 0.144738 0.090441 0.391340
O O12 0.126125 0.634420 0.788080
#
# Coordination Sequence:
#
# PCOD8047662 Si02
#       6
#     2   2   2   2   2   2
#     4  11  24  47  79 106 153 194 255 316 369 447
#     4  11  26  53  75 113 153 201 251 311 379 449
#     4  12  27  46  78 116 147 197 257 308 381 445
#     4  11  29  48  82 110 155 201 250 312 378 453
#     4  12  26  48  76 111 150 199 251 314 373 447
#     4  11  26  50  72 108 156 198 246 315 376 449
#
# _framework density 24.328866999999999
#
# number of rings (size 3 to 8) (size 9 to 14) (size 15 to 20)
#    0.000    0.667    3.333    2.000    7.000    5.333 
#    0.000    0.000    0.000    0.000    0.000    0.000 
#    0.000    0.000    0.000    0.000    0.000    0.000 
#
# Total GULP energy -148778.975952 kJ/mol
# GULP energy per Si atom -12398.247996 kJ/mol
# Density = 2.427349 g / cm^3
# Si number density = 24.328867 Si / 1000 Ang^3
#
#
#
# Elastic Constant Matrix: (Units=GPa)
#
#
# Indices 1 2 3 4 5 6 
#
# 1 126.6930 66.2673 81.6306 0.0000 -4.9902 0.0000
# 2 66.2673 120.0954 41.9478 0.0000 0.9629 0.0000
# 3 81.6306 41.9478 120.8939 0.0000 -18.0094 0.0000
# 4 0.0000 0.0000 0.0000 35.9165 0.0000 8.0253
# 5 -4.9902 0.9629 -18.0094 0.0000 50.1689 0.0000
# 6 0.0000 0.0000 0.0000 8.0253 0.0000 50.5255
#
#
#
# Elastic Compliance Matrix: (Units=1/GPa)
#
#
# Indices 1 2 3 4 5 6 
#
# 1 0.017395 -0.006138 -0.009868 0.000000 -0.001694 0.000000
# 2 -0.006138 0.011740 -0.000057 0.000000 -0.000856 0.000000
# 3 -0.009868 -0.000057 0.015645 0.000000 0.004636 0.000000
# 4 0.000000 0.000000 0.000000 0.028867 0.000000 -0.004585
# 5 -0.001694 -0.000856 0.004636 0.000000 0.021445 0.000000
# 6 0.000000 0.000000 0.000000 -0.004585 0.000000 0.020520
#
#
# Mechanical properties :
#
#
# Convention : Reuss Voigt Hill
#
# Bulk Modulus (GPa) = 79.02144 83.04151 81.03148
# Shear Modulus (GPa) = 32.90408 39.17794 36.04101
#
# Velocity S-wave (km/s) = 3.68158 4.01727 3.85308
# Velocity P-wave (km/s) = 7.11499 7.46491 7.29205
#
# Compressibility (1/GPa) = 0.01265479
#
# Stress axis : x y z
#
# Youngs Moduli (GPa) = 57.48708 85.17710 63.91698
#
# Poissons Ratio (x) = 0.52282 0.63075
# Poissons Ratio (y) = 0.35286 0.00362
# Poissons Ratio (z) = 0.56730 0.00482
#
# Static dielectric constant tensor:
#      x y z
#    x 4.691230 0.000000 0.054120 
#    y 0.000000 4.392750 0.000000 
#    z 0.054120 0.000000 4.297470 
# 
# 
# High freq. dielectric constant tensor:
#      x y z
#    x 1.976340 0.000000 0.000420 
#    y 0.000000 1.970540 0.000000 
#    z 0.000420 0.000000 1.962680 
# 
# From -- ./inp_files/1034.got.cif
#   From: 2010.03.12/outbox.cif.g09.slc.cpg/sg4_1_cif.got.tgz:1034.got - 2010.03.31 09:31:35.
