data_PCOD8047041
_publ_section_title
;
Structure prediction by ZEFSAII (Michael W. Deem and Ramdas Pophale) SiO2 
 PCOD8047041
Probable space group: P 21
;
_chemical_formula_sum "Si O2"
_cell_formula_units_Z 12
_cell_length_a 15.938736
_cell_length_b 5.411824
_cell_length_c 9.701128
_cell_angle_alpha 90.000000
_cell_angle_beta 38.130314
_cell_angle_gamma 90.000000
_cell_volume 516.681696
_symmetry_space_group_name_H-M "P 21"
_symmetry_group_IT_number 4
_symmetry_cell_setting 'monoclinic'
loop_
_space_group_symop_operation_xyz
x,y,z
-x,1/2+y,-z
loop_
_atom_site_type_symbol
_atom_site_label
_atom_site_fract_x
_atom_site_fract_y
_atom_site_fract_z
Si Si1 0.660148 0.776330 0.699494
Si Si2 0.597624 0.547306 0.050726
Si Si3 0.079897 0.484644 0.736684
Si Si4 0.930875 0.983149 0.923664
Si Si5 0.673657 0.220383 0.181687
Si Si6 0.584680 0.440695 0.563003
O O1 0.767998 0.991080 0.523762
O O2 0.677393 0.559241 0.563231
O O3 0.504238 0.865069 0.898994
O O4 0.687983 0.685599 0.819421
O O5 0.701413 0.399697 0.015662
O O6 0.505652 0.720372 0.263647
O O7 0.002913 0.730093 0.781693
O O8 0.090446 0.483018 0.886289
O O9 0.010292 0.230995 0.773935
O O10 0.783057 0.997753 0.039964
O O11 0.690087 0.358619 0.307930
O O12 0.517315 0.138173 0.372921
#
# Coordination Sequence:
#
# PCOD8047041 Si02
#       6
#     2   2   2   2   2   2
#     4  11  24  41  69 103 138 183 238 285 363 434
#     4  11  23  41  66 103 141 181 226 299 358 426
#     4  10  24  41  71 102 136 189 236 293 347 415
#     4  10  24  43  67 104 139 182 240 296 344 415
#     4  11  24  39  68 104 141 182 233 292 363 419
#     4  11  23  39  67 104 139 181 225 299 359 421
#
# _framework density 23.225131000000001
#
# number of rings (size 3 to 8) (size 9 to 14) (size 15 to 20)
#    0.000    1.333    3.333    1.000   14.000    0.000 
#    0.000    0.000    3.667    0.000    0.000    0.000 
#    0.000    0.000    0.000    0.000    0.000    0.000 
#
# Total GULP energy -148822.016025 kJ/mol
# GULP energy per Si atom -12401.834669 kJ/mol
# Density = 2.317227 g / cm^3
# Si number density = 23.225131 Si / 1000 Ang^3
#
#
#
# Elastic Constant Matrix: (Units=GPa)
#
#
# Indices 1 2 3 4 5 6 
#
# 1 80.6548 43.5665 50.8772 0.0000 7.6208 0.0000
# 2 43.5665 133.4513 42.2729 0.0000 3.5332 0.0000
# 3 50.8772 42.2729 86.0351 0.0000 3.2962 0.0000
# 4 0.0000 0.0000 0.0000 37.8070 0.0000 -5.0079
# 5 7.6208 3.5332 3.2962 0.0000 34.4222 0.0000
# 6 0.0000 0.0000 0.0000 -5.0079 0.0000 39.4359
#
#
#
# Elastic Compliance Matrix: (Units=1/GPa)
#
#
# Indices 1 2 3 4 5 6 
#
# 1 0.021426 -0.003474 -0.010835 0.000000 -0.003349 0.000000
# 2 -0.003474 0.009446 -0.002589 0.000000 0.000047 0.000000
# 3 -0.010835 -0.002589 0.019271 0.000000 0.000819 0.000000
# 4 0.000000 0.000000 0.000000 0.026903 0.000000 0.003416
# 5 -0.003349 0.000047 0.000819 0.000000 0.029709 0.000000
# 6 0.000000 0.000000 0.000000 0.003416 0.000000 0.025791
#
#
# Mechanical properties :
#
#
# Convention : Reuss Voigt Hill
#
# Bulk Modulus (GPa) = 61.17065 63.73048 62.45056
# Shear Modulus (GPa) = 29.10480 33.22801 31.16640
#
# Velocity S-wave (km/s) = 3.54384 3.78655 3.66720
# Velocity P-wave (km/s) = 6.56813 6.82768 6.69916
#
# Compressibility (1/GPa) = 0.01634771
#
# Stress axis : x y z
#
# Youngs Moduli (GPa) = 46.67132 105.86179 51.89047
#
# Poissons Ratio (x) = 0.36775 0.56225
# Poissons Ratio (y) = 0.16213 0.13434
# Poissons Ratio (z) = 0.50570 0.27406
#
# Static dielectric constant tensor:
#      x y z
#    x 4.179730 0.000000 -0.048590 
#    y 0.000000 4.430790 0.000000 
#    z -0.048590 0.000000 3.896220 
# 
# 
# High freq. dielectric constant tensor:
#      x y z
#    x 1.905140 0.000000 0.001890 
#    y 0.000000 1.926690 0.000000 
#    z 0.001890 0.000000 1.895310 
# 
# From -- ./inp_files/7040.got.cif
#   From: 2010.03.12/outbox.cif.g09.slc.cpg/sg4_4_cif.got.tgz:7040.got - 2010.03.31 09:31:35.
