data_PCOD8047897
_publ_section_title
;
Structure prediction by ZEFSAII (Michael W. Deem and Ramdas Pophale) SiO2 
 PCOD8047897
Probable space group: P 21
;
_chemical_formula_sum "Si O2"
_cell_formula_units_Z 14
_cell_length_a 15.558883
_cell_length_b 5.689031
_cell_length_c 9.772385
_cell_angle_alpha 90.000000
_cell_angle_beta 142.795385
_cell_angle_gamma 90.000000
_cell_volume 523.035146
_symmetry_space_group_name_H-M "P 21"
_symmetry_group_IT_number 4
_symmetry_cell_setting 'monoclinic'
loop_
_space_group_symop_operation_xyz
x,y,z
-x,1/2+y,-z
loop_
_atom_site_type_symbol
_atom_site_label
_atom_site_fract_x
_atom_site_fract_y
_atom_site_fract_z
Si Si1 0.844491 0.837710 0.691675
Si Si2 0.390634 0.628021 0.511249
Si Si3 0.960961 0.332958 0.522093
Si Si4 0.698248 0.569808 0.268651
Si Si5 0.106952 0.128843 0.950252
Si Si6 0.423311 0.442178 0.067504
Si Si7 0.650032 0.316754 0.825679
O O1 0.781042 0.648000 0.508827
O O2 0.000272 0.911829 0.841346
O O3 0.740964 0.065240 0.556324
O O4 0.843330 0.732869 0.842742
O O5 0.482126 0.838577 0.689088
O O6 0.487546 0.399099 0.618906
O O7 0.320169 0.681722 0.276647
O O8 0.789547 0.351705 0.325279
O O9 0.010369 0.580826 0.514854
O O10 0.036124 0.329151 0.766514
O O11 0.533391 0.510123 0.086563
O O12 0.694049 0.768392 0.144787
O O13 0.239142 0.031421 0.028627
O O14 0.333687 0.655887 0.018924
#
# Coordination Sequence:
#
# PCOD8047897 Si02
#       7
#     2   2   2   2   2   2   2
#     4  12  25  51  80 121 164 215 284 348 424 513
#     4  12  24  49  78 117 161 208 277 348 423 500
#     4  12  31  57  85 122 173 224 282 355 424 517
#     4  12  28  52  80 116 163 220 282 349 428 503
#     4  12  28  49  84 124 163 220 276 351 429 502
#     4  12  28  50  79 117 161 218 282 351 425 511
#     4  12  26  48  80 123 163 215 281 350 423 508
#
# _framework density 26.766846000000001
#
# number of rings (size 3 to 8) (size 9 to 14) (size 15 to 20)
#    0.000    0.000    2.857    6.000    2.000    5.714 
#    0.000    0.000    0.000    0.000    0.000    0.000 
#    0.000    0.000    0.000    0.000    0.000    0.000 
#
# Total GULP energy -173633.553771 kJ/mol
# GULP energy per Si atom -12402.396698 kJ/mol
# Density = 2.670592 g / cm^3
# Si number density = 26.766846 Si / 1000 Ang^3
#
#
#
# Elastic Constant Matrix: (Units=GPa)
#
#
# Indices 1 2 3 4 5 6 
#
# 1 110.8811 43.6977 41.7878 0.0000 -9.4067 0.0000
# 2 43.6977 114.8524 44.8105 0.0000 -11.6675 0.0000
# 3 41.7878 44.8105 139.3634 0.0000 -16.1917 0.0000
# 4 0.0000 0.0000 0.0000 57.9394 0.0000 -0.4241
# 5 -9.4067 -11.6675 -16.1917 0.0000 33.3592 0.0000
# 6 0.0000 0.0000 0.0000 -0.4241 0.0000 57.6251
#
#
#
# Elastic Compliance Matrix: (Units=1/GPa)
#
#
# Indices 1 2 3 4 5 6 
#
# 1 0.011234 -0.003324 -0.002190 0.000000 0.000942 0.000000
# 2 -0.003324 0.011072 -0.002355 0.000000 0.001792 0.000000
# 3 -0.002190 -0.002355 0.008925 0.000000 0.002891 0.000000
# 4 0.000000 0.000000 0.000000 0.017260 0.000000 0.000127
# 5 0.000942 0.001792 0.002891 0.000000 0.032272 0.000000
# 6 0.000000 0.000000 0.000000 0.000127 0.000000 0.017354
#
#
# Mechanical properties :
#
#
# Convention : Reuss Voigt Hill
#
# Bulk Modulus (GPa) = 64.54587 69.52099 67.03343
# Shear Modulus (GPa) = 42.00894 45.43814 43.72354
#
# Velocity S-wave (km/s) = 3.96591 4.12461 4.04604
# Velocity P-wave (km/s) = 6.71846 6.97942 6.85019
#
# Compressibility (1/GPa) = 0.01549286
#
# Stress axis : x y z
#
# Youngs Moduli (GPa) = 89.01558 90.31405 112.03967
#
# Poissons Ratio (x) = 0.30020 0.24540
# Poissons Ratio (y) = 0.29588 0.26389
# Poissons Ratio (z) = 0.19497 0.21272
#
# Static dielectric constant tensor:
#      x y z
#    x 5.146620 0.000000 0.065450 
#    y 0.000000 4.766650 0.000000 
#    z 0.065450 0.000000 4.872370 
# 
# 
# High freq. dielectric constant tensor:
#      x y z
#    x 2.090620 0.000000 -0.001680 
#    y 0.000000 2.071990 0.000000 
#    z -0.001680 0.000000 2.092210 
# 
# From -- ./inp_files/9095.got.cif
#   From: 2010.03.12/outbox.cif.g09.slc.cpg/sg4_5_cif.got.tgz:9095.got - 2010.03.31 09:31:35.
