data_PCOD8047446
_publ_section_title
;
Structure prediction by ZEFSAII (Michael W. Deem and Ramdas Pophale) SiO2 
 PCOD8047446
Probable space group: P 21
;
_chemical_formula_sum "Si O2"
_cell_formula_units_Z 16
_cell_length_a 8.525461
_cell_length_b 8.481350
_cell_length_c 12.664823
_cell_angle_alpha 90.000000
_cell_angle_beta 129.505415
_cell_angle_gamma 90.000000
_cell_volume 706.568382
_symmetry_space_group_name_H-M "P 21"
_symmetry_group_IT_number 4
_symmetry_cell_setting 'monoclinic'
loop_
_space_group_symop_operation_xyz
x,y,z
-x,1/2+y,-z
loop_
_atom_site_type_symbol
_atom_site_label
_atom_site_fract_x
_atom_site_fract_y
_atom_site_fract_z
Si Si1 0.120582 0.558170 0.165208
Si Si2 0.368004 0.786962 0.398173
Si Si3 0.790085 0.755791 0.924678
Si Si4 0.882316 0.220538 0.396752
Si Si5 0.239582 0.938579 0.844671
Si Si6 0.978139 0.906771 0.348574
Si Si7 0.391599 0.270671 0.927325
Si Si8 0.502371 0.599237 0.647937
O O1 0.317344 0.636264 0.303648
O O2 0.200939 0.427124 0.121362
O O3 0.969706 0.484828 0.188059
O O4 0.011618 0.694380 0.051194
O O5 0.154664 0.859572 0.344107
O O6 0.504315 0.724501 0.552862
O O7 0.496111 0.918760 0.390994
O O8 0.699993 0.630954 0.802912
O O9 0.646356 0.767948 0.963961
O O10 0.807093 0.354459 0.285139
O O11 0.018423 0.299535 0.545351
O O12 0.697423 0.123729 0.368239
O O13 0.014887 0.090396 0.391684
O O14 0.367615 0.095476 0.870061
O O15 0.376076 0.832513 0.983517
O O16 0.761578 0.887792 0.198329
#
# Coordination Sequence:
#
# PCOD8047446 Si02
#       8
#     2   2   2   2   2   2   2   2
#     4  11  25  43  69  96 135 177 223 276 333 399
#     4  11  24  47  68  96 136 176 223 279 333 393
#     4  11  23  43  65  99 131 175 224 270 333 400
#     4  11  25  43  69 100 132 175 223 276 333 402
#     4  11  23  44  67  98 134 173 221 276 332 394
#     4  11  24  43  68  97 133 175 223 273 336 396
#     4  11  23  43  65  97 136 172 218 277 329 393
#     4  11  25  44  67  99 135 173 227 275 333 399
#
# _framework density 22.644658
#
# number of rings (size 3 to 8) (size 9 to 14) (size 15 to 20)
#    0.000    1.000    3.750    3.000    5.250    2.000 
#    2.250    0.000    0.000    0.000    0.000    0.000 
#    0.000    0.000    0.000    0.000    0.000    0.000 
#
# Total GULP energy -198492.225031 kJ/mol
# GULP energy per Si atom -12405.764064 kJ/mol
# Density = 2.259312 g / cm^3
# Si number density = 22.644658 Si / 1000 Ang^3
#
#
#
# Elastic Constant Matrix: (Units=GPa)
#
#
# Indices 1 2 3 4 5 6 
#
# 1 46.1509 41.6029 29.4106 0.0000 -10.8190 0.0000
# 2 41.6029 126.1479 24.7339 0.0000 -21.2289 0.0000
# 3 29.4106 24.7339 118.9304 0.0000 -13.9279 0.0000
# 4 0.0000 0.0000 0.0000 51.3588 0.0000 -7.3124
# 5 -10.8190 -21.2289 -13.9279 0.0000 23.3718 0.0000
# 6 0.0000 0.0000 0.0000 -7.3124 0.0000 44.9277
#
#
#
# Elastic Compliance Matrix: (Units=1/GPa)
#
#
# Indices 1 2 3 4 5 6 
#
# 1 0.035385 -0.009812 -0.006273 0.000000 0.003729 0.000000
# 2 -0.009812 0.012196 0.000705 0.000000 0.006955 0.000000
# 3 -0.006273 0.000705 0.010264 0.000000 0.003853 0.000000
# 4 0.000000 0.000000 0.000000 0.019933 0.000000 0.003244
# 5 0.003729 0.006955 0.003853 0.000000 0.053126 0.000000
# 6 0.000000 0.000000 0.000000 0.003244 0.000000 0.022786
#
#
# Mechanical properties :
#
#
# Convention : Reuss Voigt Hill
#
# Bulk Modulus (GPa) = 36.92270 53.63599 45.27935
# Shear Modulus (GPa) = 25.84253 36.96379 31.40316
#
# Velocity S-wave (km/s) = 3.38186 4.04461 3.72799
# Velocity P-wave (km/s) = 5.62049 6.74901 6.21044
#
# Compressibility (1/GPa) = 0.02708361
#
# Stress axis : x y z
#
# Youngs Moduli (GPa) = 28.26031 81.99732 97.42565
#
# Poissons Ratio (x) = 0.80458 0.61116
# Poissons Ratio (y) = 0.27730 -0.06866
# Poissons Ratio (z) = 0.17728 -0.05779
#
# Static dielectric constant tensor:
#      x y z
#    x 3.829760 0.000000 -0.041560 
#    y 0.000000 4.216820 0.000000 
#    z -0.041560 0.000000 4.269640 
# 
# 
# High freq. dielectric constant tensor:
#      x y z
#    x 1.869480 0.000000 -0.004570 
#    y 0.000000 1.905050 0.000000 
#    z -0.004570 0.000000 1.912370 
# 
# From -- ./inp_files/5682.got.cif
#   From: 2010.03.12/outbox.cif.g09.slc.cpg/sg4_3_cif.got.tgz:5682.got - 2010.03.31 09:31:35.
