data_PCOD8047032
_publ_section_title
;
Structure prediction by ZEFSAII (Michael W. Deem and Ramdas Pophale) SiO2 
 PCOD8047032
Probable space group: P 21
;
_chemical_formula_sum "Si O2"
_cell_formula_units_Z 16
_cell_length_a 15.259411
_cell_length_b 5.379713
_cell_length_c 21.742439
_cell_angle_alpha 90.000000
_cell_angle_beta 157.860772
_cell_angle_gamma 90.000000
_cell_volume 672.641236
_symmetry_space_group_name_H-M "P 21"
_symmetry_group_IT_number 4
_symmetry_cell_setting 'monoclinic'
loop_
_space_group_symop_operation_xyz
x,y,z
-x,1/2+y,-z
loop_
_atom_site_type_symbol
_atom_site_label
_atom_site_fract_x
_atom_site_fract_y
_atom_site_fract_z
Si Si1 0.287532 0.208080 0.675881
Si Si2 0.121466 0.587556 0.764963
Si Si3 0.800991 0.000655 0.556145
Si Si4 0.180724 0.712043 0.554974
Si Si5 0.127090 0.195036 0.865197
Si Si6 0.485340 0.380044 0.921327
Si Si7 0.260691 0.094517 0.210475
Si Si8 0.982227 0.101572 0.908238
O O1 0.329640 0.457101 0.662310
O O2 0.466345 0.202459 0.849088
O O3 0.025885 0.210870 0.530877
O O4 0.335372 0.959209 0.667260
O O5 0.070128 0.463312 0.798267
O O6 0.221207 0.413152 0.774849
O O7 0.345774 0.767078 0.917673
O O8 0.885807 0.726094 0.587536
O O9 0.887732 0.205455 0.562329
O O10 0.534467 0.057878 0.395170
O O11 0.944289 0.012722 0.712629
O O12 0.095883 0.146322 0.916408
O O13 0.395287 0.136628 0.023369
O O14 0.169949 0.346403 0.185542
O O15 0.170192 0.845775 0.182790
O O16 0.188720 0.098972 0.092319
#
# Coordination Sequence:
#
# PCOD8047032 Si02
#       8
#     2   2   2   2   2   2   2   2
#     4  10  24  40  63  94 138 193 240 304 354 426
#     4  11  25  43  68 107 152 206 255 305 375 450
#     4  11  27  43  72 106 143 198 243 316 384 452
#     4  10  24  41  62  99 137 183 246 299 363 435
#     4  11  26  44  71 105 144 200 251 302 369 464
#     4  11  24  41  67 101 150 202 253 308 366 437
#     4  10  25  50  78 106 146 185 236 330 384 447
#     4  10  25  50  77 110 142 185 250 306 391 455
#
# _framework density 23.786826000000001
#
# number of rings (size 3 to 8) (size 9 to 14) (size 15 to 20)
#    0.000    1.500    1.250    0.750   17.500    1.000 
#    2.250    0.000    0.000    0.000    0.000    0.000 
#    0.000    0.000    0.000    0.000    0.000    0.000 
#
# Total GULP energy -198236.023647 kJ/mol
# GULP energy per Si atom -12389.751478 kJ/mol
# Density = 2.373269 g / cm^3
# Si number density = 23.786826 Si / 1000 Ang^3
#
#
#
# Elastic Constant Matrix: (Units=GPa)
#
#
# Indices 1 2 3 4 5 6 
#
# 1 118.4728 41.3716 37.2690 0.0000 0.2442 0.0000
# 2 41.3716 150.9701 35.7736 0.0000 5.4813 0.0000
# 3 37.2690 35.7736 77.0242 0.0000 6.9711 0.0000
# 4 0.0000 0.0000 0.0000 33.7357 0.0000 -5.9421
# 5 0.2442 5.4813 6.9711 0.0000 32.9982 0.0000
# 6 0.0000 0.0000 0.0000 -5.9421 0.0000 29.5999
#
#
#
# Elastic Compliance Matrix: (Units=1/GPa)
#
#
# Indices 1 2 3 4 5 6 
#
# 1 0.010444 -0.001890 -0.004279 0.000000 0.001141 0.000000
# 2 -0.001890 0.007793 -0.002640 0.000000 -0.000723 0.000000
# 3 -0.004279 -0.002640 0.016554 0.000000 -0.003027 0.000000
# 4 0.000000 0.000000 0.000000 0.030729 0.000000 0.006169
# 5 0.001141 -0.000723 -0.003027 0.000000 0.031056 0.000000
# 6 0.000000 0.000000 0.000000 0.006169 0.000000 0.035022
#
#
# Mechanical properties :
#
#
# Convention : Reuss Voigt Hill
#
# Bulk Modulus (GPa) = 58.22795 63.92174 61.07484
# Shear Modulus (GPa) = 32.27047 34.73694 33.50370
#
# Velocity S-wave (km/s) = 3.68727 3.82559 3.75707
# Velocity P-wave (km/s) = 6.53148 6.81503 6.67476
#
# Compressibility (1/GPa) = 0.01717388
#
# Stress axis : x y z
#
# Youngs Moduli (GPa) = 95.74487 128.31299 60.41000
#
# Poissons Ratio (x) = 0.24246 0.25851
# Poissons Ratio (y) = 0.18092 0.15948
# Poissons Ratio (z) = 0.40972 0.33874
#
# Static dielectric constant tensor:
#      x y z
#    x 4.231720 0.000000 -0.150940 
#    y 0.000000 4.937470 0.000000 
#    z -0.150940 0.000000 4.125390 
# 
# 
# High freq. dielectric constant tensor:
#      x y z
#    x 1.927960 0.000000 -0.018340 
#    y 0.000000 1.959740 0.000000 
#    z -0.018340 0.000000 1.936960 
# 
# From -- ./inp_files/15777.got.cif
#   From: 2010.03.12/outbox.cif.g09.slc.cpg/sg4_8_cif.got.tgz:15777.got - 2010.03.31 09:31:35.
