data_PCOD8047557
_publ_section_title
;
Structure prediction by ZEFSAII (Michael W. Deem and Ramdas Pophale) SiO2 
 PCOD8047557
Probable space group: P 21
;
_chemical_formula_sum "Si O2"
_cell_formula_units_Z 16
_cell_length_a 7.134982
_cell_length_b 6.949964
_cell_length_c 16.200171
_cell_angle_alpha 90.000000
_cell_angle_beta 102.929193
_cell_angle_gamma 90.000000
_cell_volume 782.965323
_symmetry_space_group_name_H-M "P 21"
_symmetry_group_IT_number 4
_symmetry_cell_setting 'monoclinic'
loop_
_space_group_symop_operation_xyz
x,y,z
-x,1/2+y,-z
loop_
_atom_site_type_symbol
_atom_site_label
_atom_site_fract_x
_atom_site_fract_y
_atom_site_fract_z
Si Si1 0.450240 0.000000 0.091248
Si Si2 0.528032 0.966054 0.284649
Si Si3 0.170492 0.333914 0.104509
Si Si4 0.777002 0.162399 0.016641
Si Si5 0.545329 0.144549 0.595722
Si Si6 0.090134 0.666377 0.627876
Si Si7 0.752119 0.799642 0.703058
Si Si8 0.785407 0.419188 0.507855
O O1 0.333053 0.198113 0.081826
O O2 0.654560 0.039333 0.069311
O O3 0.482565 0.914949 0.185561
O O4 0.337905 0.846185 0.026039
O O5 0.533777 0.769401 0.336278
O O6 0.732429 0.069811 0.308033
O O7 0.361874 0.098861 0.306870
O O8 0.221355 0.386227 0.203390
O O9 0.966919 0.227363 0.082964
O O10 0.161681 0.532609 0.054589
O O11 0.705916 0.253796 0.559343
O O12 0.634465 0.947887 0.636716
O O13 0.368723 0.091465 0.517813
O O14 0.166810 0.833672 0.576462
O O15 0.959724 0.763486 0.684536
O O16 0.978640 0.504390 0.565407
#
# Coordination Sequence:
#
# PCOD8047557 Si02
#       8
#     2   2   2   2   2   2   2   2
#     4  11  24  41  68  96 135 169 214 268 322 384
#     4  11  24  45  65  96 134 171 212 269 326 383
#     4  11  24  41  68  96 135 169 214 268 322 384
#     4  12  22  44  64 104 126 174 216 264 322 378
#     4  12  23  46  66  97 130 176 212 267 334 374
#     4  12  23  44  64  99 124 170 218 265 318 382
#     4  11  24  45  65  96 134 171 212 269 326 383
#     4  12  24  40  70  96 128 168 220 270 316 390
#
# _framework density 20.435131999999999
#
# number of rings (size 3 to 8) (size 9 to 14) (size 15 to 20)
#    0.000    0.500    5.000    4.500    0.000    0.000 
#    0.000    2.500    0.000    0.000    0.000    0.000 
#    0.000    0.000    0.000    0.000    0.000    0.000 
#
# Total GULP energy -198545.378838 kJ/mol
# GULP energy per Si atom -12409.086177 kJ/mol
# Density = 2.038862 g / cm^3
# Si number density = 20.435132 Si / 1000 Ang^3
#
#
#
# Elastic Constant Matrix: (Units=GPa)
#
#
# Indices 1 2 3 4 5 6 
#
# 1 92.4444 2.3372 16.5774 0.0000 -5.7783 0.0000
# 2 2.3372 42.6782 15.6768 0.0000 -11.2987 0.0000
# 3 16.5774 15.6768 68.1699 0.0000 -2.5281 0.0000
# 4 0.0000 0.0000 0.0000 28.5450 0.0000 -4.8614
# 5 -5.7783 -11.2987 -2.5281 0.0000 33.2007 0.0000
# 6 0.0000 0.0000 0.0000 -4.8614 0.0000 37.5325
#
#
#
# Elastic Compliance Matrix: (Units=1/GPa)
#
#
# Indices 1 2 3 4 5 6 
#
# 1 0.011451 0.001012 -0.002939 0.000000 0.002114 0.000000
# 2 0.001012 0.028176 -0.006382 0.000000 0.009279 0.000000
# 3 -0.002939 -0.006382 0.016799 0.000000 -0.001404 0.000000
# 4 0.000000 0.000000 0.000000 0.035823 0.000000 0.004640
# 5 0.002114 0.009279 -0.001404 0.000000 0.033539 0.000000
# 6 0.000000 0.000000 0.000000 0.004640 0.000000 0.027245
#
#
# Mechanical properties :
#
#
# Convention : Reuss Voigt Hill
#
# Bulk Modulus (GPa) = 25.11959 30.27504 27.69731
# Shear Modulus (GPa) = 27.33445 31.10239 29.21842
#
# Velocity S-wave (km/s) = 3.66132 3.90552 3.78539
# Velocity P-wave (km/s) = 5.49479 5.93168 5.71741
#
# Compressibility (1/GPa) = 0.03980957
#
# Stress axis : x y z
#
# Youngs Moduli (GPa) = 87.32969 35.49064 59.52591
#
# Poissons Ratio (x) = -0.03592 0.17494
# Poissons Ratio (y) = -0.08838 0.37987
# Poissons Ratio (z) = 0.25666 0.22649
#
# Static dielectric constant tensor:
#      x y z
#    x 3.823450 0.000000 -0.000210 
#    y 0.000000 3.665290 0.000000 
#    z -0.000210 0.000000 3.719560 
# 
# 
# High freq. dielectric constant tensor:
#      x y z
#    x 1.812850 0.000000 -0.000350 
#    y 0.000000 1.801410 0.000000 
#    z -0.000350 0.000000 1.809720 
# 
# From -- ./inp_files/4006.got.cif
#   From: 2010.03.12/outbox.cif.g09.slc.cpg/sg4_3_cif.got.tgz:4006.got - 2010.03.31 09:31:35.
