data_PCOD8047588
_publ_section_title
;
Structure prediction by ZEFSAII (Michael W. Deem and Ramdas Pophale) SiO2 
 PCOD8047588
Probable space group: P 21
;
_chemical_formula_sum "Si O2"
_cell_formula_units_Z 16
_cell_length_a 11.879612
_cell_length_b 8.403729
_cell_length_c 9.535937
_cell_angle_alpha 90.000000
_cell_angle_beta 37.233392
_cell_angle_gamma 90.000000
_cell_volume 576.021150
_symmetry_space_group_name_H-M "P 21"
_symmetry_group_IT_number 4
_symmetry_cell_setting 'monoclinic'
loop_
_space_group_symop_operation_xyz
x,y,z
-x,1/2+y,-z
loop_
_atom_site_type_symbol
_atom_site_label
_atom_site_fract_x
_atom_site_fract_y
_atom_site_fract_z
Si Si1 0.973849 0.933610 0.234545
Si Si2 0.536307 0.069781 0.933265
Si Si3 0.642099 0.289759 0.049932
Si Si4 0.544751 0.202847 0.454527
Si Si5 0.767067 0.906302 0.176623
Si Si6 0.183540 0.236432 0.389478
Si Si7 0.070305 0.476713 0.279956
Si Si8 0.773735 0.246270 0.479551
O O1 0.951745 0.897760 0.090748
O O2 0.807655 0.831247 0.471460
O O3 0.943000 0.119822 0.295666
O O4 0.171462 0.888788 0.106549
O O5 0.599448 0.178843 0.741491
O O6 0.503664 0.888269 0.907782
O O7 0.675763 0.118608 0.929852
O O8 0.343788 0.112793 0.198105
O O9 0.547426 0.258652 0.291614
O O10 0.336025 0.233719 0.725742
O O11 0.691905 0.295679 0.408726
O O12 0.604850 0.017840 0.406372
O O13 0.828826 0.986463 0.970886
O O14 0.194734 0.376639 0.263660
O O15 0.985339 0.144746 0.592835
O O16 0.866646 0.397283 0.459445
#
# Coordination Sequence:
#
# PCOD8047588 Si02
#       8
#     2   2   2   2   2   2   2   2
#     4  11  25  48  73 103 144 192 245 308 370 436
#     4  12  25  44  72 105 143 192 247 307 369 434
#     4  12  26  46  73 104 146 192 243 306 370 437
#     4  11  25  47  75 108 147 191 244 307 367 436
#     4  11  26  48  78 111 147 193 248 305 370 440
#     4  12  25  44  70 103 147 194 243 305 366 437
#     4  12  26  45  72 108 150 197 246 300 369 444
#     4  11  24  44  71 106 144 189 248 304 369 440
#
# _framework density 27.776761
#
# number of rings (size 3 to 8) (size 9 to 14) (size 15 to 20)
#    0.000    0.500    0.000    9.000    0.000    8.000 
#    0.000    1.250    0.000    0.000    0.000    0.000 
#    0.000    0.000    0.000    0.000    0.000    0.000 
#
# Total GULP energy -198296.713956 kJ/mol
# GULP energy per Si atom -12393.544622 kJ/mol
# Density = 2.771354 g / cm^3
# Si number density = 27.776761 Si / 1000 Ang^3
#
#
#
# Elastic Constant Matrix: (Units=GPa)
#
#
# Indices 1 2 3 4 5 6 
#
# 1 176.9644 27.5182 31.8865 0.0000 10.6878 0.0000
# 2 27.5182 67.8261 20.1082 0.0000 0.8014 0.0000
# 3 31.8865 20.1082 111.7362 0.0000 4.9430 0.0000
# 4 0.0000 0.0000 0.0000 37.1476 0.0000 0.3655
# 5 10.6878 0.8014 4.9430 0.0000 44.2029 0.0000
# 6 0.0000 0.0000 0.0000 0.3655 0.0000 41.8287
#
#
#
# Elastic Compliance Matrix: (Units=1/GPa)
#
#
# Indices 1 2 3 4 5 6 
#
# 1 0.006309 -0.002142 -0.001356 0.000000 -0.001335 0.000000
# 2 -0.002142 0.016302 -0.002344 0.000000 0.000484 0.000000
# 3 -0.001356 -0.002344 0.009790 0.000000 -0.000724 0.000000
# 4 0.000000 0.000000 0.000000 0.026922 0.000000 -0.000235
# 5 -0.001335 0.000484 -0.000724 0.000000 0.023018 0.000000
# 6 0.000000 0.000000 0.000000 -0.000235 0.000000 0.023909
#
#
# Mechanical properties :
#
#
# Convention : Reuss Voigt Hill
#
# Bulk Modulus (GPa) = 48.26768 57.28362 52.77565
# Shear Modulus (GPa) = 40.05153 43.10343 41.57748
#
# Velocity S-wave (km/s) = 3.80137 3.94354 3.87310
# Velocity P-wave (km/s) = 6.05656 6.43451 6.24839
#
# Compressibility (1/GPa) = 0.02071780
#
# Stress axis : x y z
#
# Youngs Moduli (GPa) = 158.50751 61.34318 102.14051
#
# Poissons Ratio (x) = 0.13139 0.13849
# Poissons Ratio (y) = 0.33950 0.23941
# Poissons Ratio (z) = 0.21492 0.14378
#
# Static dielectric constant tensor:
#      x y z
#    x 5.424650 0.000000 0.072070 
#    y 0.000000 5.362000 0.000000 
#    z 0.072070 0.000000 4.956150 
# 
# 
# High freq. dielectric constant tensor:
#      x y z
#    x 2.143050 0.000000 -0.005300 
#    y 0.000000 2.125780 0.000000 
#    z -0.005300 0.000000 2.138150 
# 
# From -- ./inp_files/7942.got.cif
#   From: 2010.03.12/outbox.cif.g09.slc.cpg/sg4_4_cif.got.tgz:7942.got - 2010.03.31 09:31:35.
