data_PCOD8047100
_publ_section_title
;
Structure prediction by ZEFSAII (Michael W. Deem and Ramdas Pophale) SiO2 
 PCOD8047100
Probable space group: P 21
;
_chemical_formula_sum "Si O2"
_cell_formula_units_Z 14
_cell_length_a 10.667672
_cell_length_b 9.269663
_cell_length_c 7.784357
_cell_angle_alpha 90.000000
_cell_angle_beta 55.659385
_cell_angle_gamma 90.000000
_cell_volume 635.591243
_symmetry_space_group_name_H-M "P 21"
_symmetry_group_IT_number 4
_symmetry_cell_setting 'monoclinic'
loop_
_space_group_symop_operation_xyz
x,y,z
-x,1/2+y,-z
loop_
_atom_site_type_symbol
_atom_site_label
_atom_site_fract_x
_atom_site_fract_y
_atom_site_fract_z
Si Si1 0.564119 0.434760 0.639901
Si Si2 0.811842 0.358512 0.952189
Si Si3 0.654256 0.167600 0.337954
Si Si4 0.079249 0.608056 0.313537
Si Si5 0.085267 0.474964 0.962368
Si Si6 0.705936 0.873779 0.925486
Si Si7 0.776072 0.582454 0.720786
O O1 0.610570 0.281740 0.519157
O O2 0.480569 0.550022 0.579447
O O3 0.465270 0.404570 0.885980
O O4 0.714420 0.510636 0.594886
O O5 0.738748 0.502005 0.928925
O O6 0.950359 0.395169 0.971370
O O7 0.682160 0.263526 0.145012
O O8 0.870569 0.274771 0.736187
O O9 0.810848 0.075784 0.245667
O O10 0.957537 0.591444 0.557860
O O11 0.015126 0.573629 0.169739
O O12 0.225359 0.506816 0.238945
O O13 0.194279 0.356522 0.974695
O O14 0.705662 0.739457 0.798584
#
# Coordination Sequence:
#
# PCOD8047100 Si02
#       7
#     2   2   2   2   2   2   2
#     4  11  25  46  66  98 135 177 227 274 343 409
#     4  11  22  39  69  96 132 173 223 283 332 388
#     4  10  24  45  67  96 132 184 229 275 336 406
#     4   9  21  43  60  94 129 170 228 266 326 395
#     4   8  20  41  68  90 132 172 227 277 323 393
#     4   9  23  42  63  90 137 171 216 275 329 402
#     4  12  25  36  69 100 129 173 216 282 343 393
#
# _framework density 22.026734999999999
#
# number of rings (size 3 to 8) (size 9 to 14) (size 15 to 20)
#    0.857    1.143    1.429    1.714    8.000    3.429 
#    0.000    2.857    0.000    0.000    0.000    0.000 
#    0.000    0.000    0.000    0.000    0.000    0.000 
#
# Total GULP energy -173444.361657 kJ/mol
# GULP energy per Si atom -12388.882976 kJ/mol
# Density = 2.197660 g / cm^3
# Si number density = 22.026735 Si / 1000 Ang^3
#
#
#
# Elastic Constant Matrix: (Units=GPa)
#
#
# Indices 1 2 3 4 5 6 
#
# 1 36.0107 3.5008 -2.8199 0.0000 -0.0731 0.0000
# 2 3.5008 88.8338 31.4589 0.0000 -1.2837 0.0000
# 3 -2.8199 31.4589 82.2607 0.0000 -15.1938 0.0000
# 4 0.0000 0.0000 0.0000 54.0324 0.0000 6.5325
# 5 -0.0731 -1.2837 -15.1938 0.0000 17.2180 0.0000
# 6 0.0000 0.0000 0.0000 6.5325 0.0000 23.8333
#
#
#
# Elastic Compliance Matrix: (Units=1/GPa)
#
#
# Indices 1 2 3 4 5 6 
#
# 1 0.028099 -0.001777 0.001960 0.000000 0.001716 0.000000
# 2 -0.001777 0.013378 -0.005967 0.000000 -0.004276 0.000000
# 3 0.001960 -0.005967 0.017234 0.000000 0.014771 0.000000
# 4 0.000000 0.000000 0.000000 0.019142 0.000000 -0.005247
# 5 0.001716 -0.004276 0.014771 0.000000 0.070802 0.000000
# 6 0.000000 0.000000 0.000000 -0.005247 0.000000 0.043396
#
#
# Mechanical properties :
#
#
# Convention : Reuss Voigt Hill
#
# Bulk Modulus (GPa) = 21.21172 30.15387 25.68280
# Shear Modulus (GPa) = 22.79635 30.68109 26.73872
#
# Velocity S-wave (km/s) = 3.22054 3.73621 3.48792
# Velocity P-wave (km/s) = 4.84562 5.68610 5.28260
#
# Compressibility (1/GPa) = 0.04714375
#
# Stress axis : x y z
#
# Youngs Moduli (GPa) = 35.58829 74.74815 58.02532
#
# Poissons Ratio (x) = 0.13279 -0.11371
# Poissons Ratio (y) = 0.06322 0.34623
# Poissons Ratio (z) = -0.06974 0.44601
#
# Static dielectric constant tensor:
#      x y z
#    x 3.449680 0.000000 -0.168090 
#    y 0.000000 4.085230 0.000000 
#    z -0.168090 0.000000 3.780010 
# 
# 
# High freq. dielectric constant tensor:
#      x y z
#    x 1.831240 0.000000 -0.012860 
#    y 0.000000 1.878680 0.000000 
#    z -0.012860 0.000000 1.858540 
# 
# From -- ./inp_files/7982.got.cif
#   From: 2010.03.12/outbox.cif.g09.slc.cpg/sg4_4_cif.got.tgz:7982.got - 2010.03.31 09:31:35.
