data_PCOD8047247
_publ_section_title
;
Structure prediction by ZEFSAII (Michael W. Deem and Ramdas Pophale) SiO2 
 PCOD8047247
Probable space group: P 21
;
_chemical_formula_sum "Si O2"
_cell_formula_units_Z 14
_cell_length_a 19.307949
_cell_length_b 5.283620
_cell_length_c 8.874462
_cell_angle_alpha 90.000000
_cell_angle_beta 139.485844
_cell_angle_gamma 90.000000
_cell_volume 588.138717
_symmetry_space_group_name_H-M "P 21"
_symmetry_group_IT_number 4
_symmetry_cell_setting 'monoclinic'
loop_
_space_group_symop_operation_xyz
x,y,z
-x,1/2+y,-z
loop_
_atom_site_type_symbol
_atom_site_label
_atom_site_fract_x
_atom_site_fract_y
_atom_site_fract_z
Si Si1 0.750623 0.003690 0.943689
Si Si2 0.607071 0.623041 0.553400
Si Si3 0.955134 0.235350 0.847630
Si Si4 0.266600 0.743872 0.390305
Si Si5 0.033645 0.261656 0.639187
Si Si6 0.602247 0.342961 0.837359
Si Si7 0.489464 0.603739 0.887814
O O1 0.789472 0.146322 0.857074
O O2 0.714935 0.190848 0.023822
O O3 0.646300 0.848563 0.724351
O O4 0.840608 0.816744 0.152490
O O5 0.696514 0.533353 0.580756
O O6 0.582831 0.394588 0.628287
O O7 0.500295 0.675488 0.282053
O O8 0.825795 0.237082 0.637888
O O9 0.985946 0.262799 0.725861
O O10 0.999975 0.470827 0.016415
O O11 0.372187 0.582929 0.612891
O O12 0.977427 0.484290 0.451348
O O13 0.590069 0.574559 0.935523
O O14 0.502110 0.880557 0.977277
#
# Coordination Sequence:
#
# PCOD8047247 Si02
#       7
#     2   2   2   2   2   2   2
#     4  11  24  44  79 104 141 194 250 308 378 446
#     4  11  20  40  74 107 142 175 249 312 358 434
#     4  12  26  50  85 111 143 201 268 315 373 448
#     4  11  25  45  75 108 139 197 256 308 359 452
#     4  12  29  53  74 114 159 193 249 332 387 440
#     4  11  22  40  70 109 139 191 234 302 365 449
#     4  12  28  46  67 103 161 197 238 299 372 451
#
# _framework density 23.803906000000001
#
# number of rings (size 3 to 8) (size 9 to 14) (size 15 to 20)
#    0.000    0.571    4.286    3.429    6.000    1.143 
#    0.000    1.429    0.000    0.000    0.000    0.000 
#    0.000    0.000    0.000    0.000    0.000    0.000 
#
# Total GULP energy -173504.525987 kJ/mol
# GULP energy per Si atom -12393.180428 kJ/mol
# Density = 2.374973 g / cm^3
# Si number density = 23.803906 Si / 1000 Ang^3
#
#
#
# Elastic Constant Matrix: (Units=GPa)
#
#
# Indices 1 2 3 4 5 6 
#
# 1 136.5938 16.0191 27.8695 0.0000 12.7779 0.0000
# 2 16.0191 76.9093 6.4521 0.0000 -0.9647 0.0000
# 3 27.8695 6.4521 59.2340 0.0000 -1.1710 0.0000
# 4 0.0000 0.0000 0.0000 45.6820 0.0000 -1.7525
# 5 12.7779 -0.9647 -1.1710 0.0000 29.7096 0.0000
# 6 0.0000 0.0000 0.0000 -1.7525 0.0000 33.6898
#
#
#
# Elastic Compliance Matrix: (Units=1/GPa)
#
#
# Indices 1 2 3 4 5 6 
#
# 1 0.008684 -0.001523 -0.003998 0.000000 -0.003942 0.000000
# 2 -0.001523 0.013393 -0.000721 0.000000 0.001061 0.000000
# 3 -0.003998 -0.000721 0.018890 0.000000 0.002441 0.000000
# 4 0.000000 0.000000 0.000000 0.021934 0.000000 0.001141
# 5 -0.003942 0.001061 0.002441 0.000000 0.035485 0.000000
# 6 0.000000 0.000000 0.000000 0.001141 0.000000 0.029742
#
#
# Mechanical properties :
#
#
# Convention : Reuss Voigt Hill
#
# Bulk Modulus (GPa) = 35.10846 41.49096 38.29971
# Shear Modulus (GPa) = 33.30949 36.64270 34.97609
#
# Velocity S-wave (km/s) = 3.74482 3.92772 3.83736
# Velocity P-wave (km/s) = 5.78613 6.16745 5.97983
#
# Compressibility (1/GPa) = 0.02848316
#
# Stress axis : x y z
#
# Youngs Moduli (GPa) = 115.15412 74.66396 52.93804
#
# Poissons Ratio (x) = 0.11370 0.21164
# Poissons Ratio (y) = 0.17536 0.03819
# Poissons Ratio (z) = 0.46037 0.05386
#
# Static dielectric constant tensor:
#      x y z
#    x 4.470560 0.000000 -0.047930 
#    y 0.000000 4.492400 0.000000 
#    z -0.047930 0.000000 4.194980 
# 
# 
# High freq. dielectric constant tensor:
#      x y z
#    x 1.953880 0.000000 0.002750 
#    y 0.000000 1.958460 0.000000 
#    z 0.002750 0.000000 1.921250 
# 
# From -- ./inp_files/9540.got.cif
#   From: 2010.03.12/outbox.cif.g09.slc.cpg/sg4_5_cif.got.tgz:9540.got - 2010.03.31 09:31:35.
