data_PCOD8047273
_publ_section_title
;
Structure prediction by ZEFSAII (Michael W. Deem and Ramdas Pophale) SiO2 
 PCOD8047273
Probable space group: P 21
;
_chemical_formula_sum "Si O2"
_cell_formula_units_Z 14
_cell_length_a 24.292678
_cell_length_b 5.138523
_cell_length_c 8.656885
_cell_angle_alpha 90.000000
_cell_angle_beta 30.741320
_cell_angle_gamma 90.000000
_cell_volume 552.375820
_symmetry_space_group_name_H-M "P 21"
_symmetry_group_IT_number 4
_symmetry_cell_setting 'monoclinic'
loop_
_space_group_symop_operation_xyz
x,y,z
-x,1/2+y,-z
loop_
_atom_site_type_symbol
_atom_site_label
_atom_site_fract_x
_atom_site_fract_y
_atom_site_fract_z
Si Si1 0.987050 0.422640 0.287632
Si Si2 0.703801 0.500120 0.238433
Si Si3 0.830533 0.592355 0.240500
Si Si4 0.744346 0.086816 0.607961
Si Si5 0.188316 0.278315 0.278784
Si Si6 0.490864 0.609258 0.922681
Si Si7 0.126022 0.630669 0.185075
O O1 0.890808 0.580429 0.429960
O O2 0.936045 0.361647 0.578062
O O3 0.087749 0.606340 0.098409
O O4 0.041340 0.180777 0.064012
O O5 0.786366 0.610657 0.171071
O O6 0.580482 0.513291 0.586011
O O7 0.712502 0.635199 0.047359
O O8 0.744998 0.200886 0.127407
O O9 0.816750 0.311642 0.356176
O O10 0.758547 0.801085 0.503381
O O11 0.777314 0.034841 0.707363
O O12 0.619776 0.167305 0.899862
O O13 0.111990 0.374181 0.323063
O O14 0.472156 0.380204 0.091231
#
# Coordination Sequence:
#
# PCOD8047273 Si02
#       7
#     2   2   2   2   2   2   2
#     4  11  22  42  75 109 148 212 263 319 383 485
#     4  11  24  44  79 110 143 208 267 320 388 485
#     4  12  25  47  79 106 154 206 263 314 394 483
#     4  12  28  51  72 115 163 196 256 343 396 457
#     4  11  27  46  73 112 160 196 261 340 393 457
#     4  12  25  49  80 111 148 207 267 328 397 487
#     4  11  21  41  72 107 148 193 267 322 375 468
#
# _framework density 25.345065000000002
#
# number of rings (size 3 to 8) (size 9 to 14) (size 15 to 20)
#    0.000    0.571    5.714    1.714    8.000    0.000 
#    5.143    0.000    0.000    0.000    0.000    0.000 
#    0.000    0.000    0.000    0.000    0.000    0.000 
#
# Total GULP energy -173433.897393 kJ/mol
# GULP energy per Si atom -12388.135528 kJ/mol
# Density = 2.528738 g / cm^3
# Si number density = 25.345065 Si / 1000 Ang^3
#
#
#
# Elastic Constant Matrix: (Units=GPa)
#
#
# Indices 1 2 3 4 5 6 
#
# 1 72.4620 30.6516 32.8353 0.0000 -2.6345 0.0000
# 2 30.6516 106.6093 34.8953 0.0000 3.0783 0.0000
# 3 32.8353 34.8953 154.6665 0.0000 -5.2834 0.0000
# 4 0.0000 0.0000 0.0000 40.3665 0.0000 6.6800
# 5 -2.6345 3.0783 -5.2834 0.0000 31.2484 0.0000
# 6 0.0000 0.0000 0.0000 6.6800 0.0000 37.1847
#
#
#
# Elastic Compliance Matrix: (Units=1/GPa)
#
#
# Indices 1 2 3 4 5 6 
#
# 1 0.016718 -0.003995 -0.002601 0.000000 0.001363 0.000000
# 2 -0.003995 0.011143 -0.001725 0.000000 -0.001726 0.000000
# 3 -0.002601 -0.001725 0.007448 0.000000 0.001210 0.000000
# 4 0.000000 0.000000 0.000000 0.025532 0.000000 -0.004587
# 5 0.001363 -0.001726 0.001210 0.000000 0.032491 0.000000
# 6 0.000000 0.000000 0.000000 -0.004587 0.000000 0.027717
#
#
# Mechanical properties :
#
#
# Convention : Reuss Voigt Hill
#
# Bulk Modulus (GPa) = 53.56856 58.94470 56.25663
# Shear Modulus (GPa) = 34.74286 37.45029 36.09658
#
# Velocity S-wave (km/s) = 3.70644 3.84815 3.77796
# Velocity P-wave (km/s) = 6.28478 6.56138 6.42457
#
# Compressibility (1/GPa) = 0.01866767
#
# Stress axis : x y z
#
# Youngs Moduli (GPa) = 59.81415 89.74232 134.25852
#
# Poissons Ratio (x) = 0.35849 0.34927
# Poissons Ratio (y) = 0.23894 0.23159
# Poissons Ratio (z) = 0.15560 0.15480
#
# Static dielectric constant tensor:
#      x y z
#    x 4.396630 0.000000 0.179520 
#    y 0.000000 4.653280 0.000000 
#    z 0.179520 0.000000 4.590660 
# 
# 
# High freq. dielectric constant tensor:
#      x y z
#    x 1.985410 0.000000 0.013890 
#    y 0.000000 2.029920 0.000000 
#    z 0.013890 0.000000 2.009130 
# 
# From -- ./inp_files/9992.got.cif
#   From: 2010.03.12/outbox.cif.g09.slc.cpg/sg4_5_cif.got.tgz:9992.got - 2010.03.31 09:31:35.
