data_PCOD8047208
_publ_section_title
;
Structure prediction by ZEFSAII (Michael W. Deem and Ramdas Pophale) SiO2 
 PCOD8047208
Probable space group: P 21
;
_chemical_formula_sum "Si O2"
_cell_formula_units_Z 16
_cell_length_a 13.848626
_cell_length_b 8.566646
_cell_length_c 5.429469
_cell_angle_alpha 90.000000
_cell_angle_beta 76.431868
_cell_angle_gamma 90.000000
_cell_volume 626.155316
_symmetry_space_group_name_H-M "P 21"
_symmetry_group_IT_number 4
_symmetry_cell_setting 'monoclinic'
loop_
_space_group_symop_operation_xyz
x,y,z
-x,1/2+y,-z
loop_
_atom_site_type_symbol
_atom_site_label
_atom_site_fract_x
_atom_site_fract_y
_atom_site_fract_z
Si Si1 0.206519 0.771270 0.181069
Si Si2 0.573824 0.756441 0.027095
Si Si3 0.869253 0.837812 0.040612
Si Si4 0.681747 0.023548 0.183544
Si Si5 0.620110 0.250921 0.588903
Si Si6 0.006694 0.608200 0.255700
Si Si7 0.168066 0.095520 0.328767
Si Si8 0.355070 0.093785 0.517068
O O1 0.266078 0.741854 0.395889
O O2 0.096126 0.712837 0.298817
O O3 0.206269 0.957066 0.123552
O O4 0.262311 0.679924 0.935031
O O5 0.455286 0.747635 0.134222
O O6 0.623704 0.682393 0.242724
O O7 0.617144 0.934583 0.011363
O O8 0.595372 0.675395 0.754761
O O9 0.827925 0.761018 0.812385
O O10 0.952406 0.967096 0.930857
O O11 0.924234 0.709171 0.165061
O O12 0.771814 0.912631 0.231493
O O13 0.604712 0.094320 0.431797
O O14 0.603719 0.418156 0.466505
O O15 0.944728 0.548358 0.528629
O O16 0.237513 0.100739 0.530837
#
# Coordination Sequence:
#
# PCOD8047208 Si02
#       8
#     2   2   2   2   2   2   2   2
#     4  10  26  44  68 106 147 194 251 318 377 463
#     4  12  27  49  80 111 153 202 261 320 395 460
#     4  11  24  43  70 107 146 199 249 319 383 465
#     4  11  26  46  72 108 149 200 258 323 386 464
#     4  11  28  45  76 104 154 197 259 321 390 464
#     4  11  24  41  71 104 145 194 251 309 386 459
#     4  11  23  44  72 101 150 196 248 312 387 464
#     4  11  28  48  77 113 150 204 251 324 386 467
#
# _framework density 25.552764
#
# number of rings (size 3 to 8) (size 9 to 14) (size 15 to 20)
#    0.000    1.000    1.250    3.000    8.750   10.000 
#    0.000    0.000    0.000    0.000    0.000    0.000 
#    0.000    0.000    0.000    0.000    0.000    0.000 
#
# Total GULP energy -198290.374495 kJ/mol
# GULP energy per Si atom -12393.148406 kJ/mol
# Density = 2.549461 g / cm^3
# Si number density = 25.552764 Si / 1000 Ang^3
#
#
#
# Elastic Constant Matrix: (Units=GPa)
#
#
# Indices 1 2 3 4 5 6 
#
# 1 71.2084 32.4260 7.9415 0.0000 -9.6960 0.0000
# 2 32.4260 130.4075 29.0361 0.0000 -2.2924 0.0000
# 3 7.9415 29.0361 55.5701 0.0000 -13.4934 0.0000
# 4 0.0000 0.0000 0.0000 41.7210 0.0000 -1.3149
# 5 -9.6960 -2.2924 -13.4934 0.0000 42.5181 0.0000
# 6 0.0000 0.0000 0.0000 -1.3149 0.0000 35.6717
#
#
#
# Elastic Compliance Matrix: (Units=1/GPa)
#
#
# Indices 1 2 3 4 5 6 
#
# 1 0.016369 -0.004171 0.000750 0.000000 0.003746 0.000000
# 2 -0.004171 0.009785 -0.005005 0.000000 -0.002012 0.000000
# 3 0.000750 -0.005005 0.022189 0.000000 0.006943 0.000000
# 4 0.000000 0.000000 0.000000 0.023997 0.000000 0.000885
# 5 0.003746 -0.002012 0.006943 0.000000 0.026469 0.000000
# 6 0.000000 0.000000 0.000000 0.000885 0.000000 0.028066
#
#
# Mechanical properties :
#
#
# Convention : Reuss Voigt Hill
#
# Bulk Modulus (GPa) = 31.75612 43.99923 37.87768
# Shear Modulus (GPa) = 32.42044 36.50099 34.46071
#
# Velocity S-wave (km/s) = 3.56584 3.78359 3.67633
# Velocity P-wave (km/s) = 5.42294 6.02858 5.73376
#
# Compressibility (1/GPa) = 0.03148999
#
# Stress axis : x y z
#
# Youngs Moduli (GPa) = 61.09025 102.20241 45.06703
#
# Poissons Ratio (x) = 0.42632 -0.03379
# Poissons Ratio (y) = 0.25483 0.22556
# Poissons Ratio (z) = -0.04581 0.51152
#
# Static dielectric constant tensor:
#      x y z
#    x 4.892660 0.000000 -0.303050 
#    y 0.000000 4.978940 0.000000 
#    z -0.303050 0.000000 4.272600 
# 
# 
# High freq. dielectric constant tensor:
#      x y z
#    x 2.038010 0.000000 -0.019850 
#    y 0.000000 2.040420 0.000000 
#    z -0.019850 0.000000 1.994500 
# 
# From -- ./inp_files/3570.got.cif
#   From: 2010.03.12/outbox.cif.g09.slc.cpg/sg4_2_cif.got.tgz:3570.got - 2010.03.31 09:31:35.
