data_PCOD8047399
_publ_section_title
;
Structure prediction by ZEFSAII (Michael W. Deem and Ramdas Pophale) SiO2 
 PCOD8047399
Probable space group: P 21
;
_chemical_formula_sum "Si O2"
_cell_formula_units_Z 16
_cell_length_a 11.634645
_cell_length_b 9.017056
_cell_length_c 6.504514
_cell_angle_alpha 90.000000
_cell_angle_beta 105.855912
_cell_angle_gamma 90.000000
_cell_volume 656.426465
_symmetry_space_group_name_H-M "P 21"
_symmetry_group_IT_number 4
_symmetry_cell_setting 'monoclinic'
loop_
_space_group_symop_operation_xyz
x,y,z
-x,1/2+y,-z
loop_
_atom_site_type_symbol
_atom_site_label
_atom_site_fract_x
_atom_site_fract_y
_atom_site_fract_z
Si Si1 0.748330 0.536430 0.620913
Si Si2 0.386739 0.413154 0.910923
Si Si3 0.231164 0.574369 0.165786
Si Si4 0.421216 0.118563 0.121837
Si Si5 0.794729 0.860085 0.491764
Si Si6 0.130911 0.729489 0.742796
Si Si7 0.979171 0.470817 0.543074
Si Si8 0.649812 0.253076 0.428258
O O1 0.699754 0.566303 0.825274
O O2 0.763691 0.690499 0.511365
O O3 0.653437 0.432374 0.454218
O O4 0.881012 0.458384 0.680320
O O5 0.520815 0.475017 0.956289
O O6 0.319681 0.444007 0.661921
O O7 0.324102 0.484349 0.075238
O O8 0.387145 0.236048 0.931884
O O9 0.168013 0.452360 0.284486
O O10 0.304027 0.694237 0.330651
O O11 0.134693 0.665163 0.977967
O O12 0.514948 0.200214 0.321304
O O13 0.901130 0.870447 0.373242
O O14 0.031200 0.638659 0.559210
O O15 0.263675 0.704550 0.716848
O O16 0.088874 0.902281 0.695267
#
# Coordination Sequence:
#
# PCOD8047399 Si02
#       8
#     2   2   2   2   2   2   2   2
#     4  11  28  44  74 112 144 202 251 305 384 444
#     4  12  28  46  77 109 148 202 250 313 382 446
#     4  12  22  48  74 106 144 204 251 290 398 449
#     4  12  27  48  73 113 150 201 250 317 375 459
#     4  12  24  51  77 105 152 198 254 316 372 451
#     4  11  23  47  74 107 145 202 244 307 380 441
#     4  11  22  49  72 106 156 187 253 323 358 440
#     4  11  26  47  71 106 157 192 249 319 373 450
#
# _framework density 24.374396000000001
#
# number of rings (size 3 to 8) (size 9 to 14) (size 15 to 20)
#    0.000    0.500    7.500    0.000    7.000    0.000 
#    6.750    5.000    0.000    0.000    0.000    0.000 
#    0.000    0.000    0.000    0.000    0.000    0.000 
#
# Total GULP energy -198224.732795 kJ/mol
# GULP energy per Si atom -12389.045800 kJ/mol
# Density = 2.431892 g / cm^3
# Si number density = 24.374396 Si / 1000 Ang^3
#
#
#
# Elastic Constant Matrix: (Units=GPa)
#
#
# Indices 1 2 3 4 5 6 
#
# 1 128.6925 26.2127 34.8021 0.0000 -27.7244 0.0000
# 2 26.2127 100.5936 47.9415 0.0000 -11.8965 0.0000
# 3 34.8021 47.9415 103.7379 0.0000 0.0316 0.0000
# 4 0.0000 0.0000 0.0000 40.5431 0.0000 -1.6024
# 5 -27.7244 -11.8965 0.0316 0.0000 33.0250 0.0000
# 6 0.0000 0.0000 0.0000 -1.6024 0.0000 44.7644
#
#
#
# Elastic Compliance Matrix: (Units=1/GPa)
#
#
# Indices 1 2 3 4 5 6 
#
# 1 0.010670 -0.000018 -0.003574 0.000000 0.008954 0.000000
# 2 -0.000018 0.013488 -0.006229 0.000000 0.004849 0.000000
# 3 -0.003574 -0.006229 0.013719 0.000000 -0.005257 0.000000
# 4 0.000000 0.000000 0.000000 0.024700 0.000000 0.000884
# 5 0.008954 0.004849 -0.005257 0.000000 0.039549 0.000000
# 6 0.000000 0.000000 0.000000 0.000884 0.000000 0.022371
#
#
# Mechanical properties :
#
#
# Convention : Reuss Voigt Hill
#
# Bulk Modulus (GPa) = 54.83988 61.21518 58.02753
# Shear Modulus (GPa) = 33.28566 38.60437 35.94501
#
# Velocity S-wave (km/s) = 3.69941 3.98403 3.84435
# Velocity P-wave (km/s) = 6.38712 6.80679 6.60029
#
# Compressibility (1/GPa) = 0.01823491
#
# Stress axis : x y z
#
# Youngs Moduli (GPa) = 93.72462 74.14171 72.89319
#
# Poissons Ratio (x) = 0.00135 0.26050
# Poissons Ratio (y) = 0.00170 0.45402
# Poissons Ratio (z) = 0.33495 0.46180
#
# Static dielectric constant tensor:
#      x y z
#    x 4.542240 0.000000 -0.051550 
#    y 0.000000 4.745280 0.000000 
#    z -0.051550 0.000000 4.059780 
# 
# 
# High freq. dielectric constant tensor:
#      x y z
#    x 1.970290 0.000000 -0.005330 
#    y 0.000000 1.993260 0.000000 
#    z -0.005330 0.000000 1.930700 
# 
# From -- ./inp_files/2675.got.cif
#   From: 2010.03.12/outbox.cif.g09.slc.cpg/sg4_2_cif.got.tgz:2675.got - 2010.03.31 09:31:35.
