data_PCOD8047527
_publ_section_title
;
Structure prediction by ZEFSAII (Michael W. Deem and Ramdas Pophale) SiO2 
 PCOD8047527
Probable space group: P 21
;
_chemical_formula_sum "Si O2"
_cell_formula_units_Z 16
_cell_length_a 15.630411
_cell_length_b 5.338564
_cell_length_c 14.465793
_cell_angle_alpha 90.000000
_cell_angle_beta 31.113553
_cell_angle_gamma 90.000000
_cell_volume 623.743020
_symmetry_space_group_name_H-M "P 21"
_symmetry_group_IT_number 4
_symmetry_cell_setting 'monoclinic'
loop_
_space_group_symop_operation_xyz
x,y,z
-x,1/2+y,-z
loop_
_atom_site_type_symbol
_atom_site_label
_atom_site_fract_x
_atom_site_fract_y
_atom_site_fract_z
Si Si1 0.153414 0.810560 0.107479
Si Si2 0.903366 0.409702 0.313281
Si Si3 0.729874 0.786334 0.746578
Si Si4 0.962063 0.121359 0.431129
Si Si5 0.526255 0.407085 0.647494
Si Si6 0.925318 0.232470 0.104814
Si Si7 0.556978 0.003550 0.079601
Si Si8 0.646052 0.421286 0.243915
O O1 0.043295 0.607914 0.155080
O O2 0.024520 0.935607 0.295045
O O3 0.302159 0.708992 0.033667
O O4 0.230094 0.985533 0.956211
O O5 0.715909 0.488612 0.470087
O O6 0.932555 0.190034 0.209772
O O7 0.927589 0.365329 0.401125
O O8 0.900748 0.647616 0.615762
O O9 0.620301 0.624774 0.778943
O O10 0.788952 0.036654 0.638089
O O11 0.618372 0.828903 0.939825
O O12 0.469153 0.336634 0.804832
O O13 0.442397 0.661154 0.693760
O O14 0.476535 0.162347 0.631457
O O15 0.750800 0.368838 0.239572
O O16 0.057026 0.454006 0.954736
#
# Coordination Sequence:
#
# PCOD8047527 Si02
#       8
#     2   2   2   2   2   2   2   2
#     4  11  23  47  71 104 146 196 254 310 392 455
#     4  12  28  46  75 111 151 200 252 320 394 453
#     4  12  26  43  72 102 147 197 264 314 389 453
#     4  12  27  45  71 106 149 195 252 330 376 460
#     4  11  28  46  75 109 155 199 249 320 387 453
#     4  12  26  47  81 118 151 200 254 310 381 471
#     4  11  25  44  70 105 142 199 251 317 381 460
#     4  11  25  48  77 109 155 198 256 307 382 465
#
# _framework density 25.651586999999999
#
# number of rings (size 3 to 8) (size 9 to 14) (size 15 to 20)
#    0.000    0.500    2.500    4.500   12.250    1.000 
#    0.000    0.000    0.000    0.000    0.000    0.000 
#    0.000    0.000    0.000    0.000    0.000    0.000 
#
# Total GULP energy -198265.885716 kJ/mol
# GULP energy per Si atom -12391.617857 kJ/mol
# Density = 2.559320 g / cm^3
# Si number density = 25.651587 Si / 1000 Ang^3
#
#
#
# Elastic Constant Matrix: (Units=GPa)
#
#
# Indices 1 2 3 4 5 6 
#
# 1 86.4002 5.1537 31.9473 0.0000 -23.7785 0.0000
# 2 5.1537 79.6089 13.2443 0.0000 -16.6882 0.0000
# 3 31.9473 13.2443 73.2295 0.0000 -27.4865 0.0000
# 4 0.0000 0.0000 0.0000 28.3321 0.0000 -3.7631
# 5 -23.7785 -16.6882 -27.4865 0.0000 49.8858 0.0000
# 6 0.0000 0.0000 0.0000 -3.7631 0.0000 24.3243
#
#
#
# Elastic Compliance Matrix: (Units=1/GPa)
#
#
# Indices 1 2 3 4 5 6 
#
# 1 0.014551 0.000812 -0.004778 0.000000 0.004575 0.000000
# 2 0.000812 0.013606 -0.001212 0.000000 0.004271 0.000000
# 3 -0.004778 -0.001212 0.018851 0.000000 0.007704 0.000000
# 4 0.000000 0.000000 0.000000 0.036036 0.000000 0.005575
# 5 0.004575 0.004271 0.007704 0.000000 0.027900 0.000000
# 6 0.000000 0.000000 0.000000 0.005575 0.000000 0.041974
#
#
# Mechanical properties :
#
#
# Convention : Reuss Voigt Hill
#
# Bulk Modulus (GPa) = 27.28337 37.76991 32.52664
# Shear Modulus (GPa) = 28.49151 33.10132 30.79641
#
# Velocity S-wave (km/s) = 3.33635 3.59614 3.46868
# Velocity P-wave (km/s) = 5.04984 5.65678 5.36190
#
# Compressibility (1/GPa) = 0.03665237
#
# Stress axis : x y z
#
# Youngs Moduli (GPa) = 68.72194 73.49838 53.04789
#
# Poissons Ratio (x) = -0.05967 0.25345
# Poissons Ratio (y) = -0.05580 0.06429
# Poissons Ratio (z) = 0.32834 0.08908
#
# Static dielectric constant tensor:
#      x y z
#    x 5.142270 0.000000 0.011780 
#    y 0.000000 4.401590 0.000000 
#    z 0.011780 0.000000 4.805980 
# 
# 
# High freq. dielectric constant tensor:
#      x y z
#    x 2.048930 0.000000 -0.003990 
#    y 0.000000 2.003480 0.000000 
#    z -0.003990 0.000000 2.034700 
# 
# From -- ./inp_files/14059.got.cif
#   From: 2010.03.12/outbox.cif.g09.slc.cpg/sg4_8_cif.got.tgz:14059.got - 2010.03.31 09:31:35.
