data_PCOD8047419
_publ_section_title
;
Structure prediction by ZEFSAII (Michael W. Deem and Ramdas Pophale) SiO2 
 PCOD8047419
Probable space group: P 21
;
_chemical_formula_sum "Si O2"
_cell_formula_units_Z 16
_cell_length_a 17.940678
_cell_length_b 8.469738
_cell_length_c 17.940032
_cell_angle_alpha 90.000000
_cell_angle_beta 164.186460
_cell_angle_gamma 90.000000
_cell_volume 742.866383
_symmetry_space_group_name_H-M "P 21"
_symmetry_group_IT_number 4
_symmetry_cell_setting 'monoclinic'
loop_
_space_group_symop_operation_xyz
x,y,z
-x,1/2+y,-z
loop_
_atom_site_type_symbol
_atom_site_label
_atom_site_fract_x
_atom_site_fract_y
_atom_site_fract_z
Si Si1 0.749086 0.210090 0.539174
Si Si2 0.962324 0.867809 0.752585
Si Si3 0.716669 0.868499 0.993515
Si Si4 0.767361 0.931677 0.211896
Si Si5 0.504868 0.209504 0.781584
Si Si6 0.663240 0.210841 0.629244
Si Si7 0.129260 0.367751 0.163041
Si Si8 0.712607 0.647118 0.268121
O O1 0.491371 0.237388 0.237557
O O2 0.644791 0.222893 0.522880
O O3 0.867709 0.038895 0.633835
O O4 0.981018 0.339933 0.747114
O O5 0.755281 0.737745 0.521256
O O6 0.977162 0.855157 0.855500
O O7 0.264530 0.840647 0.011280
O O8 0.623636 0.038951 0.874544
O O9 0.712911 0.856532 0.078912
O O10 0.812738 0.789535 0.312808
O O11 0.033756 0.039617 0.464940
O O12 0.509910 0.039243 0.988893
O O13 0.420805 0.221878 0.786713
O O14 0.363423 0.238902 0.374035
O O15 0.755025 0.039367 0.745189
O O16 0.874232 0.339835 0.863294
#
# Coordination Sequence:
#
# PCOD8047419 Si02
#       8
#     2   2   2   2   2   2   2   2
#     4  11  24  41  62  91 125 163 207 257 309 368
#     4  11  24  41  62  91 125 163 207 257 309 368
#     4  11  23  41  63  91 125 162 206 255 306 366
#     4  11  24  43  65  94 128 164 206 255 305 365
#     4  11  23  41  63  91 125 162 206 255 306 366
#     4  11  24  41  62  90 124 161 208 259 310 369
#     4  11  24  41  62  90 124 161 208 259 310 369
#     4  11  24  43  65  94 128 164 206 255 305 365
#
# _framework density 21.538195000000002
#
# number of rings (size 3 to 8) (size 9 to 14) (size 15 to 20)
#    0.000    1.000    0.000    7.500    0.000   13.000 
#    0.000    0.000    0.000    0.000    0.000    0.000 
#    0.000    0.000    0.000    0.000    0.000    0.000 
#
# Total GULP energy -198562.897867 kJ/mol
# GULP energy per Si atom -12410.181117 kJ/mol
# Density = 2.148917 g / cm^3
# Si number density = 21.538195 Si / 1000 Ang^3
#
#
#
# Elastic Constant Matrix: (Units=GPa)
#
#
# Indices 1 2 3 4 5 6 
#
# 1 91.2292 55.1001 41.2659 0.0000 -1.4203 0.0000
# 2 55.1001 75.8207 13.7037 0.0000 -7.2722 0.0000
# 3 41.2659 13.7037 114.1146 0.0000 6.1452 0.0000
# 4 0.0000 0.0000 0.0000 42.4069 0.0000 17.7798
# 5 -1.4203 -7.2722 6.1452 0.0000 21.3797 0.0000
# 6 0.0000 0.0000 0.0000 17.7798 0.0000 -57.5251
#
#
#
# Elastic Compliance Matrix: (Units=1/GPa)
#
#
# Indices 1 2 3 4 5 6 
#
# 1 0.023668 -0.016225 -0.006498 0.000000 -0.002079 0.000000
# 2 -0.016225 0.025182 0.002478 0.000000 0.006775 0.000000
# 3 -0.006498 0.002478 0.010963 0.000000 -0.002740 0.000000
# 4 0.000000 0.000000 0.000000 0.020876 0.000000 0.006452
# 5 -0.002079 0.006775 -0.002740 0.000000 0.049727 0.000000
# 6 0.000000 0.000000 0.000000 0.006452 0.000000 -0.015389
#
#
# Mechanical properties :
#
#
# Convention : Reuss Voigt Hill
#
# Bulk Modulus (GPa) = 51.75207 55.70047 53.72627
# Shear Modulus (GPa) = 30.87251 12.65861 21.76556
#
# Velocity S-wave (km/s) = 3.79011 2.42694 3.18237
# Velocity P-wave (km/s) = 6.57522 5.81126 6.20501
#
# Compressibility (1/GPa) = 0.01932290
#
# Stress axis : x y z
#
# Youngs Moduli (GPa) = 42.25170 39.71158 91.21603
#
# Poissons Ratio (x) = 0.64430 0.59276
# Poissons Ratio (y) = 0.68551 -0.22606
# Poissons Ratio (z) = 0.27457 -0.09842
#
# Static dielectric constant tensor:
#      x y z
#    x 3.767670 0.000000 0.066010 
#    y 0.000000 4.125290 0.000000 
#    z 0.066010 0.000000 4.128390 
# 
# 
# High freq. dielectric constant tensor:
#      x y z
#    x 1.845320 0.000000 0.003740 
#    y 0.000000 1.854200 0.000000 
#    z 0.003740 0.000000 1.865820 
# 
# From -- ./inp_files/14218.got.cif
#   From: 2010.03.12/outbox.cif.g09.slc.cpg/sg4_8_cif.got.tgz:14218.got - 2010.03.31 09:31:35.
