data_PCOD8047917
_publ_section_title
;
Structure prediction by ZEFSAII (Michael W. Deem and Ramdas Pophale) SiO2 
 PCOD8047917
Probable space group: P 21
;
_chemical_formula_sum "Si O2"
_cell_formula_units_Z 12
_cell_length_a 9.058319
_cell_length_b 8.571259
_cell_length_c 7.179532
_cell_angle_alpha 90.000000
_cell_angle_beta 107.872117
_cell_angle_gamma 90.000000
_cell_volume 530.528173
_symmetry_space_group_name_H-M "P 21"
_symmetry_group_IT_number 4
_symmetry_cell_setting 'monoclinic'
loop_
_space_group_symop_operation_xyz
x,y,z
-x,1/2+y,-z
loop_
_atom_site_type_symbol
_atom_site_label
_atom_site_fract_x
_atom_site_fract_y
_atom_site_fract_z
Si Si1 0.344504 0.820760 0.790772
Si Si2 0.976686 0.766772 0.144869
Si Si3 0.507162 0.989020 0.182949
Si Si4 0.000586 0.912354 0.778156
Si Si5 0.737220 0.472845 0.601770
Si Si6 0.775128 0.791664 0.407230
O O1 0.388589 0.639379 0.820744
O O2 0.169608 0.849032 0.790517
O O3 0.364373 0.871488 0.583127
O O4 0.456603 0.922383 0.964051
O O5 0.016784 0.586453 0.157348
O O6 0.118303 0.872196 0.271577
O O7 0.640247 0.527255 0.744410
O O8 0.931930 0.806691 0.916561
O O9 0.602238 0.859823 0.337649
O O10 0.175137 0.287302 0.788649
O O11 0.891592 0.906584 0.556753
O O12 0.792185 0.623375 0.508049
#
# Coordination Sequence:
#
# PCOD8047917 Si02
#       6
#     2   2   2   2   2   2
#     4  12  26  49  72 105 150 188 242 299 365 432
#     4  12  25  45  76 107 143 184 246 299 360 430
#     4  12  29  46  73 108 147 196 239 300 364 436
#     4  12  27  45  76 106 143 191 239 303 363 432
#     4  12  25  49  74 106 148 189 244 298 365 436
#     4  12  26  46  75 108 143 190 244 299 363 428
#
# _framework density 22.618970000000001
#
# number of rings (size 3 to 8) (size 9 to 14) (size 15 to 20)
#    0.000    0.000    5.000    4.000    4.667    1.333 
#    0.000    0.000    0.000    0.000    0.000    0.000 
#    0.000    0.000    0.000    0.000    0.000    0.000 
#
# Total GULP energy -148852.251148 kJ/mol
# GULP energy per Si atom -12404.354262 kJ/mol
# Density = 2.256749 g / cm^3
# Si number density = 22.618970 Si / 1000 Ang^3
#
#
#
# Elastic Constant Matrix: (Units=GPa)
#
#
# Indices 1 2 3 4 5 6 
#
# 1 90.3323 30.3073 6.4323 0.0000 -1.0078 0.0000
# 2 30.3073 68.9328 -1.3550 0.0000 -8.6125 0.0000
# 3 6.4323 -1.3550 71.7893 0.0000 0.2519 0.0000
# 4 0.0000 0.0000 0.0000 47.3565 0.0000 -3.4726
# 5 -1.0078 -8.6125 0.2519 0.0000 35.7573 0.0000
# 6 0.0000 0.0000 0.0000 -3.4726 0.0000 35.4324
#
#
#
# Elastic Compliance Matrix: (Units=1/GPa)
#
#
# Indices 1 2 3 4 5 6 
#
# 1 0.013141 -0.005934 -0.001286 0.000000 -0.001050 0.000000
# 2 -0.005934 0.017642 0.000850 0.000000 0.004076 0.000000
# 3 -0.001286 0.000850 0.014061 0.000000 0.000070 0.000000
# 4 0.000000 0.000000 0.000000 0.021269 0.000000 0.002085
# 5 -0.001050 0.004076 0.000070 0.000000 0.028918 0.000000
# 6 0.000000 0.000000 0.000000 0.002085 0.000000 0.028427
#
#
# Mechanical properties :
#
#
# Convention : Reuss Voigt Hill
#
# Bulk Modulus (GPa) = 31.14817 33.53597 32.34207
# Shear Modulus (GPa) = 34.03715 36.75390 35.39553
#
# Velocity S-wave (km/s) = 3.88339 4.03540 3.96012
# Velocity P-wave (km/s) = 5.82309 6.04742 5.93631
#
# Compressibility (1/GPa) = 0.03210462
#
# Stress axis : x y z
#
# Youngs Moduli (GPa) = 76.09757 56.68337 71.12037
#
# Poissons Ratio (x) = 0.33636 0.09144
# Poissons Ratio (y) = 0.45157 -0.06048
# Poissons Ratio (z) = 0.09784 -0.04820
#
# Static dielectric constant tensor:
#      x y z
#    x 3.974470 0.000000 -0.179620 
#    y 0.000000 4.150350 0.000000 
#    z -0.179620 0.000000 4.490950 
# 
# 
# High freq. dielectric constant tensor:
#      x y z
#    x 1.889130 0.000000 -0.009000 
#    y 0.000000 1.906120 0.000000 
#    z -0.009000 0.000000 1.913240 
# 
# From -- ./inp_files/5628.got.cif
#   From: 2010.03.12/outbox.cif.g09.slc.cpg/sg4_3_cif.got.tgz:5628.got - 2010.03.31 09:31:35.
