data_PCOD8047580
_publ_section_title
;
Structure prediction by ZEFSAII (Michael W. Deem and Ramdas Pophale) SiO2 
 PCOD8047580
Probable space group: P 21
;
_chemical_formula_sum "Si O2"
_cell_formula_units_Z 14
_cell_length_a 13.114042
_cell_length_b 8.840814
_cell_length_c 13.422856
_cell_angle_alpha 90.000000
_cell_angle_beta 21.979488
_cell_angle_gamma 90.000000
_cell_volume 582.457379
_symmetry_space_group_name_H-M "P 21"
_symmetry_group_IT_number 4
_symmetry_cell_setting 'monoclinic'
loop_
_space_group_symop_operation_xyz
x,y,z
-x,1/2+y,-z
loop_
_atom_site_type_symbol
_atom_site_label
_atom_site_fract_x
_atom_site_fract_y
_atom_site_fract_z
Si Si1 0.467587 0.837240 0.847491
Si Si2 0.031009 0.535519 0.668419
Si Si3 0.858833 0.728362 0.641043
Si Si4 0.539148 0.023556 0.217215
Si Si5 0.719340 0.844340 0.241660
Si Si6 0.815215 0.147592 0.264698
Si Si7 0.034971 0.500628 0.333992
O O1 0.679261 0.970226 0.628963
O O2 0.552260 0.759095 0.876901
O O3 0.456831 0.705637 0.772968
O O4 0.163830 0.899854 0.122886
O O5 0.083887 0.650918 0.711918
O O6 0.866451 0.623261 0.731199
O O7 0.023716 0.665432 0.395788
O O8 0.988962 0.887845 0.551216
O O9 0.691619 0.942871 0.167683
O O10 0.227067 0.969195 0.497837
O O11 0.690897 0.979040 0.976802
O O12 0.458564 0.743017 0.502539
O O13 0.773604 0.969070 0.277979
O O14 0.965138 0.725870 0.006591
#
# Coordination Sequence:
#
# PCOD8047580 Si02
#       7
#     2   2   2   2   2   2   2
#     4  11  26  41  70 105 139 197 234 311 360 443
#     4  12  26  45  72 103 151 185 254 296 373 433
#     4  11  24  44  65 102 140 185 239 295 360 433
#     4  11  25  44  71  98 144 183 248 290 377 432
#     4  12  27  51  79 114 148 198 245 316 379 449
#     4  12  29  50  81 115 150 199 249 314 380 446
#     4  11  25  41  68  99 138 187 237 296 363 438
#
# _framework density 24.036092
#
# number of rings (size 3 to 8) (size 9 to 14) (size 15 to 20)
#    0.000    0.571    1.429    6.000    8.000    3.429 
#    0.000    0.000    0.000    0.000    0.000    0.000 
#    0.000    0.000    0.000    0.000    0.000    0.000 
#
# Total GULP energy -173587.134044 kJ/mol
# GULP energy per Si atom -12399.081003 kJ/mol
# Density = 2.398139 g / cm^3
# Si number density = 24.036092 Si / 1000 Ang^3
#
#
#
# Elastic Constant Matrix: (Units=GPa)
#
#
# Indices 1 2 3 4 5 6 
#
# 1 73.5831 28.6305 21.6370 0.0000 -0.3703 0.0000
# 2 28.6305 98.7825 36.0291 0.0000 -10.7228 0.0000
# 3 21.6370 36.0291 115.9915 0.0000 -13.0945 0.0000
# 4 0.0000 0.0000 0.0000 42.6600 0.0000 -8.2132
# 5 -0.3703 -10.7228 -13.0945 0.0000 25.3783 0.0000
# 6 0.0000 0.0000 0.0000 -8.2132 0.0000 53.4539
#
#
#
# Elastic Compliance Matrix: (Units=1/GPa)
#
#
# Indices 1 2 3 4 5 6 
#
# 1 0.015756 -0.004132 -0.001940 0.000000 -0.002517 0.000000
# 2 -0.004132 0.012747 -0.002748 0.000000 0.003908 0.000000
# 3 -0.001940 -0.002748 0.010302 0.000000 0.004127 0.000000
# 4 0.000000 0.000000 0.000000 0.024156 0.000000 0.003712
# 5 -0.002517 0.003908 0.004127 0.000000 0.043148 0.000000
# 6 0.000000 0.000000 0.000000 0.003712 0.000000 0.019278
#
#
# Mechanical properties :
#
#
# Convention : Reuss Voigt Hill
#
# Bulk Modulus (GPa) = 47.24455 51.21669 49.23062
# Shear Modulus (GPa) = 33.31541 37.76913 35.54227
#
# Velocity S-wave (km/s) = 3.72702 3.96833 3.84956
# Velocity P-wave (km/s) = 6.18217 6.50779 6.34707
#
# Compressibility (1/GPa) = 0.02116646
#
# Stress axis : x y z
#
# Youngs Moduli (GPa) = 63.46962 78.44836 97.06462
#
# Poissons Ratio (x) = 0.32417 0.18827
# Poissons Ratio (y) = 0.26227 0.26669
# Poissons Ratio (z) = 0.12311 0.21554
#
# Static dielectric constant tensor:
#      x y z
#    x 4.353940 0.000000 -0.125290 
#    y 0.000000 4.587200 0.000000 
#    z -0.125290 0.000000 4.056560 
# 
# 
# High freq. dielectric constant tensor:
#      x y z
#    x 1.952090 0.000000 -0.010320 
#    y 0.000000 1.972670 0.000000 
#    z -0.010320 0.000000 1.947460 
# 
# From -- ./inp_files/14160.got.cif
#   From: 2010.03.12/outbox.cif.g09.slc.cpg/sg4_8_cif.got.tgz:14160.got - 2010.03.31 09:31:35.
