data_PCOD8047592
_publ_section_title
;
Structure prediction by ZEFSAII (Michael W. Deem and Ramdas Pophale) SiO2 
 PCOD8047592
Probable space group: P 21
;
_chemical_formula_sum "Si O2"
_cell_formula_units_Z 16
_cell_length_a 10.135368
_cell_length_b 12.148708
_cell_length_c 5.205915
_cell_angle_alpha 90.000000
_cell_angle_beta 103.144288
_cell_angle_gamma 90.000000
_cell_volume 624.218554
_symmetry_space_group_name_H-M "P 21"
_symmetry_group_IT_number 4
_symmetry_cell_setting 'monoclinic'
loop_
_space_group_symop_operation_xyz
x,y,z
-x,1/2+y,-z
loop_
_atom_site_type_symbol
_atom_site_label
_atom_site_fract_x
_atom_site_fract_y
_atom_site_fract_z
Si Si1 0.370618 0.791760 0.774427
Si Si2 0.095330 0.189140 0.652379
Si Si3 0.298041 0.415567 0.388381
Si Si4 0.414296 0.004417 0.599835
Si Si5 0.181069 0.062710 0.174530
Si Si6 0.824577 0.107457 0.385648
Si Si7 0.532246 0.742704 0.333373
Si Si8 0.932513 0.918809 0.110486
O O1 0.242234 0.714753 0.769010
O O2 0.449017 0.740410 0.562157
O O3 0.317193 0.917468 0.706462
O O4 0.454690 0.800726 0.071126
O O5 0.141601 0.145132 0.393528
O O6 0.081671 0.323045 0.679101
O O7 0.943105 0.143655 0.631570
O O8 0.184777 0.134639 0.916910
O O9 0.446139 0.433149 0.327488
O O10 0.283902 0.532065 0.519097
O O11 0.322829 0.307786 0.579977
O O12 0.166055 0.384086 0.166016
O O13 0.337410 0.024774 0.293280
O O14 0.435380 0.119800 0.749482
O O15 0.087692 0.951318 0.105470
O O16 0.878417 0.036020 0.175996
#
# Coordination Sequence:
#
# PCOD8047592 Si02
#       8
#     2   2   2   2   2   2   2   2
#     4  11  26  44  69 103 145 186 232 297 356 423
#     4  11  26  45  75 103 142 192 244 299 357 432
#     4  11  24  44  73 105 141 193 240 300 357 435
#     4  11  25  46  70 105 148 187 238 301 361 427
#     4  11  26  46  67 106 141 188 238 298 360 428
#     4  11  24  46  73 107 143 191 245 295 363 429
#     4  11  26  41  68 105 141 186 237 289 359 424
#     4  11  25  46  73 102 143 193 240 301 357 432
#
# _framework density 25.632051000000001
#
# number of rings (size 3 to 8) (size 9 to 14) (size 15 to 20)
#    0.000    1.000    2.500    2.250    8.750    3.000 
#    0.000    0.000    0.000    0.000    0.000    0.000 
#    0.000    0.000    0.000    0.000    0.000    0.000 
#
# Total GULP energy -198226.746950 kJ/mol
# GULP energy per Si atom -12389.171684 kJ/mol
# Density = 2.557371 g / cm^3
# Si number density = 25.632051 Si / 1000 Ang^3
#
#
#
# Elastic Constant Matrix: (Units=GPa)
#
#
# Indices 1 2 3 4 5 6 
#
# 1 38.0668 -0.1903 3.8185 0.0000 7.3900 0.0000
# 2 -0.1903 149.8259 8.4360 0.0000 17.2527 0.0000
# 3 3.8185 8.4360 115.4444 0.0000 17.3118 0.0000
# 4 0.0000 0.0000 0.0000 29.8804 0.0000 1.9411
# 5 7.3900 17.2527 17.3118 0.0000 32.0069 0.0000
# 6 0.0000 0.0000 0.0000 1.9411 0.0000 22.0447
#
#
#
# Elastic Compliance Matrix: (Units=1/GPa)
#
#
# Indices 1 2 3 4 5 6 
#
# 1 0.027597 0.000820 0.000053 0.000000 -0.006843 0.000000
# 2 0.000820 0.007141 0.000062 0.000000 -0.004072 0.000000
# 3 0.000053 0.000062 0.009427 0.000000 -0.005145 0.000000
# 4 0.000000 0.000000 0.000000 0.033659 0.000000 -0.002964
# 5 -0.006843 -0.004072 -0.005145 0.000000 0.037801 0.000000
# 6 0.000000 0.000000 0.000000 -0.002964 0.000000 0.045623
#
#
# Mechanical properties :
#
#
# Convention : Reuss Voigt Hill
#
# Bulk Modulus (GPa) = 21.72259 36.38505 29.05382
# Shear Modulus (GPa) = 28.61671 36.20460 32.41066
#
# Velocity S-wave (km/s) = 3.34495 3.76237 3.55978
# Velocity P-wave (km/s) = 4.83853 5.75324 5.31560
#
# Compressibility (1/GPa) = 0.04603503
#
# Stress axis : x y z
#
# Youngs Moduli (GPa) = 36.23623 140.03916 106.07393
#
# Poissons Ratio (x) = -0.11483 -0.00566
# Poissons Ratio (y) = -0.02971 -0.00654
# Poissons Ratio (z) = -0.00193 -0.00864
#
# Static dielectric constant tensor:
#      x y z
#    x 4.930060 0.000000 0.410190 
#    y 0.000000 5.277360 0.000000 
#    z 0.410190 0.000000 4.401770 
# 
# 
# High freq. dielectric constant tensor:
#      x y z
#    x 2.017540 0.000000 0.023170 
#    y 0.000000 2.052810 0.000000 
#    z 0.023170 0.000000 2.013820 
# 
# From -- ./inp_files/2891.got.cif
#   From: 2010.03.12/outbox.cif.g09.slc.cpg/sg4_2_cif.got.tgz:2891.got - 2010.03.31 09:31:35.
