data_PCOD8047001
_publ_section_title
;
Structure prediction by ZEFSAII (Michael W. Deem and Ramdas Pophale) SiO2 
 PCOD8047001
Probable space group: P 21
;
_chemical_formula_sum "Si O2"
_cell_formula_units_Z 14
_cell_length_a 9.379517
_cell_length_b 5.001872
_cell_length_c 13.174616
_cell_angle_alpha 90.000000
_cell_angle_beta 67.207048
_cell_angle_gamma 90.000000
_cell_volume 569.822932
_symmetry_space_group_name_H-M "P 21"
_symmetry_group_IT_number 4
_symmetry_cell_setting 'monoclinic'
loop_
_space_group_symop_operation_xyz
x,y,z
-x,1/2+y,-z
loop_
_atom_site_type_symbol
_atom_site_label
_atom_site_fract_x
_atom_site_fract_y
_atom_site_fract_z
Si Si1 0.317039 0.316170 0.623841
Si Si2 0.871482 0.347129 0.807930
Si Si3 0.678293 0.316780 0.503984
Si Si4 0.477300 0.756050 0.071960
Si Si5 0.235466 0.216707 0.867619
Si Si6 0.026379 0.350577 0.099974
Si Si7 0.934961 0.451634 0.567096
O O1 0.500686 0.333495 0.579739
O O2 0.260411 0.538381 0.559490
O O3 0.246706 0.361410 0.754910
O O4 0.268019 0.029575 0.595253
O O5 0.686613 0.370932 0.843851
O O6 0.938841 0.550800 0.872781
O O7 0.961065 0.407596 0.678974
O O8 0.913385 0.050101 0.830088
O O9 0.759628 0.368853 0.588676
O O10 0.593809 0.680723 0.131641
O O11 0.444674 0.487253 0.017327
O O12 0.125464 0.399248 0.969196
O O13 0.153282 0.924425 0.875409
O O14 0.956348 0.760660 0.531153
#
# Coordination Sequence:
#
# PCOD8047001 Si02
#       7
#     2   2   2   2   2   2   2
#     4  10  24  43  77  94 147 181 243 294 366 419
#     4  12  26  51  72 111 151 200 242 318 365 458
#     4  10  23  47  65 111 130 189 242 302 343 447
#     4  12  25  48  76 105 148 201 252 299 368 451
#     4  12  27  48  74 113 147 204 238 318 370 456
#     4  12  28  45  74 111 157 187 255 299 384 449
#     4  12  27  44  74 103 144 190 242 298 374 434
#
# _framework density 24.569037000000002
#
# number of rings (size 3 to 8) (size 9 to 14) (size 15 to 20)
#    0.000    0.571    2.857    3.429    6.000    4.571 
#    0.000    5.714    0.000    0.000    0.000    0.000 
#    0.000    0.000    0.000    0.000    0.000    0.000 
#
# Total GULP energy -173640.420271 kJ/mol
# GULP energy per Si atom -12402.887162 kJ/mol
# Density = 2.451312 g / cm^3
# Si number density = 24.569037 Si / 1000 Ang^3
#
#
#
# Elastic Constant Matrix: (Units=GPa)
#
#
# Indices 1 2 3 4 5 6 
#
# 1 103.0984 14.3422 3.2145 0.0000 3.5421 0.0000
# 2 14.3422 88.9219 11.7833 0.0000 -1.7471 0.0000
# 3 3.2145 11.7833 130.8031 0.0000 5.2256 0.0000
# 4 0.0000 0.0000 0.0000 21.3281 0.0000 -3.5238
# 5 3.5421 -1.7471 5.2256 0.0000 36.0976 0.0000
# 6 0.0000 0.0000 0.0000 -3.5238 0.0000 40.1412
#
#
#
# Elastic Compliance Matrix: (Units=1/GPa)
#
#
# Indices 1 2 3 4 5 6 
#
# 1 0.009963 -0.001620 -0.000057 0.000000 -0.001048 0.000000
# 2 -0.001620 0.011663 -0.001046 0.000000 0.000875 0.000000
# 3 -0.000057 -0.001046 0.007788 0.000000 -0.001172 0.000000
# 4 0.000000 0.000000 0.000000 0.047577 0.000000 0.004177
# 5 -0.001048 0.000875 -0.001172 0.000000 0.028018 0.000000
# 6 0.000000 0.000000 0.000000 0.004177 0.000000 0.025279
#
#
# Mechanical properties :
#
#
# Convention : Reuss Voigt Hill
#
# Bulk Modulus (GPa) = 41.72309 42.38926 42.05618
# Shear Modulus (GPa) = 34.78978 39.07895 36.93437
#
# Velocity S-wave (km/s) = 3.76706 3.99253 3.88143
# Velocity P-wave (km/s) = 5.99499 6.20841 6.10263
#
# Compressibility (1/GPa) = 0.02396754
#
# Stress axis : x y z
#
# Youngs Moduli (GPa) = 100.37549 85.74229 128.41053
#
# Poissons Ratio (x) = 0.13889 0.00733
# Poissons Ratio (y) = 0.16260 0.13429
# Poissons Ratio (z) = 0.00573 0.08967
#
# Static dielectric constant tensor:
#      x y z
#    x 4.682540 0.000000 0.000740 
#    y 0.000000 4.332900 0.000000 
#    z 0.000740 0.000000 4.314410 
# 
# 
# High freq. dielectric constant tensor:
#      x y z
#    x 2.002920 0.000000 0.004330 
#    y 0.000000 1.976390 0.000000 
#    z 0.004330 0.000000 1.971620 
# 
# From -- ./inp_files/10642.got.cif
#   From: 2010.03.12/outbox.cif.g09.slc.cpg/sg4_6_cif.got.tgz:10642.got - 2010.03.31 09:31:35.
