data_PCOD8047500
_publ_section_title
;
Structure prediction by ZEFSAII (Michael W. Deem and Ramdas Pophale) SiO2 
 PCOD8047500
Probable space group: P 21
;
_chemical_formula_sum "Si O2"
_cell_formula_units_Z 12
_cell_length_a 11.993050
_cell_length_b 8.708517
_cell_length_c 8.495367
_cell_angle_alpha 90.000000
_cell_angle_beta 34.452596
_cell_angle_gamma 90.000000
_cell_volume 501.950335
_symmetry_space_group_name_H-M "P 21"
_symmetry_group_IT_number 4
_symmetry_cell_setting 'monoclinic'
loop_
_space_group_symop_operation_xyz
x,y,z
-x,1/2+y,-z
loop_
_atom_site_type_symbol
_atom_site_label
_atom_site_fract_x
_atom_site_fract_y
_atom_site_fract_z
Si Si1 0.741498 0.357040 0.897461
Si Si2 0.100489 0.597979 0.751372
Si Si3 0.694264 0.825047 0.673404
Si Si4 0.600243 0.294807 0.406778
Si Si5 0.714384 0.601283 0.381157
Si Si6 0.056973 0.178563 0.372957
O O1 0.870762 0.503669 0.699923
O O2 0.856576 0.204213 0.707152
O O3 0.532526 0.374158 0.052626
O O4 0.716192 0.343440 0.113860
O O5 0.001041 0.715409 0.741047
O O6 0.173014 0.448907 0.572105
O O7 0.285027 0.668525 0.626199
O O8 0.933733 0.555181 0.072189
O O9 0.717344 0.663630 0.554601
O O10 0.774723 0.794037 0.756284
O O11 0.578547 0.448874 0.535715
O O12 0.384320 0.229952 0.617660
#
# Coordination Sequence:
#
# PCOD8047500 Si02
#       6
#     2   2   2   2   2   2
#     4  11  26  49  69 102 142 187 236 288 349 421
#     4  12  25  44  74  99 143 184 231 298 343 420
#     4  11  27  47  72 103 144 187 237 288 350 424
#     4  11  24  46  70 103 140 182 238 289 352 410
#     4  11  23  45  71 103 138 185 235 293 346 416
#     4  12  25  47  70 102 145 183 235 292 350 423
#
# _framework density 23.906748
#
# number of rings (size 3 to 8) (size 9 to 14) (size 15 to 20)
#    0.000    0.667    3.333    4.000    4.667    0.000 
#    9.000    0.000    0.000    0.000    0.000    0.000 
#    0.000    0.000    0.000    0.000    0.000    0.000 
#
# Total GULP energy -148791.874706 kJ/mol
# GULP energy per Si atom -12399.322892 kJ/mol
# Density = 2.385234 g / cm^3
# Si number density = 23.906748 Si / 1000 Ang^3
#
#
#
# Elastic Constant Matrix: (Units=GPa)
#
#
# Indices 1 2 3 4 5 6 
#
# 1 110.9351 0.8382 10.8265 0.0000 -13.6471 0.0000
# 2 0.8382 85.8333 28.5543 0.0000 -3.6505 0.0000
# 3 10.8265 28.5543 93.3806 0.0000 -25.5650 0.0000
# 4 0.0000 0.0000 0.0000 39.2608 0.0000 0.6253
# 5 -13.6471 -3.6505 -25.5650 0.0000 31.8060 0.0000
# 6 0.0000 0.0000 0.0000 0.6253 0.0000 40.4066
#
#
#
# Elastic Compliance Matrix: (Units=1/GPa)
#
#
# Indices 1 2 3 4 5 6 
#
# 1 0.009517 0.000084 -0.000011 0.000000 0.004084 0.000000
# 2 0.000084 0.013089 -0.004604 0.000000 -0.002162 0.000000
# 3 -0.000011 -0.004604 0.015350 0.000000 0.011805 0.000000
# 4 0.000000 0.000000 0.000000 0.025477 0.000000 -0.000394
# 5 0.004084 -0.002162 0.011805 0.000000 0.042433 0.000000
# 6 0.000000 0.000000 0.000000 -0.000394 0.000000 0.024755
#
#
# Mechanical properties :
#
#
# Convention : Reuss Voigt Hill
#
# Bulk Modulus (GPa) = 34.60848 41.17632 37.89240
# Shear Modulus (GPa) = 33.48636 38.95670 36.22153
#
# Velocity S-wave (km/s) = 3.74666 4.04112 3.89667
# Velocity P-wave (km/s) = 5.76407 6.24782 6.01082
#
# Compressibility (1/GPa) = 0.02889465
#
# Stress axis : x y z
#
# Youngs Moduli (GPa) = 105.07320 76.39758 65.14719
#
# Poissons Ratio (x) = -0.00645 0.00072
# Poissons Ratio (y) = -0.00887 0.29996
# Poissons Ratio (z) = 0.00116 0.35176
#
# Static dielectric constant tensor:
#      x y z
#    x 4.801190 0.000000 -0.135760 
#    y 0.000000 4.267830 0.000000 
#    z -0.135760 0.000000 4.083880 
# 
# 
# High freq. dielectric constant tensor:
#      x y z
#    x 1.971190 0.000000 -0.017090 
#    y 0.000000 1.941730 0.000000 
#    z -0.017090 0.000000 1.932190 
# 
# From -- ./inp_files/7904.got.cif
#   From: 2010.03.12/outbox.cif.g09.slc.cpg/sg4_4_cif.got.tgz:7904.got - 2010.03.31 09:31:35.
