data_PCOD8047618
_publ_section_title
;
Structure prediction by ZEFSAII (Michael W. Deem and Ramdas Pophale) SiO2 
 PCOD8047618
Probable space group: P 21
;
_chemical_formula_sum "Si O2"
_cell_formula_units_Z 12
_cell_length_a 8.731831
_cell_length_b 8.902095
_cell_length_c 10.631384
_cell_angle_alpha 90.000000
_cell_angle_beta 141.558056
_cell_angle_gamma 90.000000
_cell_volume 513.787004
_symmetry_space_group_name_H-M "P 21"
_symmetry_group_IT_number 4
_symmetry_cell_setting 'monoclinic'
loop_
_space_group_symop_operation_xyz
x,y,z
-x,1/2+y,-z
loop_
_atom_site_type_symbol
_atom_site_label
_atom_site_fract_x
_atom_site_fract_y
_atom_site_fract_z
Si Si1 0.262626 0.939540 0.094274
Si Si2 0.291730 0.490988 0.790398
Si Si3 0.376425 0.249237 0.544494
Si Si4 0.063585 0.795705 0.575201
Si Si5 0.470136 0.481954 0.173136
Si Si6 0.806696 0.744986 0.835342
O O1 0.436667 0.888003 0.321768
O O2 0.431988 0.956201 0.079599
O O3 0.130158 0.094556 0.047313
O O4 0.055087 0.814719 0.938780
O O5 0.177130 0.628383 0.634990
O O6 0.116741 0.343918 0.657593
O O7 0.303579 0.532096 0.946196
O O8 0.372478 0.202466 0.396226
O O9 0.102656 0.302672 0.406727
O O10 0.469174 0.118342 0.696359
O O11 0.280690 0.915528 0.724284
O O12 0.326592 0.356599 0.156633
#
# Coordination Sequence:
#
# PCOD8047618 Si02
#       6
#     2   2   2   2   2   2
#     4  11  26  45  70 103 142 193 234 298 351 429
#     4  11  26  47  72 108 141 186 247 293 360 415
#     4  11  26  45  71 102 146 187 239 298 352 419
#     4  11  24  45  73 103 144 185 236 305 351 422
#     4  12  26  45  77 104 143 192 240 298 350 433
#     4  12  26  47  69 104 146 193 236 290 364 418
#
# _framework density 23.355982000000001
#
# number of rings (size 3 to 8) (size 9 to 14) (size 15 to 20)
#    0.000    0.667    3.333    3.000    9.333    1.333 
#    6.000    0.000    0.000    0.000    0.000    0.000 
#    0.000    0.000    0.000    0.000    0.000    0.000 
#
# Total GULP energy -148787.701561 kJ/mol
# GULP energy per Si atom -12398.975130 kJ/mol
# Density = 2.330282 g / cm^3
# Si number density = 23.355982 Si / 1000 Ang^3
#
#
#
# Elastic Constant Matrix: (Units=GPa)
#
#
# Indices 1 2 3 4 5 6 
#
# 1 73.0856 61.8675 67.2661 0.0000 -10.3420 0.0000
# 2 61.8675 124.7702 52.1831 0.0000 9.9526 0.0000
# 3 67.2661 52.1831 108.5417 0.0000 -10.5519 0.0000
# 4 0.0000 0.0000 0.0000 47.1476 0.0000 12.3597
# 5 -10.3420 9.9526 -10.5519 0.0000 39.8177 0.0000
# 6 0.0000 0.0000 0.0000 12.3597 0.0000 38.4157
#
#
#
# Elastic Compliance Matrix: (Units=1/GPa)
#
#
# Indices 1 2 3 4 5 6 
#
# 1 0.048107 -0.015889 -0.021118 0.000000 0.010870 0.000000
# 2 -0.015889 0.015902 0.001452 0.000000 -0.007717 0.000000
# 3 -0.021118 0.001452 0.021590 0.000000 -0.000126 0.000000
# 4 0.000000 0.000000 0.000000 0.023164 0.000000 -0.007453
# 5 0.010870 -0.007717 -0.000126 0.000000 0.029833 0.000000
# 6 0.000000 0.000000 0.000000 -0.007453 0.000000 0.028429
#
#
# Mechanical properties :
#
#
# Convention : Reuss Voigt Hill
#
# Bulk Modulus (GPa) = 69.01831 74.33676 71.67753
# Shear Modulus (GPa) = 20.57922 33.41494 26.99708
#
# Velocity S-wave (km/s) = 2.97157 3.78654 3.40353
# Velocity P-wave (km/s) = 6.43338 7.14241 6.79714
#
# Compressibility (1/GPa) = 0.01448891
#
# Stress axis : x y z
#
# Youngs Moduli (GPa) = 20.78703 62.88625 46.31778
#
# Poissons Ratio (x) = 0.99919 0.97812
# Poissons Ratio (y) = 0.33028 -0.06723
# Poissons Ratio (z) = 0.43897 -0.09128
#
# Static dielectric constant tensor:
#      x y z
#    x 4.089500 0.000000 0.261630 
#    y 0.000000 4.335750 0.000000 
#    z 0.261630 0.000000 4.269040 
# 
# 
# High freq. dielectric constant tensor:
#      x y z
#    x 1.921730 0.000000 0.012790 
#    y 0.000000 1.930500 0.000000 
#    z 0.012790 0.000000 1.927130 
# 
# From -- ./inp_files/10275.got.cif
#   From: 2010.03.12/outbox.cif.g09.slc.cpg/sg4_6_cif.got.tgz:10275.got - 2010.03.31 09:31:35.
