data_PCOD8047139
_publ_section_title
;
Structure prediction by ZEFSAII (Michael W. Deem and Ramdas Pophale) SiO2 
 PCOD8047139
Probable space group: P 21
;
_chemical_formula_sum "Si O2"
_cell_formula_units_Z 14
_cell_length_a 11.768587
_cell_length_b 8.954324
_cell_length_c 8.642226
_cell_angle_alpha 90.000000
_cell_angle_beta 38.206179
_cell_angle_gamma 90.000000
_cell_volume 563.271314
_symmetry_space_group_name_H-M "P 21"
_symmetry_group_IT_number 4
_symmetry_cell_setting 'monoclinic'
loop_
_space_group_symop_operation_xyz
x,y,z
-x,1/2+y,-z
loop_
_atom_site_type_symbol
_atom_site_label
_atom_site_fract_x
_atom_site_fract_y
_atom_site_fract_z
Si Si1 0.158203 0.817230 0.701945
Si Si2 0.348735 0.243384 0.114109
Si Si3 0.855972 0.621778 0.144453
Si Si4 0.457597 0.734737 0.606937
Si Si5 0.082246 0.759724 0.427731
Si Si6 0.279305 0.978371 0.994830
Si Si7 0.380807 0.570046 0.971724
O O1 0.356303 0.762669 0.551562
O O2 0.119694 0.765349 0.570050
O O3 0.136223 0.998021 0.727353
O O4 0.018955 0.741397 0.974683
O O5 0.388868 0.122238 0.938564
O O6 0.463933 0.189109 0.138847
O O7 0.132438 0.251858 0.382398
O O8 0.429383 0.401776 0.969376
O O9 0.670299 0.716880 0.344867
O O10 0.872517 0.529784 0.966575
O O11 0.380632 0.588808 0.784459
O O12 0.429047 0.876812 0.749405
O O13 0.171235 0.903095 0.251487
O O14 0.181009 0.611546 0.254716
#
# Coordination Sequence:
#
# PCOD8047139 Si02
#       7
#     2   2   2   2   2   2   2
#     4  11  27  47  76 108 147 193 256 295 388 434
#     4  12  25  46  76 108 150 187 249 311 369 430
#     4  11  26  48  72 108 150 197 237 317 365 457
#     4  10  26  48  71 109 153 193 246 303 370 448
#     4  11  25  49  76 108 146 193 247 316 359 437
#     4  10  24  48  74 109 144 191 254 295 375 436
#     4  11  27  44  75 112 144 198 247 305 374 442
#
# _framework density 24.854807999999998
#
# number of rings (size 3 to 8) (size 9 to 14) (size 15 to 20)
#    0.000    1.143    1.429    2.571    8.000    6.857 
#    0.000    0.000    0.000    0.000    0.000    0.000 
#    0.000    0.000    0.000    0.000    0.000    0.000 
#
# Total GULP energy -173593.204229 kJ/mol
# GULP energy per Si atom -12399.514588 kJ/mol
# Density = 2.479824 g / cm^3
# Si number density = 24.854808 Si / 1000 Ang^3
#
#
#
# Elastic Constant Matrix: (Units=GPa)
#
#
# Indices 1 2 3 4 5 6 
#
# 1 65.5764 18.8460 25.1879 0.0000 -6.2359 0.0000
# 2 18.8460 127.3481 32.8703 0.0000 -15.7331 0.0000
# 3 25.1879 32.8703 88.7734 0.0000 -6.6945 0.0000
# 4 0.0000 0.0000 0.0000 30.3847 0.0000 -7.7004
# 5 -6.2359 -15.7331 -6.6945 0.0000 33.4086 0.0000
# 6 0.0000 0.0000 0.0000 -7.7004 0.0000 32.8914
#
#
#
# Elastic Compliance Matrix: (Units=1/GPa)
#
#
# Indices 1 2 3 4 5 6 
#
# 1 0.017450 -0.001235 -0.004358 0.000000 0.001802 0.000000
# 2 -0.001235 0.009192 -0.002786 0.000000 0.003540 0.000000
# 3 -0.004358 -0.002786 0.013578 0.000000 0.000595 0.000000
# 4 0.000000 0.000000 0.000000 0.034987 0.000000 0.008191
# 5 0.001802 0.003540 0.000595 0.000000 0.032055 0.000000
# 6 0.000000 0.000000 0.000000 0.008191 0.000000 0.032321
#
#
# Mechanical properties :
#
#
# Convention : Reuss Voigt Hill
#
# Bulk Modulus (GPa) = 42.62356 48.38958 45.50657
# Shear Modulus (GPa) = 30.45813 32.98986 31.72399
#
# Velocity S-wave (km/s) = 3.50443 3.64717 3.57651
# Velocity P-wave (km/s) = 5.79318 6.10303 5.95012
#
# Compressibility (1/GPa) = 0.02346120
#
# Stress axis : x y z
#
# Youngs Moduli (GPa) = 57.30822 108.79384 73.65065
#
# Poissons Ratio (x) = 0.13434 0.32096
# Poissons Ratio (y) = 0.07077 0.20520
# Poissons Ratio (z) = 0.24974 0.30311
#
# Static dielectric constant tensor:
#      x y z
#    x 4.560920 0.000000 0.088680 
#    y 0.000000 4.815490 0.000000 
#    z 0.088680 0.000000 4.381580 
# 
# 
# High freq. dielectric constant tensor:
#      x y z
#    x 1.989200 0.000000 0.005320 
#    y 0.000000 2.000470 0.000000 
#    z 0.005320 0.000000 1.989160 
# 
# From -- ./inp_files/7472.got.cif
#   From: 2010.03.12/outbox.cif.g09.slc.cpg/sg4_4_cif.got.tgz:7472.got - 2010.03.31 09:31:35.
