data_PCOD8047222
_publ_section_title
;
Structure prediction by ZEFSAII (Michael W. Deem and Ramdas Pophale) SiO2 
 PCOD8047222
Probable space group: P 21
;
_chemical_formula_sum "Si O2"
_cell_formula_units_Z 16
_cell_length_a 12.308213
_cell_length_b 6.254574
_cell_length_c 12.064154
_cell_angle_alpha 90.000000
_cell_angle_beta 47.521572
_cell_angle_gamma 90.000000
_cell_volume 684.967981
_symmetry_space_group_name_H-M "P 21"
_symmetry_group_IT_number 4
_symmetry_cell_setting 'monoclinic'
loop_
_space_group_symop_operation_xyz
x,y,z
-x,1/2+y,-z
loop_
_atom_site_type_symbol
_atom_site_label
_atom_site_fract_x
_atom_site_fract_y
_atom_site_fract_z
Si Si1 0.860658 0.896960 0.866354
Si Si2 0.679509 0.240939 0.877830
Si Si3 0.450957 0.420764 0.196331
Si Si4 0.532353 0.349131 0.523288
Si Si5 0.173606 0.014124 0.716834
Si Si6 0.084524 0.077130 0.354080
Si Si7 0.168511 0.276595 0.507368
Si Si8 0.328146 0.172775 0.823261
O O1 0.892751 0.800388 0.723708
O O2 0.781637 0.119736 0.896432
O O3 0.753290 0.751434 0.011699
O O4 0.010092 0.920351 0.833479
O O5 0.635438 0.120672 0.795980
O O6 0.773043 0.442011 0.775947
O O7 0.525484 0.294444 0.044017
O O8 0.331519 0.284103 0.344981
O O9 0.571433 0.476472 0.206212
O O10 0.488834 0.096934 0.513460
O O11 0.709524 0.333985 0.407340
O O12 0.436922 0.360404 0.701489
O O13 0.179434 0.209651 0.626959
O O14 0.208774 0.095196 0.815984
O O15 0.077764 0.111929 0.491684
O O16 0.925243 0.993457 0.426694
#
# Coordination Sequence:
#
# PCOD8047222 Si02
#       8
#     2   2   2   2   2   2   2   2
#     4  12  26  50  75 108 149 202 250 320 378 460
#     4  12  25  50  72 112 151 191 263 314 392 454
#     4  12  26  45  78 109 151 202 251 326 392 465
#     4  10  26  50  75 110 159 208 266 318 378 466
#     4  11  28  47  74 115 150 206 251 313 389 472
#     4  12  25  50  72 112 151 191 263 314 392 454
#     4  12  26  45  78 109 151 202 251 326 392 465
#     4  11  28  47  74 115 150 206 251 313 389 472
#
# _framework density 23.358756
#
# number of rings (size 3 to 8) (size 9 to 14) (size 15 to 20)
#    0.000    0.500    3.750    3.000   12.250    3.000 
#    0.000    0.000    0.000    0.000    0.000    0.000 
#    0.000    0.000    0.000    0.000    0.000    0.000 
#
# Total GULP energy -198214.319904 kJ/mol
# GULP energy per Si atom -12388.394994 kJ/mol
# Density = 2.330559 g / cm^3
# Si number density = 23.358756 Si / 1000 Ang^3
#
#
#
# Elastic Constant Matrix: (Units=GPa)
#
#
# Indices 1 2 3 4 5 6 
#
# 1 109.1310 19.5590 13.8662 0.0000 11.1374 0.0000
# 2 19.5590 79.1040 17.6582 0.0000 -0.1417 0.0000
# 3 13.8662 17.6582 80.1086 0.0000 -9.2376 0.0000
# 4 0.0000 0.0000 0.0000 26.7278 0.0000 -13.9783
# 5 11.1374 -0.1417 -9.2376 0.0000 43.7126 0.0000
# 6 0.0000 0.0000 0.0000 -13.9783 0.0000 31.3133
#
#
#
# Elastic Compliance Matrix: (Units=1/GPa)
#
#
# Indices 1 2 3 4 5 6 
#
# 1 0.010046 -0.002131 -0.001604 0.000000 -0.002905 0.000000
# 2 -0.002131 0.013763 -0.002662 0.000000 0.000025 0.000000
# 3 -0.001604 -0.002662 0.013728 0.000000 0.003301 0.000000
# 4 0.000000 0.000000 0.000000 0.048809 0.000000 0.021789
# 5 -0.002905 0.000025 0.003301 0.000000 0.024315 0.000000
# 6 0.000000 0.000000 0.000000 0.021789 0.000000 0.041662
#
#
# Mechanical properties :
#
#
# Convention : Reuss Voigt Hill
#
# Bulk Modulus (GPa) = 40.41646 41.16782 40.79214
# Shear Modulus (GPa) = 28.84108 34.83475 31.83791
#
# Velocity S-wave (km/s) = 3.51764 3.86592 3.69588
# Velocity P-wave (km/s) = 5.81708 6.13103 5.97612
#
# Compressibility (1/GPa) = 0.02474239
#
# Stress axis : x y z
#
# Youngs Moduli (GPa) = 99.54665 72.65995 72.84302
#
# Poissons Ratio (x) = 0.15484 0.11685
# Poissons Ratio (y) = 0.21213 0.19390
# Poissons Ratio (z) = 0.15968 0.19342
#
# Static dielectric constant tensor:
#      x y z
#    x 4.311380 0.000000 -0.226380 
#    y 0.000000 4.404880 0.000000 
#    z -0.226380 0.000000 4.567110 
# 
# 
# High freq. dielectric constant tensor:
#      x y z
#    x 1.931310 0.000000 -0.013410 
#    y 0.000000 1.914760 0.000000 
#    z -0.013410 0.000000 1.944460 
# 
# From -- ./inp_files/11599.got.cif
#   From: 2010.03.12/outbox.cif.g09.slc.cpg/sg4_6_cif.got.tgz:11599.got - 2010.03.31 09:31:35.
