data_PCOD8047047
_publ_section_title
;
Structure prediction by ZEFSAII (Michael W. Deem and Ramdas Pophale) SiO2 
 PCOD8047047
Probable space group: P 21
;
_chemical_formula_sum "Si O2"
_cell_formula_units_Z 12
_cell_length_a 5.144913
_cell_length_b 7.781988
_cell_length_c 13.269355
_cell_angle_alpha 90.000000
_cell_angle_beta 110.889679
_cell_angle_gamma 90.000000
_cell_volume 496.352500
_symmetry_space_group_name_H-M "P 21"
_symmetry_group_IT_number 4
_symmetry_cell_setting 'monoclinic'
loop_
_space_group_symop_operation_xyz
x,y,z
-x,1/2+y,-z
loop_
_atom_site_type_symbol
_atom_site_label
_atom_site_fract_x
_atom_site_fract_y
_atom_site_fract_z
Si Si1 0.224172 0.595790 0.907360
Si Si2 0.566200 0.272606 0.619107
Si Si3 0.262809 0.296566 0.060738
Si Si4 0.948069 0.369779 0.507100
Si Si5 0.864965 0.599733 0.674287
Si Si6 0.521024 0.911723 0.703809
O O1 0.548291 0.645480 0.959561
O O2 0.025580 0.734355 0.932900
O O3 0.145269 0.583108 0.778709
O O4 0.182992 0.417561 0.957890
O O5 0.762374 0.237802 0.548625
O O6 0.604908 0.108694 0.695319
O O7 0.661619 0.447648 0.688690
O O8 0.255423 0.299576 0.535783
O O9 0.451117 0.388015 0.172780
O O10 0.940107 0.555432 0.567013
O O11 0.800538 0.385772 0.376812
O O12 0.719436 0.783680 0.668297
#
# Coordination Sequence:
#
# PCOD8047047 Si02
#       6
#     2   2   2   2   2   2
#     4  11  25  47  70 101 136 174 231 277 352 392
#     4  10  25  40  65 102 131 192 215 283 326 410
#     4  11  27  44  74  99 132 182 220 295 331 416
#     4  10  24  42  66  99 142 177 222 277 337 397
#     4   9  25  43  68  97 140 180 219 286 331 403
#     4  11  24  44  69 102 137 177 237 266 351 398
#
# _framework density 24.176366000000002
#
# number of rings (size 3 to 8) (size 9 to 14) (size 15 to 20)
#    1.000    0.667    0.000    2.000    9.333    6.667 
#    0.000    0.000    0.000    0.000    0.000    0.000 
#    0.000    0.000    0.000    0.000    0.000    0.000 
#
# Total GULP energy -148758.306918 kJ/mol
# GULP energy per Si atom -12396.525577 kJ/mol
# Density = 2.412134 g / cm^3
# Si number density = 24.176366 Si / 1000 Ang^3
#
#
#
# Elastic Constant Matrix: (Units=GPa)
#
#
# Indices 1 2 3 4 5 6 
#
# 1 86.5456 8.4860 0.5437 0.0000 4.6674 0.0000
# 2 8.4860 87.3784 -3.0772 0.0000 7.5712 0.0000
# 3 0.5437 -3.0772 69.9586 0.0000 9.5629 0.0000
# 4 0.0000 0.0000 0.0000 36.5999 0.0000 9.0651
# 5 4.6674 7.5712 9.5629 0.0000 28.0989 0.0000
# 6 0.0000 0.0000 0.0000 9.0651 0.0000 12.2385
#
#
#
# Elastic Compliance Matrix: (Units=1/GPa)
#
#
# Indices 1 2 3 4 5 6 
#
# 1 0.011744 -0.000988 0.000100 0.000000 -0.001719 0.000000
# 2 -0.000988 0.011867 0.000990 0.000000 -0.003371 0.000000
# 3 0.000100 0.000990 0.015077 0.000000 -0.005415 0.000000
# 4 0.000000 0.000000 0.000000 0.033461 0.000000 -0.024785
# 5 -0.001719 -0.003371 -0.005415 0.000000 0.038625 0.000000
# 6 0.000000 0.000000 0.000000 -0.024785 0.000000 0.100068
#
#
# Mechanical properties :
#
#
# Convention : Reuss Voigt Hill
#
# Bulk Modulus (GPa) = 25.71150 28.42085 27.06618
# Shear Modulus (GPa) = 22.36124 31.24944 26.80534
#
# Velocity S-wave (km/s) = 3.04455 3.59912 3.33339
# Velocity P-wave (km/s) = 4.79762 5.39006 5.10244
#
# Compressibility (1/GPa) = 0.03889310
#
# Stress axis : x y z
#
# Youngs Moduli (GPa) = 85.15319 84.26464 66.32569
#
# Poissons Ratio (x) = 0.08326 -0.00665
# Poissons Ratio (y) = 0.08414 -0.06569
# Poissons Ratio (z) = -0.00853 -0.08346
#
# Static dielectric constant tensor:
#      x y z
#    x 4.219570 0.000000 0.130160 
#    y 0.000000 4.472910 0.000000 
#    z 0.130160 0.000000 4.233530 
# 
# 
# High freq. dielectric constant tensor:
#      x y z
#    x 1.961370 0.000000 0.006920 
#    y 0.000000 1.967230 0.000000 
#    z 0.006920 0.000000 1.951070 
# 
# From -- ./inp_files/10272.got.cif
#   From: 2010.03.12/outbox.cif.g09.slc.cpg/sg4_6_cif.got.tgz:10272.got - 2010.03.31 09:31:35.
