data_PCOD8047746
_publ_section_title
;
Structure prediction by ZEFSAII (Michael W. Deem and Ramdas Pophale) SiO2 
 PCOD8047746
Probable space group: P 21
;
_chemical_formula_sum "Si O2"
_cell_formula_units_Z 14
_cell_length_a 5.483865
_cell_length_b 8.127764
_cell_length_c 12.056178
_cell_angle_alpha 90.000000
_cell_angle_beta 87.299609
_cell_angle_gamma 90.000000
_cell_volume 536.765955
_symmetry_space_group_name_H-M "P 21"
_symmetry_group_IT_number 4
_symmetry_cell_setting 'monoclinic'
loop_
_space_group_symop_operation_xyz
x,y,z
-x,1/2+y,-z
loop_
_atom_site_type_symbol
_atom_site_label
_atom_site_fract_x
_atom_site_fract_y
_atom_site_fract_z
Si Si1 0.708460 0.455270 0.511876
Si Si2 0.517182 0.173340 0.650428
Si Si3 0.979824 0.197945 0.357687
Si Si4 0.768126 0.938969 0.805112
Si Si5 0.087799 0.532525 0.858435
Si Si6 0.427571 0.178452 0.050953
Si Si7 0.169315 0.171079 0.843030
O O1 0.602165 0.357478 0.619437
O O2 0.492815 0.561900 0.460265
O O3 0.800575 0.328143 0.417708
O O4 0.913377 0.581843 0.548464
O O5 0.249881 0.177494 0.712346
O O6 0.691395 0.100340 0.739906
O O7 0.843496 0.085566 0.269064
O O8 0.186733 0.298617 0.287853
O O9 0.566077 0.863726 0.895345
O O10 0.007165 0.005917 0.866947
O O11 0.330032 0.578666 0.923550
O O12 0.026857 0.339888 0.871183
O O13 0.840818 0.617975 0.903760
O O14 0.410217 0.172566 0.917666
#
# Coordination Sequence:
#
# PCOD8047746 Si02
#       7
#     2   2   2   2   2   2   2
#     4  12  26  46  75 108 147 205 251 327 381 458
#     4  12  28  45  77 107 151 196 262 311 387 449
#     4  11  25  47  75 105 151 192 261 314 389 450
#     4  11  25  50  72 112 150 202 250 323 378 467
#     4  11  28  49  77 116 151 204 252 322 377 471
#     4  11  28  49  81 111 160 198 256 312 396 452
#     4  12  28  46  77 111 154 199 258 313 384 467
#
# _framework density 26.082131
#
# number of rings (size 3 to 8) (size 9 to 14) (size 15 to 20)
#    0.000    0.571    1.429    4.286   16.000    0.000 
#    0.000    0.000    0.000    0.000    0.000    0.000 
#    0.000    0.000    0.000    0.000    0.000    0.000 
#
# Total GULP energy -173555.458397 kJ/mol
# GULP energy per Si atom -12396.818457 kJ/mol
# Density = 2.602277 g / cm^3
# Si number density = 26.082131 Si / 1000 Ang^3
#
#
#
# Elastic Constant Matrix: (Units=GPa)
#
#
# Indices 1 2 3 4 5 6 
#
# 1 84.5902 18.3768 7.4064 0.0000 8.6516 0.0000
# 2 18.3768 111.2076 20.7601 0.0000 3.9964 0.0000
# 3 7.4064 20.7601 98.2788 0.0000 15.6707 0.0000
# 4 0.0000 0.0000 0.0000 46.5572 0.0000 7.4127
# 5 8.6516 3.9964 15.6707 0.0000 38.8581 0.0000
# 6 0.0000 0.0000 0.0000 7.4127 0.0000 29.9582
#
#
#
# Elastic Compliance Matrix: (Units=1/GPa)
#
#
# Indices 1 2 3 4 5 6 
#
# 1 0.012516 -0.001954 -0.000126 0.000000 -0.002535 0.000000
# 2 -0.001954 0.009667 -0.001930 0.000000 0.000219 0.000000
# 3 -0.000126 -0.001930 0.011282 0.000000 -0.004323 0.000000
# 4 0.000000 0.000000 0.000000 0.022360 0.000000 -0.005533
# 5 -0.002535 0.000219 -0.004323 0.000000 0.028020 0.000000
# 6 0.000000 0.000000 0.000000 -0.005533 0.000000 0.034749
#
#
# Mechanical properties :
#
#
# Convention : Reuss Voigt Hill
#
# Bulk Modulus (GPa) = 39.29917 43.01814 41.15865
# Shear Modulus (GPa) = 37.01083 39.57691 38.29387
#
# Velocity S-wave (km/s) = 3.77106 3.89960 3.83587
# Velocity P-wave (km/s) = 5.83621 6.06671 5.95258
#
# Compressibility (1/GPa) = 0.02544583
#
# Stress axis : x y z
#
# Youngs Moduli (GPa) = 79.89494 103.44038 88.63973
#
# Poissons Ratio (x) = 0.20208 0.01120
# Poissons Ratio (y) = 0.15608 0.17106
# Poissons Ratio (z) = 0.01010 0.19962
#
# Static dielectric constant tensor:
#      x y z
#    x 4.243390 0.000000 -0.067280 
#    y 0.000000 4.950390 0.000000 
#    z -0.067280 0.000000 5.137710 
# 
# 
# High freq. dielectric constant tensor:
#      x y z
#    x 2.021980 0.000000 -0.000950 
#    y 0.000000 2.062460 0.000000 
#    z -0.000950 0.000000 2.064450 
# 
# From -- ./inp_files/2467.got.cif
#   From: 2010.03.12/outbox.cif.g09.slc.cpg/sg4_2_cif.got.tgz:2467.got - 2010.03.31 09:31:35.
