data_PCOD8047875
_publ_section_title
;
Structure prediction by ZEFSAII (Michael W. Deem and Ramdas Pophale) SiO2 
 PCOD8047875
Probable space group: P 21
;
_chemical_formula_sum "Si O2"
_cell_formula_units_Z 16
_cell_length_a 16.089981
_cell_length_b 6.790271
_cell_length_c 7.068907
_cell_angle_alpha 90.000000
_cell_angle_beta 102.854712
_cell_angle_gamma 90.000000
_cell_volume 752.959498
_symmetry_space_group_name_H-M "P 21"
_symmetry_group_IT_number 4
_symmetry_cell_setting 'monoclinic'
loop_
_space_group_symop_operation_xyz
x,y,z
-x,1/2+y,-z
loop_
_atom_site_type_symbol
_atom_site_label
_atom_site_fract_x
_atom_site_fract_y
_atom_site_fract_z
Si Si1 0.891944 0.009680 0.801096
Si Si2 0.704417 0.592065 0.582746
Si Si3 0.397191 0.432705 0.291230
Si Si4 0.314610 0.575840 0.870319
Si Si5 0.920708 0.663185 0.102816
Si Si6 0.173924 0.317989 0.596829
Si Si7 0.209442 0.842203 0.059906
Si Si8 0.418651 0.762510 0.598942
O O1 0.816202 0.147973 0.836533
O O2 0.979142 0.129239 0.860099
O O3 0.872501 0.961661 0.574095
O O4 0.892384 0.810965 0.923335
O O5 0.668921 0.806133 0.619104
O O6 0.785396 0.628105 0.487127
O O7 0.732534 0.482296 0.785490
O O8 0.633960 0.464436 0.439154
O O9 0.410876 0.641688 0.400043
O O10 0.483597 0.310628 0.313263
O O11 0.360878 0.467288 0.065378
O O12 0.247696 0.426501 0.747518
O O13 0.386343 0.630697 0.755396
O O14 0.265665 0.773561 0.910292
O O15 0.899444 0.750732 0.296898
O O16 0.873586 0.455400 0.055204
#
# Coordination Sequence:
#
# PCOD8047875 Si02
#       8
#     2   2   2   2   2   2   2   2
#     4  12  26  47  71 105 145 184 235 292 355 419
#     4  12  24  45  76 100 140 189 231 286 356 416
#     4  12  26  47  71 105 145 184 235 292 355 419
#     4  12  26  45  74 107 142 182 238 293 347 422
#     4  12  26  46  73 103 143 190 232 291 358 418
#     4  12  26  45  74 107 142 182 238 293 347 422
#     4  12  24  45  76 100 140 189 231 286 356 416
#     4  12  26  46  73 103 143 190 232 291 358 418
#
# _framework density 21.249482
#
# number of rings (size 3 to 8) (size 9 to 14) (size 15 to 20)
#    0.000    0.000    7.500    3.000    0.000    6.000 
#    0.000    0.000    0.000    0.000    0.000    0.000 
#    0.000    0.000    0.000    0.000    0.000    0.000 
#
# Total GULP energy -198545.113495 kJ/mol
# GULP energy per Si atom -12409.069593 kJ/mol
# Density = 2.120112 g / cm^3
# Si number density = 21.249482 Si / 1000 Ang^3
#
#
#
# Elastic Constant Matrix: (Units=GPa)
#
#
# Indices 1 2 3 4 5 6 
#
# 1 67.6317 13.7488 15.4398 0.0000 -2.4597 0.0000
# 2 13.7488 86.6362 28.1295 0.0000 4.6609 0.0000
# 3 15.4398 28.1295 104.5894 0.0000 1.3907 0.0000
# 4 0.0000 0.0000 0.0000 40.9629 0.0000 -0.4106
# 5 -2.4597 4.6609 1.3907 0.0000 37.2524 0.0000
# 6 0.0000 0.0000 0.0000 -0.4106 0.0000 49.4282
#
#
#
# Elastic Compliance Matrix: (Units=1/GPa)
#
#
# Indices 1 2 3 4 5 6 
#
# 1 0.015646 -0.001972 -0.001797 0.000000 0.001347 0.000000
# 2 -0.001972 0.012975 -0.003177 0.000000 -0.001635 0.000000
# 3 -0.001797 -0.003177 0.010683 0.000000 -0.000120 0.000000
# 4 0.000000 0.000000 0.000000 0.024414 0.000000 0.000203
# 5 0.001347 -0.001635 -0.000120 0.000000 0.027142 0.000000
# 6 0.000000 0.000000 0.000000 0.000203 0.000000 0.020233
#
#
# Mechanical properties :
#
#
# Convention : Reuss Voigt Hill
#
# Bulk Modulus (GPa) = 39.35211 41.49927 40.42569
# Shear Modulus (GPa) = 37.46575 38.96465 38.21520
#
# Velocity S-wave (km/s) = 4.20353 4.28679 4.24536
# Velocity P-wave (km/s) = 6.48990 6.63883 6.56479
#
# Compressibility (1/GPa) = 0.02541160
#
# Stress axis : x y z
#
# Youngs Moduli (GPa) = 63.91361 77.07214 93.61091
#
# Poissons Ratio (x) = 0.15198 0.16825
# Poissons Ratio (y) = 0.12603 0.29738
# Poissons Ratio (z) = 0.11487 0.24484
#
# Static dielectric constant tensor:
#      x y z
#    x 3.954190 0.000000 -0.095180 
#    y 0.000000 3.951170 0.000000 
#    z -0.095180 0.000000 3.887430 
# 
# 
# High freq. dielectric constant tensor:
#      x y z
#    x 1.845540 0.000000 -0.000400 
#    y 0.000000 1.843750 0.000000 
#    z -0.000400 0.000000 1.841250 
# 
# From -- ./inp_files/3962.got.cif
#   From: 2010.03.12/outbox.cif.g09.slc.cpg/sg4_2_cif.got.tgz:3962.got - 2010.03.31 09:31:35.
