data_PCOD8047422
_publ_section_title
;
Structure prediction by ZEFSAII (Michael W. Deem and Ramdas Pophale) SiO2 
 PCOD8047422
Probable space group: P 21
;
_chemical_formula_sum "Si O2"
_cell_formula_units_Z 16
_cell_length_a 9.287648
_cell_length_b 17.409229
_cell_length_c 8.534957
_cell_angle_alpha 90.000000
_cell_angle_beta 149.517651
_cell_angle_gamma 90.000000
_cell_volume 700.048748
_symmetry_space_group_name_H-M "P 21"
_symmetry_group_IT_number 4
_symmetry_cell_setting 'monoclinic'
loop_
_space_group_symop_operation_xyz
x,y,z
-x,1/2+y,-z
loop_
_atom_site_type_symbol
_atom_site_label
_atom_site_fract_x
_atom_site_fract_y
_atom_site_fract_z
Si Si1 0.971947 0.764530 0.336112
Si Si2 0.641463 0.492960 0.408774
Si Si3 0.579700 0.535682 0.683814
Si Si4 0.726807 0.851246 0.814101
Si Si5 0.782399 0.987302 0.221159
Si Si6 0.702132 0.363063 0.826347
Si Si7 0.460675 0.830190 0.991562
Si Si8 0.056011 0.593270 0.340306
O O1 0.227765 0.818968 0.635944
O O2 0.090833 0.679047 0.435835
O O3 0.849491 0.791675 0.053917
O O4 0.707785 0.766046 0.209997
O O5 0.690992 0.545114 0.609336
O O6 0.432880 0.421309 0.251223
O O7 0.946462 0.465054 0.632380
O O8 0.453895 0.536561 0.099279
O O9 0.557948 0.446418 0.708797
O O10 0.271594 0.574069 0.402511
O O11 0.751589 0.581415 0.977176
O O12 0.488987 0.813249 0.475716
O O13 0.983206 0.878127 0.942507
O O14 0.895609 0.035303 0.471902
O O15 0.619624 0.911258 0.124545
O O16 0.700640 0.322059 0.993773
#
# Coordination Sequence:
#
# PCOD8047422 Si02
#       8
#     2   2   2   2   2   2   2   2
#     4  12  27  45  67  98 142 185 227 270 354 412
#     4  11  23  41  68 105 133 167 227 292 330 392
#     4  11  23  42  67  98 131 174 224 278 341 398
#     4  11  23  42  65 102 133 176 218 286 334 407
#     4  12  24  42  69 104 134 175 230 286 340 392
#     4  11  23  41  70 102 133 165 235 285 332 383
#     4  12  25  43  68 103 132 184 225 290 331 405
#     4  12  26  46  66  98 142 184 220 279 346 419
#
# _framework density 22.855550000000001
#
# number of rings (size 3 to 8) (size 9 to 14) (size 15 to 20)
#    0.000    0.500    2.500    7.500    3.500    0.000 
#    0.000    7.500    0.000    0.000    0.000    0.000 
#    0.000    0.000    0.000    0.000    0.000    0.000 
#
# Total GULP energy -198327.506891 kJ/mol
# GULP energy per Si atom -12395.469181 kJ/mol
# Density = 2.280353 g / cm^3
# Si number density = 22.855550 Si / 1000 Ang^3
#
#
#
# Elastic Constant Matrix: (Units=GPa)
#
#
# Indices 1 2 3 4 5 6 
#
# 1 123.1799 25.4641 45.6077 0.0000 0.7219 0.0000
# 2 25.4641 63.8810 25.6790 0.0000 -4.5307 0.0000
# 3 45.6077 25.6790 127.7570 0.0000 -4.4873 0.0000
# 4 0.0000 0.0000 0.0000 24.1660 0.0000 0.0648
# 5 0.7219 -4.5307 -4.4873 0.0000 43.2840 0.0000
# 6 0.0000 0.0000 0.0000 0.0648 0.0000 12.6902
#
#
#
# Elastic Compliance Matrix: (Units=1/GPa)
#
#
# Indices 1 2 3 4 5 6 
#
# 1 0.009793 -0.002765 -0.002967 0.000000 -0.000760 0.000000
# 2 -0.002765 0.017900 -0.002553 0.000000 0.001655 0.000000
# 3 -0.002967 -0.002553 0.009426 0.000000 0.000760 0.000000
# 4 0.000000 0.000000 0.000000 0.041381 0.000000 -0.000211
# 5 -0.000760 0.001655 0.000760 0.000000 0.023368 0.000000
# 6 0.000000 0.000000 0.000000 -0.000211 0.000000 0.078802
#
#
# Mechanical properties :
#
#
# Convention : Reuss Voigt Hill
#
# Bulk Modulus (GPa) = 48.66192 56.47994 52.57093
# Shear Modulus (GPa) = 24.49918 30.56585 27.53251
#
# Velocity S-wave (km/s) = 3.27756 3.66095 3.47455
# Velocity P-wave (km/s) = 5.97164 6.52958 6.25683
#
# Compressibility (1/GPa) = 0.02054995
#
# Stress axis : x y z
#
# Youngs Moduli (GPa) = 102.11683 55.86675 106.08671
#
# Poissons Ratio (x) = 0.15446 0.31474
# Poissons Ratio (y) = 0.28234 0.27080
# Poissons Ratio (z) = 0.30297 0.14261
#
# Static dielectric constant tensor:
#      x y z
#    x 4.567530 0.000000 -0.181980 
#    y 0.000000 3.549210 0.000000 
#    z -0.181980 0.000000 4.771650 
# 
# 
# High freq. dielectric constant tensor:
#      x y z
#    x 1.922220 0.000000 0.000770 
#    y 0.000000 1.840280 0.000000 
#    z 0.000770 0.000000 1.936470 
# 
# From -- ./inp_files/6937.got.cif
#   From: 2010.03.12/outbox.cif.g09.slc.cpg/sg4_4_cif.got.tgz:6937.got - 2010.03.31 09:31:35.
