data_PCOD8047973
_publ_section_title
;
Structure prediction by ZEFSAII (Michael W. Deem and Ramdas Pophale) SiO2 
 PCOD8047973
Probable space group: P 21
;
_chemical_formula_sum "Si O2"
_cell_formula_units_Z 16
_cell_length_a 12.613243
_cell_length_b 5.133844
_cell_length_c 18.146173
_cell_angle_alpha 90.000000
_cell_angle_beta 30.867342
_cell_angle_gamma 90.000000
_cell_volume 602.859252
_symmetry_space_group_name_H-M "P 21"
_symmetry_group_IT_number 4
_symmetry_cell_setting 'monoclinic'
loop_
_space_group_symop_operation_xyz
x,y,z
-x,1/2+y,-z
loop_
_atom_site_type_symbol
_atom_site_label
_atom_site_fract_x
_atom_site_fract_y
_atom_site_fract_z
Si Si1 0.938711 0.903010 0.455548
Si Si2 0.663643 0.693051 0.511295
Si Si3 0.904471 0.871057 0.023251
Si Si4 0.774391 0.609109 0.961705
Si Si5 0.301543 0.582083 0.263742
Si Si6 0.585217 0.685747 0.314113
Si Si7 0.914836 0.665425 0.235131
Si Si8 0.091328 0.316275 0.259926
O O1 0.860276 0.654863 0.451701
O O2 0.175937 0.856497 0.340057
O O3 0.793859 0.912587 0.613278
O O4 0.933202 0.154779 0.405898
O O5 0.537792 0.425395 0.575289
O O6 0.735454 0.816752 0.389599
O O7 0.543880 0.926667 0.623992
O O8 0.671566 0.788693 0.184688
O O9 0.897741 0.843130 0.935674
O O10 0.061496 0.660232 0.965246
O O11 0.766725 0.636359 0.878150
O O12 0.893502 0.340286 0.906717
O O13 0.544186 0.607158 0.130813
O O14 0.259059 0.465600 0.208381
O O15 0.789885 0.580883 0.236297
O O16 0.961763 0.458977 0.272586
#
# Coordination Sequence:
#
# PCOD8047973 Si02
#       8
#     2   2   2   2   2   2   2   2
#     4  12  26  51  80 111 161 209 270 342 403 481
#     4  12  26  46  80 115 154 210 271 326 411 480
#     4  12  26  52  79 112 164 211 264 336 406 479
#     4  12  29  47  80 115 154 214 267 326 418 487
#     4  12  28  50  78 116 154 213 270 338 405 479
#     4  12  27  47  79 116 157 210 272 329 403 486
#     4  12  26  48  74 113 160 204 257 340 399 486
#     4  12  26  49  80 108 164 205 265 333 409 478
#
# _framework density 26.540189000000002
#
# number of rings (size 3 to 8) (size 9 to 14) (size 15 to 20)
#    0.000    0.000    5.000    3.750    5.250    1.000 
#    0.000    0.000    0.000    0.000    0.000    0.000 
#    0.000    0.000    0.000    0.000    0.000    0.000 
#
# Total GULP energy -198252.164648 kJ/mol
# GULP energy per Si atom -12390.760290 kJ/mol
# Density = 2.647978 g / cm^3
# Si number density = 26.540189 Si / 1000 Ang^3
#
#
#
# Elastic Constant Matrix: (Units=GPa)
#
#
# Indices 1 2 3 4 5 6 
#
# 1 151.8835 28.5487 38.5129 0.0000 16.8121 0.0000
# 2 28.5487 88.6200 7.2639 0.0000 -13.8541 0.0000
# 3 38.5129 7.2639 115.8154 0.0000 -6.0830 0.0000
# 4 0.0000 0.0000 0.0000 32.2108 0.0000 -0.9174
# 5 16.8121 -13.8541 -6.0830 0.0000 54.8484 0.0000
# 6 0.0000 0.0000 0.0000 -0.9174 0.0000 46.8215
#
#
#
# Elastic Compliance Matrix: (Units=1/GPa)
#
#
# Indices 1 2 3 4 5 6 
#
# 1 0.008237 -0.002989 -0.002740 0.000000 -0.003584 0.000000
# 2 -0.002989 0.012872 0.000408 0.000000 0.004213 0.000000
# 3 -0.002740 0.000408 0.009626 0.000000 0.002010 0.000000
# 4 0.000000 0.000000 0.000000 0.031063 0.000000 0.000609
# 5 -0.003584 0.004213 0.002010 0.000000 0.020618 0.000000
# 6 0.000000 0.000000 0.000000 0.000609 0.000000 0.021370
#
#
# Mechanical properties :
#
#
# Convention : Reuss Voigt Hill
#
# Bulk Modulus (GPa) = 49.76948 56.10777 52.93863
# Shear Modulus (GPa) = 41.27947 45.57569 43.42758
#
# Velocity S-wave (km/s) = 3.94808 4.14845 4.04950
# Velocity P-wave (km/s) = 6.29097 6.64325 6.46951
#
# Compressibility (1/GPa) = 0.02009263
#
# Stress axis : x y z
#
# Youngs Moduli (GPa) = 121.39829 77.68616 103.88985
#
# Poissons Ratio (x) = 0.23223 0.28466
# Poissons Ratio (y) = 0.36290 -0.04239
# Poissons Ratio (z) = 0.33263 -0.03170
#
# Static dielectric constant tensor:
#      x y z
#    x 5.034240 0.000000 0.422310 
#    y 0.000000 4.649440 0.000000 
#    z 0.422310 0.000000 5.589770 
# 
# 
# High freq. dielectric constant tensor:
#      x y z
#    x 2.083580 0.000000 0.017920 
#    y 0.000000 2.056990 0.000000 
#    z 0.017920 0.000000 2.089840 
# 
# From -- ./inp_files/15065.got.cif
#   From: 2010.03.12/outbox.cif.g09.slc.cpg/sg4_8_cif.got.tgz:15065.got - 2010.03.31 09:31:35.
