data_PCOD8047472
_publ_section_title
;
Structure prediction by ZEFSAII (Michael W. Deem and Ramdas Pophale) SiO2 
 PCOD8047472
Probable space group: P 21
;
_chemical_formula_sum "Si O2"
_cell_formula_units_Z 16
_cell_length_a 9.932444
_cell_length_b 5.236539
_cell_length_c 20.318397
_cell_angle_alpha 90.000000
_cell_angle_beta 142.322472
_cell_angle_gamma 90.000000
_cell_volume 645.929467
_symmetry_space_group_name_H-M "P 21"
_symmetry_group_IT_number 4
_symmetry_cell_setting 'monoclinic'
loop_
_space_group_symop_operation_xyz
x,y,z
-x,1/2+y,-z
loop_
_atom_site_type_symbol
_atom_site_label
_atom_site_fract_x
_atom_site_fract_y
_atom_site_fract_z
Si Si1 0.638664 0.089180 0.645339
Si Si2 0.745949 0.416424 0.897441
Si Si3 0.517224 0.418233 0.178140
Si Si4 0.280999 0.394421 0.570948
Si Si5 0.893008 0.126707 0.375120
Si Si6 0.019484 0.608812 0.117737
Si Si7 0.785878 0.282852 0.564848
Si Si8 0.420865 0.273906 0.999228
O O1 0.523643 0.318942 0.641135
O O2 0.804420 0.971257 0.764642
O O3 0.775450 0.188078 0.635705
O O4 0.451980 0.899745 0.546937
O O5 0.645073 0.701104 0.854404
O O6 0.881166 0.347549 0.884632
O O7 0.556871 0.201323 0.831021
O O8 0.911107 0.404975 0.024929
O O9 0.768223 0.376013 0.299358
O O10 0.527619 0.397739 0.104615
O O11 0.293904 0.500062 0.649973
O O12 0.170916 0.565211 0.471486
O O13 0.103835 0.164333 0.504787
O O14 0.998374 0.965710 0.355340
O O15 0.839528 0.736057 0.095604
O O16 0.468259 0.492810 0.963926
#
# Coordination Sequence:
#
# PCOD8047472 Si02
#       8
#     2   2   2   2   2   2   2   2
#     4  11  25  46  71 106 148 198 240 311 376 446
#     4  11  25  48  73 116 140 185 261 311 362 460
#     4  11  26  45  75 106 149 184 243 313 368 439
#     4  11  23  44  67 107 146 186 256 301 360 454
#     4  11  25  41  75 101 145 200 238 311 374 436
#     4  11  25  47  77  99 149 195 243 315 386 435
#     4  11  24  45  67 110 150 187 256 299 362 469
#     4  11  25  46  65 101 141 181 243 293 356 455
#
# _framework density 24.770503999999999
#
# number of rings (size 3 to 8) (size 9 to 14) (size 15 to 20)
#    0.000    1.000    2.500    3.750    5.250    2.000 
#    9.000    0.000    0.000    0.000    0.000    0.000 
#    0.000    0.000    0.000    0.000    0.000    0.000 
#
# Total GULP energy -198272.025145 kJ/mol
# GULP energy per Si atom -12392.001572 kJ/mol
# Density = 2.471412 g / cm^3
# Si number density = 24.770504 Si / 1000 Ang^3
#
#
#
# Elastic Constant Matrix: (Units=GPa)
#
#
# Indices 1 2 3 4 5 6 
#
# 1 129.7873 16.0826 22.9270 0.0000 6.3581 0.0000
# 2 16.0826 62.1926 3.5977 0.0000 -0.2991 0.0000
# 3 22.9270 3.5977 105.0013 0.0000 -7.3883 0.0000
# 4 0.0000 0.0000 0.0000 29.4293 0.0000 -5.3496
# 5 6.3581 -0.2991 -7.3883 0.0000 22.3423 0.0000
# 6 0.0000 0.0000 0.0000 -5.3496 0.0000 27.6538
#
#
#
# Elastic Compliance Matrix: (Units=1/GPa)
#
#
# Indices 1 2 3 4 5 6 
#
# 1 0.008468 -0.002089 -0.001995 0.000000 -0.003098 0.000000
# 2 -0.002089 0.016627 -0.000057 0.000000 0.000798 0.000000
# 3 -0.001995 -0.000057 0.010239 0.000000 0.003953 0.000000
# 4 0.000000 0.000000 0.000000 0.035218 0.000000 0.006813
# 5 -0.003098 0.000798 0.003953 0.000000 0.046958 0.000000
# 6 0.000000 0.000000 0.000000 0.006813 0.000000 0.037479
#
#
# Mechanical properties :
#
#
# Convention : Reuss Voigt Hill
#
# Bulk Modulus (GPa) = 36.96836 42.46619 39.71728
# Shear Modulus (GPa) = 29.02088 32.84335 30.93212
#
# Velocity S-wave (km/s) = 3.42656 3.64525 3.53760
# Velocity P-wave (km/s) = 5.53280 5.90747 5.72320
#
# Compressibility (1/GPa) = 0.02705016
#
# Stress axis : x y z
#
# Youngs Moduli (GPa) = 118.09124 60.14490 97.66105
#
# Poissons Ratio (x) = 0.12566 0.19487
# Poissons Ratio (y) = 0.24672 0.00560
# Poissons Ratio (z) = 0.23564 0.00345
#
# Static dielectric constant tensor:
#      x y z
#    x 4.614550 0.000000 0.123530 
#    y 0.000000 4.290610 0.000000 
#    z 0.123530 0.000000 4.423740 
# 
# 
# High freq. dielectric constant tensor:
#      x y z
#    x 2.000150 0.000000 0.008090 
#    y 0.000000 1.969080 0.000000 
#    z 0.008090 0.000000 1.990380 
# 
# From -- ./inp_files/15601.got.cif
#   From: 2010.03.12/outbox.cif.g09.slc.cpg/sg4_8_cif.got.tgz:15601.got - 2010.03.31 09:31:35.
