data_PCOD8047952
_publ_section_title
;
Structure prediction by ZEFSAII (Michael W. Deem and Ramdas Pophale) SiO2 
 PCOD8047952
Probable space group: P 21
;
_chemical_formula_sum "Si O2"
_cell_formula_units_Z 16
_cell_length_a 5.844164
_cell_length_b 15.533719
_cell_length_c 8.764590
_cell_angle_alpha 90.000000
_cell_angle_beta 126.928995
_cell_angle_gamma 90.000000
_cell_volume 636.038065
_symmetry_space_group_name_H-M "P 21"
_symmetry_group_IT_number 4
_symmetry_cell_setting 'monoclinic'
loop_
_space_group_symop_operation_xyz
x,y,z
-x,1/2+y,-z
loop_
_atom_site_type_symbol
_atom_site_label
_atom_site_fract_x
_atom_site_fract_y
_atom_site_fract_z
Si Si1 0.910750 0.212870 0.302335
Si Si2 0.123101 0.338136 0.127386
Si Si3 0.584139 0.459279 0.276585
Si Si4 0.366853 0.257703 0.691756
Si Si5 0.854778 0.045194 0.425444
Si Si6 0.580437 0.433233 0.919507
Si Si7 0.724514 0.702978 0.023997
Si Si8 0.733199 0.115679 0.709508
O O1 0.016382 0.114190 0.377127
O O2 0.001542 0.258680 0.181272
O O3 0.055206 0.272473 0.489811
O O4 0.570201 0.201202 0.189675
O O5 0.432536 0.378036 0.303309
O O6 0.135224 0.294864 0.965189
O O7 0.924073 0.423605 0.041859
O O8 0.437555 0.548320 0.259155
O O9 0.921288 0.467072 0.452047
O O10 0.518372 0.440318 0.073397
O O11 0.473067 0.347152 0.796697
O O12 0.338478 0.194082 0.823127
O O13 0.577308 0.209474 0.655940
O O14 0.756075 0.089358 0.542281
O O15 0.565475 0.011954 0.227373
O O16 0.948614 0.624847 0.085770
#
# Coordination Sequence:
#
# PCOD8047952 Si02
#       8
#     2   2   2   2   2   2   2   2
#     4  12  28  49  80 120 156 213 272 329 392 491
#     4  12  27  51  81 114 161 217 267 324 414 480
#     4  12  28  54  75 118 166 209 266 346 399 478
#     4  12  26  53  76 113 159 208 270 326 398 485
#     4  12  31  51  80 119 167 208 272 343 400 476
#     4  12  29  51  76 116 165 212 265 339 401 475
#     4  12  25  50  78 112 156 208 269 330 388 488
#     4  12  26  53  80 110 160 215 263 335 408 477
#
# _framework density 25.155726000000001
#
# number of rings (size 3 to 8) (size 9 to 14) (size 15 to 20)
#    0.000    0.000    6.250    0.750   14.000    1.000 
#    0.000    0.000    0.000    0.000    0.000    0.000 
#    0.000    0.000    0.000    0.000    0.000    0.000 
#
# Total GULP energy -198210.461803 kJ/mol
# GULP energy per Si atom -12388.153863 kJ/mol
# Density = 2.509847 g / cm^3
# Si number density = 25.155726 Si / 1000 Ang^3
#
#
#
# Elastic Constant Matrix: (Units=GPa)
#
#
# Indices 1 2 3 4 5 6 
#
# 1 97.2139 48.7660 41.5243 0.0000 3.1701 0.0000
# 2 48.7660 92.9312 28.8915 0.0000 -13.2785 0.0000
# 3 41.5243 28.8915 119.8246 0.0000 12.3176 0.0000
# 4 0.0000 0.0000 0.0000 43.0168 0.0000 5.3566
# 5 3.1701 -13.2785 12.3176 0.0000 18.9085 0.0000
# 6 0.0000 0.0000 0.0000 5.3566 0.0000 54.1310
#
#
#
# Elastic Compliance Matrix: (Units=1/GPa)
#
#
# Indices 1 2 3 4 5 6 
#
# 1 0.015951 -0.008479 -0.002783 0.000000 -0.006816 0.000000
# 2 -0.008479 0.018592 -0.003250 0.000000 0.016595 0.000000
# 3 -0.002783 -0.003250 0.011018 0.000000 -0.008994 0.000000
# 4 0.000000 0.000000 0.000000 0.023537 0.000000 -0.002329
# 5 -0.006816 0.016595 -0.008994 0.000000 0.071542 0.000000
# 6 0.000000 0.000000 0.000000 -0.002329 0.000000 0.018704
#
#
# Mechanical properties :
#
#
# Convention : Reuss Voigt Hill
#
# Bulk Modulus (GPa) = 60.47150 60.92594 60.69872
# Shear Modulus (GPa) = 25.78924 35.93045 30.85985
#
# Velocity S-wave (km/s) = 3.20532 3.78341 3.50630
# Velocity P-wave (km/s) = 6.14734 6.58466 6.36975
#
# Compressibility (1/GPa) = 0.01653672
#
# Stress axis : x y z
#
# Youngs Moduli (GPa) = 62.69261 53.78717 90.76056
#
# Poissons Ratio (x) = 0.45607 0.25254
# Poissons Ratio (y) = 0.53158 0.29500
# Poissons Ratio (z) = 0.17444 0.17482
#
# Static dielectric constant tensor:
#      x y z
#    x 4.707220 0.000000 0.339910 
#    y 0.000000 4.675910 0.000000 
#    z 0.339910 0.000000 4.759020 
# 
# 
# High freq. dielectric constant tensor:
#      x y z
#    x 2.004830 0.000000 0.017660 
#    y 0.000000 2.007860 0.000000 
#    z 0.017660 0.000000 2.004600 
# 
# From -- ./inp_files/4857.got.cif
#   From: 2010.03.12/outbox.cif.g09.slc.cpg/sg4_3_cif.got.tgz:4857.got - 2010.03.31 09:31:35.
