data_PCOD8047517
_publ_section_title
;
Structure prediction by ZEFSAII (Michael W. Deem and Ramdas Pophale) SiO2 
 PCOD8047517
Probable space group: P 21
;
_chemical_formula_sum "Si O2"
_cell_formula_units_Z 16
_cell_length_a 9.305755
_cell_length_b 9.756095
_cell_length_c 7.991303
_cell_angle_alpha 90.000000
_cell_angle_beta 106.723932
_cell_angle_gamma 90.000000
_cell_volume 694.825583
_symmetry_space_group_name_H-M "P 21"
_symmetry_group_IT_number 4
_symmetry_cell_setting 'monoclinic'
loop_
_space_group_symop_operation_xyz
x,y,z
-x,1/2+y,-z
loop_
_atom_site_type_symbol
_atom_site_label
_atom_site_fract_x
_atom_site_fract_y
_atom_site_fract_z
Si Si1 0.449131 0.221450 0.085553
Si Si2 0.139557 0.102465 0.371580
Si Si3 0.351770 0.473212 0.279586
Si Si4 0.555628 0.510338 0.656968
Si Si5 0.955894 0.884501 0.787503
Si Si6 0.659878 0.260947 0.870988
Si Si7 0.026142 0.847158 0.161278
Si Si8 0.170689 0.115400 0.768541
O O1 0.390056 0.336987 0.190791
O O2 0.520446 0.096840 0.218509
O O3 0.586730 0.288296 0.028406
O O4 0.319853 0.159568 0.918455
O O5 0.283367 0.086738 0.301160
O O6 0.035905 0.229878 0.280964
O O7 0.198791 0.116524 0.580122
O O8 0.043559 0.964218 0.307844
O O9 0.474401 0.516262 0.455065
O O10 0.196460 0.455313 0.333047
O O11 0.349529 0.599337 0.153513
O O12 0.565273 0.349609 0.705327
O O13 0.109759 0.964156 0.795913
O O14 0.916622 0.891884 0.974304
O O15 0.830088 0.309595 0.905941
O O16 0.966496 0.716711 0.239452
#
# Coordination Sequence:
#
# PCOD8047517 Si02
#       8
#     2   2   2   2   2   2   2   2
#     4  12  25  47  73 104 138 191 233 296 357 417
#     4  11  25  44  73 102 139 183 237 292 349 417
#     4  12  24  42  71 101 140 186 235 287 359 417
#     4  11  24  46  69  99 145 186 231 299 352 411
#     4  12  24  45  71 100 139 192 229 290 357 417
#     4  11  25  43  70 104 138 183 241 287 352 426
#     4  11  23  46  70 102 142 183 229 295 353 421
#     4  12  24  45  73 104 141 180 237 286 359 424
#
# _framework density 23.027362
#
# number of rings (size 3 to 8) (size 9 to 14) (size 15 to 20)
#    0.000    0.500    3.750    5.250    1.750    1.000 
#    2.250    0.000    0.000    0.000    0.000    0.000 
#    0.000    0.000    0.000    0.000    0.000    0.000 
#
# Total GULP energy -198339.146428 kJ/mol
# GULP energy per Si atom -12396.196652 kJ/mol
# Density = 2.297495 g / cm^3
# Si number density = 23.027362 Si / 1000 Ang^3
#
#
#
# Elastic Constant Matrix: (Units=GPa)
#
#
# Indices 1 2 3 4 5 6 
#
# 1 83.3215 31.9103 9.0462 0.0000 -9.7408 0.0000
# 2 31.9103 134.4719 44.0497 0.0000 2.2740 0.0000
# 3 9.0462 44.0497 113.8494 0.0000 -8.6291 0.0000
# 4 0.0000 0.0000 0.0000 39.4342 0.0000 -0.9362
# 5 -9.7408 2.2740 -8.6291 0.0000 28.2059 0.0000
# 6 0.0000 0.0000 0.0000 -0.9362 0.0000 24.9317
#
#
#
# Elastic Compliance Matrix: (Units=1/GPa)
#
#
# Indices 1 2 3 4 5 6 
#
# 1 0.013936 -0.003626 0.000699 0.000000 0.005319 0.000000
# 2 -0.003626 0.009543 -0.003642 0.000000 -0.003136 0.000000
# 3 0.000699 -0.003642 0.010419 0.000000 0.003722 0.000000
# 4 0.000000 0.000000 0.000000 0.025381 0.000000 0.000953
# 5 0.005319 -0.003136 0.003722 0.000000 0.038682 0.000000
# 6 0.000000 0.000000 0.000000 0.000953 0.000000 0.040145
#
#
# Mechanical properties :
#
#
# Convention : Reuss Voigt Hill
#
# Bulk Modulus (GPa) = 48.16869 55.73946 51.95408
# Shear Modulus (GPa) = 31.61244 34.95679 33.28462
#
# Velocity S-wave (km/s) = 3.70918 3.90045 3.80602
# Velocity P-wave (km/s) = 6.26957 6.67405 6.47497
#
# Compressibility (1/GPa) = 0.02076037
#
# Stress axis : x y z
#
# Youngs Moduli (GPa) = 71.75498 104.78951 95.97641
#
# Poissons Ratio (x) = 0.37996 -0.06706
# Poissons Ratio (y) = 0.26018 0.34953
# Poissons Ratio (z) = -0.05014 0.38163
#
# Static dielectric constant tensor:
#      x y z
#    x 4.039190 0.000000 0.038870 
#    y 0.000000 4.268050 0.000000 
#    z 0.038870 0.000000 4.032230 
# 
# 
# High freq. dielectric constant tensor:
#      x y z
#    x 1.901160 0.000000 0.000390 
#    y 0.000000 1.927330 0.000000 
#    z 0.000390 0.000000 1.909470 
# 
# From -- ./inp_files/5505.got.cif
#   From: 2010.03.12/outbox.cif.g09.slc.cpg/sg4_3_cif.got.tgz:5505.got - 2010.03.31 09:31:35.
