data_PCOD8047818
_publ_section_title
;
Structure prediction by ZEFSAII (Michael W. Deem and Ramdas Pophale) SiO2 
 PCOD8047818
Probable space group: P 21
;
_chemical_formula_sum "Si O2"
_cell_formula_units_Z 14
_cell_length_a 11.789099
_cell_length_b 4.828302
_cell_length_c 30.018357
_cell_angle_alpha 90.000000
_cell_angle_beta 22.557338
_cell_angle_gamma 90.000000
_cell_volume 655.464824
_symmetry_space_group_name_H-M "P 21"
_symmetry_group_IT_number 4
_symmetry_cell_setting 'monoclinic'
loop_
_space_group_symop_operation_xyz
x,y,z
-x,1/2+y,-z
loop_
_atom_site_type_symbol
_atom_site_label
_atom_site_fract_x
_atom_site_fract_y
_atom_site_fract_z
Si Si1 0.001158 0.568500 0.071715
Si Si2 0.380164 0.990399 0.391939
Si Si3 0.121349 0.145424 0.393590
Si Si4 0.611217 0.589270 0.078666
Si Si5 0.598250 0.140374 0.751455
Si Si6 0.780880 0.495186 0.245705
Si Si7 0.628016 0.131076 0.929072
O O1 0.732252 0.722111 0.144026
O O2 0.929061 0.417480 0.145034
O O3 0.139116 0.307662 0.995190
O O4 0.259266 0.793724 0.981849
O O5 0.650098 0.795445 0.281194
O O6 0.188529 0.817572 0.498208
O O7 0.166724 0.050413 0.427822
O O8 0.524881 0.281452 0.355465
O O9 0.369017 0.357973 0.288284
O O10 0.151804 0.869518 0.352000
O O11 0.382733 0.570520 0.203061
O O12 0.435165 0.700550 0.099487
O O13 0.035357 0.516793 0.190553
O O14 0.603687 0.411089 0.966682
#
# Coordination Sequence:
#
# PCOD8047818 Si02
#       7
#     2   2   2   2   2   2   2
#     4  12  21  39  60  92 130 167 197 247 312 381
#     4  12  23  40  62  93 121 159 204 264 319 361
#     4  12  23  40  62  91 123 158 206 259 316 371
#     4  12  24  40  59  90 131 171 206 244 304 381
#     4  12  24  38  61  91 129 167 199 250 313 376
#     4  12  22  38  64  90 128 159 203 260 313 355
#     4  12  23  39  62  89 124 167 209 254 295 359
#
# _framework density 21.358886999999999
#
# number of rings (size 3 to 8) (size 9 to 14) (size 15 to 20)
#    0.000    0.000    5.714    6.857    0.000    0.000 
#    0.000    0.000    0.000    3.429    0.000    2.000 
#    0.000    0.000    0.000    0.000    0.000    0.000 
#
# Total GULP energy -173556.655860 kJ/mol
# GULP energy per Si atom -12396.903990 kJ/mol
# Density = 2.131027 g / cm^3
# Si number density = 21.358887 Si / 1000 Ang^3
#
#
#
# Elastic Constant Matrix: (Units=GPa)
#
#
# Indices 1 2 3 4 5 6 
#
# 1 88.2177 21.1590 41.4360 -0.0021 11.4098 0.0083
# 2 21.1590 117.2488 26.7789 0.0127 7.0285 0.0104
# 3 41.4360 26.7789 69.8682 -0.0482 4.5659 0.0593
# 4 -0.0021 0.0127 -0.0482 40.7678 0.0098 -0.2071
# 5 11.4098 7.0285 4.5659 0.0098 25.8715 0.0012
# 6 0.0083 0.0104 0.0593 -0.2071 0.0012 18.3717
#
#
#
# Elastic Compliance Matrix: (Units=1/GPa)
#
#
# Indices 1 2 3 4 5 6 
#
# 1 0.016510 -0.000543 -0.009224 -0.000008 -0.005506 0.000023
# 2 -0.000543 0.009461 -0.003189 -0.000006 -0.001768 0.000005
# 3 -0.009224 -0.003189 0.020924 0.000025 0.001241 -0.000061
# 4 -0.000008 -0.000006 0.000025 0.024531 -0.000008 0.000276
# 5 -0.005506 -0.001768 0.001241 -0.000008 0.041342 -0.000003
# 6 0.000023 0.000005 -0.000061 0.000276 -0.000003 0.054435
#
#
# Mechanical properties :
#
#
# Convention : Reuss Voigt Hill
#
# Bulk Modulus (GPa) = 47.65353 50.45361 49.05357
# Shear Modulus (GPa) = 24.98642 29.39958 27.19300
#
# Velocity S-wave (km/s) = 3.42400 3.71409 3.57199
# Velocity P-wave (km/s) = 6.16368 6.48581 6.32680
#
# Compressibility (1/GPa) = 0.02098481
#
# Stress axis : x y z
#
# Youngs Moduli (GPa) = 60.56818 105.69573 47.79190
#
# Poissons Ratio (x) = 0.05737 0.44082
# Poissons Ratio (y) = 0.03287 0.15240
# Poissons Ratio (z) = 0.55867 0.33704
#
# Static dielectric constant tensor:
#      x y z
#    x 3.485970 -0.000070 0.051930 
#    y -0.000070 4.048440 -0.000060 
#    z 0.051930 -0.000060 3.879850 
# 
# 
# High freq. dielectric constant tensor:
#      x y z
#    x 1.792250 0.000000 0.002700 
#    y 0.000000 1.863490 0.000000 
#    z 0.002700 0.000000 1.832180 
# 
# From -- ./inp_files/13809.got.cif
#   From: 2010.03.12/outbox.cif.g09.slc.cpg/sg4_7_cif.got.tgz:13809.got - 2010.03.31 09:31:35.
