data_PCOD8047844
_publ_section_title
;
Structure prediction by ZEFSAII (Michael W. Deem and Ramdas Pophale) SiO2 
 PCOD8047844
Probable space group: P 21
;
_chemical_formula_sum "Si O2"
_cell_formula_units_Z 14
_cell_length_a 15.308500
_cell_length_b 6.731840
_cell_length_c 10.144265
_cell_angle_alpha 90.000000
_cell_angle_beta 144.102807
_cell_angle_gamma 90.000000
_cell_volume 612.958545
_symmetry_space_group_name_H-M "P 21"
_symmetry_group_IT_number 4
_symmetry_cell_setting 'monoclinic'
loop_
_space_group_symop_operation_xyz
x,y,z
-x,1/2+y,-z
loop_
_atom_site_type_symbol
_atom_site_label
_atom_site_fract_x
_atom_site_fract_y
_atom_site_fract_z
Si Si1 0.236050 0.091750 0.908522
Si Si2 0.706560 0.309657 0.255614
Si Si3 0.578408 0.962249 0.952509
Si Si4 0.847566 0.980160 0.826789
Si Si5 0.592982 0.685749 0.477905
Si Si6 0.313528 0.837237 0.251441
Si Si7 0.027718 0.711198 0.244534
O O1 0.068971 0.151419 0.746178
O O2 0.231555 0.983699 0.762554
O O3 0.337824 0.290721 0.028270
O O4 0.297098 0.932785 0.087228
O O5 0.538957 0.359162 0.094277
O O6 0.816381 0.302526 0.515295
O O7 0.701032 0.090973 0.182185
O O8 0.492697 0.123230 0.758462
O O9 0.699270 0.874732 0.589546
O O10 0.811674 0.182301 0.860561
O O11 0.944288 0.020295 0.814113
O O12 0.938224 0.863662 0.046219
O O13 0.474516 0.730956 0.449093
O O14 0.697262 0.506007 0.651498
#
# Coordination Sequence:
#
# PCOD8047844 Si02
#       7
#     2   2   2   2   2   2   2
#     4  12  27  50  74 111 152 199 257 305 379 457
#     4  12  29  49  76 106 153 199 250 316 377 453
#     4  12  27  50  75 111 143 198 260 311 375 443
#     4  12  28  50  73 113 156 196 254 311 381 457
#     4  12  24  42  79 112 149 192 248 319 376 440
#     4  12  23  45  75 115 149 193 254 315 377 437
#     4  12  30  50  76 110 154 205 245 309 385 457
#
# _framework density 22.840043999999999
#
# number of rings (size 3 to 8) (size 9 to 14) (size 15 to 20)
#    0.000    0.000    5.714    3.429    8.000    0.000 
#    0.000    0.000    0.000    0.000    0.000    0.000 
#    0.000    0.000    0.000    0.000    0.000    0.000 
#
# Total GULP energy -173652.065250 kJ/mol
# GULP energy per Si atom -12403.718946 kJ/mol
# Density = 2.278806 g / cm^3
# Si number density = 22.840044 Si / 1000 Ang^3
#
#
#
# Elastic Constant Matrix: (Units=GPa)
#
#
# Indices 1 2 3 4 5 6 
#
# 1 127.3412 42.2090 14.2499 0.0000 4.9315 0.0000
# 2 42.2090 107.7101 31.7894 0.0000 4.2114 0.0000
# 3 14.2499 31.7894 90.4476 0.0000 0.9544 0.0000
# 4 0.0000 0.0000 0.0000 35.4741 0.0000 0.4032
# 5 4.9315 4.2114 0.9544 0.0000 27.6752 0.0000
# 6 0.0000 0.0000 0.0000 0.4032 0.0000 53.3180
#
#
#
# Elastic Compliance Matrix: (Units=1/GPa)
#
#
# Indices 1 2 3 4 5 6 
#
# 1 0.009061 -0.003448 -0.000204 0.000000 -0.001083 0.000000
# 2 -0.003448 0.011729 -0.003568 0.000000 -0.001047 0.000000
# 3 -0.000204 -0.003568 0.012341 0.000000 0.000154 0.000000
# 4 0.000000 0.000000 0.000000 0.028192 0.000000 -0.000213
# 5 -0.001083 -0.001047 0.000154 0.000000 0.036480 0.000000
# 6 0.000000 0.000000 0.000000 -0.000213 0.000000 0.018757
#
#
# Mechanical properties :
#
#
# Convention : Reuss Voigt Hill
#
# Bulk Modulus (GPa) = 53.50474 55.77727 54.64101
# Shear Modulus (GPa) = 36.43488 39.11018 37.77253
#
# Velocity S-wave (km/s) = 3.99835 4.14255 4.07109
# Velocity P-wave (km/s) = 6.69272 6.88148 6.78775
#
# Compressibility (1/GPa) = 0.01868993
#
# Stress axis : x y z
#
# Youngs Moduli (GPa) = 110.36803 85.25547 81.03209
#
# Poissons Ratio (x) = 0.29396 0.01655
# Poissons Ratio (y) = 0.38055 0.28914
# Poissons Ratio (z) = 0.02254 0.30421
#
# Static dielectric constant tensor:
#      x y z
#    x 4.237790 0.000000 0.062830 
#    y 0.000000 4.317800 0.000000 
#    z 0.062830 0.000000 3.944300 
# 
# 
# High freq. dielectric constant tensor:
#      x y z
#    x 1.912290 0.000000 0.003500 
#    y 0.000000 1.917420 0.000000 
#    z 0.003500 0.000000 1.895530 
# 
# From -- ./inp_files/8789.got.cif
#   From: 2010.03.12/outbox.cif.g09.slc.cpg/sg4_5_cif.got.tgz:8789.got - 2010.03.31 09:31:35.
