data_PCOD8047335
_publ_section_title
;
Structure prediction by ZEFSAII (Michael W. Deem and Ramdas Pophale) SiO2 
 PCOD8047335
Probable space group: P 21
;
_chemical_formula_sum "Si O2"
_cell_formula_units_Z 16
_cell_length_a 9.877608
_cell_length_b 5.324297
_cell_length_c 20.262909
_cell_angle_alpha 90.000000
_cell_angle_beta 38.677824
_cell_angle_gamma 90.000000
_cell_volume 665.969835
_symmetry_space_group_name_H-M "P 21"
_symmetry_group_IT_number 4
_symmetry_cell_setting 'monoclinic'
loop_
_space_group_symop_operation_xyz
x,y,z
-x,1/2+y,-z
loop_
_atom_site_type_symbol
_atom_site_label
_atom_site_fract_x
_atom_site_fract_y
_atom_site_fract_z
Si Si1 0.514737 0.520970 0.783445
Si Si2 0.166921 0.894384 0.863137
Si Si3 0.385718 0.683873 0.519603
Si Si4 0.482120 0.650700 0.334780
Si Si5 0.240368 0.142571 0.961172
Si Si6 0.100559 0.292354 0.294625
Si Si7 0.917620 0.974529 0.563706
Si Si8 0.465700 0.393250 0.055666
O O1 0.342233 0.737932 0.837838
O O2 0.542168 0.389291 0.702851
O O3 0.431955 0.337714 0.873278
O O4 0.751008 0.602046 0.719593
O O5 0.273449 0.037064 0.759844
O O6 0.109005 0.093528 0.942916
O O7 0.950657 0.756895 0.919405
O O8 0.490066 0.410360 0.491475
O O9 0.410487 0.743066 0.433279
O O10 0.132193 0.675389 0.637801
O O11 0.333879 0.426225 0.360327
O O12 0.349651 0.908578 0.957928
O O13 0.050506 0.508782 0.369009
O O14 0.228236 0.386202 0.180911
O O15 0.954060 0.240015 0.513798
O O16 0.486030 0.641503 0.003221
#
# Coordination Sequence:
#
# PCOD8047335 Si02
#       8
#     2   2   2   2   2   2   2   2
#     4  11  22  45  77 112 145 189 247 337 392 436
#     4  11  22  40  76 110 151 190 236 333 403 439
#     4  12  33  53  75 106 160 211 250 305 381 471
#     4  11  26  45  73 113 150 190 262 305 392 470
#     4  11  23  44  71 113 156 194 251 318 391 448
#     4  12  26  52  83 110 155 192 267 326 385 448
#     4  12  25  42  82 117 142 187 243 337 394 435
#     4  12  29  51  77 109 155 217 270 305 360 465
#
# _framework density 24.025110000000002
#
# number of rings (size 3 to 8) (size 9 to 14) (size 15 to 20)
#    0.000    0.500    5.000    2.250    3.500    4.000 
#    2.250    0.000    0.000    0.000    0.000    0.000 
#    0.000    0.000    0.000    0.000    0.000    0.000 
#
# Total GULP energy -198278.840003 kJ/mol
# GULP energy per Si atom -12392.427500 kJ/mol
# Density = 2.397043 g / cm^3
# Si number density = 24.025110 Si / 1000 Ang^3
#
#
#
# Elastic Constant Matrix: (Units=GPa)
#
#
# Indices 1 2 3 4 5 6 
#
# 1 63.7698 7.8780 37.1517 0.0000 -4.5476 0.0000
# 2 7.8780 74.7009 28.2750 0.0000 4.3013 0.0000
# 3 37.1517 28.2750 153.3519 0.0000 -0.6807 0.0000
# 4 0.0000 0.0000 0.0000 25.5901 0.0000 -4.8406
# 5 -4.5476 4.3013 -0.6807 0.0000 50.1372 0.0000
# 6 0.0000 0.0000 0.0000 -4.8406 0.0000 41.4073
#
#
#
# Elastic Compliance Matrix: (Units=1/GPa)
#
#
# Indices 1 2 3 4 5 6 
#
# 1 0.018397 -0.000377 -0.004380 0.000000 0.001641 0.000000
# 2 -0.000377 0.014480 -0.002584 0.000000 -0.001312 0.000000
# 3 -0.004380 -0.002584 0.008058 0.000000 -0.000066 0.000000
# 4 0.000000 0.000000 0.000000 0.039961 0.000000 0.004672
# 5 0.001641 -0.001312 -0.000066 0.000000 0.020206 0.000000
# 6 0.000000 0.000000 0.000000 0.004672 0.000000 0.024696
#
#
# Mechanical properties :
#
#
# Convention : Reuss Voigt Hill
#
# Bulk Modulus (GPa) = 38.09122 48.71466 43.40294
# Shear Modulus (GPa) = 33.50482 37.99480 35.74981
#
# Velocity S-wave (km/s) = 3.73845 3.98107 3.86167
# Velocity P-wave (km/s) = 5.87570 6.43836 6.16346
#
# Compressibility (1/GPa) = 0.02625277
#
# Stress axis : x y z
#
# Youngs Moduli (GPa) = 54.35722 69.05991 124.09539
#
# Poissons Ratio (x) = 0.02602 0.54356
# Poissons Ratio (y) = 0.02048 0.32071
# Poissons Ratio (z) = 0.23809 0.17848
#
# Static dielectric constant tensor:
#      x y z
#    x 4.157870 0.000000 -0.108750 
#    y 0.000000 4.307630 0.000000 
#    z -0.108750 0.000000 4.951720 
# 
# 
# High freq. dielectric constant tensor:
#      x y z
#    x 1.931460 0.000000 -0.004760 
#    y 0.000000 1.950180 0.000000 
#    z -0.004760 0.000000 1.983280 
# 
# From -- ./inp_files/15550.got.cif
#   From: 2010.03.12/outbox.cif.g09.slc.cpg/sg4_8_cif.got.tgz:15550.got - 2010.03.31 09:31:35.
