data_PCOD8047546
_publ_section_title
;
Structure prediction by ZEFSAII (Michael W. Deem and Ramdas Pophale) SiO2 
 PCOD8047546
Probable space group: P 21
;
_chemical_formula_sum "Si O2"
_cell_formula_units_Z 16
_cell_length_a 9.156465
_cell_length_b 8.442020
_cell_length_c 7.985676
_cell_angle_alpha 90.000000
_cell_angle_beta 89.017370
_cell_angle_gamma 90.000000
_cell_volume 617.194476
_symmetry_space_group_name_H-M "P 21"
_symmetry_group_IT_number 4
_symmetry_cell_setting 'monoclinic'
loop_
_space_group_symop_operation_xyz
x,y,z
-x,1/2+y,-z
loop_
_atom_site_type_symbol
_atom_site_label
_atom_site_fract_x
_atom_site_fract_y
_atom_site_fract_z
Si Si1 0.835911 0.515650 0.815475
Si Si2 0.990656 0.775616 0.599741
Si Si3 0.188204 0.287403 0.717867
Si Si4 0.565415 0.607547 0.467826
Si Si5 0.016954 0.539807 0.119080
Si Si6 0.425940 0.217065 0.156269
Si Si7 0.318893 0.515587 0.980848
Si Si8 0.295047 0.790095 0.435448
O O1 0.912776 0.615740 0.664631
O O2 0.712248 0.618863 0.913562
O O3 0.764188 0.358964 0.738169
O O4 0.955705 0.463584 0.948362
O O5 0.902315 0.844648 0.442886
O O6 0.991108 0.908834 0.739172
O O7 0.159030 0.737970 0.552411
O O8 0.322130 0.175246 0.668190
O O9 0.256626 0.434572 0.814191
O O10 0.072942 0.194925 0.834826
O O11 0.582936 0.696604 0.644475
O O12 0.399599 0.637403 0.404021
O O13 0.598914 0.421176 0.480322
O O14 0.185221 0.588738 0.088775
O O15 0.578045 0.157417 0.078625
O O16 0.409697 0.397502 0.098450
#
# Coordination Sequence:
#
# PCOD8047546 Si02
#       8
#     2   2   2   2   2   2   2   2
#     4  11  23  49  72 110 149 191 257 311 374 444
#     4  12  23  47  77 107 152 193 257 311 374 448
#     4  12  23  48  78 111 147 197 255 314 374 443
#     4  11  24  49  74 112 151 196 249 307 377 448
#     4  12  24  47  79 107 153 195 250 317 381 443
#     4  11  25  52  73 110 157 194 253 309 379 459
#     4  12  27  49  77 113 151 204 245 317 377 453
#     4  11  25  47  76 110 150 200 246 318 368 452
#
# _framework density 25.923760000000001
#
# number of rings (size 3 to 8) (size 9 to 14) (size 15 to 20)
#    0.000    0.500    6.250    2.250    1.750    2.000 
#   15.750    0.000    0.000    0.000    0.000    0.000 
#    0.000    0.000    0.000    0.000    0.000    0.000 
#
# Total GULP energy -198473.182214 kJ/mol
# GULP energy per Si atom -12404.573888 kJ/mol
# Density = 2.586476 g / cm^3
# Si number density = 25.923760 Si / 1000 Ang^3
#
#
#
# Elastic Constant Matrix: (Units=GPa)
#
#
# Indices 1 2 3 4 5 6 
#
# 1 194.0995 47.7339 30.2561 0.0000 -30.7269 0.0000
# 2 47.7339 41.2532 27.6653 0.0000 3.5080 0.0000
# 3 30.2561 27.6653 58.8476 0.0000 -8.3246 0.0000
# 4 0.0000 0.0000 0.0000 23.9345 0.0000 -2.3978
# 5 -30.7269 3.5080 -8.3246 0.0000 50.1503 0.0000
# 6 0.0000 0.0000 0.0000 -2.3978 0.0000 57.5690
#
#
#
# Elastic Compliance Matrix: (Units=1/GPa)
#
#
# Indices 1 2 3 4 5 6 
#
# 1 0.008900 -0.012311 0.002156 0.000000 0.006672 0.000000
# 2 -0.012311 0.053898 -0.021105 0.000000 -0.014816 0.000000
# 3 0.002156 -0.021105 0.026832 0.000000 0.007251 0.000000
# 4 0.000000 0.000000 0.000000 0.041956 0.000000 0.001748
# 5 0.006672 -0.014816 0.007251 0.000000 0.026268 0.000000
# 6 0.000000 0.000000 0.000000 0.001748 0.000000 0.017443
#
#
# Mechanical properties :
#
#
# Convention : Reuss Voigt Hill
#
# Bulk Modulus (GPa) = 36.88653 56.16787 46.52720
# Shear Modulus (GPa) = 20.25486 38.90043 29.57765
#
# Velocity S-wave (km/s) = 2.79825 3.87792 3.38146
# Velocity P-wave (km/s) = 4.96991 6.46256 5.76475
#
# Compressibility (1/GPa) = 0.02711017
#
# Stress axis : x y z
#
# Youngs Moduli (GPa) = 112.36413 18.55340 37.26838
#
# Poissons Ratio (x) = 0.22840 -0.08033
# Poissons Ratio (y) = 1.38327 0.78655
# Poissons Ratio (z) = -0.24220 0.39157
#
# Static dielectric constant tensor:
#      x y z
#    x 5.329810 0.000000 -0.001160 
#    y 0.000000 4.448300 0.000000 
#    z -0.001160 0.000000 4.783450 
# 
# 
# High freq. dielectric constant tensor:
#      x y z
#    x 2.065190 0.000000 0.000340 
#    y 0.000000 2.023770 0.000000 
#    z 0.000340 0.000000 2.042520 
# 
# From -- ./inp_files/5826.got.cif
#   From: 2010.03.12/outbox.cif.g09.slc.cpg/sg4_3_cif.got.tgz:5826.got - 2010.03.31 09:31:35.
