data_PCOD8047151
_publ_section_title
;
Structure prediction by ZEFSAII (Michael W. Deem and Ramdas Pophale) SiO2 
 PCOD8047151
Probable space group: P 21
;
_chemical_formula_sum "Si O2"
_cell_formula_units_Z 16
_cell_length_a 6.763448
_cell_length_b 8.545820
_cell_length_c 16.700368
_cell_angle_alpha 90.000000
_cell_angle_beta 47.470011
_cell_angle_gamma 90.000000
_cell_volume 711.328843
_symmetry_space_group_name_H-M "P 21"
_symmetry_group_IT_number 4
_symmetry_cell_setting 'monoclinic'
loop_
_space_group_symop_operation_xyz
x,y,z
-x,1/2+y,-z
loop_
_atom_site_type_symbol
_atom_site_label
_atom_site_fract_x
_atom_site_fract_y
_atom_site_fract_z
Si Si1 0.517824 0.914880 0.251225
Si Si2 0.789802 0.870564 0.765909
Si Si3 0.780340 0.704221 0.606873
Si Si4 0.391546 0.712972 0.428690
Si Si5 0.598934 0.370334 0.407641
Si Si6 0.539975 0.196382 0.881246
Si Si7 0.320265 0.730859 0.980499
Si Si8 0.997091 0.527163 0.964606
O O1 0.552228 0.780663 0.308614
O O2 0.443962 0.835943 0.186616
O O3 0.282854 0.032720 0.340648
O O4 0.797794 0.010896 0.166501
O O5 0.749126 0.835441 0.683412
O O6 0.622594 0.745359 0.864393
O O7 0.098104 0.849591 0.706380
O O8 0.694426 0.047062 0.804861
O O9 0.583204 0.746151 0.588931
O O10 0.080100 0.695354 0.490533
O O11 0.510017 0.546695 0.418872
O O12 0.426654 0.833855 0.491638
O O13 0.685531 0.252013 0.922657
O O14 0.231169 0.157127 0.987719
O O15 0.178751 0.568184 0.993423
O O16 0.147697 0.862550 0.981975
#
# Coordination Sequence:
#
# PCOD8047151 Si02
#       8
#     2   2   2   2   2   2   2   2
#     4  12  25  46  73 101 145 191 233 297 364 412
#     4  10  25  42  68 100 137 182 231 292 356 415
#     4  11  24  46  71 103 139 183 237 299 354 427
#     4  11  26  47  70 109 140 187 239 298 354 429
#     4  11  25  47  74 101 144 182 239 293 362 430
#     4  11  27  45  68 105 144 188 241 292 352 440
#     4  11  25  46  70 103 144 182 240 295 355 430
#     4  11  25  45  68 102 143 187 234 298 347 423
#
# _framework density 22.493113999999998
#
# number of rings (size 3 to 8) (size 9 to 14) (size 15 to 20)
#    0.000    1.000    2.500    2.250    7.000    6.000 
#    2.250    0.000    0.000    0.000    0.000    0.000 
#    0.000    0.000    0.000    0.000    0.000    0.000 
#
# Total GULP energy -198449.983251 kJ/mol
# GULP energy per Si atom -12403.123953 kJ/mol
# Density = 2.244192 g / cm^3
# Si number density = 22.493114 Si / 1000 Ang^3
#
#
#
# Elastic Constant Matrix: (Units=GPa)
#
#
# Indices 1 2 3 4 5 6 
#
# 1 138.6495 64.4760 66.8153 0.0000 -7.8253 0.0000
# 2 64.4760 105.7906 41.6546 0.0000 4.8876 0.0000
# 3 66.8153 41.6546 108.4685 0.0000 2.0882 0.0000
# 4 0.0000 0.0000 0.0000 44.4314 0.0000 4.0741
# 5 -7.8253 4.8876 2.0882 0.0000 30.5392 0.0000
# 6 0.0000 0.0000 0.0000 4.0741 0.0000 35.9512
#
#
#
# Elastic Compliance Matrix: (Units=1/GPa)
#
#
# Indices 1 2 3 4 5 6 
#
# 1 0.013019 -0.005841 -0.005867 0.000000 0.004672 0.000000
# 2 -0.005841 0.013825 -0.001642 0.000000 -0.003597 0.000000
# 3 -0.005867 -0.001642 0.013505 0.000000 -0.002164 0.000000
# 4 0.000000 0.000000 0.000000 0.022743 0.000000 -0.002577
# 5 0.004672 -0.003597 -0.002164 0.000000 0.034666 0.000000
# 6 0.000000 0.000000 0.000000 -0.002577 0.000000 0.028108
#
#
# Mechanical properties :
#
#
# Convention : Reuss Voigt Hill
#
# Bulk Modulus (GPa) = 73.25631 77.64448 75.45040
# Shear Modulus (GPa) = 31.82369 34.18185 33.00277
#
# Velocity S-wave (km/s) = 3.76549 3.90251 3.83461
# Velocity P-wave (km/s) = 7.17943 7.40947 7.29536
#
# Compressibility (1/GPa) = 0.01365070
#
# Stress axis : x y z
#
# Youngs Moduli (GPa) = 76.80821 72.33189 74.04445
#
# Poissons Ratio (x) = 0.42247 0.43440
# Poissons Ratio (y) = 0.44862 0.12159
# Poissons Ratio (z) = 0.45062 0.11878
#
# Static dielectric constant tensor:
#      x y z
#    x 4.044700 0.000000 -0.188200 
#    y 0.000000 4.029210 0.000000 
#    z -0.188200 0.000000 4.214750 
# 
# 
# High freq. dielectric constant tensor:
#      x y z
#    x 1.885310 0.000000 -0.009010 
#    y 0.000000 1.894450 0.000000 
#    z -0.009010 0.000000 1.893080 
# 
# From -- ./inp_files/2622.got.cif
#   From: 2010.03.12/outbox.cif.g09.slc.cpg/sg4_2_cif.got.tgz:2622.got - 2010.03.31 09:31:35.
