data_PCOD8047754
_publ_section_title
;
Structure prediction by ZEFSAII (Michael W. Deem and Ramdas Pophale) SiO2 
 PCOD8047754
Probable space group: P 21
;
_chemical_formula_sum "Si O2"
_cell_formula_units_Z 16
_cell_length_a 15.528269
_cell_length_b 8.577207
_cell_length_c 16.548337
_cell_angle_alpha 90.000000
_cell_angle_beta 162.459499
_cell_angle_gamma 90.000000
_cell_volume 664.259164
_symmetry_space_group_name_H-M "P 21"
_symmetry_group_IT_number 4
_symmetry_cell_setting 'monoclinic'
loop_
_space_group_symop_operation_xyz
x,y,z
-x,1/2+y,-z
loop_
_atom_site_type_symbol
_atom_site_label
_atom_site_fract_x
_atom_site_fract_y
_atom_site_fract_z
Si Si1 0.231660 0.060560 0.781423
Si Si2 0.146085 0.090227 0.883585
Si Si3 0.607433 0.388833 0.663937
Si Si4 0.022178 0.796019 0.860424
Si Si5 0.546413 0.346525 0.286363
Si Si6 0.171970 0.702350 0.705693
Si Si7 0.400579 0.720092 0.507798
Si Si8 0.087123 0.539020 0.795130
O O1 0.062639 0.084046 0.714360
O O2 0.096557 0.167890 0.591573
O O3 0.228366 0.884146 0.748874
O O4 0.559672 0.107252 0.087528
O O5 0.890070 0.166488 0.706548
O O6 0.199151 0.914168 0.961458
O O7 0.452687 0.178038 0.167056
O O8 0.290829 0.354745 0.406097
O O9 0.619326 0.578962 0.679579
O O10 0.681499 0.325882 0.641677
O O11 0.820844 0.294624 0.912985
O O12 0.986613 0.628894 0.785852
O O13 0.442563 0.335661 0.287603
O O14 0.883492 0.392559 0.589007
O O15 0.396710 0.475604 0.096950
O O16 0.106000 0.658482 0.738813
#
# Coordination Sequence:
#
# PCOD8047754 Si02
#       8
#     2   2   2   2   2   2   2   2
#     4  12  29  48  79 109 157 196 256 313 380 454
#     4  11  26  51  76 104 150 204 246 303 383 455
#     4  11  27  43  74 103 149 184 258 300 374 439
#     4  11  25  49  71 103 143 201 238 308 370 443
#     4  12  26  44  75 106 144 195 248 297 370 445
#     4  12  29  50  75 117 151 202 250 317 379 445
#     4  11  27  48  73 111 147 202 248 310 379 442
#     4  12  27  47  75 107 151 188 254 300 375 445
#
# _framework density 24.086981999999999
#
# number of rings (size 3 to 8) (size 9 to 14) (size 15 to 20)
#    0.000    0.500    3.750    2.250   12.250    0.000 
#    0.000    0.000    0.000    0.000    0.000    0.000 
#    0.000    0.000    0.000    0.000    0.000    0.000 
#
# Total GULP energy -198348.864236 kJ/mol
# GULP energy per Si atom -12396.804015 kJ/mol
# Density = 2.403216 g / cm^3
# Si number density = 24.086982 Si / 1000 Ang^3
#
#
#
# Elastic Constant Matrix: (Units=GPa)
#
#
# Indices 1 2 3 4 5 6 
#
# 1 98.3579 25.2203 26.5556 0.0000 -29.5518 0.0000
# 2 25.2203 92.2309 22.0925 0.0000 0.4456 0.0000
# 3 26.5556 22.0925 110.9173 0.0000 -22.8887 0.0000
# 4 0.0000 0.0000 0.0000 41.6140 0.0000 -15.7976
# 5 -29.5518 0.4456 -22.8887 0.0000 43.1398 0.0000
# 6 0.0000 0.0000 0.0000 -15.7976 0.0000 66.8692
#
#
#
# Elastic Compliance Matrix: (Units=1/GPa)
#
#
# Indices 1 2 3 4 5 6 
#
# 1 0.014122 -0.003736 -0.000710 0.000000 0.009335 0.000000
# 2 -0.003736 0.012459 -0.002405 0.000000 -0.003964 0.000000
# 3 -0.000710 -0.002405 0.010746 0.000000 0.005240 0.000000
# 4 0.000000 0.000000 0.000000 0.026398 0.000000 0.006236
# 5 0.009335 -0.003964 0.005240 0.000000 0.032396 0.000000
# 6 0.000000 0.000000 0.000000 0.006236 0.000000 0.016428
#
#
# Mechanical properties :
#
#
# Convention : Reuss Voigt Hill
#
# Bulk Modulus (GPa) = 42.33121 49.91587 46.12354
# Shear Modulus (GPa) = 37.27793 45.50045 41.38919
#
# Velocity S-wave (km/s) = 3.93827 4.35098 4.14976
# Velocity P-wave (km/s) = 6.18809 6.78304 6.49238
#
# Compressibility (1/GPa) = 0.02362323
#
# Stress axis : x y z
#
# Youngs Moduli (GPa) = 70.81331 80.26093 93.05678
#
# Poissons Ratio (x) = 0.29989 0.06610
# Poissons Ratio (y) = 0.26459 0.22382
# Poissons Ratio (z) = 0.05030 0.19304
#
# Static dielectric constant tensor:
#      x y z
#    x 4.390640 0.000000 -0.376160 
#    y 0.000000 4.680960 0.000000 
#    z -0.376160 0.000000 3.990400 
# 
# 
# High freq. dielectric constant tensor:
#      x y z
#    x 1.959010 0.000000 -0.021300 
#    y 0.000000 1.963990 0.000000 
#    z -0.021300 0.000000 1.960920 
# 
# From -- ./inp_files/14221.got.cif
#   From: 2010.03.12/outbox.cif.g09.slc.cpg/sg4_8_cif.got.tgz:14221.got - 2010.03.31 09:31:35.
