data_PCOD8047630
_publ_section_title
;
Structure prediction by ZEFSAII (Michael W. Deem and Ramdas Pophale) SiO2 
 PCOD8047630
Probable space group: P 21
;
_chemical_formula_sum "Si O2"
_cell_formula_units_Z 12
_cell_length_a 6.756518
_cell_length_b 13.749649
_cell_length_c 8.621103
_cell_angle_alpha 90.000000
_cell_angle_beta 140.087466
_cell_angle_gamma 90.000000
_cell_volume 513.870332
_symmetry_space_group_name_H-M "P 21"
_symmetry_group_IT_number 4
_symmetry_cell_setting 'monoclinic'
loop_
_space_group_symop_operation_xyz
x,y,z
-x,1/2+y,-z
loop_
_atom_site_type_symbol
_atom_site_label
_atom_site_fract_x
_atom_site_fract_y
_atom_site_fract_z
Si Si1 0.209803 0.009970 0.771556
Si Si2 0.117957 0.515310 0.876836
Si Si3 0.809475 0.395032 0.951473
Si Si4 0.876057 0.195264 0.640006
Si Si5 0.140453 0.372920 0.618060
Si Si6 0.852395 0.705594 0.847233
O O1 0.966603 0.096717 0.604193
O O2 0.522704 0.034655 0.866470
O O3 0.109106 0.900567 0.660895
O O4 0.228283 0.991685 0.967110
O O5 0.126297 0.473718 0.708514
O O6 0.955924 0.431186 0.879338
O O7 0.945262 0.617802 0.788439
O O8 0.463605 0.353453 0.724945
O O9 0.022413 0.307547 0.144659
O O10 0.517258 0.211353 0.387033
O O11 0.066035 0.281066 0.676198
O O12 0.990183 0.190787 0.887777
#
# Coordination Sequence:
#
# PCOD8047630 Si02
#       6
#     2   2   2   2   2   2
#     4  11  26  44  74 103 144 187 237 298 353 425
#     4  11  24  46  71 103 141 187 238 289 359 417
#     4  11  24  46  71 103 141 187 238 289 359 417
#     4  12  27  47  72 107 144 186 242 290 359 422
#     4  11  26  44  74 103 144 187 237 298 353 425
#     4  12  27  45  76 103 144 192 238 292 353 430
#
# _framework density 23.352193
#
# number of rings (size 3 to 8) (size 9 to 14) (size 15 to 20)
#    0.000    0.667    3.333    3.000    9.333    4.000 
#    0.000    0.000    0.000    0.000    0.000    0.000 
#    0.000    0.000    0.000    0.000    0.000    0.000 
#
# Total GULP energy -148677.632456 kJ/mol
# GULP energy per Si atom -12389.802705 kJ/mol
# Density = 2.329904 g / cm^3
# Si number density = 23.352193 Si / 1000 Ang^3
#
#
#
# Elastic Constant Matrix: (Units=GPa)
#
#
# Indices 1 2 3 4 5 6 
#
# 1 118.4884 35.6087 39.6259 0.0000 33.7295 0.0000
# 2 35.6087 110.5755 10.2301 0.0000 16.9811 0.0000
# 3 39.6259 10.2301 107.9384 0.0000 32.2989 0.0000
# 4 0.0000 0.0000 0.0000 36.3048 0.0000 7.1399
# 5 33.7295 16.9811 32.2989 0.0000 48.1691 0.0000
# 6 0.0000 0.0000 0.0000 7.1399 0.0000 47.8930
#
#
#
# Elastic Compliance Matrix: (Units=1/GPa)
#
#
# Indices 1 2 3 4 5 6 
#
# 1 0.011623 -0.002662 -0.002327 0.000000 -0.005640 0.000000
# 2 -0.002662 0.010172 0.000661 0.000000 -0.002165 0.000000
# 3 -0.002327 0.000661 0.012058 0.000000 -0.006689 0.000000
# 4 0.000000 0.000000 0.000000 0.028377 0.000000 -0.004230
# 5 -0.005640 -0.002165 -0.006689 0.000000 0.029958 0.000000
# 6 0.000000 0.000000 0.000000 -0.004230 0.000000 0.021511
#
#
# Mechanical properties :
#
#
# Convention : Reuss Voigt Hill
#
# Bulk Modulus (GPa) = 39.68597 56.43686 48.06141
# Shear Modulus (GPa) = 38.24007 43.24254 40.74131
#
# Velocity S-wave (km/s) = 4.05104 4.30787 4.18143
# Velocity P-wave (km/s) = 6.23800 6.99742 6.62859
#
# Compressibility (1/GPa) = 0.02519782
#
# Stress axis : x y z
#
# Youngs Moduli (GPa) = 86.03349 98.30805 82.93490
#
# Poissons Ratio (x) = 0.26166 0.19300
# Poissons Ratio (y) = 0.22899 -0.05482
# Poissons Ratio (z) = 0.20021 -0.06498
#
# Static dielectric constant tensor:
#      x y z
#    x 4.224970 0.000000 0.164850 
#    y 0.000000 4.244950 0.000000 
#    z 0.164850 0.000000 4.157920 
# 
# 
# High freq. dielectric constant tensor:
#      x y z
#    x 1.935680 0.000000 0.012590 
#    y 0.000000 1.939020 0.000000 
#    z 0.012590 0.000000 1.917430 
# 
# From -- ./inp_files/232.got.cif
#   From: 2010.03.12/outbox.cif.g09.slc.cpg/sg4_1_cif.got.tgz:232.got - 2010.03.31 09:31:35.
