data_PCOD8047392
_publ_section_title
;
Structure prediction by ZEFSAII (Michael W. Deem and Ramdas Pophale) SiO2 
 PCOD8047392
Probable space group: P 21
;
_chemical_formula_sum "Si O2"
_cell_formula_units_Z 16
_cell_length_a 12.614222
_cell_length_b 8.369739
_cell_length_c 9.631810
_cell_angle_alpha 90.000000
_cell_angle_beta 133.609432
_cell_angle_gamma 90.000000
_cell_volume 736.298379
_symmetry_space_group_name_H-M "P 21"
_symmetry_group_IT_number 4
_symmetry_cell_setting 'monoclinic'
loop_
_space_group_symop_operation_xyz
x,y,z
-x,1/2+y,-z
loop_
_atom_site_type_symbol
_atom_site_label
_atom_site_fract_x
_atom_site_fract_y
_atom_site_fract_z
Si Si1 0.936834 0.281940 0.551784
Si Si2 0.375513 0.328539 0.633936
Si Si3 0.799962 0.988718 0.304745
Si Si4 0.335477 0.986983 0.026599
Si Si5 0.331433 0.985484 0.702882
Si Si6 0.949970 0.566853 0.096269
Si Si7 0.194499 0.332401 0.203359
Si Si8 0.372486 0.361713 0.099772
O O1 0.823468 0.420665 0.494573
O O2 0.075293 0.357101 0.600869
O O3 0.988440 0.190227 0.735157
O O4 0.867127 0.165397 0.373048
O O5 0.281566 0.467614 0.621683
O O6 0.545091 0.382978 0.781140
O O7 0.347817 0.174549 0.704420
O O8 0.318887 0.294121 0.428694
O O9 0.683818 0.974118 0.075993
O O10 0.362298 0.175324 0.060779
O O11 0.342756 0.934136 0.873720
O O12 0.175092 0.954533 0.947375
O O13 0.457517 0.902218 0.725333
O O14 0.077653 0.456641 0.154992
O O15 0.883585 0.666838 0.908102
O O16 0.277918 0.410112 0.148171
#
# Coordination Sequence:
#
# PCOD8047392 Si02
#       8
#     2   2   2   2   2   2   2   2
#     4  12  25  43  72 105 145 181 240 299 355 422
#     4  12  25  42  73 105 137 186 243 279 360 430
#     4  12  22  44  69 103 137 187 234 296 353 413
#     4  11  22  47  70 102 142 179 234 306 350 409
#     4  12  25  42  72 108 136 187 235 296 356 423
#     4  11  25  48  68 102 146 191 229 298 355 425
#     4  11  27  47  69 101 145 189 231 291 357 433
#     4  11  25  45  67 100 146 180 232 293 356 419
#
# _framework density 21.730321
#
# number of rings (size 3 to 8) (size 9 to 14) (size 15 to 20)
#    0.000    0.500    6.250    2.250    3.500    4.000 
#    0.000    0.000    0.000    0.000    0.000    0.000 
#    0.000    0.000    0.000    0.000    0.000    0.000 
#
# Total GULP energy -198475.766589 kJ/mol
# GULP energy per Si atom -12404.735412 kJ/mol
# Density = 2.168086 g / cm^3
# Si number density = 21.730321 Si / 1000 Ang^3
#
#
#
# Elastic Constant Matrix: (Units=GPa)
#
#
# Indices 1 2 3 4 5 6 
#
# 1 134.6280 36.8727 35.2339 0.0000 18.4157 0.0000
# 2 36.8727 62.5991 30.2964 0.0000 3.4901 0.0000
# 3 35.2339 30.2964 126.4171 0.0000 7.0296 0.0000
# 4 0.0000 0.0000 0.0000 36.3691 0.0000 13.2330
# 5 18.4157 3.4901 7.0296 0.0000 34.5671 0.0000
# 6 0.0000 0.0000 0.0000 13.2330 0.0000 37.2147
#
#
#
# Elastic Compliance Matrix: (Units=1/GPa)
#
#
# Indices 1 2 3 4 5 6 
#
# 1 0.009696 -0.004837 -0.001298 0.000000 -0.004413 0.000000
# 2 -0.004837 0.020515 -0.003638 0.000000 0.001245 0.000000
# 3 -0.001298 -0.003638 0.009189 0.000000 -0.000810 0.000000
# 4 0.000000 0.000000 0.000000 0.031582 0.000000 -0.011230
# 5 -0.004413 0.001245 -0.000810 0.000000 0.031319 0.000000
# 6 0.000000 0.000000 0.000000 -0.011230 0.000000 0.030864
#
#
# Mechanical properties :
#
#
# Convention : Reuss Voigt Hill
#
# Bulk Modulus (GPa) = 50.36543 58.71669 54.54106
# Shear Modulus (GPa) = 31.38165 36.37958 33.88062
#
# Velocity S-wave (km/s) = 3.80431 4.09606 3.95288
# Velocity P-wave (km/s) = 6.52111 7.03204 6.78139
#
# Compressibility (1/GPa) = 0.01985489
#
# Stress axis : x y z
#
# Youngs Moduli (GPa) = 103.13505 48.74501 108.82784
#
# Poissons Ratio (x) = 0.23578 0.14123
# Poissons Ratio (y) = 0.49887 0.39587
# Poissons Ratio (z) = 0.13384 0.17731
#
# Static dielectric constant tensor:
#      x y z
#    x 4.200890 0.000000 0.189360 
#    y 0.000000 3.852170 0.000000 
#    z 0.189360 0.000000 4.048180 
# 
# 
# High freq. dielectric constant tensor:
#      x y z
#    x 1.863680 0.000000 0.015900 
#    y 0.000000 1.848830 0.000000 
#    z 0.015900 0.000000 1.856740 
# 
# From -- ./inp_files/5660.got.cif
#   From: 2010.03.12/outbox.cif.g09.slc.cpg/sg4_3_cif.got.tgz:5660.got - 2010.03.31 09:31:35.
