data_PCOD8047967
_publ_section_title
;
Structure prediction by ZEFSAII (Michael W. Deem and Ramdas Pophale) SiO2 
 PCOD8047967
Probable space group: P 21
;
_chemical_formula_sum "Si O2"
_cell_formula_units_Z 12
_cell_length_a 15.912212
_cell_length_b 5.031766
_cell_length_c 8.833258
_cell_angle_alpha 90.000000
_cell_angle_beta 36.307672
_cell_angle_gamma 90.000000
_cell_volume 418.776629
_symmetry_space_group_name_H-M "P 21"
_symmetry_group_IT_number 4
_symmetry_cell_setting 'monoclinic'
loop_
_space_group_symop_operation_xyz
x,y,z
-x,1/2+y,-z
loop_
_atom_site_type_symbol
_atom_site_label
_atom_site_fract_x
_atom_site_fract_y
_atom_site_fract_z
Si Si1 0.926448 0.329880 0.571518
Si Si2 0.662746 0.464215 0.119071
Si Si3 0.538046 0.954377 0.144855
Si Si4 0.692600 0.825279 0.608053
Si Si5 0.226114 0.732011 0.748516
Si Si6 0.948644 0.508737 0.235233
O O1 0.892155 0.296877 0.442964
O O2 0.058561 0.540062 0.377332
O O3 0.819122 0.511103 0.825825
O O4 0.564658 0.721705 0.229962
O O5 0.670762 0.396098 0.286854
O O6 0.611395 0.219012 0.094705
O O7 0.370509 0.042096 0.371425
O O8 0.601027 0.885223 0.889256
O O9 0.859169 0.780509 0.401647
O O10 0.674178 0.064341 0.512775
O O11 0.103658 0.915845 0.852958
O O12 0.120153 0.533797 0.994507
#
# Coordination Sequence:
#
# PCOD8047967 Si02
#       6
#     2   2   2   2   2   2
#     4  12  26  45  80 119 164 214 275 347 423 512
#     4  12  28  52  82 125 167 224 283 354 427 502
#     4  12  29  55  86 117 169 230 298 344 406 528
#     4  12  29  54  85 124 162 232 291 348 429 512
#     4  12  29  49  85 126 176 220 279 363 444 503
#     4  12  27  47  82 121 172 216 276 354 439 513
#
# _framework density 28.654893999999999
#
# number of rings (size 3 to 8) (size 9 to 14) (size 15 to 20)
#    0.000    0.000    5.000    3.000   11.667    0.000 
#    3.000    0.000    0.000    0.000    0.000    0.000 
#    0.000    0.000    0.000    0.000    0.000    0.000 
#
# Total GULP energy -148749.898326 kJ/mol
# GULP energy per Si atom -12395.824860 kJ/mol
# Density = 2.858967 g / cm^3
# Si number density = 28.654894 Si / 1000 Ang^3
#
#
#
# Elastic Constant Matrix: (Units=GPa)
#
#
# Indices 1 2 3 4 5 6 
#
# 1 114.2453 51.7283 34.8953 0.0000 22.4838 0.0000
# 2 51.7283 156.5901 9.7569 0.0000 6.4922 0.0000
# 3 34.8953 9.7569 97.9800 0.0000 1.4554 0.0000
# 4 0.0000 0.0000 0.0000 35.8354 0.0000 10.0081
# 5 22.4838 6.4922 1.4554 0.0000 44.2296 0.0000
# 6 0.0000 0.0000 0.0000 10.0081 0.0000 55.5577
#
#
#
# Elastic Compliance Matrix: (Units=1/GPa)
#
#
# Indices 1 2 3 4 5 6 
#
# 1 0.012861 -0.003749 -0.004120 0.000000 -0.005852 0.000000
# 2 -0.003749 0.007557 0.000571 0.000000 0.000778 0.000000
# 3 -0.004120 0.000571 0.011592 0.000000 0.001629 0.000000
# 4 0.000000 0.000000 0.000000 0.029384 0.000000 -0.005293
# 5 -0.005852 0.000778 0.001629 0.000000 0.025416 0.000000
# 6 0.000000 0.000000 0.000000 -0.005293 0.000000 0.018953
#
#
# Mechanical properties :
#
#
# Convention : Reuss Voigt Hill
#
# Bulk Modulus (GPa) = 57.42530 62.39739 59.91134
# Shear Modulus (GPa) = 39.63123 45.28686 42.45905
#
# Velocity S-wave (km/s) = 3.72298 3.97977 3.85351
# Velocity P-wave (km/s) = 6.21004 6.55292 6.38378
#
# Compressibility (1/GPa) = 0.01741393
#
# Stress axis : x y z
#
# Youngs Moduli (GPa) = 77.75624 132.33204 86.26321
#
# Poissons Ratio (x) = 0.49613 0.35541
# Poissons Ratio (y) = 0.29152 -0.04927
# Poissons Ratio (z) = 0.32036 -0.07558
#
# Static dielectric constant tensor:
#      x y z
#    x 5.441890 0.000000 -0.236750 
#    y 0.000000 5.212630 0.000000 
#    z -0.236750 0.000000 5.693300 
# 
# 
# High freq. dielectric constant tensor:
#      x y z
#    x 2.165210 0.000000 0.004720 
#    y 0.000000 2.167020 0.000000 
#    z 0.004720 0.000000 2.182720 
# 
# From -- ./inp_files/8777.got.cif
#   From: 2010.03.12/outbox.cif.g09.slc.cpg/sg4_5_cif.got.tgz:8777.got - 2010.03.31 09:31:35.
