data_PCOD8047352
_publ_section_title
;
Structure prediction by ZEFSAII (Michael W. Deem and Ramdas Pophale) SiO2 
 PCOD8047352
Probable space group: P 21
;
_chemical_formula_sum "Si O2"
_cell_formula_units_Z 16
_cell_length_a 11.454828
_cell_length_b 8.211206
_cell_length_c 14.097792
_cell_angle_alpha 90.000000
_cell_angle_beta 32.579971
_cell_angle_gamma 90.000000
_cell_volume 714.024601
_symmetry_space_group_name_H-M "P 21"
_symmetry_group_IT_number 4
_symmetry_cell_setting 'monoclinic'
loop_
_space_group_symop_operation_xyz
x,y,z
-x,1/2+y,-z
loop_
_atom_site_type_symbol
_atom_site_label
_atom_site_fract_x
_atom_site_fract_y
_atom_site_fract_z
Si Si1 0.851992 0.166310 0.640213
Si Si2 0.826948 0.173317 0.137023
Si Si3 0.632488 0.799691 0.519572
Si Si4 0.944100 0.728456 0.825382
Si Si5 0.480709 0.279401 0.792940
Si Si6 0.242918 0.314377 0.780248
Si Si7 0.163382 0.977374 0.545671
Si Si8 0.007002 0.492238 0.629875
O O1 0.601641 0.146329 0.778048
O O2 0.884990 0.340443 0.667039
O O3 0.982712 0.142786 0.451587
O O4 0.934301 0.024045 0.653171
O O5 0.619552 0.293177 0.277410
O O6 0.936849 0.165071 0.163610
O O7 0.760772 0.987569 0.160859
O O8 0.002008 0.236531 0.939437
O O9 0.650438 0.835748 0.395102
O O10 0.744051 0.626803 0.458889
O O11 0.752224 0.936262 0.500468
O O12 0.117792 0.836009 0.651032
O O13 0.882126 0.567337 0.806119
O O14 0.729871 0.830622 0.001020
O O15 0.399985 0.211310 0.744623
O O16 0.658751 0.422663 0.654705
#
# Coordination Sequence:
#
# PCOD8047352 Si02
#       8
#     2   2   2   2   2   2   2   2
#     4  11  23  43  70  93 133 172 224 281 331 390
#     4  11  25  42  65 102 138 178 218 278 333 405
#     4  11  25  40  69  97 130 180 225 271 338 398
#     4  11  24  41  68  97 134 174 221 275 335 401
#     4  11  23  42  67  94 133 174 215 273 339 387
#     4  11  25  43  65 101 139 173 228 274 333 404
#     4  11  23  44  67  94 130 176 226 276 331 396
#     4  11  22  43  67 100 129 173 227 278 330 401
#
# _framework density 22.408192
#
# number of rings (size 3 to 8) (size 9 to 14) (size 15 to 20)
#    0.000    1.000    5.000    0.750    3.500    3.000 
#    0.000    0.000    0.000    0.000    0.000    0.000 
#    0.000    0.000    0.000    0.000    0.000    0.000 
#
# Total GULP energy -198251.920761 kJ/mol
# GULP energy per Si atom -12390.745048 kJ/mol
# Density = 2.235719 g / cm^3
# Si number density = 22.408192 Si / 1000 Ang^3
#
#
#
# Elastic Constant Matrix: (Units=GPa)
#
#
# Indices 1 2 3 4 5 6 
#
# 1 107.0955 15.2139 28.7071 0.0000 -11.5282 0.0000
# 2 15.2139 66.2038 24.3096 0.0000 1.3498 0.0000
# 3 28.7071 24.3096 88.7431 0.0000 -13.3604 0.0000
# 4 0.0000 0.0000 0.0000 29.7495 0.0000 -2.9467
# 5 -11.5282 1.3498 -13.3604 0.0000 30.0803 0.0000
# 6 0.0000 0.0000 0.0000 -2.9467 0.0000 28.1051
#
#
#
# Elastic Compliance Matrix: (Units=1/GPa)
#
#
# Indices 1 2 3 4 5 6 
#
# 1 0.010561 -0.001555 -0.002540 0.000000 0.002989 0.000000
# 2 -0.001555 0.017279 -0.004755 0.000000 -0.003483 0.000000
# 3 -0.002540 -0.004755 0.014230 0.000000 0.005560 0.000000
# 4 0.000000 0.000000 0.000000 0.033967 0.000000 0.003561
# 5 0.002989 -0.003483 0.005560 0.000000 0.037016 0.000000
# 6 0.000000 0.000000 0.000000 0.003561 0.000000 0.035954
#
#
# Mechanical properties :
#
#
# Convention : Reuss Voigt Hill
#
# Bulk Modulus (GPa) = 41.03453 44.27818 42.65635
# Shear Modulus (GPa) = 28.59921 30.50777 29.55349
#
# Velocity S-wave (km/s) = 3.57639 3.69379 3.63556
# Velocity P-wave (km/s) = 5.95030 6.16400 6.05809
#
# Compressibility (1/GPa) = 0.02436972
#
# Stress axis : x y z
#
# Youngs Moduli (GPa) = 94.68733 57.87327 70.27521
#
# Poissons Ratio (x) = 0.09000 0.17852
# Poissons Ratio (y) = 0.14725 0.33413
# Poissons Ratio (z) = 0.24054 0.27517
#
# Static dielectric constant tensor:
#      x y z
#    x 4.392540 0.000000 -0.166260 
#    y 0.000000 3.963580 0.000000 
#    z -0.166260 0.000000 3.990980 
# 
# 
# High freq. dielectric constant tensor:
#      x y z
#    x 1.904410 0.000000 -0.004650 
#    y 0.000000 1.868470 0.000000 
#    z -0.004650 0.000000 1.865950 
# 
# From -- ./inp_files/12035.got.cif
#   From: 2010.03.12/outbox.cif.g09.slc.cpg/sg4_7_cif.got.tgz:12035.got - 2010.03.31 09:31:35.
