data_PCOD8047259
_publ_section_title
;
Structure prediction by ZEFSAII (Michael W. Deem and Ramdas Pophale) SiO2 
 PCOD8047259
Probable space group: P 21
;
_chemical_formula_sum "Si O2"
_cell_formula_units_Z 14
_cell_length_a 5.167424
_cell_length_b 7.862831
_cell_length_c 19.763065
_cell_angle_alpha 90.000000
_cell_angle_beta 124.685088
_cell_angle_gamma 90.000000
_cell_volume 660.288139
_symmetry_space_group_name_H-M "P 21"
_symmetry_group_IT_number 4
_symmetry_cell_setting 'monoclinic'
loop_
_space_group_symop_operation_xyz
x,y,z
-x,1/2+y,-z
loop_
_atom_site_type_symbol
_atom_site_label
_atom_site_fract_x
_atom_site_fract_y
_atom_site_fract_z
Si Si1 0.201921 0.483590 0.013456
Si Si2 0.466566 0.108454 0.070876
Si Si3 0.170267 0.564329 0.272899
Si Si4 0.493823 0.577152 0.190659
Si Si5 0.637173 0.439708 0.444504
Si Si6 0.190337 0.744993 0.759455
Si Si7 0.905925 0.715888 0.578283
O O1 0.328975 0.295317 0.040353
O O2 0.325163 0.602574 0.093435
O O3 0.327576 0.560414 0.962831
O O4 0.822242 0.479701 0.959137
O O5 0.698853 0.102540 0.170420
O O6 0.289047 0.653567 0.221481
O O7 0.427932 0.575869 0.370781
O O8 0.843978 0.661495 0.243159
O O9 0.091083 0.362314 0.251105
O O10 0.520909 0.375094 0.211822
O O11 0.846504 0.545117 0.528047
O O12 0.421529 0.309251 0.453933
O O13 0.870680 0.343099 0.429177
O O14 0.077690 0.658094 0.673160
#
# Coordination Sequence:
#
# PCOD8047259 Si02
#       7
#     2   2   2   2   2   2   2
#     4  11  23  37  62  89 117 154 199 249 293 347
#     4  11  23  38  63  86 120 153 203 242 298 344
#     4   9  16  32  57  85 102 150 205 230 259 351
#     4   9  17  32  58  82 105 148 207 230 261 349
#     4  11  21  37  63  92 118 153 197 250 289 352
#     4   8  20  33  62  79 113 157 205 222 279 369
#     4  11  22  39  63  89 121 153 202 241 297 348
#
# _framework density 21.202863000000001
#
# number of rings (size 3 to 8) (size 9 to 14) (size 15 to 20)
#    0.857    1.143    1.429    2.571    4.000    0.000 
#    0.000    0.000   18.857    0.000    0.000    0.000 
#    0.000    0.000    0.000    0.000    0.000    0.000 
#
# Total GULP energy -173502.249187 kJ/mol
# GULP energy per Si atom -12393.017799 kJ/mol
# Density = 2.115460 g / cm^3
# Si number density = 21.202863 Si / 1000 Ang^3
#
#
#
# Elastic Constant Matrix: (Units=GPa)
#
#
# Indices 1 2 3 4 5 6 
#
# 1 120.8150 11.9965 67.9552 0.0000 -17.1646 0.0000
# 2 11.9965 24.6663 25.6906 0.0000 -8.4340 0.0000
# 3 67.9552 25.6906 154.9815 0.0000 -11.7358 0.0000
# 4 0.0000 0.0000 0.0000 30.1846 0.0000 0.7357
# 5 -17.1646 -8.4340 -11.7358 0.0000 28.6688 0.0000
# 6 0.0000 0.0000 0.0000 0.7357 0.0000 19.4024
#
#
#
# Elastic Compliance Matrix: (Units=1/GPa)
#
#
# Indices 1 2 3 4 5 6 
#
# 1 0.011684 0.001283 -0.004930 0.000000 0.005355 0.000000
# 2 0.001283 0.053073 -0.008380 0.000000 0.012951 0.000000
# 3 -0.004930 -0.008380 0.009900 0.000000 -0.001364 0.000000
# 4 0.000000 0.000000 0.000000 0.033160 0.000000 -0.001257
# 5 0.005355 0.012951 -0.001364 0.000000 0.041339 0.000000
# 6 0.000000 0.000000 0.000000 -0.001257 0.000000 0.051588
#
#
# Mechanical properties :
#
#
# Convention : Reuss Voigt Hill
#
# Bulk Modulus (GPa) = 19.76149 56.86082 38.31116
# Shear Modulus (GPa) = 20.68994 28.63920 24.66457
#
# Velocity S-wave (km/s) = 3.12718 3.67921 3.41437
# Velocity P-wave (km/s) = 4.73069 6.70257 5.80103
#
# Compressibility (1/GPa) = 0.05060346
#
# Stress axis : x y z
#
# Youngs Moduli (GPa) = 85.59066 18.84201 101.01134
#
# Poissons Ratio (x) = -0.02418 0.49801
# Poissons Ratio (y) = -0.10985 0.84644
# Poissons Ratio (z) = 0.42198 0.15789
#
# Static dielectric constant tensor:
#      x y z
#    x 3.916650 0.000000 0.068730 
#    y 0.000000 3.222170 0.000000 
#    z 0.068730 0.000000 4.004530 
# 
# 
# High freq. dielectric constant tensor:
#      x y z
#    x 1.844150 0.000000 -0.000700 
#    y 0.000000 1.771900 0.000000 
#    z -0.000700 0.000000 1.844430 
# 
# From -- ./inp_files/14721.got.cif
#   From: 2010.03.12/outbox.cif.g09.slc.cpg/sg4_8_cif.got.tgz:14721.got - 2010.03.31 09:31:35.
