data_PCOD8047178
_publ_section_title
;
Structure prediction by ZEFSAII (Michael W. Deem and Ramdas Pophale) SiO2 
 PCOD8047178
Probable space group: P 21
;
_chemical_formula_sum "Si O2"
_cell_formula_units_Z 16
_cell_length_a 15.892888
_cell_length_b 5.056357
_cell_length_c 12.335987
_cell_angle_alpha 90.000000
_cell_angle_beta 38.237602
_cell_angle_gamma 90.000000
_cell_volume 613.552572
_symmetry_space_group_name_H-M "P 21"
_symmetry_group_IT_number 4
_symmetry_cell_setting 'monoclinic'
loop_
_space_group_symop_operation_xyz
x,y,z
-x,1/2+y,-z
loop_
_atom_site_type_symbol
_atom_site_label
_atom_site_fract_x
_atom_site_fract_y
_atom_site_fract_z
Si Si1 0.510955 0.289540 0.919097
Si Si2 0.433098 0.609897 0.680915
Si Si3 0.063204 0.515574 0.969207
Si Si4 0.088995 0.537802 0.400535
Si Si5 0.225944 0.691235 0.461098
Si Si6 0.685311 0.925612 0.408598
Si Si7 0.928238 0.904757 0.806529
Si Si8 0.329537 0.109988 0.909833
O O1 0.648939 0.364492 0.712660
O O2 0.395290 0.156433 0.961261
O O3 0.457424 0.566348 0.021829
O O4 0.594333 0.665858 0.520980
O O5 0.388000 0.633761 0.599773
O O6 0.398886 0.319081 0.757922
O O7 0.357401 0.821349 0.834067
O O8 0.177041 0.341529 0.791460
O O9 0.094357 0.580018 0.062852
O O10 0.056679 0.796916 0.914636
O O11 0.193744 0.485927 0.393049
O O12 0.141208 0.568414 0.223482
O O13 0.015213 0.802508 0.508924
O O14 0.283572 0.539680 0.505305
O O15 0.089804 0.851239 0.630703
O O16 0.834869 0.642199 0.915303
#
# Coordination Sequence:
#
# PCOD8047178 Si02
#       8
#     2   2   2   2   2   2   2   2
#     4  12  28  52  76 112 152 203 269 329 391 463
#     4  12  28  49  74 113 152 210 259 318 402 468
#     4  12  29  47  74 116 153 204 257 327 389 467
#     4  10  25  47  72 107 148 199 254 313 385 461
#     4  11  26  50  81 116 151 209 262 326 389 475
#     4  12  27  49  82 112 162 204 272 320 398 481
#     4  11  26  48  80 110 164 199 261 320 404 462
#     4  12  27  50  77 112 154 206 258 329 392 471
#
# _framework density 26.077634
#
# number of rings (size 3 to 8) (size 9 to 14) (size 15 to 20)
#    0.000    0.500    3.750    2.250    3.500   10.000 
#    0.000    0.000    0.000    0.000    0.000    0.000 
#    0.000    0.000    0.000    0.000    0.000    0.000 
#
# Total GULP energy -198252.703083 kJ/mol
# GULP energy per Si atom -12390.793943 kJ/mol
# Density = 2.601828 g / cm^3
# Si number density = 26.077634 Si / 1000 Ang^3
#
#
#
# Elastic Constant Matrix: (Units=GPa)
#
#
# Indices 1 2 3 4 5 6 
#
# 1 158.5377 9.9917 15.4192 0.0000 41.8259 0.0000
# 2 9.9917 64.8917 -6.9360 0.0000 16.1656 0.0000
# 3 15.4192 -6.9360 116.4678 0.0000 8.6602 0.0000
# 4 0.0000 0.0000 0.0000 26.1800 0.0000 8.3508
# 5 41.8259 16.1656 8.6602 0.0000 51.5305 0.0000
# 6 0.0000 0.0000 0.0000 8.3508 0.0000 32.3721
#
#
#
# Elastic Compliance Matrix: (Units=1/GPa)
#
#
# Indices 1 2 3 4 5 6 
#
# 1 0.008073 0.000332 -0.000561 0.000000 -0.006562 0.000000
# 2 0.000332 0.016960 0.001399 0.000000 -0.005825 0.000000
# 3 -0.000561 0.001399 0.008853 0.000000 -0.001471 0.000000
# 4 0.000000 0.000000 0.000000 0.041622 0.000000 -0.010737
# 5 -0.006562 -0.005825 -0.001471 0.000000 0.026807 0.000000
# 6 0.000000 0.000000 0.000000 -0.010737 0.000000 0.033660
#
#
# Mechanical properties :
#
#
# Convention : Reuss Voigt Hill
#
# Bulk Modulus (GPa) = 27.60496 41.87189 34.73842
# Shear Modulus (GPa) = 34.31478 43.44468 38.87973
#
# Velocity S-wave (km/s) = 3.63143 4.08606 3.86544
# Velocity P-wave (km/s) = 5.30958 6.19296 5.76821
#
# Compressibility (1/GPa) = 0.03622538
#
# Stress axis : x y z
#
# Youngs Moduli (GPa) = 123.87706 58.96279 112.95512
#
# Poissons Ratio (x) = -0.01956 0.06337
# Poissons Ratio (y) = -0.04110 -0.15805
# Poissons Ratio (z) = 0.06950 -0.08250
#
# Static dielectric constant tensor:
#      x y z
#    x 5.255240 0.000000 0.112980 
#    y 0.000000 4.121810 0.000000 
#    z 0.112980 0.000000 5.109640 
# 
# 
# High freq. dielectric constant tensor:
#      x y z
#    x 2.070230 0.000000 0.013640 
#    y 0.000000 2.008490 0.000000 
#    z 0.013640 0.000000 2.064720 
# 
# From -- ./inp_files/12467.got.cif
#   From: 2010.03.12/outbox.cif.g09.slc.cpg/sg4_7_cif.got.tgz:12467.got - 2010.03.31 09:31:35.
