data_PCOD8047551
_publ_section_title
;
Structure prediction by ZEFSAII (Michael W. Deem and Ramdas Pophale) SiO2 
 PCOD8047551
Probable space group: P 21
;
_chemical_formula_sum "Si O2"
_cell_formula_units_Z 16
_cell_length_a 5.246256
_cell_length_b 8.841583
_cell_length_c 14.532747
_cell_angle_alpha 90.000000
_cell_angle_beta 108.366905
_cell_angle_gamma 90.000000
_cell_volume 639.764379
_symmetry_space_group_name_H-M "P 21"
_symmetry_group_IT_number 4
_symmetry_cell_setting 'monoclinic'
loop_
_space_group_symop_operation_xyz
x,y,z
-x,1/2+y,-z
loop_
_atom_site_type_symbol
_atom_site_label
_atom_site_fract_x
_atom_site_fract_y
_atom_site_fract_z
Si Si1 0.044154 0.330710 0.271280
Si Si2 0.451783 0.386758 0.997218
Si Si3 0.985495 0.046654 0.151315
Si Si4 0.518350 0.983812 0.803025
Si Si5 0.138835 0.107725 0.974750
Si Si6 0.216111 0.748672 0.223185
Si Si7 0.770262 0.902908 0.510704
Si Si8 0.194010 0.748051 0.431239
O O1 0.786947 0.432889 0.221325
O O2 0.968687 0.159799 0.234391
O O3 0.313302 0.384990 0.250752
O O4 0.098139 0.328245 0.385116
O O5 0.342845 0.465037 0.080084
O O6 0.764254 0.431709 0.018384
O O7 0.417148 0.206657 0.000188
O O8 0.281946 0.445976 0.890047
O O9 0.226711 0.925407 0.198296
O O10 0.021165 0.141649 0.061722
O O11 0.504170 0.159076 0.764757
O O12 0.965261 0.149179 0.867274
O O13 0.120456 0.720411 0.316262
O O14 0.466349 0.845507 0.466189
O O15 0.951298 0.845260 0.446558
O O16 0.772064 0.085767 0.515067
#
# Coordination Sequence:
#
# PCOD8047551 Si02
#       8
#     2   2   2   2   2   2   2   2
#     4  12  27  50  78 111 148 210 258 320 393 477
#     4  11  24  39  69 102 152 206 251 312 368 463
#     4  11  26  46  70 113 160 200 265 315 393 461
#     4  12  24  45  77 106 153 203 258 305 385 468
#     4  11  24  46  67 111 155 209 253 317 390 461
#     4  11  27  48  78 113 156 204 261 332 387 481
#     4  12  29  53  86 113 159 204 266 336 408 474
#     4  12  29  55  81 121 155 208 264 335 410 475
#
# _framework density 25.009205999999999
#
# number of rings (size 3 to 8) (size 9 to 14) (size 15 to 20)
#    0.000    0.500    3.750    3.000    7.000    0.000 
#    2.250    0.000    0.000    0.000    0.000    0.000 
#    0.000    0.000    0.000    0.000    0.000    0.000 
#
# Total GULP energy -198328.131464 kJ/mol
# GULP energy per Si atom -12395.508217 kJ/mol
# Density = 2.495228 g / cm^3
# Si number density = 25.009206 Si / 1000 Ang^3
#
#
#
# Elastic Constant Matrix: (Units=GPa)
#
#
# Indices 1 2 3 4 5 6 
#
# 1 89.5312 37.4278 3.1450 0.0000 -4.4079 0.0000
# 2 37.4278 123.4335 33.4630 0.0000 1.4921 0.0000
# 3 3.1450 33.4630 76.1539 0.0000 -10.6213 0.0000
# 4 0.0000 0.0000 0.0000 34.4190 0.0000 -6.0258
# 5 -4.4079 1.4921 -10.6213 0.0000 29.0543 0.0000
# 6 0.0000 0.0000 0.0000 -6.0258 0.0000 37.3662
#
#
#
# Elastic Compliance Matrix: (Units=1/GPa)
#
#
# Indices 1 2 3 4 5 6 
#
# 1 0.013136 -0.004519 0.001848 0.000000 0.002901 0.000000
# 2 -0.004519 0.010870 -0.005019 0.000000 -0.003079 0.000000
# 3 0.001848 -0.005019 0.016159 0.000000 0.006445 0.000000
# 4 0.000000 0.000000 0.000000 0.029898 0.000000 0.004821
# 5 0.002901 -0.003079 0.006445 0.000000 0.037373 0.000000
# 6 0.000000 0.000000 0.000000 0.004821 0.000000 0.027540
#
#
# Mechanical properties :
#
#
# Convention : Reuss Voigt Hill
#
# Bulk Modulus (GPa) = 40.34756 48.57669 44.46213
# Shear Modulus (GPa) = 31.52221 34.50675 33.01448
#
# Velocity S-wave (km/s) = 3.55410 3.71854 3.63725
# Velocity P-wave (km/s) = 5.74545 6.15650 5.95452
#
# Compressibility (1/GPa) = 0.02478465
#
# Stress axis : x y z
#
# Youngs Moduli (GPa) = 76.12410 91.99827 61.88354
#
# Poissons Ratio (x) = 0.41577 -0.11435
# Poissons Ratio (y) = 0.34403 0.31060
# Poissons Ratio (z) = -0.14067 0.46175
#
# Static dielectric constant tensor:
#      x y z
#    x 4.369090 0.000000 0.001260 
#    y 0.000000 4.802210 0.000000 
#    z 0.001260 0.000000 4.746710 
# 
# 
# High freq. dielectric constant tensor:
#      x y z
#    x 1.994110 0.000000 -0.004900 
#    y 0.000000 2.011560 0.000000 
#    z -0.004900 0.000000 1.998230 
# 
# From -- ./inp_files/13234.got.cif
#   From: 2010.03.12/outbox.cif.g09.slc.cpg/sg4_7_cif.got.tgz:13234.got - 2010.03.31 09:31:35.
