data_PCOD8047316
_publ_section_title
;
Structure prediction by ZEFSAII (Michael W. Deem and Ramdas Pophale) SiO2 
 PCOD8047316
Probable space group: P 21
;
_chemical_formula_sum "Si O2"
_cell_formula_units_Z 14
_cell_length_a 8.916713
_cell_length_b 13.087253
_cell_length_c 8.855763
_cell_angle_alpha 90.000000
_cell_angle_beta 147.180188
_cell_angle_gamma 90.000000
_cell_volume 560.115542
_symmetry_space_group_name_H-M "P 21"
_symmetry_group_IT_number 4
_symmetry_cell_setting 'monoclinic'
loop_
_space_group_symop_operation_xyz
x,y,z
-x,1/2+y,-z
loop_
_atom_site_type_symbol
_atom_site_label
_atom_site_fract_x
_atom_site_fract_y
_atom_site_fract_z
Si Si1 0.827819 0.356900 0.487127
Si Si2 0.459535 0.253725 0.396151
Si Si3 0.509387 0.161070 0.750742
Si Si4 0.121566 0.422242 0.269365
Si Si5 0.575638 0.549523 0.799019
Si Si6 0.954636 0.251966 0.328970
Si Si7 0.377147 0.479320 0.956450
O O1 0.708833 0.325246 0.547779
O O2 0.930994 0.253389 0.490878
O O3 0.061877 0.442527 0.694500
O O4 0.588262 0.388480 0.165059
O O5 0.585685 0.193505 0.645864
O O6 0.208505 0.332323 0.223259
O O7 0.365719 0.169160 0.191744
O O8 0.175722 0.163843 0.480470
O O9 0.667080 0.237704 0.997366
O O10 0.601309 0.048149 0.873606
O O11 0.355255 0.506715 0.492944
O O12 0.080132 0.362987 0.392296
O O13 0.845437 0.482172 0.990903
O O14 0.460750 0.540514 0.874245
#
# Coordination Sequence:
#
# PCOD8047316 Si02
#       7
#     2   2   2   2   2   2   2
#     4  12  26  47  77 113 151 197 261 319 381 455
#     4  11  30  50  78 119 157 210 252 332 397 472
#     4  11  26  46  74 107 149 194 251 309 391 454
#     4  11  25  48  78 111 152 202 256 326 380 462
#     4  12  25  50  82 107 157 207 265 310 396 456
#     4  11  21  47  76 102 146 197 249 308 371 461
#     4  12  25  48  77 115 144 205 258 324 370 478
#
# _framework density 24.994842999999999
#
# number of rings (size 3 to 8) (size 9 to 14) (size 15 to 20)
#    0.000    0.571    2.857    4.286    2.000    9.143 
#    0.000    0.000    0.000    0.000    0.000    0.000 
#    0.000    0.000    0.000    0.000    0.000    0.000 
#
# Total GULP energy -173524.967782 kJ/mol
# GULP energy per Si atom -12394.640556 kJ/mol
# Density = 2.493795 g / cm^3
# Si number density = 24.994843 Si / 1000 Ang^3
#
#
#
# Elastic Constant Matrix: (Units=GPa)
#
#
# Indices 1 2 3 4 5 6 
#
# 1 155.3811 57.8900 45.1756 0.0000 -1.8069 0.0000
# 2 57.8900 105.7382 31.9784 0.0000 3.4089 0.0000
# 3 45.1756 31.9784 103.0371 0.0000 11.8596 0.0000
# 4 0.0000 0.0000 0.0000 42.2410 0.0000 -12.3978
# 5 -1.8069 3.4089 11.8596 0.0000 34.9320 0.0000
# 6 0.0000 0.0000 0.0000 -12.3978 0.0000 45.0006
#
#
#
# Elastic Compliance Matrix: (Units=1/GPa)
#
#
# Indices 1 2 3 4 5 6 
#
# 1 0.008766 -0.004009 -0.002806 0.000000 0.001797 0.000000
# 2 -0.004009 0.012270 -0.001966 0.000000 -0.000737 0.000000
# 3 -0.002806 -0.001966 0.012010 0.000000 -0.004031 0.000000
# 4 0.000000 0.000000 0.000000 0.025756 0.000000 0.007096
# 5 0.001797 -0.000737 -0.004031 0.000000 0.030160 0.000000
# 6 0.000000 0.000000 0.000000 0.007096 0.000000 0.024177
#
#
# Mechanical properties :
#
#
# Convention : Reuss Voigt Hill
#
# Bulk Modulus (GPa) = 64.57919 70.47159 67.52539
# Shear Modulus (GPa) = 36.80206 39.70889 38.25547
#
# Velocity S-wave (km/s) = 3.84133 3.99015 3.91645
# Velocity P-wave (km/s) = 6.75037 7.03449 6.89390
#
# Compressibility (1/GPa) = 0.01548487
#
# Stress axis : x y z
#
# Youngs Moduli (GPa) = 114.07715 81.49823 83.26674
#
# Poissons Ratio (x) = 0.32669 0.23366
# Poissons Ratio (y) = 0.45728 0.16368
# Poissons Ratio (z) = 0.32012 0.16021
#
# Static dielectric constant tensor:
#      x y z
#    x 4.708670 0.000000 0.163430 
#    y 0.000000 4.456540 0.000000 
#    z 0.163430 0.000000 4.415410 
# 
# 
# High freq. dielectric constant tensor:
#      x y z
#    x 2.004010 0.000000 0.007530 
#    y 0.000000 1.997980 0.000000 
#    z 0.007530 0.000000 1.992630 
# 
# From -- ./inp_files/6700.got.cif
#   From: 2010.03.12/outbox.cif.g09.slc.cpg/sg4_4_cif.got.tgz:6700.got - 2010.03.31 09:31:35.
