data_PCOD8047830
_publ_section_title
;
Structure prediction by ZEFSAII (Michael W. Deem and Ramdas Pophale) SiO2 
 PCOD8047830
Probable space group: P 21
;
_chemical_formula_sum "Si O2"
_cell_formula_units_Z 14
_cell_length_a 14.595440
_cell_length_b 9.199789
_cell_length_c 6.669828
_cell_angle_alpha 90.000000
_cell_angle_beta 46.724171
_cell_angle_gamma 90.000000
_cell_volume 652.045747
_symmetry_space_group_name_H-M "P 21"
_symmetry_group_IT_number 4
_symmetry_cell_setting 'monoclinic'
loop_
_space_group_symop_operation_xyz
x,y,z
-x,1/2+y,-z
loop_
_atom_site_type_symbol
_atom_site_label
_atom_site_fract_x
_atom_site_fract_y
_atom_site_fract_z
Si Si1 0.750636 0.848010 0.374027
Si Si2 0.886281 0.710675 0.816111
Si Si3 0.886250 0.985331 0.525021
Si Si4 0.441551 0.232545 0.015730
Si Si5 0.332943 0.999180 0.944289
Si Si6 0.441585 0.463445 0.659533
Si Si7 0.667008 0.196776 0.943144
O O1 0.848970 0.942890 0.355386
O O2 0.660657 0.756598 0.655646
O O3 0.660607 0.939422 0.362510
O O4 0.848929 0.753120 0.097662
O O5 0.915697 0.848004 0.626409
O O6 0.000055 0.598059 0.652105
O O7 0.766960 0.626204 0.912725
O O8 0.766845 0.069679 0.786463
O O9 0.429917 0.064386 0.962071
O O10 0.419349 0.347977 0.870935
O O11 0.586053 0.238378 0.869148
O O12 0.413902 0.957611 0.627394
O O13 0.265444 0.847964 0.101872
O O14 0.429965 0.631601 0.748107
#
# Coordination Sequence:
#
# PCOD8047830 Si02
#       7
#     2   2   2   2   2   2   2
#     4  12  22  50  74 100 150 188 240 304 374 430
#     4  12  27  51  75 101 146 197 247 304 355 434
#     4  12  27  51  75 101 146 197 247 304 355 434
#     4  12  23  46  71 108 152 191 238 305 369 436
#     4  12  23  41  72 108 142 190 241 295 368 429
#     4  12  23  46  71 108 152 191 238 305 369 436
#     4  12  23  41  72 108 142 190 241 295 368 429
#
# _framework density 21.470886
#
# number of rings (size 3 to 8) (size 9 to 14) (size 15 to 20)
#    0.000    0.000    7.143    4.286    0.000    1.143 
#    7.714    0.000    0.000    0.000    0.000    0.000 
#    0.000    0.000    0.000    0.000    0.000    0.000 
#
# Total GULP energy -173480.445101 kJ/mol
# GULP energy per Si atom -12391.460364 kJ/mol
# Density = 2.142202 g / cm^3
# Si number density = 21.470886 Si / 1000 Ang^3
#
#
#
# Elastic Constant Matrix: (Units=GPa)
#
#
# Indices 1 2 3 4 5 6 
#
# 1 82.2714 37.9909 51.8437 0.0000 -7.9730 0.0000
# 2 37.9909 135.5223 36.6541 0.0000 -2.4141 0.0000
# 3 51.8437 36.6541 79.3181 0.0000 2.3311 0.0000
# 4 0.0000 0.0000 0.0000 29.2810 0.0000 1.4133
# 5 -7.9730 -2.4141 2.3311 0.0000 34.6148 0.0000
# 6 0.0000 0.0000 0.0000 1.4133 0.0000 28.5582
#
#
#
# Elastic Compliance Matrix: (Units=1/GPa)
#
#
# Indices 1 2 3 4 5 6 
#
# 1 0.022558 -0.002494 -0.013767 0.000000 0.005949 0.000000
# 2 -0.002494 0.008734 -0.002411 0.000000 0.000197 0.000000
# 3 -0.013767 -0.002411 0.022863 0.000000 -0.004879 0.000000
# 4 0.000000 0.000000 0.000000 0.034234 0.000000 -0.001694
# 5 0.005949 0.000197 -0.004879 0.000000 0.030602 0.000000
# 6 0.000000 0.000000 0.000000 -0.001694 0.000000 0.035100
#
#
# Mechanical properties :
#
#
# Convention : Reuss Voigt Hill
#
# Bulk Modulus (GPa) = 59.48660 61.12104 60.30382
# Shear Modulus (GPa) = 25.37558 29.86569 27.62063
#
# Velocity S-wave (km/s) = 3.44155 3.73364 3.59056
# Velocity P-wave (km/s) = 6.59986 6.86407 6.73326
#
# Compressibility (1/GPa) = 0.01681051
#
# Stress axis : x y z
#
# Youngs Moduli (GPa) = 44.32928 114.49725 43.73804
#
# Poissons Ratio (x) = 0.28560 0.60213
# Poissons Ratio (y) = 0.11058 0.10547
# Poissons Ratio (z) = 0.61027 0.27610
#
# Static dielectric constant tensor:
#      x y z
#    x 4.042250 0.000000 0.093570 
#    y 0.000000 4.160860 0.000000 
#    z 0.093570 0.000000 4.086460 
# 
# 
# High freq. dielectric constant tensor:
#      x y z
#    x 1.841150 0.000000 0.003270 
#    y 0.000000 1.862580 0.000000 
#    z 0.003270 0.000000 1.842710 
# 
# From -- ./inp_files/2433.got.cif
#   From: 2010.03.12/outbox.cif.g09.slc.cpg/sg4_2_cif.got.tgz:2433.got - 2010.03.31 09:31:35.
