data_PCOD8047269
_publ_section_title
;
Structure prediction by ZEFSAII (Michael W. Deem and Ramdas Pophale) SiO2 
 PCOD8047269
Probable space group: P 21
;
_chemical_formula_sum "Si O2"
_cell_formula_units_Z 14
_cell_length_a 18.497265
_cell_length_b 7.768246
_cell_length_c 8.586892
_cell_angle_alpha 90.000000
_cell_angle_beta 150.680092
_cell_angle_gamma 90.000000
_cell_volume 604.204107
_symmetry_space_group_name_H-M "P 21"
_symmetry_group_IT_number 4
_symmetry_cell_setting 'monoclinic'
loop_
_space_group_symop_operation_xyz
x,y,z
-x,1/2+y,-z
loop_
_atom_site_type_symbol
_atom_site_label
_atom_site_fract_x
_atom_site_fract_y
_atom_site_fract_z
Si Si1 0.303883 0.541030 0.491588
Si Si2 0.483699 0.848065 0.924737
Si Si3 0.659979 0.099062 0.800256
Si Si4 0.739025 0.803718 0.163052
Si Si5 0.787126 0.517171 0.703455
Si Si6 0.325613 0.992639 0.168384
Si Si7 0.933936 0.829591 0.819056
O O1 0.379769 0.682009 0.746711
O O2 0.298775 0.595089 0.304023
O O3 0.140160 0.502293 0.246584
O O4 0.413324 0.375508 0.728942
O O5 0.367716 0.006601 0.680743
O O6 0.583602 0.828534 0.958567
O O7 0.686313 0.293744 0.910100
O O8 0.493063 0.044245 0.513391
O O9 0.760511 0.961277 0.081404
O O10 0.877452 0.802755 0.537747
O O11 0.742679 0.616831 0.089957
O O12 0.764994 0.523753 0.845433
O O13 0.883452 0.679746 0.838358
O O14 0.888745 0.349292 0.853698
#
# Coordination Sequence:
#
# PCOD8047269 Si02
#       7
#     2   2   2   2   2   2   2
#     4  11  22  40  68 104 136 175 226 287 336 406
#     4  11  21  40  69 102 135 174 233 278 341 400
#     4  12  22  41  74 103 143 171 227 283 351 403
#     4  11  24  47  66 109 138 172 232 290 338 413
#     4  12  24  47  67  96 136 184 229 281 346 407
#     4  12  23  41  73 104 137 183 221 284 350 410
#     4  11  28  46  69  96 141 181 234 283 342 411
#
# _framework density 23.170977000000001
#
# number of rings (size 3 to 8) (size 9 to 14) (size 15 to 20)
#    0.000    0.571    5.714    3.429    0.000    2.286 
#    5.143    0.000    0.000    0.000    0.000    0.000 
#    0.000    0.000    0.000    0.000    0.000    0.000 
#
# Total GULP energy -173610.231390 kJ/mol
# GULP energy per Si atom -12400.730814 kJ/mol
# Density = 2.311824 g / cm^3
# Si number density = 23.170977 Si / 1000 Ang^3
#
#
#
# Elastic Constant Matrix: (Units=GPa)
#
#
# Indices 1 2 3 4 5 6 
#
# 1 81.7583 30.3368 26.3351 0.0000 4.6240 0.0000
# 2 30.3368 110.5627 -4.5472 0.0000 -24.7588 0.0000
# 3 26.3351 -4.5472 64.4917 0.0000 6.8990 0.0000
# 4 0.0000 0.0000 0.0000 21.1175 0.0000 -2.0881
# 5 4.6240 -24.7588 6.8990 0.0000 24.0013 0.0000
# 6 0.0000 0.0000 0.0000 -2.0881 0.0000 44.3227
#
#
#
# Elastic Compliance Matrix: (Units=1/GPa)
#
#
# Indices 1 2 3 4 5 6 
#
# 1 0.017486 -0.007018 -0.006707 0.000000 -0.008680 0.000000
# 2 -0.007018 0.014593 0.002207 0.000000 0.015771 0.000000
# 3 -0.006707 0.002207 0.018590 0.000000 -0.001774 0.000000
# 4 0.000000 0.000000 0.000000 0.047576 0.000000 0.002241
# 5 -0.008680 0.015771 -0.001774 0.000000 0.060115 0.000000
# 6 0.000000 0.000000 0.000000 0.002241 0.000000 0.022667
#
#
# Mechanical properties :
#
#
# Convention : Reuss Voigt Hill
#
# Bulk Modulus (GPa) = 36.18590 40.11802 38.15196
# Shear Modulus (GPa) = 23.44420 31.53417 27.48918
#
# Velocity S-wave (km/s) = 3.18432 3.69309 3.44810
# Velocity P-wave (km/s) = 5.40099 5.96126 5.68803
#
# Compressibility (1/GPa) = 0.02763507
#
# Stress axis : x y z
#
# Youngs Moduli (GPa) = 57.18759 68.52832 53.79229
#
# Poissons Ratio (x) = 0.48090 0.36077
# Poissons Ratio (y) = 0.40132 -0.11875
# Poissons Ratio (z) = 0.38354 -0.15127
#
# Static dielectric constant tensor:
#      x y z
#    x 4.089370 0.000000 0.092020 
#    y 0.000000 4.642640 0.000000 
#    z 0.092020 0.000000 4.086660 
# 
# 
# High freq. dielectric constant tensor:
#      x y z
#    x 1.909860 0.000000 0.005860 
#    y 0.000000 1.940180 0.000000 
#    z 0.005860 0.000000 1.901940 
# 
# From -- ./inp_files/7599.got.cif
#   From: 2010.03.12/outbox.cif.g09.slc.cpg/sg4_4_cif.got.tgz:7599.got - 2010.03.31 09:31:35.
