data_PCOD8047454
_publ_section_title
;
Structure prediction by ZEFSAII (Michael W. Deem and Ramdas Pophale) SiO2 
 PCOD8047454
Probable space group: P 21
;
_chemical_formula_sum "Si O2"
_cell_formula_units_Z 12
_cell_length_a 10.600135
_cell_length_b 4.835123
_cell_length_c 15.464072
_cell_angle_alpha 90.000000
_cell_angle_beta 36.440597
_cell_angle_gamma 90.000000
_cell_volume 470.783488
_symmetry_space_group_name_H-M "P 21"
_symmetry_group_IT_number 4
_symmetry_cell_setting 'monoclinic'
loop_
_space_group_symop_operation_xyz
x,y,z
-x,1/2+y,-z
loop_
_atom_site_type_symbol
_atom_site_label
_atom_site_fract_x
_atom_site_fract_y
_atom_site_fract_z
Si Si1 0.157464 0.178240 0.403966
Si Si2 0.506429 0.117655 0.348660
Si Si3 0.724907 0.257896 0.397570
Si Si4 0.381484 0.056679 0.097157
Si Si5 0.911027 0.840443 0.086109
Si Si6 0.987410 0.770004 0.237348
O O1 0.324048 0.251379 0.388985
O O2 0.298489 0.120584 0.240108
O O3 0.990984 0.425636 0.483455
O O4 0.604543 0.309769 0.371603
O O5 0.425713 0.844817 0.442174
O O6 0.688841 0.990338 0.185920
O O7 0.938496 0.448022 0.278278
O O8 0.797018 0.949402 0.386009
O O9 0.214852 0.851440 0.145160
O O10 0.416442 0.342177 0.023266
O O11 0.974687 0.882750 0.148463
O O12 0.908288 0.516275 0.064572
#
# Coordination Sequence:
#
# PCOD8047454 Si02
#       6
#     2   2   2   2   2   2
#     4  12  28  49  76 114 151 200 256 316 365 446
#     4  11  25  44  75 103 148 178 248 293 372 437
#     4  11  23  43  70 107 131 192 220 315 364 427
#     4  12  27  47  75 108 149 211 249 305 378 453
#     4  11  25  39  63  98 133 180 224 294 348 409
#     4  11  24  44  69  96 146 177 243 283 369 432
#
# _framework density 25.489426000000002
#
# number of rings (size 3 to 8) (size 9 to 14) (size 15 to 20)
#    0.000    0.667    0.000    8.000    4.667    6.667 
#    0.000    0.000    0.000    0.000    0.000    0.000 
#    0.000    0.000    0.000    0.000    0.000    0.000 
#
# Total GULP energy -148690.346278 kJ/mol
# GULP energy per Si atom -12390.862190 kJ/mol
# Density = 2.543141 g / cm^3
# Si number density = 25.489426 Si / 1000 Ang^3
#
#
#
# Elastic Constant Matrix: (Units=GPa)
#
#
# Indices 1 2 3 4 5 6 
#
# 1 76.4459 1.6923 18.4785 0.0000 -12.1757 0.0000
# 2 1.6923 60.2198 -8.5883 0.0000 9.2120 0.0000
# 3 18.4785 -8.5883 82.6743 0.0000 15.6564 0.0000
# 4 0.0000 0.0000 0.0000 31.5470 0.0000 -5.2122
# 5 -12.1757 9.2120 15.6564 0.0000 16.3270 0.0000
# 6 0.0000 0.0000 0.0000 -5.2122 0.0000 30.6782
#
#
#
# Elastic Compliance Matrix: (Units=1/GPa)
#
#
# Indices 1 2 3 4 5 6 
#
# 1 0.020554 -0.006640 -0.010870 0.000000 0.029497 0.000000
# 2 -0.006640 0.021933 0.008607 0.000000 -0.025580 0.000000
# 3 -0.010870 0.008607 0.021840 0.000000 -0.033905 0.000000
# 4 0.000000 0.000000 0.000000 0.032614 0.000000 0.005541
# 5 0.029497 -0.025580 -0.033905 0.000000 0.130191 0.000000
# 6 0.000000 0.000000 0.000000 0.005541 0.000000 0.033538
#
#
# Mechanical properties :
#
#
# Convention : Reuss Voigt Hill
#
# Bulk Modulus (GPa) = 21.49600 26.94500 24.22050
# Shear Modulus (GPa) = 17.00782 29.56094 23.28438
#
# Velocity S-wave (km/s) = 2.58592 3.40918 3.02568
# Velocity P-wave (km/s) = 4.16744 5.10790 4.66145
#
# Compressibility (1/GPa) = 0.04652029
#
# Stress axis : x y z
#
# Youngs Moduli (GPa) = 48.65306 45.59354 45.78753
#
# Poissons Ratio (x) = 0.30275 0.49770
# Poissons Ratio (y) = 0.32306 -0.39408
# Poissons Ratio (z) = 0.52885 -0.39241
#
# Static dielectric constant tensor:
#      x y z
#    x 4.470910 0.000000 -0.146690 
#    y 0.000000 4.603490 0.000000 
#    z -0.146690 0.000000 5.415900 
# 
# 
# High freq. dielectric constant tensor:
#      x y z
#    x 2.002360 0.000000 -0.006180 
#    y 0.000000 2.029730 0.000000 
#    z -0.006180 0.000000 2.041780 
# 
# From -- ./inp_files/15062.got.cif
#   From: 2010.03.12/outbox.cif.g09.slc.cpg/sg4_8_cif.got.tgz:15062.got - 2010.03.31 09:31:35.
