data_PCOD8047903
_publ_section_title
;
Structure prediction by ZEFSAII (Michael W. Deem and Ramdas Pophale) SiO2 
 PCOD8047903
Probable space group: P 21
;
_chemical_formula_sum "Si O2"
_cell_formula_units_Z 14
_cell_length_a 8.102201
_cell_length_b 13.104449
_cell_length_c 8.773744
_cell_angle_alpha 90.000000
_cell_angle_beta 32.776933
_cell_angle_gamma 90.000000
_cell_volume 504.313656
_symmetry_space_group_name_H-M "P 21"
_symmetry_group_IT_number 4
_symmetry_cell_setting 'monoclinic'
loop_
_space_group_symop_operation_xyz
x,y,z
-x,1/2+y,-z
loop_
_atom_site_type_symbol
_atom_site_label
_atom_site_fract_x
_atom_site_fract_y
_atom_site_fract_z
Si Si1 0.686722 0.683030 0.923139
Si Si2 0.225083 0.087628 0.827343
Si Si3 0.856914 0.203608 0.864737
Si Si4 0.020532 0.001126 0.439678
Si Si5 0.694376 0.960954 0.289415
Si Si6 0.662356 0.920038 0.965193
Si Si7 0.384994 0.334619 0.383192
O O1 0.379629 0.648871 0.068798
O O2 0.963370 0.617845 0.632397
O O3 0.658334 0.659914 0.125862
O O4 0.746094 0.803514 0.853833
O O5 0.503253 0.056963 0.502821
O O6 0.958579 0.134945 0.928205
O O7 0.054205 0.988372 0.033292
O O8 0.701062 0.302753 0.063370
O O9 0.145908 0.242084 0.541566
O O10 0.332003 0.944675 0.150646
O O11 0.728089 0.943911 0.593958
O O12 0.938630 0.991862 0.684849
O O13 0.623320 0.939054 0.171422
O O14 0.596128 0.855710 0.449923
#
# Coordination Sequence:
#
# PCOD8047903 Si02
#       7
#     2   2   2   2   2   2   2
#     4  12  28  51  88 120 169 227 284 346 434 506
#     4  12  28  49  78 121 161 217 282 343 426 508
#     4  12  27  50  78 119 163 214 273 346 417 503
#     4  12  26  49  80 119 163 213 281 345 411 504
#     4  12  27  51  79 115 167 216 277 357 418 500
#     4  12  28  51  79 122 162 221 284 346 423 508
#     4  12  24  51  78 110 163 212 269 341 417 487
#
# _framework density 27.760501999999999
#
# number of rings (size 3 to 8) (size 9 to 14) (size 15 to 20)
#    0.000    0.000    4.286    4.286    2.000    6.857 
#    0.000    0.000    0.000    0.000    0.000    0.000 
#    0.000    0.000    0.000    0.000    0.000    0.000 
#
# Total GULP energy -173614.122667 kJ/mol
# GULP energy per Si atom -12401.008762 kJ/mol
# Density = 2.769732 g / cm^3
# Si number density = 27.760502 Si / 1000 Ang^3
#
#
#
# Elastic Constant Matrix: (Units=GPa)
#
#
# Indices 1 2 3 4 5 6 
#
# 1 150.4281 25.9586 22.6123 0.0000 25.1623 0.0000
# 2 25.9586 99.0590 31.3263 0.0000 5.0252 0.0000
# 3 22.6123 31.3263 116.8462 0.0000 15.5005 0.0000
# 4 0.0000 0.0000 0.0000 53.2783 0.0000 7.2069
# 5 25.1623 5.0252 15.5005 0.0000 34.0311 0.0000
# 6 0.0000 0.0000 0.0000 7.2069 0.0000 47.9480
#
#
#
# Elastic Compliance Matrix: (Units=1/GPa)
#
#
# Indices 1 2 3 4 5 6 
#
# 1 0.007900 -0.001682 -0.000358 0.000000 -0.005430 0.000000
# 2 -0.001682 0.011391 -0.002842 0.000000 0.000856 0.000000
# 3 -0.000358 -0.002842 0.009897 0.000000 -0.003824 0.000000
# 4 0.000000 0.000000 0.000000 0.019159 0.000000 -0.002880
# 5 -0.005430 0.000856 -0.003824 0.000000 0.035015 0.000000
# 6 0.000000 0.000000 0.000000 -0.002880 0.000000 0.021289
#
#
# Mechanical properties :
#
#
# Convention : Reuss Voigt Hill
#
# Bulk Modulus (GPa) = 51.48009 58.45864 54.96936
# Shear Modulus (GPa) = 41.36069 46.14721 43.75395
#
# Velocity S-wave (km/s) = 3.86412 4.08160 3.97435
# Velocity P-wave (km/s) = 6.20429 6.58153 6.39569
#
# Compressibility (1/GPa) = 0.01942499
#
# Stress axis : x y z
#
# Youngs Moduli (GPa) = 126.58362 87.78851 101.04441
#
# Poissons Ratio (x) = 0.14763 0.03614
# Poissons Ratio (y) = 0.21287 0.28717
# Poissons Ratio (z) = 0.04527 0.24950
#
# Static dielectric constant tensor:
#      x y z
#    x 5.214500 0.000000 0.338620 
#    y 0.000000 5.036910 0.000000 
#    z 0.338620 0.000000 5.281800 
# 
# 
# High freq. dielectric constant tensor:
#      x y z
#    x 2.126300 0.000000 0.018100 
#    y 0.000000 2.123070 0.000000 
#    z 0.018100 0.000000 2.139860 
# 
# From -- ./inp_files/6524.got.cif
#   From: 2010.03.12/outbox.cif.g09.slc.cpg/sg4_4_cif.got.tgz:6524.got - 2010.03.31 09:31:35.
