data_PCOD8047767
_publ_section_title
;
Structure prediction by ZEFSAII (Michael W. Deem and Ramdas Pophale) SiO2 
 PCOD8047767
Probable space group: P 21
;
_chemical_formula_sum "Si O2"
_cell_formula_units_Z 16
_cell_length_a 13.058691
_cell_length_b 8.063474
_cell_length_c 10.519617
_cell_angle_alpha 90.000000
_cell_angle_beta 33.241667
_cell_angle_gamma 90.000000
_cell_volume 607.209128
_symmetry_space_group_name_H-M "P 21"
_symmetry_group_IT_number 4
_symmetry_cell_setting 'monoclinic'
loop_
_space_group_symop_operation_xyz
x,y,z
-x,1/2+y,-z
loop_
_atom_site_type_symbol
_atom_site_label
_atom_site_fract_x
_atom_site_fract_y
_atom_site_fract_z
Si Si1 0.077022 0.552250 0.823378
Si Si2 0.779475 0.488192 0.589903
Si Si3 0.189157 0.492657 0.227851
Si Si4 0.322425 0.859180 0.057267
Si Si5 0.266544 0.992020 0.647581
Si Si6 0.230245 0.182446 0.021841
Si Si7 0.730170 0.864190 0.592784
Si Si8 0.530761 0.193224 0.500820
O O1 0.138518 0.405960 0.663404
O O2 0.260000 0.615841 0.706458
O O3 0.960076 0.694452 0.866820
O O4 0.936853 0.483931 0.077170
O O5 0.634370 0.398768 0.837085
O O6 0.746109 0.424670 0.482001
O O7 0.780112 0.685423 0.595638
O O8 0.977644 0.431814 0.436473
O O9 0.228007 0.678067 0.133183
O O10 0.284980 0.348013 0.043638
O O11 0.244432 0.494481 0.318331
O O12 0.196574 0.014074 0.139739
O O13 0.513216 0.861812 0.780343
O O14 0.419072 0.885163 0.568028
O O15 0.387895 0.162158 0.529537
O O16 0.413279 0.151172 0.747922
#
# Coordination Sequence:
#
# PCOD8047767 Si02
#       8
#     2   2   2   2   2   2   2   2
#     4  11  26  51  80 108 157 205 262 324 387 461
#     4  12  27  49  74 115 155 205 261 319 399 467
#     4  12  27  47  80 116 156 206 256 322 397 476
#     4  12  27  49  76 118 159 199 257 323 399 474
#     4  11  30  49  79 112 153 207 264 322 386 461
#     4  11  25  52  79 117 155 204 259 324 394 467
#     4  12  27  47  78 110 157 206 257 321 399 471
#     4  11  27  52  78 108 156 202 262 327 383 459
#
# _framework density 26.350066999999999
#
# number of rings (size 3 to 8) (size 9 to 14) (size 15 to 20)
#    0.000    0.500    2.500    3.750   10.500    2.000 
#    0.000    0.000    0.000    0.000    0.000    0.000 
#    0.000    0.000    0.000    0.000    0.000    0.000 
#
# Total GULP energy -198243.763731 kJ/mol
# GULP energy per Si atom -12390.235233 kJ/mol
# Density = 2.629009 g / cm^3
# Si number density = 26.350067 Si / 1000 Ang^3
#
#
#
# Elastic Constant Matrix: (Units=GPa)
#
#
# Indices 1 2 3 4 5 6 
#
# 1 63.4293 1.6265 51.2008 0.0000 0.3712 0.0000
# 2 1.6265 111.6645 20.7259 0.0000 8.5203 0.0000
# 3 51.2008 20.7259 155.5863 0.0000 -6.4049 0.0000
# 4 0.0000 0.0000 0.0000 36.8105 0.0000 -0.7373
# 5 0.3712 8.5203 -6.4049 0.0000 40.1229 0.0000
# 6 0.0000 0.0000 0.0000 -0.7373 0.0000 39.5509
#
#
#
# Elastic Compliance Matrix: (Units=1/GPa)
#
#
# Indices 1 2 3 4 5 6 
#
# 1 0.021686 0.001174 -0.007360 0.000000 -0.001625 0.000000
# 2 0.001174 0.009436 -0.001738 0.000000 -0.002292 0.000000
# 3 -0.007360 -0.001738 0.009159 0.000000 0.001899 0.000000
# 4 0.000000 0.000000 0.000000 0.027176 0.000000 0.000507
# 5 -0.001625 -0.002292 0.001899 0.000000 0.025728 0.000000
# 6 0.000000 0.000000 0.000000 0.000507 0.000000 0.025293
#
#
# Mechanical properties :
#
#
# Convention : Reuss Voigt Hill
#
# Bulk Modulus (GPa) = 40.92676 53.08739 47.00708
# Shear Modulus (GPa) = 35.09519 40.43864 37.76692
#
# Velocity S-wave (km/s) = 3.65346 3.92174 3.78997
# Velocity P-wave (km/s) = 5.77604 6.37945 6.08523
#
# Compressibility (1/GPa) = 0.02443389
#
# Stress axis : x y z
#
# Youngs Moduli (GPa) = 46.11306 105.98040 109.18318
#
# Poissons Ratio (x) = -0.12443 0.80356
# Poissons Ratio (y) = -0.05414 0.18973
# Poissons Ratio (z) = 0.33938 0.18416
#
# Static dielectric constant tensor:
#      x y z
#    x 4.712080 0.000000 -0.036920 
#    y 0.000000 4.781270 0.000000 
#    z -0.036920 0.000000 4.841050 
# 
# 
# High freq. dielectric constant tensor:
#      x y z
#    x 2.057990 0.000000 -0.006710 
#    y 0.000000 2.059360 0.000000 
#    z -0.006710 0.000000 2.068630 
# 
# From -- ./inp_files/12618.got.cif
#   From: 2010.03.12/outbox.cif.g09.slc.cpg/sg4_7_cif.got.tgz:12618.got - 2010.03.31 09:31:35.
