data_PCOD8047421
_publ_section_title
;
Structure prediction by ZEFSAII (Michael W. Deem and Ramdas Pophale) SiO2 
 PCOD8047421
Probable space group: P 21
;
_chemical_formula_sum "Si O2"
_cell_formula_units_Z 16
_cell_length_a 6.454765
_cell_length_b 10.560654
_cell_length_c 11.068423
_cell_angle_alpha 90.000000
_cell_angle_beta 71.968584
_cell_angle_gamma 90.000000
_cell_volume 717.440482
_symmetry_space_group_name_H-M "P 21"
_symmetry_group_IT_number 4
_symmetry_cell_setting 'monoclinic'
loop_
_space_group_symop_operation_xyz
x,y,z
-x,1/2+y,-z
loop_
_atom_site_type_symbol
_atom_site_label
_atom_site_fract_x
_atom_site_fract_y
_atom_site_fract_z
Si Si1 0.660709 0.923680 0.413639
Si Si2 0.827984 0.539368 0.185011
Si Si3 0.918103 0.575331 0.633810
Si Si4 0.860330 0.182018 0.038407
Si Si5 0.922305 0.802176 0.791558
Si Si6 0.467963 0.894538 0.935453
Si Si7 0.664368 0.640405 0.451854
Si Si8 0.531822 0.993965 0.185218
O O1 0.607894 0.789129 0.488706
O O2 0.596928 0.902848 0.284459
O O3 0.914101 0.959279 0.384158
O O4 0.535624 0.043966 0.493727
O O5 0.640731 0.509475 0.120117
O O6 0.738342 0.637420 0.299451
O O7 0.904094 0.415730 0.244570
O O8 0.042897 0.596126 0.084559
O O9 0.003078 0.708897 0.670767
O O10 0.857853 0.594767 0.504786
O O11 0.711711 0.543134 0.754676
O O12 0.716830 0.291412 0.003867
O O13 0.060121 0.237070 0.079790
O O14 0.704684 0.107920 0.159564
O O15 0.671205 0.843813 0.819679
O O16 0.558983 0.933292 0.049093
#
# Coordination Sequence:
#
# PCOD8047421 Si02
#       8
#     2   2   2   2   2   2   2   2
#     4  11  28  50  74  99 145 183 249 303 349 426
#     4  11  27  42  67 106 144 182 237 295 350 431
#     4  11  25  45  75  96 140 189 240 291 360 417
#     4  11  23  41  66 106 144 180 229 291 353 426
#     4  11  23  42  71  99 143 188 229 293 360 428
#     4  11  25  40  70 103 148 184 230 286 364 434
#     4  11  30  47  72 105 137 193 243 297 356 420
#     4  11  23  43  67 108 135 185 231 284 358 424
#
# _framework density 22.301503
#
# number of rings (size 3 to 8) (size 9 to 14) (size 15 to 20)
#    0.000    1.000    3.750    0.750    8.750    1.000 
#    0.000    0.000    0.000    0.000    0.000    0.000 
#    0.000    0.000    0.000    0.000    0.000    0.000 
#
# Total GULP energy -198421.371662 kJ/mol
# GULP energy per Si atom -12401.335729 kJ/mol
# Density = 2.225074 g / cm^3
# Si number density = 22.301503 Si / 1000 Ang^3
#
#
#
# Elastic Constant Matrix: (Units=GPa)
#
#
# Indices 1 2 3 4 5 6 
#
# 1 104.1854 32.8434 28.4303 0.0000 -1.2647 0.0000
# 2 32.8434 114.1595 31.1749 0.0000 -6.5831 0.0000
# 3 28.4303 31.1749 82.1883 0.0000 -1.7547 0.0000
# 4 0.0000 0.0000 0.0000 37.9622 0.0000 -2.8594
# 5 -1.2647 -6.5831 -1.7547 0.0000 36.1995 0.0000
# 6 0.0000 0.0000 0.0000 -2.8594 0.0000 30.6318
#
#
#
# Elastic Compliance Matrix: (Units=1/GPa)
#
#
# Indices 1 2 3 4 5 6 
#
# 1 0.011163 -0.002417 -0.002949 0.000000 -0.000193 0.000000
# 2 -0.002417 0.010389 -0.003069 0.000000 0.001656 0.000000
# 3 -0.002949 -0.003069 0.014352 0.000000 0.000035 0.000000
# 4 0.000000 0.000000 0.000000 0.026529 0.000000 0.002476
# 5 -0.000193 0.001656 0.000035 0.000000 0.027921 0.000000
# 6 0.000000 0.000000 0.000000 0.002476 0.000000 0.032877
#
#
# Mechanical properties :
#
#
# Convention : Reuss Voigt Hill
#
# Bulk Modulus (GPa) = 52.53881 53.93670 53.23775
# Shear Modulus (GPa) = 34.14281 34.83102 34.48692
#
# Velocity S-wave (km/s) = 3.91700 3.95628 3.93669
# Velocity P-wave (km/s) = 6.63828 6.71619 6.67735
#
# Compressibility (1/GPa) = 0.01903355
#
# Stress axis : x y z
#
# Youngs Moduli (GPa) = 89.58506 96.25818 69.67687
#
# Poissons Ratio (x) = 0.23269 0.20544
# Poissons Ratio (y) = 0.21656 0.21384
# Poissons Ratio (z) = 0.26414 0.29542
#
# Static dielectric constant tensor:
#      x y z
#    x 4.062900 0.000000 0.054340 
#    y 0.000000 4.060150 0.000000 
#    z 0.054340 0.000000 3.707630 
# 
# 
# High freq. dielectric constant tensor:
#      x y z
#    x 1.889580 0.000000 0.003820 
#    y 0.000000 1.880270 0.000000 
#    z 0.003820 0.000000 1.865730 
# 
# From -- ./inp_files/2722.got.cif
#   From: 2010.03.12/outbox.cif.g09.slc.cpg/sg4_2_cif.got.tgz:2722.got - 2010.03.31 09:31:35.
