data_PCOD8047725
_publ_section_title
;
Structure prediction by ZEFSAII (Michael W. Deem and Ramdas Pophale) SiO2 
 PCOD8047725
Probable space group: P 21
;
_chemical_formula_sum "Si O2"
_cell_formula_units_Z 16
_cell_length_a 9.228679
_cell_length_b 5.448060
_cell_length_c 14.349729
_cell_angle_alpha 90.000000
_cell_angle_beta 120.953021
_cell_angle_gamma 90.000000
_cell_volume 618.734712
_symmetry_space_group_name_H-M "P 21"
_symmetry_group_IT_number 4
_symmetry_cell_setting 'monoclinic'
loop_
_space_group_symop_operation_xyz
x,y,z
-x,1/2+y,-z
loop_
_atom_site_type_symbol
_atom_site_label
_atom_site_fract_x
_atom_site_fract_y
_atom_site_fract_z
Si Si1 0.552482 0.817100 0.470223
Si Si2 0.141298 0.027523 0.467130
Si Si3 0.101817 0.932809 0.017222
Si Si4 0.329782 0.727555 0.235911
Si Si5 0.946893 0.166574 0.713184
Si Si6 0.502885 0.426790 0.141309
Si Si7 0.168338 0.800806 0.670099
Si Si8 0.262166 0.194550 0.914653
O O1 0.473956 0.551615 0.473838
O O2 0.754303 0.771424 0.528429
O O3 0.465473 0.875316 0.342841
O O4 0.208380 0.960485 0.591475
O O5 0.937805 0.067008 0.401327
O O6 0.167651 0.814327 0.399531
O O7 0.254442 0.933204 0.142205
O O8 0.010571 0.670373 0.996187
O O9 0.181500 0.953968 0.939591
O O10 0.422997 0.515941 0.210234
O O11 0.182720 0.593019 0.247771
O O12 0.043526 0.936355 0.700795
O O13 0.100913 0.329439 0.811570
O O14 0.653558 0.233968 0.220060
O O15 0.597228 0.641924 0.116211
O O16 0.349538 0.341824 0.026622
#
# Coordination Sequence:
#
# PCOD8047725 Si02
#       8
#     2   2   2   2   2   2   2   2
#     4  12  28  50  76 116 162 203 259 330 395 467
#     4  12  24  47  77 107 152 208 262 323 395 474
#     4  12  27  50  82 116 156 208 263 322 385 481
#     4  12  25  48  76 115 155 205 262 324 398 458
#     4  11  25  46  74 112 147 207 257 325 389 478
#     4  11  26  48  73 116 153 207 261 330 391 475
#     4  11  25  46  76 106 154 202 266 314 400 467
#     4  11  26  49  76 112 161 202 266 318 403 464
#
# _framework density 25.859224999999999
#
# number of rings (size 3 to 8) (size 9 to 14) (size 15 to 20)
#    0.000    0.500    5.000    2.250    1.750    4.000 
#    2.250    0.000    0.000    0.000    0.000    0.000 
#    0.000    0.000    0.000    0.000    0.000    0.000 
#
# Total GULP energy -198282.989375 kJ/mol
# GULP energy per Si atom -12392.686836 kJ/mol
# Density = 2.580037 g / cm^3
# Si number density = 25.859225 Si / 1000 Ang^3
#
#
#
# Elastic Constant Matrix: (Units=GPa)
#
#
# Indices 1 2 3 4 5 6 
#
# 1 134.4980 13.9189 29.8436 0.0000 -12.0841 0.0000
# 2 13.9189 56.9881 -5.8342 0.0000 3.3226 0.0000
# 3 29.8436 -5.8342 137.3833 0.0000 18.7406 0.0000
# 4 0.0000 0.0000 0.0000 31.9957 0.0000 8.1244
# 5 -12.0841 3.3226 18.7406 0.0000 49.9028 0.0000
# 6 0.0000 0.0000 0.0000 8.1244 0.0000 32.7660
#
#
#
# Elastic Compliance Matrix: (Units=1/GPa)
#
#
# Indices 1 2 3 4 5 6 
#
# 1 0.008502 -0.002502 -0.002379 0.000000 0.003119 0.000000
# 2 -0.002502 0.018472 0.001664 0.000000 -0.002460 0.000000
# 3 -0.002379 0.001664 0.008390 0.000000 -0.003837 0.000000
# 4 0.000000 0.000000 0.000000 0.033354 0.000000 -0.008270
# 5 0.003119 -0.002460 -0.003837 0.000000 0.022399 0.000000
# 6 0.000000 0.000000 0.000000 -0.008270 0.000000 0.032570
#
#
# Mechanical properties :
#
#
# Convention : Reuss Voigt Hill
#
# Bulk Modulus (GPa) = 34.56577 44.96957 39.76767
# Shear Modulus (GPa) = 35.77449 42.32897 39.05173
#
# Velocity S-wave (km/s) = 3.72349 4.05025 3.89030
# Velocity P-wave (km/s) = 5.64639 6.26902 5.96583
#
# Compressibility (1/GPa) = 0.02893036
#
# Stress axis : x y z
#
# Youngs Moduli (GPa) = 117.62042 54.13499 119.19381
#
# Poissons Ratio (x) = 0.13544 0.28350
# Poissons Ratio (y) = 0.29427 -0.19829
# Poissons Ratio (z) = 0.27976 -0.09006
#
# Static dielectric constant tensor:
#      x y z
#    x 5.035070 0.000000 0.190240 
#    y 0.000000 3.989860 0.000000 
#    z 0.190240 0.000000 5.388880 
# 
# 
# High freq. dielectric constant tensor:
#      x y z
#    x 2.057660 0.000000 0.008700 
#    y 0.000000 1.981500 0.000000 
#    z 0.008700 0.000000 2.072020 
# 
# From -- ./inp_files/10002.got.cif
#   From: 2010.03.12/outbox.cif.g09.slc.cpg/sg4_6_cif.got.tgz:10002.got - 2010.03.31 09:31:35.
