data_PCOD8047212
_publ_section_title
;
Structure prediction by ZEFSAII (Michael W. Deem and Ramdas Pophale) SiO2 
 PCOD8047212
Probable space group: P 21
;
_chemical_formula_sum "Si O2"
_cell_formula_units_Z 14
_cell_length_a 6.732178
_cell_length_b 10.813647
_cell_length_c 12.070545
_cell_angle_alpha 90.000000
_cell_angle_beta 43.824612
_cell_angle_gamma 90.000000
_cell_volume 608.478242
_symmetry_space_group_name_H-M "P 21"
_symmetry_group_IT_number 4
_symmetry_cell_setting 'monoclinic'
loop_
_space_group_symop_operation_xyz
x,y,z
-x,1/2+y,-z
loop_
_atom_site_type_symbol
_atom_site_label
_atom_site_fract_x
_atom_site_fract_y
_atom_site_fract_z
Si Si1 0.229219 0.458300 0.237883
Si Si2 0.494551 0.493159 0.901619
Si Si3 0.681821 0.382133 0.334565
Si Si4 0.408029 0.607268 0.365617
Si Si5 0.850289 0.969701 0.347901
Si Si6 0.344268 0.747031 0.864373
Si Si7 0.764401 0.839239 0.171060
O O1 0.208627 0.563461 0.341785
O O2 0.409516 0.343400 0.207439
O O3 0.916908 0.402905 0.335430
O O4 0.386280 0.519677 0.068893
O O5 0.474676 0.613838 0.834137
O O6 0.296175 0.386673 0.928504
O O7 0.817092 0.441640 0.767731
O O8 0.676688 0.510647 0.263543
O O9 0.358364 0.364082 0.514356
O O10 0.746153 0.265179 0.228791
O O11 0.234525 0.598220 0.554181
O O12 0.511806 0.746751 0.309822
O O13 0.781943 0.960072 0.244190
O O14 0.064619 0.766850 0.052967
#
# Coordination Sequence:
#
# PCOD8047212 Si02
#       7
#     2   2   2   2   2   2   2
#     4  11  22  45  72  99 138 187 236 284 357 419
#     4  12  27  41  72 109 136 182 245 293 343 433
#     4   9  22  47  69  98 143 187 225 288 358 412
#     4   9  25  44  70  99 143 185 231 283 363 413
#     4  10  26  45  66 109 138 183 236 283 358 418
#     4  11  25  43  71 102 139 187 241 285 353 417
#     4  12  25  45  72 104 145 185 236 294 354 422
#
# _framework density 23.008216000000001
#
# number of rings (size 3 to 8) (size 9 to 14) (size 15 to 20)
#    0.857    0.571    2.857    0.857    6.000    5.714 
#    0.000    0.000    0.000    0.000    0.000    0.000 
#    0.000    0.000    0.000    0.000    0.000    0.000 
#
# Total GULP energy -173472.947705 kJ/mol
# GULP energy per Si atom -12390.924836 kJ/mol
# Density = 2.295585 g / cm^3
# Si number density = 23.008216 Si / 1000 Ang^3
#
#
#
# Elastic Constant Matrix: (Units=GPa)
#
#
# Indices 1 2 3 4 5 6 
#
# 1 145.5037 38.5779 43.3185 0.0000 -2.3805 0.0000
# 2 38.5779 51.7070 4.5074 0.0000 -5.5714 0.0000
# 3 43.3185 4.5074 97.1558 0.0000 -6.7761 0.0000
# 4 0.0000 0.0000 0.0000 30.2863 0.0000 2.0493
# 5 -2.3805 -5.5714 -6.7761 0.0000 37.0948 0.0000
# 6 0.0000 0.0000 0.0000 2.0493 0.0000 22.9744
#
#
#
# Elastic Compliance Matrix: (Units=1/GPa)
#
#
# Indices 1 2 3 4 5 6 
#
# 1 0.010031 -0.007247 -0.004221 0.000000 -0.001216 0.000000
# 2 -0.007247 0.024943 0.002333 0.000000 0.003707 0.000000
# 3 -0.004221 0.002333 0.012228 0.000000 0.002313 0.000000
# 4 0.000000 0.000000 0.000000 0.033219 0.000000 -0.002963
# 5 -0.001216 0.003707 0.002313 0.000000 0.027859 0.000000
# 6 0.000000 0.000000 0.000000 -0.002963 0.000000 0.043791
#
#
# Mechanical properties :
#
#
# Convention : Reuss Voigt Hill
#
# Bulk Modulus (GPa) = 34.56542 51.90823 43.23682
# Shear Modulus (GPa) = 27.78012 31.93528 29.85770
#
# Velocity S-wave (km/s) = 3.47854 3.72962 3.60626
# Velocity P-wave (km/s) = 5.58474 6.41533 6.01439
#
# Compressibility (1/GPa) = 0.02893065
#
# Stress axis : x y z
#
# Youngs Moduli (GPa) = 99.69250 40.09187 81.78042
#
# Poissons Ratio (x) = 0.29054 0.34520
# Poissons Ratio (y) = 0.72246 -0.19076
# Poissons Ratio (z) = 0.42080 -0.09352
#
# Static dielectric constant tensor:
#      x y z
#    x 4.276960 0.000000 0.154390 
#    y 0.000000 3.710010 0.000000 
#    z 0.154390 0.000000 4.052920 
# 
# 
# High freq. dielectric constant tensor:
#      x y z
#    x 1.919510 0.000000 0.003830 
#    y 0.000000 1.877090 0.000000 
#    z 0.003830 0.000000 1.908170 
# 
# From -- ./inp_files/10355.got.cif
#   From: 2010.03.12/outbox.cif.g09.slc.cpg/sg4_6_cif.got.tgz:10355.got - 2010.03.31 09:31:35.
