data_PCOD8047375
_publ_section_title
;
Structure prediction by ZEFSAII (Michael W. Deem and Ramdas Pophale) SiO2 
 PCOD8047375
Probable space group: P 21
;
_chemical_formula_sum "Si O2"
_cell_formula_units_Z 16
_cell_length_a 8.953773
_cell_length_b 13.181589
_cell_length_c 8.407048
_cell_angle_alpha 90.000000
_cell_angle_beta 130.024871
_cell_angle_gamma 90.000000
_cell_volume 759.824134
_symmetry_space_group_name_H-M "P 21"
_symmetry_group_IT_number 4
_symmetry_cell_setting 'monoclinic'
loop_
_space_group_symop_operation_xyz
x,y,z
-x,1/2+y,-z
loop_
_atom_site_type_symbol
_atom_site_label
_atom_site_fract_x
_atom_site_fract_y
_atom_site_fract_z
Si Si1 0.137337 0.213950 0.915528
Si Si2 0.486732 0.789543 0.144849
Si Si3 0.652692 0.920805 0.004616
Si Si4 0.633586 0.485897 0.460368
Si Si5 0.482117 0.131273 0.346012
Si Si6 0.267696 0.625866 0.791504
Si Si7 0.842830 0.661796 0.421157
Si Si8 0.272677 0.790528 0.312103
O O1 0.147726 0.147423 0.762428
O O2 0.917009 0.219411 0.827992
O O3 0.200383 0.329280 0.926204
O O4 0.267240 0.157133 0.134270
O O5 0.697071 0.755203 0.362796
O O6 0.335164 0.819783 0.176597
O O7 0.503168 0.886603 0.041484
O O8 0.415024 0.693447 0.993914
O O9 0.540022 0.944183 0.766298
O O10 0.768293 0.019858 0.142927
O O11 0.533101 0.538216 0.543323
O O12 0.770052 0.558731 0.451594
O O13 0.765096 0.392447 0.612626
O O14 0.635317 0.104150 0.312924
O O15 0.552053 0.229873 0.487658
O O16 0.061686 0.684392 0.632978
#
# Coordination Sequence:
#
# PCOD8047375 Si02
#       8
#     2   2   2   2   2   2   2   2
#     4  11  24  44  68  98 137 177 221 274 336 397
#     4  11  24  44  68  97 138 174 226 274 333 399
#     4  11  22  45  68  95 136 176 219 274 335 399
#     4  12  24  44  70  99 139 174 225 280 333 399
#     4  12  23  44  68  97 141 170 223 285 328 395
#     4  12  22  43  68  97 133 180 218 273 337 397
#     4  11  23  41  69  98 130 182 218 268 335 399
#     4  12  24  43  67 103 134 179 226 278 337 391
#
# _framework density 21.057504999999999
#
# number of rings (size 3 to 8) (size 9 to 14) (size 15 to 20)
#    0.000    0.500    7.500    1.500    1.750    0.000 
#    2.250    1.250    0.000    0.000    0.000    0.000 
#    0.000    0.000    0.000    0.000    0.000    0.000 
#
# Total GULP energy -198450.892933 kJ/mol
# GULP energy per Si atom -12403.180808 kJ/mol
# Density = 2.100958 g / cm^3
# Si number density = 21.057505 Si / 1000 Ang^3
#
#
#
# Elastic Constant Matrix: (Units=GPa)
#
#
# Indices 1 2 3 4 5 6 
#
# 1 102.4074 3.1537 53.4527 0.0000 0.5641 0.0000
# 2 3.1537 47.7838 25.3668 0.0000 1.2487 0.0000
# 3 53.4527 25.3668 104.9014 0.0000 1.5065 0.0000
# 4 0.0000 0.0000 0.0000 37.8816 0.0000 -11.1197
# 5 0.5641 1.2487 1.5065 0.0000 31.9866 0.0000
# 6 0.0000 0.0000 0.0000 -11.1197 0.0000 38.0643
#
#
#
# Elastic Compliance Matrix: (Units=1/GPa)
#
#
# Indices 1 2 3 4 5 6 
#
# 1 0.013722 0.003219 -0.007770 0.000000 -0.000002 0.000000
# 2 0.003219 0.024779 -0.007623 0.000000 -0.000665 0.000000
# 3 -0.007770 -0.007623 0.015340 0.000000 -0.000288 0.000000
# 4 0.000000 0.000000 0.000000 0.028874 0.000000 0.008435
# 5 -0.000002 -0.000665 -0.000288 0.000000 0.031303 0.000000
# 6 0.000000 0.000000 0.000000 0.008435 0.000000 0.028735
#
#
# Mechanical properties :
#
#
# Convention : Reuss Voigt Hill
#
# Bulk Modulus (GPa) = 33.90657 46.55990 40.23323
# Shear Modulus (GPa) = 28.25955 33.12778 30.69367
#
# Velocity S-wave (km/s) = 3.66733 3.97067 3.82201
# Velocity P-wave (km/s) = 5.83689 6.57118 6.21489
#
# Compressibility (1/GPa) = 0.02949281
#
# Stress axis : x y z
#
# Youngs Moduli (GPa) = 72.87772 40.35632 65.19056
#
# Poissons Ratio (x) = -0.12993 0.50655
# Poissons Ratio (y) = -0.23463 0.49694
# Poissons Ratio (z) = 0.56629 0.30763
#
# Static dielectric constant tensor:
#      x y z
#    x 3.818300 0.000000 -0.097970 
#    y 0.000000 3.741480 0.000000 
#    z -0.097970 0.000000 3.952890 
# 
# 
# High freq. dielectric constant tensor:
#      x y z
#    x 1.827570 0.000000 -0.006690 
#    y 0.000000 1.817900 0.000000 
#    z -0.006690 0.000000 1.833730 
# 
# From -- ./inp_files/6397.got.cif
#   From: 2010.03.12/outbox.cif.g09.slc.cpg/sg4_4_cif.got.tgz:6397.got - 2010.03.31 09:31:35.
