data_PCOD8047650
_publ_section_title
;
Structure prediction by ZEFSAII (Michael W. Deem and Ramdas Pophale) SiO2 
 PCOD8047650
Probable space group: P 21
;
_chemical_formula_sum "Si O2"
_cell_formula_units_Z 16
_cell_length_a 6.963167
_cell_length_b 8.295155
_cell_length_c 16.488322
_cell_angle_alpha 90.000000
_cell_angle_beta 134.414322
_cell_angle_gamma 90.000000
_cell_volume 680.279006
_symmetry_space_group_name_H-M "P 21"
_symmetry_group_IT_number 4
_symmetry_cell_setting 'monoclinic'
loop_
_space_group_symop_operation_xyz
x,y,z
-x,1/2+y,-z
loop_
_atom_site_type_symbol
_atom_site_label
_atom_site_fract_x
_atom_site_fract_y
_atom_site_fract_z
Si Si1 0.724088 0.897090 0.873899
Si Si2 0.210348 0.055240 0.657426
Si Si3 0.721333 0.033441 0.037483
Si Si4 0.214379 0.046973 0.476794
Si Si5 0.675631 0.390149 0.958316
Si Si6 0.267727 0.359949 0.411127
Si Si7 0.723189 0.633646 0.744812
Si Si8 0.672292 0.917430 0.300120
O O1 0.508519 0.023168 0.777159
O O2 0.675162 0.725814 0.816572
O O3 0.702712 0.889468 0.965393
O O4 0.024292 0.960793 0.944680
O O5 0.181077 0.982058 0.558614
O O6 0.986370 0.981418 0.652485
O O7 0.190371 0.246377 0.640444
O O8 0.490388 0.004268 0.032848
O O9 0.003532 0.031506 0.168473
O O10 0.666927 0.203174 0.978540
O O11 0.456921 0.958051 0.503202
O O12 0.931011 0.019987 0.346781
O O13 0.273010 0.237439 0.488145
O O14 0.561800 0.406410 0.834747
O O15 0.253878 0.260048 0.322391
O O16 0.469900 0.508580 0.664226
#
# Coordination Sequence:
#
# PCOD8047650 Si02
#       8
#     2   2   2   2   2   2   2   2
#     4  11  24  47  71 103 148 194 242 300 374 443
#     4  12  27  49  75 107 149 197 249 315 377 450
#     4  11  25  43  71 106 147 194 239 302 369 445
#     4  12  28  48  78 107 150 197 248 317 374 456
#     4  11  26  44  69 109 142 192 242 301 368 449
#     4  12  28  51  76 113 148 200 257 308 386 452
#     4  11  26  47  75 106 154 199 248 311 377 447
#     4  12  26  47  75 109 148 193 253 310 375 444
#
# _framework density 23.519760999999999
#
# number of rings (size 3 to 8) (size 9 to 14) (size 15 to 20)
#    0.000    0.500    3.750    3.000   10.500    1.000 
#    4.500    0.000    0.000    0.000    0.000    0.000 
#    0.000    0.000    0.000    0.000    0.000    0.000 
#
# Total GULP energy -198366.701687 kJ/mol
# GULP energy per Si atom -12397.918855 kJ/mol
# Density = 2.346623 g / cm^3
# Si number density = 23.519761 Si / 1000 Ang^3
#
#
#
# Elastic Constant Matrix: (Units=GPa)
#
#
# Indices 1 2 3 4 5 6 
#
# 1 140.2822 67.9853 50.4383 0.0000 27.9062 0.0000
# 2 67.9853 97.4760 28.5032 0.0000 18.5157 0.0000
# 3 50.4383 28.5032 81.2378 0.0000 27.2202 0.0000
# 4 0.0000 0.0000 0.0000 29.6707 0.0000 3.5132
# 5 27.9062 18.5157 27.2202 0.0000 48.3578 0.0000
# 6 0.0000 0.0000 0.0000 3.5132 0.0000 52.5061
#
#
#
# Elastic Compliance Matrix: (Units=1/GPa)
#
#
# Indices 1 2 3 4 5 6 
#
# 1 0.012632 -0.007064 -0.004718 0.000000 -0.001929 0.000000
# 2 -0.007064 0.015657 -0.000573 0.000000 -0.001596 0.000000
# 3 -0.004718 -0.000573 0.017814 0.000000 -0.007085 0.000000
# 4 0.000000 0.000000 0.000000 0.033972 0.000000 -0.002273
# 5 -0.001929 -0.001596 -0.007085 0.000000 0.026392 0.000000
# 6 0.000000 0.000000 0.000000 -0.002273 0.000000 0.019197
#
#
# Mechanical properties :
#
#
# Convention : Reuss Voigt Hill
#
# Bulk Modulus (GPa) = 46.74469 68.09440 57.41954
# Shear Modulus (GPa) = 31.74505 37.57821 34.66163
#
# Velocity S-wave (km/s) = 3.67784 4.00150 3.84308
# Velocity P-wave (km/s) = 6.16061 7.09677 6.64520
#
# Compressibility (1/GPa) = 0.02139281
#
# Stress axis : x y z
#
# Youngs Moduli (GPa) = 79.16255 63.87096 56.13645
#
# Poissons Ratio (x) = 0.45121 0.26485
# Poissons Ratio (y) = 0.55923 0.03214
# Poissons Ratio (z) = 0.37349 0.03657
#
# Static dielectric constant tensor:
#      x y z
#    x 4.388850 0.000000 0.089420 
#    y 0.000000 4.192340 0.000000 
#    z 0.089420 0.000000 4.192870 
# 
# 
# High freq. dielectric constant tensor:
#      x y z
#    x 1.942030 0.000000 0.010280 
#    y 0.000000 1.930790 0.000000 
#    z 0.010280 0.000000 1.937150 
# 
# From -- ./inp_files/2584.got.cif
#   From: 2010.03.12/outbox.cif.g09.slc.cpg/sg4_2_cif.got.tgz:2584.got - 2010.03.31 09:31:35.
