data_PCOD8047300
_publ_section_title
;
Structure prediction by ZEFSAII (Michael W. Deem and Ramdas Pophale) SiO2 
 PCOD8047300
Probable space group: P 21
;
_chemical_formula_sum "Si O2"
_cell_formula_units_Z 16
_cell_length_a 12.260356
_cell_length_b 5.182195
_cell_length_c 9.483986
_cell_angle_alpha 90.000000
_cell_angle_beta 100.512816
_cell_angle_gamma 90.000000
_cell_volume 592.455647
_symmetry_space_group_name_H-M "P 21"
_symmetry_group_IT_number 4
_symmetry_cell_setting 'monoclinic'
loop_
_space_group_symop_operation_xyz
x,y,z
-x,1/2+y,-z
loop_
_atom_site_type_symbol
_atom_site_label
_atom_site_fract_x
_atom_site_fract_y
_atom_site_fract_z
Si Si1 0.962414 0.800390 0.662731
Si Si2 0.843923 0.632968 0.362921
Si Si3 0.747989 0.047387 0.715813
Si Si4 0.946088 0.608773 0.937648
Si Si5 0.252483 0.298234 0.930362
Si Si6 0.640708 0.365476 0.460196
Si Si7 0.439056 0.138820 0.291533
Si Si8 0.660482 0.306036 0.941817
O O1 0.929776 0.758168 0.493056
O O2 0.875402 0.992569 0.716142
O O3 0.952913 0.556560 0.768381
O O4 0.087755 0.906309 0.697782
O O5 0.806851 0.840686 0.235341
O O6 0.737575 0.539027 0.421264
O O7 0.667832 0.822900 0.764879
O O8 0.694070 0.122564 0.553107
O O9 0.749491 0.280672 0.831670
O O10 0.837080 0.767972 0.964649
O O11 0.958886 0.332319 0.015616
O O12 0.341201 0.529398 0.979573
O O13 0.313378 0.021547 0.935195
O O14 0.557499 0.283595 0.314533
O O15 0.569329 0.530593 0.553100
O O16 0.446362 0.912810 0.172172
#
# Coordination Sequence:
#
# PCOD8047300 Si02
#       8
#     2   2   2   2   2   2   2   2
#     4  12  26  46  72 115 165 214 256 315 399 478
#     4  12  29  45  73 119 172 212 258 337 410 477
#     4  11  22  42  76 112 152 199 270 327 382 469
#     4  12  26  45  74 107 148 213 272 306 365 468
#     4  12  26  48  74 112 157 210 267 331 392 476
#     4  11  24  43  74 118 158 198 267 336 413 476
#     4  11  21  44  80 118 145 207 270 344 387 480
#     4  11  24  45  79 111 147 199 276 332 388 468
#
# _framework density 27.006242
#
# number of rings (size 3 to 8) (size 9 to 14) (size 15 to 20)
#    0.000    0.500    6.250    1.500    3.500    1.000 
#    0.000    0.000    2.750    0.000    0.000    0.000 
#    0.000    0.000    0.000    0.000    0.000    0.000 
#
# Total GULP energy -198239.899215 kJ/mol
# GULP energy per Si atom -12389.993701 kJ/mol
# Density = 2.694477 g / cm^3
# Si number density = 27.006242 Si / 1000 Ang^3
#
#
#
# Elastic Constant Matrix: (Units=GPa)
#
#
# Indices 1 2 3 4 5 6 
#
# 1 61.2103 6.1138 2.0162 0.0000 21.9310 0.0000
# 2 6.1138 111.4556 30.1732 0.0000 10.8363 0.0000
# 3 2.0162 30.1732 150.0622 0.0000 11.2737 0.0000
# 4 0.0000 0.0000 0.0000 39.8072 0.0000 14.6409
# 5 21.9310 10.8363 11.2737 0.0000 26.7168 0.0000
# 6 0.0000 0.0000 0.0000 14.6409 0.0000 26.0981
#
#
#
# Elastic Compliance Matrix: (Units=1/GPa)
#
#
# Indices 1 2 3 4 5 6 
#
# 1 0.023351 0.000343 0.001103 0.000000 -0.019772 0.000000
# 2 0.000343 0.009756 -0.001702 0.000000 -0.003521 0.000000
# 3 0.001103 -0.001702 0.007237 0.000000 -0.003269 0.000000
# 4 0.000000 0.000000 0.000000 0.031652 0.000000 -0.017756
# 5 -0.019772 -0.003521 -0.003269 0.000000 0.056467 0.000000
# 6 0.000000 0.000000 0.000000 -0.017756 0.000000 0.048278
#
#
# Mechanical properties :
#
#
# Convention : Reuss Voigt Hill
#
# Bulk Modulus (GPa) = 25.10570 44.37051 34.73810
# Shear Modulus (GPa) = 26.24248 37.48607 31.86427
#
# Velocity S-wave (km/s) = 3.12062 3.72970 3.43867
# Velocity P-wave (km/s) = 4.72237 5.91717 5.35321
#
# Compressibility (1/GPa) = 0.03983160
#
# Stress axis : x y z
#
# Youngs Moduli (GPa) = 42.82521 102.49702 138.18178
#
# Poissons Ratio (x) = -0.03515 -0.15238
# Poissons Ratio (y) = -0.01469 0.23516
# Poissons Ratio (z) = -0.04722 0.17443
#
# Static dielectric constant tensor:
#      x y z
#    x 4.475210 0.000000 0.218820 
#    y 0.000000 4.779900 0.000000 
#    z 0.218820 0.000000 5.240200 
# 
# 
# High freq. dielectric constant tensor:
#      x y z
#    x 2.063200 0.000000 0.016520 
#    y 0.000000 2.074430 0.000000 
#    z 0.016520 0.000000 2.106470 
# 
# From -- ./inp_files/7421.got.cif
#   From: 2010.03.12/outbox.cif.g09.slc.cpg/sg4_4_cif.got.tgz:7421.got - 2010.03.31 09:31:35.
