data_PCOD8047899
_publ_section_title
;
Structure prediction by ZEFSAII (Michael W. Deem and Ramdas Pophale) SiO2 
 PCOD8047899
Probable space group: P 21
;
_chemical_formula_sum "Si O2"
_cell_formula_units_Z 14
_cell_length_a 22.858981
_cell_length_b 5.495147
_cell_length_c 10.235270
_cell_angle_alpha 90.000000
_cell_angle_beta 26.186712
_cell_angle_gamma 90.000000
_cell_volume 567.371083
_symmetry_space_group_name_H-M "P 21"
_symmetry_group_IT_number 4
_symmetry_cell_setting 'monoclinic'
loop_
_space_group_symop_operation_xyz
x,y,z
-x,1/2+y,-z
loop_
_atom_site_type_symbol
_atom_site_label
_atom_site_fract_x
_atom_site_fract_y
_atom_site_fract_z
Si Si1 0.397817 0.473710 0.313443
Si Si2 0.378435 0.306819 0.065722
Si Si3 0.016020 0.367012 0.388064
Si Si4 0.146641 0.778967 0.798292
Si Si5 0.756843 0.636383 0.206852
Si Si6 0.522872 0.456594 0.531361
Si Si7 0.118128 0.022653 0.594716
O O1 0.413257 0.453766 0.127095
O O2 0.279109 0.655329 0.585547
O O3 0.357925 0.225321 0.464447
O O4 0.533951 0.560799 0.106307
O O5 0.223185 0.240958 0.367816
O O6 0.418779 0.464420 0.859717
O O7 0.015989 0.616245 0.471485
O O8 0.905210 0.393565 0.497170
O O9 0.163609 0.344534 0.031629
O O10 0.172048 0.836421 0.595072
O O11 0.130964 0.006905 0.928376
O O12 0.018378 0.615028 0.069618
O O13 0.677603 0.463893 0.264859
O O14 0.493979 0.702093 0.509309
#
# Coordination Sequence:
#
# PCOD8047899 Si02
#       7
#     2   2   2   2   2   2   2
#     4  12  24  50  82 117 159 204 260 338 423 462
#     4  12  26  49  81 124 157 204 274 336 397 482
#     4  12  30  54  81 116 163 221 271 323 392 490
#     4  12  24  50  82 117 159 204 260 338 423 462
#     4  12  26  56  80 108 164 210 270 334 410 472
#     4  12  30  54  81 116 163 221 271 323 392 490
#     4  12  26  49  81 124 157 204 274 336 397 482
#
# _framework density 24.67521
#
# number of rings (size 3 to 8) (size 9 to 14) (size 15 to 20)
#    0.000    0.000    4.286    5.143    2.000    2.286 
#    5.143    0.000    0.000    0.000    0.000    0.000 
#    0.000    0.000    0.000    0.000    0.000    0.000 
#
# Total GULP energy -173603.616214 kJ/mol
# GULP energy per Si atom -12400.258301 kJ/mol
# Density = 2.461905 g / cm^3
# Si number density = 24.675210 Si / 1000 Ang^3
#
#
#
# Elastic Constant Matrix: (Units=GPa)
#
#
# Indices 1 2 3 4 5 6 
#
# 1 150.0984 51.5784 26.8733 0.0000 14.1722 0.0000
# 2 51.5784 109.9026 19.5527 0.0000 16.1165 0.0000
# 3 26.8733 19.5527 91.8279 0.0000 16.6336 0.0000
# 4 0.0000 0.0000 0.0000 40.2440 0.0000 -0.0566
# 5 14.1722 16.1165 16.6336 0.0000 43.6385 0.0000
# 6 0.0000 0.0000 0.0000 -0.0566 0.0000 44.3295
#
#
#
# Elastic Compliance Matrix: (Units=1/GPa)
#
#
# Indices 1 2 3 4 5 6 
#
# 1 0.008199 -0.003460 -0.001517 0.000000 -0.000807 0.000000
# 2 -0.003460 0.011279 -0.000900 0.000000 -0.002699 0.000000
# 3 -0.001517 -0.000900 0.012220 0.000000 -0.003833 0.000000
# 4 0.000000 0.000000 0.000000 0.024848 0.000000 0.000032
# 5 -0.000807 -0.002699 -0.003833 0.000000 0.025635 0.000000
# 6 0.000000 0.000000 0.000000 0.000032 0.000000 0.022558
#
#
# Mechanical properties :
#
#
# Convention : Reuss Voigt Hill
#
# Bulk Modulus (GPa) = 50.13988 60.87083 55.50535
# Shear Modulus (GPa) = 40.60417 42.56403 41.58410
#
# Velocity S-wave (km/s) = 4.06093 4.15778 4.10964
# Velocity P-wave (km/s) = 6.50786 6.91172 6.71283
#
# Compressibility (1/GPa) = 0.01994421
#
# Stress axis : x y z
#
# Youngs Moduli (GPa) = 121.96829 88.66418 81.83510
#
# Poissons Ratio (x) = 0.30675 0.12411
# Poissons Ratio (y) = 0.42197 0.07367
# Poissons Ratio (z) = 0.18497 0.07982
#
# Static dielectric constant tensor:
#      x y z
#    x 4.665970 0.000000 0.085800 
#    y 0.000000 4.370840 0.000000 
#    z 0.085800 0.000000 4.475400 
# 
# 
# High freq. dielectric constant tensor:
#      x y z
#    x 1.995320 0.000000 0.004430 
#    y 0.000000 1.980320 0.000000 
#    z 0.004430 0.000000 1.990860 
# 
# From -- ./inp_files/9753.got.cif
#   From: 2010.03.12/outbox.cif.g09.slc.cpg/sg4_5_cif.got.tgz:9753.got - 2010.03.31 09:31:35.
