data_PCOD8047531
_publ_section_title
;
Structure prediction by ZEFSAII (Michael W. Deem and Ramdas Pophale) SiO2 
 PCOD8047531
Probable space group: P 21
;
_chemical_formula_sum "Si O2"
_cell_formula_units_Z 16
_cell_length_a 11.636869
_cell_length_b 8.617373
_cell_length_c 10.920310
_cell_angle_alpha 90.000000
_cell_angle_beta 140.743602
_cell_angle_gamma 90.000000
_cell_volume 692.957892
_symmetry_space_group_name_H-M "P 21"
_symmetry_group_IT_number 4
_symmetry_cell_setting 'monoclinic'
loop_
_space_group_symop_operation_xyz
x,y,z
-x,1/2+y,-z
loop_
_atom_site_type_symbol
_atom_site_label
_atom_site_fract_x
_atom_site_fract_y
_atom_site_fract_z
Si Si1 0.519829 0.058340 0.972618
Si Si2 0.353699 0.862917 0.315516
Si Si3 0.882639 0.887644 0.259276
Si Si4 0.004101 0.012465 0.116839
Si Si5 0.139501 0.117558 0.586029
Si Si6 0.360009 0.875741 0.036799
Si Si7 0.045429 0.324942 0.286089
Si Si8 0.712849 0.017957 0.680530
O O1 0.332999 0.027902 0.742491
O O2 0.580884 0.234049 0.002143
O O3 0.680090 0.945470 0.060042
O O4 0.472500 0.023435 0.077300
O O5 0.407607 0.844363 0.217400
O O6 0.310810 0.701881 0.346068
O O7 0.517329 0.938112 0.526195
O O8 0.180167 0.975405 0.180855
O O9 0.880469 0.710907 0.302480
O O10 0.004567 0.905202 0.238262
O O11 0.973128 0.997784 0.438056
O O12 0.005268 0.195435 0.148550
O O13 0.822919 0.972816 0.892897
O O14 0.141881 0.243416 0.479643
O O15 0.146135 0.902986 0.836730
O O16 0.178178 0.458857 0.348140
#
# Coordination Sequence:
#
# PCOD8047531 Si02
#       8
#     2   2   2   2   2   2   2   2
#     4  12  24  45  70 103 141 190 233 298 357 421
#     4  12  27  47  74 109 143 193 240 295 361 425
#     4  11  25  44  69 104 143 190 239 296 361 419
#     4  11  23  47  72 104 145 190 237 297 362 417
#     4  11  24  44  71 102 143 188 243 291 360 421
#     4  12  24  49  72 102 149 189 239 298 359 422
#     4  11  23  47  77  99 148 195 234 302 361 418
#     4  12  24  47  73 103 146 189 239 293 357 431
#
# _framework density 23.089424999999999
#
# number of rings (size 3 to 8) (size 9 to 14) (size 15 to 20)
#    0.000    0.500    6.250    2.250    0.000    5.000 
#    4.500    0.000    0.000    0.000    0.000    0.000 
#    0.000    0.000    0.000    0.000    0.000    0.000 
#
# Total GULP energy -198447.388137 kJ/mol
# GULP energy per Si atom -12402.961759 kJ/mol
# Density = 2.303687 g / cm^3
# Si number density = 23.089425 Si / 1000 Ang^3
#
#
#
# Elastic Constant Matrix: (Units=GPa)
#
#
# Indices 1 2 3 4 5 6 
#
# 1 107.8693 47.9784 29.9549 0.0000 13.8933 0.0000
# 2 47.9784 74.1921 29.1542 0.0000 7.9379 0.0000
# 3 29.9549 29.1542 117.5826 0.0000 23.5213 0.0000
# 4 0.0000 0.0000 0.0000 31.7935 0.0000 3.5744
# 5 13.8933 7.9379 23.5213 0.0000 31.3997 0.0000
# 6 0.0000 0.0000 0.0000 3.5744 0.0000 42.9464
#
#
#
# Elastic Compliance Matrix: (Units=1/GPa)
#
#
# Indices 1 2 3 4 5 6 
#
# 1 0.013508 -0.008074 -0.000767 0.000000 -0.003361 0.000000
# 2 -0.008074 0.019797 -0.003017 0.000000 0.000828 0.000000
# 3 -0.000767 -0.003017 0.010854 0.000000 -0.007029 0.000000
# 4 0.000000 0.000000 0.000000 0.031750 0.000000 -0.002643
# 5 -0.003361 0.000828 -0.007029 0.000000 0.038390 0.000000
# 6 0.000000 0.000000 0.000000 -0.002643 0.000000 0.023505
#
#
# Mechanical properties :
#
#
# Convention : Reuss Voigt Hill
#
# Bulk Modulus (GPa) = 48.91848 57.09101 53.00474
# Shear Modulus (GPa) = 29.70279 34.06502 31.88390
#
# Velocity S-wave (km/s) = 3.59057 3.84520 3.72006
# Velocity P-wave (km/s) = 6.19855 6.67037 6.43878
#
# Compressibility (1/GPa) = 0.02044217
#
# Stress axis : x y z
#
# Youngs Moduli (GPa) = 74.03278 50.51287 92.13049
#
# Poissons Ratio (x) = 0.40785 0.07065
# Poissons Ratio (y) = 0.59775 0.27799
# Poissons Ratio (z) = 0.05677 0.15241
#
# Static dielectric constant tensor:
#      x y z
#    x 4.170250 0.000000 0.163780 
#    y 0.000000 4.093690 0.000000 
#    z 0.163780 0.000000 4.297910 
# 
# 
# High freq. dielectric constant tensor:
#      x y z
#    x 1.912060 0.000000 0.012390 
#    y 0.000000 1.904380 0.000000 
#    z 0.012390 0.000000 1.922120 
# 
# From -- ./inp_files/12040.got.cif
#   From: 2010.03.12/outbox.cif.g09.slc.cpg/sg4_7_cif.got.tgz:12040.got - 2010.03.31 09:31:35.
