data_PCOD8047537
_publ_section_title
;
Structure prediction by ZEFSAII (Michael W. Deem and Ramdas Pophale) SiO2 
 PCOD8047537
Probable space group: P 21
;
_chemical_formula_sum "Si O2"
_cell_formula_units_Z 10
_cell_length_a 11.587768
_cell_length_b 5.840029
_cell_length_c 11.814231
_cell_angle_alpha 90.000000
_cell_angle_beta 145.844634
_cell_angle_gamma 90.000000
_cell_volume 448.872248
_symmetry_space_group_name_H-M "P 21"
_symmetry_group_IT_number 4
_symmetry_cell_setting 'monoclinic'
loop_
_space_group_symop_operation_xyz
x,y,z
-x,1/2+y,-z
loop_
_atom_site_type_symbol
_atom_site_label
_atom_site_fract_x
_atom_site_fract_y
_atom_site_fract_z
Si Si1 0.081732 0.318090 0.710824
Si Si2 0.116458 0.060259 0.102807
Si Si3 0.768550 0.964651 0.405861
Si Si4 0.599747 0.743586 0.843264
Si Si5 0.707781 0.570725 0.507118
O O1 0.190731 0.342268 0.678947
O O2 0.897780 0.494516 0.581644
O O3 0.244735 0.357945 0.942168
O O4 0.980492 0.066448 0.628204
O O5 0.278369 0.055192 0.131628
O O6 0.237773 0.063972 0.318108
O O7 0.000997 0.312509 0.998651
O O8 0.668324 0.821635 0.426795
O O9 0.588739 0.146913 0.235639
O O10 0.503306 0.930718 0.679857
#
# Coordination Sequence:
#
# PCOD8047537 Si02
#       5
#     2   2   2   2   2
#     4  11  23  48  66 105 141 186 236 296 373 426
#     4  12  28  51  78 105 149 196 243 306 368 431
#     4  11  25  42  73 100 145 185 236 304 357 445
#     4  11  28  43  72 107 138 188 247 298 364 434
#     4  11  26  46  73 101 141 187 242 298 364 434
#
# _framework density 22.278053
#
# number of rings (size 3 to 8) (size 9 to 14) (size 15 to 20)
#    0.000    0.800    4.000    1.200   11.200    1.600 
#    0.000    0.000    0.000    0.000    0.000    0.000 
#    0.000    0.000    0.000    0.000    0.000    0.000 
#
# Total GULP energy -123895.932547 kJ/mol
# GULP energy per Si atom -12389.593255 kJ/mol
# Density = 2.222735 g / cm^3
# Si number density = 22.278053 Si / 1000 Ang^3
#
#
#
# Elastic Constant Matrix: (Units=GPa)
#
#
# Indices 1 2 3 4 5 6 
#
# 1 45.8725 14.4660 42.1099 0.0000 -0.4115 0.0000
# 2 14.4660 97.7436 43.4316 0.0000 4.0535 0.0000
# 3 42.1099 43.4316 155.8408 0.0000 -11.0985 0.0000
# 4 0.0000 0.0000 0.0000 26.4800 0.0000 -4.8399
# 5 -0.4115 4.0535 -11.0985 0.0000 40.1870 0.0000
# 6 0.0000 0.0000 0.0000 -4.8399 0.0000 34.7231
#
#
#
# Elastic Compliance Matrix: (Units=1/GPa)
#
#
# Indices 1 2 3 4 5 6 
#
# 1 0.029186 -0.000782 -0.007795 0.000000 -0.001775 0.000000
# 2 -0.000782 0.011877 -0.003248 0.000000 -0.002103 0.000000
# 3 -0.007795 -0.003248 0.009635 0.000000 0.002909 0.000000
# 4 0.000000 0.000000 0.000000 0.038752 0.000000 0.005401
# 5 -0.001775 -0.002103 0.002909 0.000000 0.025881 0.000000
# 6 0.000000 0.000000 0.000000 0.005401 0.000000 0.029552
#
#
# Mechanical properties :
#
#
# Convention : Reuss Voigt Hill
#
# Bulk Modulus (GPa) = 36.97206 55.49689 46.23447
# Shear Modulus (GPa) = 28.16109 33.57465 30.86787
#
# Velocity S-wave (km/s) = 3.55924 3.88632 3.72637
# Velocity P-wave (km/s) = 5.78988 6.71588 6.27000
#
# Compressibility (1/GPa) = 0.02704745
#
# Stress axis : x y z
#
# Youngs Moduli (GPa) = 34.26342 84.19427 103.78291
#
# Poissons Ratio (x) = 0.06587 0.80895
# Poissons Ratio (y) = 0.02681 0.33714
# Poissons Ratio (z) = 0.26707 0.27350
#
# Static dielectric constant tensor:
#      x y z
#    x 3.966390 0.000000 0.073330 
#    y 0.000000 4.280050 0.000000 
#    z 0.073330 0.000000 4.036890 
# 
# 
# High freq. dielectric constant tensor:
#      x y z
#    x 1.888600 0.000000 0.002990 
#    y 0.000000 1.876420 0.000000 
#    z 0.002990 0.000000 1.885600 
# 
# From -- ./inp_files/883.got.cif
#   From: 2010.03.12/outbox.cif.g09.slc.cpg/sg4_1_cif.got.tgz:883.got - 2010.03.31 09:31:35.
