data_PCOD8047401
_publ_section_title
;
Structure prediction by ZEFSAII (Michael W. Deem and Ramdas Pophale) SiO2 
 PCOD8047401
Probable space group: P 21
;
_chemical_formula_sum "Si O2"
_cell_formula_units_Z 16
_cell_length_a 6.758549
_cell_length_b 10.059684
_cell_length_c 11.465999
_cell_angle_alpha 90.000000
_cell_angle_beta 118.811492
_cell_angle_gamma 90.000000
_cell_volume 683.058544
_symmetry_space_group_name_H-M "P 21"
_symmetry_group_IT_number 4
_symmetry_cell_setting 'monoclinic'
loop_
_space_group_symop_operation_xyz
x,y,z
-x,1/2+y,-z
loop_
_atom_site_type_symbol
_atom_site_label
_atom_site_fract_x
_atom_site_fract_y
_atom_site_fract_z
Si Si1 0.474955 0.765370 0.072943
Si Si2 0.111382 0.973939 0.012294
Si Si3 0.879663 0.048541 0.383190
Si Si4 0.826514 0.802952 0.523923
Si Si5 0.457439 0.176921 0.158395
Si Si6 0.389458 0.681470 0.295569
Si Si7 0.976863 0.857645 0.213757
Si Si8 0.280749 0.402431 0.262089
O O1 0.341881 0.903503 0.037122
O O2 0.377071 0.675469 0.150319
O O3 0.738567 0.788666 0.169743
O O4 0.428636 0.695054 0.936143
O O5 0.985743 0.907580 0.084540
O O6 0.200918 0.120703 0.072234
O O7 0.938536 0.973049 0.856683
O O8 0.617006 0.078600 0.278327
O O9 0.991970 0.188257 0.450799
O O10 0.903983 0.946478 0.497968
O O11 0.007831 0.981954 0.309855
O O12 0.596743 0.770309 0.393494
O O13 0.792211 0.808591 0.652813
O O14 0.430867 0.318534 0.214575
O O15 0.169527 0.748355 0.290768
O O16 0.422650 0.529657 0.349033
#
# Coordination Sequence:
#
# PCOD8047401 Si02
#       8
#     2   2   2   2   2   2   2   2
#     4  11  23  46  75 111 145 194 244 314 385 459
#     4  11  24  45  72 112 146 188 248 311 393 449
#     4  12  28  50  79 111 150 210 258 316 384 456
#     4  12  30  50  76 110 156 208 263 314 373 464
#     4  12  26  46  79 110 153 198 254 319 396 456
#     4  11  28  47  77 111 151 199 258 311 381 452
#     4  11  22  49  76 106 147 193 246 315 386 441
#     4  12  29  45  74 115 154 202 251 324 382 459
#
# _framework density 23.424050999999999
#
# number of rings (size 3 to 8) (size 9 to 14) (size 15 to 20)
#    0.000    0.500    3.750    3.000   12.250    1.000 
#    0.000    0.000    0.000    0.000    0.000    0.000 
#    0.000    0.000    0.000    0.000    0.000    0.000 
#
# Total GULP energy -198481.368595 kJ/mol
# GULP energy per Si atom -12405.085537 kJ/mol
# Density = 2.337074 g / cm^3
# Si number density = 23.424051 Si / 1000 Ang^3
#
#
#
# Elastic Constant Matrix: (Units=GPa)
#
#
# Indices 1 2 3 4 5 6 
#
# 1 101.5725 36.2594 30.0299 0.0000 -3.0756 0.0000
# 2 36.2594 128.5558 30.7603 0.0000 -3.9775 0.0000
# 3 30.0299 30.7603 83.1315 0.0000 -9.8291 0.0000
# 4 0.0000 0.0000 0.0000 41.7573 0.0000 -0.7911
# 5 -3.0756 -3.9775 -9.8291 0.0000 24.8890 0.0000
# 6 0.0000 0.0000 0.0000 -0.7911 0.0000 42.8010
#
#
#
# Elastic Compliance Matrix: (Units=1/GPa)
#
#
# Indices 1 2 3 4 5 6 
#
# 1 0.011721 -0.002516 -0.003335 0.000000 -0.000271 0.000000
# 2 -0.002516 0.009075 -0.002428 0.000000 0.000181 0.000000
# 3 -0.003335 -0.002428 0.014725 0.000000 0.005015 0.000000
# 4 0.000000 0.000000 0.000000 0.023956 0.000000 0.000443
# 5 -0.000271 0.000181 0.005015 0.000000 0.042154 0.000000
# 6 0.000000 0.000000 0.000000 0.000443 0.000000 0.023372
#
#
# Mechanical properties :
#
#
# Convention : Reuss Voigt Hill
#
# Bulk Modulus (GPa) = 52.73326 56.37321 54.55324
# Shear Modulus (GPa) = 33.81051 36.30349 35.05700
#
# Velocity S-wave (km/s) = 3.80335 3.94107 3.87282
# Velocity P-wave (km/s) = 6.46905 6.69537 6.58318
#
# Compressibility (1/GPa) = 0.01896336
#
# Stress axis : x y z
#
# Youngs Moduli (GPa) = 85.31487 110.19388 67.91146
#
# Poissons Ratio (x) = 0.27729 0.22649
# Poissons Ratio (y) = 0.21469 0.16486
# Poissons Ratio (z) = 0.28453 0.26750
#
# Static dielectric constant tensor:
#      x y z
#    x 4.139100 0.000000 -0.106830 
#    y 0.000000 4.193730 0.000000 
#    z -0.106830 0.000000 4.202610 
# 
# 
# High freq. dielectric constant tensor:
#      x y z
#    x 1.928760 0.000000 -0.002140 
#    y 0.000000 1.936950 0.000000 
#    z -0.002140 0.000000 1.924940 
# 
# From -- ./inp_files/10551.got.cif
#   From: 2010.03.12/outbox.cif.g09.slc.cpg/sg4_6_cif.got.tgz:10551.got - 2010.03.31 09:31:35.
