data_PCOD8047342
_publ_section_title
;
Structure prediction by ZEFSAII (Michael W. Deem and Ramdas Pophale) SiO2 
 PCOD8047342
Probable space group: P 21
;
_chemical_formula_sum "Si O2"
_cell_formula_units_Z 12
_cell_length_a 12.003997
_cell_length_b 7.718124
_cell_length_c 9.504917
_cell_angle_alpha 90.000000
_cell_angle_beta 141.491890
_cell_angle_gamma 90.000000
_cell_volume 548.293120
_symmetry_space_group_name_H-M "P 21"
_symmetry_group_IT_number 4
_symmetry_cell_setting 'monoclinic'
loop_
_space_group_symop_operation_xyz
x,y,z
-x,1/2+y,-z
loop_
_atom_site_type_symbol
_atom_site_label
_atom_site_fract_x
_atom_site_fract_y
_atom_site_fract_z
Si Si1 0.047017 0.876820 0.132803
Si Si2 0.639209 0.132848 0.537586
Si Si3 0.666630 0.878251 0.807472
Si Si4 0.669016 0.893459 0.315898
Si Si5 0.009738 0.742302 0.795750
Si Si6 0.641054 0.118417 0.020554
O O1 0.204680 0.762582 0.355181
O O2 0.072349 0.071298 0.213147
O O3 0.864108 0.796846 0.017880
O O4 0.045884 0.876583 0.960059
O O5 0.459829 0.239697 0.390416
O O6 0.698149 0.046495 0.740859
O O7 0.592759 0.987951 0.377967
O O8 0.585794 0.949951 0.873205
O O9 0.862574 0.813770 0.541450
O O10 0.526379 0.747645 0.129273
O O11 0.693176 0.041825 0.222941
O O12 0.188689 0.712544 0.881741
#
# Coordination Sequence:
#
# PCOD8047342 Si02
#       6
#     2   2   2   2   2   2
#     4  11  22  42  67 103 137 171 225 289 331 393
#     4  12  24  39  69  99 133 179 229 278 340 396
#     4  11  24  40  67 100 132 180 224 280 338 396
#     4  12  26  46  67  99 135 184 225 282 339 407
#     4  11  24  43  72 101 138 178 230 278 344 400
#     4  11  26  46  66  98 139 178 227 277 342 404
#
# _framework density 21.886105000000001
#
# number of rings (size 3 to 8) (size 9 to 14) (size 15 to 20)
#    0.000    0.667    5.000    3.000    2.333    5.333 
#    0.000    0.000    0.000    0.000    0.000    0.000 
#    0.000    0.000    0.000    0.000    0.000    0.000 
#
# Total GULP energy -148818.411024 kJ/mol
# GULP energy per Si atom -12401.534252 kJ/mol
# Density = 2.183629 g / cm^3
# Si number density = 21.886105 Si / 1000 Ang^3
#
#
#
# Elastic Constant Matrix: (Units=GPa)
#
#
# Indices 1 2 3 4 5 6 
#
# 1 72.7576 16.2460 35.2700 0.0000 7.4222 0.0000
# 2 16.2460 51.0363 39.9436 0.0000 4.2187 0.0000
# 3 35.2700 39.9436 112.6844 0.0000 0.3217 0.0000
# 4 0.0000 0.0000 0.0000 44.8717 0.0000 -11.0914
# 5 7.4222 4.2187 0.3217 0.0000 30.2658 0.0000
# 6 0.0000 0.0000 0.0000 -11.0914 0.0000 41.8299
#
#
#
# Elastic Compliance Matrix: (Units=1/GPa)
#
#
# Indices 1 2 3 4 5 6 
#
# 1 0.016740 -0.001268 -0.004779 0.000000 -0.003878 0.000000
# 2 -0.001268 0.027629 -0.009387 0.000000 -0.003440 0.000000
# 3 -0.004779 -0.009387 0.013691 0.000000 0.002335 0.000000
# 4 0.000000 0.000000 0.000000 0.023849 0.000000 0.006324
# 5 -0.003878 -0.003440 0.002335 0.000000 0.034446 0.000000
# 6 0.000000 0.000000 0.000000 0.006324 0.000000 0.025583
#
#
# Mechanical properties :
#
#
# Convention : Reuss Voigt Hill
#
# Bulk Modulus (GPa) = 36.77600 46.59972 41.68786
# Shear Modulus (GPa) = 27.49240 33.06141 30.27690
#
# Velocity S-wave (km/s) = 3.54808 3.89088 3.72342
# Velocity P-wave (km/s) = 5.79870 6.44386 6.12978
#
# Compressibility (1/GPa) = 0.02719164
#
# Stress axis : x y z
#
# Youngs Moduli (GPa) = 59.73866 36.19442 73.04115
#
# Poissons Ratio (x) = 0.04589 0.34906
# Poissons Ratio (y) = 0.07573 0.68563
# Poissons Ratio (z) = 0.28549 0.33976
#
# Static dielectric constant tensor:
#      x y z
#    x 3.875150 0.000000 0.002530 
#    y 0.000000 3.961370 0.000000 
#    z 0.002530 0.000000 3.975310 
# 
# 
# High freq. dielectric constant tensor:
#      x y z
#    x 1.854920 0.000000 0.009210 
#    y 0.000000 1.864320 0.000000 
#    z 0.009210 0.000000 1.869480 
# 
# From -- ./inp_files/7439.got.cif
#   From: 2010.03.12/outbox.cif.g09.slc.cpg/sg4_4_cif.got.tgz:7439.got - 2010.03.31 09:31:35.
