data_PCOD8047018
_publ_section_title
;
Structure prediction by ZEFSAII (Michael W. Deem and Ramdas Pophale) SiO2 
 PCOD8047018
Probable space group: P 21
;
_chemical_formula_sum "Si O2"
_cell_formula_units_Z 14
_cell_length_a 10.414921
_cell_length_b 6.777605
_cell_length_c 9.949715
_cell_angle_alpha 90.000000
_cell_angle_beta 43.155950
_cell_angle_gamma 90.000000
_cell_volume 480.386042
_symmetry_space_group_name_H-M "P 21"
_symmetry_group_IT_number 4
_symmetry_cell_setting 'monoclinic'
loop_
_space_group_symop_operation_xyz
x,y,z
-x,1/2+y,-z
loop_
_atom_site_type_symbol
_atom_site_label
_atom_site_fract_x
_atom_site_fract_y
_atom_site_fract_z
Si Si1 0.251690 0.352750 0.791390
Si Si2 0.861258 0.137967 0.438295
Si Si3 0.659136 0.643556 0.743029
Si Si4 0.684520 0.911537 0.966763
Si Si5 0.518274 0.901644 0.627833
Si Si6 0.964859 0.215118 0.650689
Si Si7 0.146185 0.784707 0.833613
O O1 0.388005 0.277853 0.568726
O O2 0.264504 0.590445 0.775304
O O3 0.315201 0.293684 0.892641
O O4 0.033972 0.294712 0.931010
O O5 0.642732 0.092044 0.570573
O O6 0.984357 0.935281 0.337146
O O7 0.926908 0.285865 0.267145
O O8 0.865275 0.237665 0.580849
O O9 0.749430 0.767480 0.797591
O O10 0.513039 0.765448 0.763715
O O11 0.841160 0.589027 0.514034
O O12 0.534873 0.464636 0.894844
O O13 0.823653 0.102068 0.858841
O O14 0.299984 0.958516 0.752698
#
# Coordination Sequence:
#
# PCOD8047018 Si02
#       7
#     2   2   2   2   2   2   2
#     4  11  27  45  74 108 139 197 239 298 367 430
#     4  10  24  45  76 107 142 200 235 300 375 418
#     4  11  26  45  74 106 141 193 237 303 366 428
#     4  12  26  47  71 109 143 187 251 293 365 441
#     4  10  23  49  67 103 148 187 237 288 367 429
#     4  11  23  47  73 103 152 187 246 301 366 432
#     4  11  25  46  75 108 145 189 243 301 362 446
#
# _framework density 29.143229999999999
#
# number of rings (size 3 to 8) (size 9 to 14) (size 15 to 20)
#    0.000    1.143    4.286    0.857    8.000    4.571 
#    2.571    0.000    0.000    0.000    0.000    0.000 
#    0.000    0.000    0.000    0.000    0.000    0.000 
#
# Total GULP energy -173560.101004 kJ/mol
# GULP energy per Si atom -12397.150072 kJ/mol
# Density = 2.907690 g / cm^3
# Si number density = 29.143230 Si / 1000 Ang^3
#
#
#
# Elastic Constant Matrix: (Units=GPa)
#
#
# Indices 1 2 3 4 5 6 
#
# 1 133.9068 -2.3713 36.4680 0.0000 2.2157 0.0000
# 2 -2.3713 27.3692 -3.7295 0.0000 -7.4527 0.0000
# 3 36.4680 -3.7295 127.3558 0.0000 -15.4271 0.0000
# 4 0.0000 0.0000 0.0000 34.9272 0.0000 -2.8669
# 5 2.2157 -7.4527 -15.4271 0.0000 55.6853 0.0000
# 6 0.0000 0.0000 0.0000 -2.8669 0.0000 43.3984
#
#
#
# Elastic Compliance Matrix: (Units=1/GPa)
#
#
# Indices 1 2 3 4 5 6 
#
# 1 0.008154 0.000103 -0.002452 0.000000 -0.000990 0.000000
# 2 0.000103 0.038317 0.001773 0.000000 0.005615 0.000000
# 3 -0.002452 0.001773 0.008947 0.000000 0.002813 0.000000
# 4 0.000000 0.000000 0.000000 0.028787 0.000000 0.001902
# 5 -0.000990 0.005615 0.002813 0.000000 0.019528 0.000000
# 6 0.000000 0.000000 0.000000 0.001902 0.000000 0.023168
#
#
# Mechanical properties :
#
#
# Convention : Reuss Voigt Hill
#
# Bulk Modulus (GPa) = 18.42792 38.81846 28.62319
# Shear Modulus (GPa) = 34.21341 44.01984 39.11662
#
# Velocity S-wave (km/s) = 3.43005 3.89069 3.66761
# Velocity P-wave (km/s) = 4.69297 5.79069 5.27048
#
# Compressibility (1/GPa) = 0.05426548
#
# Stress axis : x y z
#
# Youngs Moduli (GPa) = 122.64257 26.09806 111.77208
#
# Poissons Ratio (x) = -0.00268 0.27403
# Poissons Ratio (y) = -0.01261 -0.19815
# Poissons Ratio (z) = 0.30068 -0.04627
#
# Static dielectric constant tensor:
#      x y z
#    x 5.531260 0.000000 0.060830 
#    y 0.000000 4.898500 0.000000 
#    z 0.060830 0.000000 5.375530 
# 
# 
# High freq. dielectric constant tensor:
#      x y z
#    x 2.201110 0.000000 -0.005060 
#    y 0.000000 2.161330 0.000000 
#    z -0.005060 0.000000 2.193550 
# 
# From -- ./inp_files/11963.got.cif
#   From: 2010.03.12/outbox.cif.g09.slc.cpg/sg4_6_cif.got.tgz:11963.got - 2010.03.31 09:31:35.
