data_PCOD8047883
_publ_section_title
;
Structure prediction by ZEFSAII (Michael W. Deem and Ramdas Pophale) SiO2 
 PCOD8047883
Probable space group: P 21
;
_chemical_formula_sum "Si O2"
_cell_formula_units_Z 16
_cell_length_a 4.905291
_cell_length_b 15.829783
_cell_length_c 9.271500
_cell_angle_alpha 90.000000
_cell_angle_beta 75.566266
_cell_angle_gamma 90.000000
_cell_volume 697.205689
_symmetry_space_group_name_H-M "P 21"
_symmetry_group_IT_number 4
_symmetry_cell_setting 'monoclinic'
loop_
_space_group_symop_operation_xyz
x,y,z
-x,1/2+y,-z
loop_
_atom_site_type_symbol
_atom_site_label
_atom_site_fract_x
_atom_site_fract_y
_atom_site_fract_z
Si Si1 0.085243 0.293030 0.263320
Si Si2 0.026989 0.945726 0.520161
Si Si3 0.570036 0.610532 0.093893
Si Si4 0.449614 0.683921 0.664286
Si Si5 0.033960 0.887555 0.195849
Si Si6 0.395460 0.300263 0.924449
Si Si7 0.504894 0.056062 0.580058
Si Si8 0.843688 0.060489 0.082807
O O1 0.098042 0.379451 0.350362
O O2 0.256322 0.217702 0.315240
O O3 0.762968 0.262475 0.302334
O O4 0.202871 0.312585 0.090165
O O5 0.052182 0.900175 0.363636
O O6 0.804034 0.815720 0.188498
O O7 0.827076 0.026892 0.539458
O O8 0.467958 0.707511 0.109457
O O9 0.611594 0.570287 0.244795
O O10 0.338572 0.555211 0.039579
O O11 0.871785 0.613175 0.976190
O O12 0.505672 0.646442 0.498501
O O13 0.346700 0.605899 0.773740
O O14 0.344712 0.864776 0.099264
O O15 0.329747 0.981607 0.526324
O O16 0.925545 0.968188 0.123126
#
# Coordination Sequence:
#
# PCOD8047883 Si02
#       8
#     2   2   2   2   2   2   2   2
#     4  12  27  46  73 104 146 189 233 296 361 429
#     4  12  28  49  69 107 147 188 238 291 360 435
#     4  12  27  46  74 105 143 183 244 300 350 421
#     4  12  24  49  73 100 138 193 237 289 353 428
#     4  12  28  44  75 102 147 188 236 293 363 428
#     4  12  26  47  70 109 143 186 239 293 360 428
#     4  12  28  47  73 105 144 187 243 296 350 427
#     4  12  24  48  71 102 138 190 240 292 353 422
#
# _framework density 22.948753
#
# number of rings (size 3 to 8) (size 9 to 14) (size 15 to 20)
#    0.000    0.000    3.750    5.250   10.500    0.000 
#    0.000    0.000    0.000    0.000    0.000    0.000 
#    0.000    0.000    0.000    0.000    0.000    0.000 
#
# Total GULP energy -198547.709646 kJ/mol
# GULP energy per Si atom -12409.231853 kJ/mol
# Density = 2.289652 g / cm^3
# Si number density = 22.948753 Si / 1000 Ang^3
#
#
#
# Elastic Constant Matrix: (Units=GPa)
#
#
# Indices 1 2 3 4 5 6 
#
# 1 105.2036 20.0193 34.1435 0.0000 8.7038 0.0000
# 2 20.0193 71.6891 40.8307 0.0000 6.3178 0.0000
# 3 34.1435 40.8307 93.0361 0.0000 18.8206 0.0000
# 4 0.0000 0.0000 0.0000 43.0760 0.0000 -0.1539
# 5 8.7038 6.3178 18.8206 0.0000 37.3381 0.0000
# 6 0.0000 0.0000 0.0000 -0.1539 0.0000 51.6362
#
#
#
# Elastic Compliance Matrix: (Units=1/GPa)
#
#
# Indices 1 2 3 4 5 6 
#
# 1 0.010860 -0.001040 -0.003399 0.000000 -0.000642 0.000000
# 2 -0.001040 0.018736 -0.008072 0.000000 0.001141 0.000000
# 3 -0.003399 -0.008072 0.016817 0.000000 -0.006318 0.000000
# 4 0.000000 0.000000 0.000000 0.023215 0.000000 0.000069
# 5 -0.000642 0.001141 -0.006318 0.000000 0.029924 0.000000
# 6 0.000000 0.000000 0.000000 0.000069 0.000000 0.019366
#
#
# Mechanical properties :
#
#
# Convention : Reuss Voigt Hill
#
# Bulk Modulus (GPa) = 46.74955 51.10177 48.92566
# Shear Modulus (GPa) = 33.09723 38.07241 35.58482
#
# Velocity S-wave (km/s) = 3.80178 4.07752 3.94206
# Velocity P-wave (km/s) = 6.29975 6.66966 6.48734
#
# Compressibility (1/GPa) = 0.02139058
#
# Stress axis : x y z
#
# Youngs Moduli (GPa) = 92.08479 53.37208 59.46494
#
# Poissons Ratio (x) = 0.05551 0.20212
# Poissons Ratio (y) = 0.09577 0.48000
# Poissons Ratio (z) = 0.31300 0.43082
#
# Static dielectric constant tensor:
#      x y z
#    x 4.283650 0.000000 0.127550 
#    y 0.000000 4.066450 0.000000 
#    z 0.127550 0.000000 4.153620 
# 
# 
# High freq. dielectric constant tensor:
#      x y z
#    x 1.923700 0.000000 0.004320 
#    y 0.000000 1.911530 0.000000 
#    z 0.004320 0.000000 1.910480 
# 
# From -- ./inp_files/4966.got.cif
#   From: 2010.03.12/outbox.cif.g09.slc.cpg/sg4_3_cif.got.tgz:4966.got - 2010.03.31 09:31:35.
