data_PCOD8047758
_publ_section_title
;
Structure prediction by ZEFSAII (Michael W. Deem and Ramdas Pophale) SiO2 
 PCOD8047758
Probable space group: P 21
;
_chemical_formula_sum "Si O2"
_cell_formula_units_Z 16
_cell_length_a 9.739266
_cell_length_b 5.251761
_cell_length_c 21.442961
_cell_angle_alpha 90.000000
_cell_angle_beta 36.472344
_cell_angle_gamma 90.000000
_cell_volume 651.958714
_symmetry_space_group_name_H-M "P 21"
_symmetry_group_IT_number 4
_symmetry_cell_setting 'monoclinic'
loop_
_space_group_symop_operation_xyz
x,y,z
-x,1/2+y,-z
loop_
_atom_site_type_symbol
_atom_site_label
_atom_site_fract_x
_atom_site_fract_y
_atom_site_fract_z
Si Si1 0.070744 0.318720 0.804081
Si Si2 0.762940 0.003780 0.530686
Si Si3 0.779652 0.226105 0.650698
Si Si4 0.288359 0.835131 0.675890
Si Si5 0.583616 0.279215 0.936872
Si Si6 0.902690 0.317319 0.004399
Si Si7 0.015636 0.838714 0.651360
Si Si8 0.562363 0.551647 0.823474
O O1 0.209997 0.564207 0.730237
O O2 0.859385 0.266034 0.834293
O O3 0.226938 0.065944 0.745206
O O4 0.972856 0.370195 0.908107
O O5 0.567835 0.828254 0.569288
O O6 0.997751 0.858917 0.460294
O O7 0.664317 0.080502 0.635000
O O8 0.820333 0.234474 0.463302
O O9 0.582067 0.417533 0.748452
O O10 0.868153 0.072331 0.678542
O O11 0.181971 0.906579 0.647693
O O12 0.482290 0.353117 0.906205
O O13 0.509832 0.499530 0.012572
O O14 0.626842 0.274555 0.111888
O O15 0.964568 0.565149 0.021440
O O16 0.819260 0.645839 0.747733
#
# Coordination Sequence:
#
# PCOD8047758 Si02
#       8
#     2   2   2   2   2   2   2   2
#     4  12  27  50  72 115 152 196 253 307 385 460
#     4  11  27  48  76 109 152 203 256 325 381 465
#     4  11  25  49  75 110 149 204 263 305 397 460
#     4  12  29  47  80 114 157 200 253 325 387 453
#     4  12  25  45  78 108 147 195 250 311 378 445
#     4  12  30  50  74 113 159 205 256 310 382 459
#     4  11  26  47  77 112 151 199 263 315 394 460
#     4  11  27  46  80 107 149 202 254 322 374 468
#
# _framework density 24.541432
#
# number of rings (size 3 to 8) (size 9 to 14) (size 15 to 20)
#    0.000    0.500    3.750    2.250   12.250    1.000 
#    0.000    0.000    0.000    0.000    0.000    0.000 
#    0.000    0.000    0.000    0.000    0.000    0.000 
#
# Total GULP energy -198425.527835 kJ/mol
# GULP energy per Si atom -12401.595490 kJ/mol
# Density = 2.448557 g / cm^3
# Si number density = 24.541432 Si / 1000 Ang^3
#
#
#
# Elastic Constant Matrix: (Units=GPa)
#
#
# Indices 1 2 3 4 5 6 
#
# 1 98.8015 0.0713 28.6199 0.0000 8.2917 0.0000
# 2 0.0713 80.2910 6.8416 0.0000 -5.0793 0.0000
# 3 28.6199 6.8416 80.8648 0.0000 6.4377 0.0000
# 4 0.0000 0.0000 0.0000 36.7132 0.0000 3.0462
# 5 8.2917 -5.0793 6.4377 0.0000 30.7633 0.0000
# 6 0.0000 0.0000 0.0000 3.0462 0.0000 38.5706
#
#
#
# Elastic Compliance Matrix: (Units=1/GPa)
#
#
# Indices 1 2 3 4 5 6 
#
# 1 0.011434 0.000179 -0.003884 0.000000 -0.002240 0.000000
# 2 0.000179 0.012715 -0.001324 0.000000 0.002328 0.000000
# 3 -0.003884 -0.001324 0.014021 0.000000 -0.002106 0.000000
# 4 0.000000 0.000000 0.000000 0.027418 0.000000 -0.002165
# 5 -0.002240 0.002328 -0.002106 0.000000 0.033935 0.000000
# 6 0.000000 0.000000 0.000000 -0.002165 0.000000 0.026097
#
#
# Mechanical properties :
#
#
# Convention : Reuss Voigt Hill
#
# Bulk Modulus (GPa) = 35.57289 36.78031 36.17660
# Shear Modulus (GPa) = 34.47133 36.17107 35.32120
#
# Velocity S-wave (km/s) = 3.75189 3.84328 3.79786
# Velocity P-wave (km/s) = 5.77022 5.89185 5.83135
#
# Compressibility (1/GPa) = 0.02811129
#
# Stress axis : x y z
#
# Youngs Moduli (GPa) = 87.45766 78.64924 71.32392
#
# Poissons Ratio (x) = -0.01409 0.27700
# Poissons Ratio (y) = -0.01566 0.09447
# Poissons Ratio (z) = 0.33965 0.10417
#
# Static dielectric constant tensor:
#      x y z
#    x 4.392680 0.000000 -0.087000 
#    y 0.000000 4.451140 0.000000 
#    z -0.087000 0.000000 4.441780 
# 
# 
# High freq. dielectric constant tensor:
#      x y z
#    x 1.980890 0.000000 0.001210 
#    y 0.000000 1.976720 0.000000 
#    z 0.001210 0.000000 1.985520 
# 
# From -- ./inp_files/9996.got.cif
#   From: 2010.03.12/outbox.cif.g09.slc.cpg/sg4_5_cif.got.tgz:9996.got - 2010.03.31 09:31:35.
