data_PCOD8047600
_publ_section_title
;
Structure prediction by ZEFSAII (Michael W. Deem and Ramdas Pophale) SiO2 
 PCOD8047600
Probable space group: P 21
;
_chemical_formula_sum "Si O2"
_cell_formula_units_Z 14
_cell_length_a 9.940601
_cell_length_b 5.855182
_cell_length_c 14.577001
_cell_angle_alpha 90.000000
_cell_angle_beta 136.341155
_cell_angle_gamma 90.000000
_cell_volume 585.731647
_symmetry_space_group_name_H-M "P 21"
_symmetry_group_IT_number 4
_symmetry_cell_setting 'monoclinic'
loop_
_space_group_symop_operation_xyz
x,y,z
-x,1/2+y,-z
loop_
_atom_site_type_symbol
_atom_site_label
_atom_site_fract_x
_atom_site_fract_y
_atom_site_fract_z
Si Si1 0.534268 0.250000 0.325311
Si Si2 0.778022 0.108790 0.808907
Si Si3 0.274125 0.381200 0.686245
Si Si4 0.927161 0.242905 0.070270
Si Si5 0.866971 0.551012 0.537571
Si Si6 0.267986 0.012624 0.324541
Si Si7 0.525152 0.210726 0.964067
O O1 0.389030 0.453280 0.223942
O O2 0.757565 0.328133 0.445504
O O3 0.548992 0.052756 0.255384
O O4 0.450592 0.165367 0.382122
O O5 0.679889 0.250428 0.676293
O O6 0.863069 0.258318 0.933375
O O7 0.952508 0.971449 0.847450
O O8 0.188328 0.267615 0.551949
O O9 0.372874 0.200473 0.803937
O O10 0.098426 0.511057 0.651675
O O11 0.748801 0.222201 0.049518
O O12 0.077427 0.039089 0.165500
O O13 0.785025 0.585335 0.599304
O O14 0.493462 0.461388 0.996767
#
# Coordination Sequence:
#
# PCOD8047600 Si02
#       7
#     2   2   2   2   2   2   2
#     4  11  26  46  75 105 148 194 255 314 393 462
#     4  11  24  45  76 108 145 198 253 324 392 461
#     4  12  28  51  77 109 154 207 257 321 400 468
#     4  11  24  44  76 106 154 195 255 316 397 453
#     4  12  27  48  74 105 153 197 262 316 390 468
#     4  11  26  44  74 112 144 199 256 325 382 469
#     4  12  31  50  82 117 160 206 268 324 392 477
#
# _framework density 23.901727999999999
#
# number of rings (size 3 to 8) (size 9 to 14) (size 15 to 20)
#    0.000    0.571    2.857    3.429   14.000    2.286 
#    0.000    0.000    0.000    0.000    0.000    0.000 
#    0.000    0.000    0.000    0.000    0.000    0.000 
#
# Total GULP energy -173479.093368 kJ/mol
# GULP energy per Si atom -12391.363812 kJ/mol
# Density = 2.384733 g / cm^3
# Si number density = 23.901728 Si / 1000 Ang^3
#
#
#
# Elastic Constant Matrix: (Units=GPa)
#
#
# Indices 1 2 3 4 5 6 
#
# 1 114.1797 19.6292 4.9063 0.0000 13.7297 0.0000
# 2 19.6292 93.6315 10.9414 0.0000 -2.4247 0.0000
# 3 4.9063 10.9414 57.5436 0.0000 -3.4655 0.0000
# 4 0.0000 0.0000 0.0000 33.1589 0.0000 -0.7000
# 5 13.7297 -2.4247 -3.4655 0.0000 44.2120 0.0000
# 6 0.0000 0.0000 0.0000 -0.7000 0.0000 31.3595
#
#
#
# Elastic Compliance Matrix: (Units=1/GPa)
#
#
# Indices 1 2 3 4 5 6 
#
# 1 0.009502 -0.002001 -0.000617 0.000000 -0.003109 0.000000
# 2 -0.002001 0.011352 -0.001922 0.000000 0.001093 0.000000
# 3 -0.000617 -0.001922 0.017886 0.000000 0.001488 0.000000
# 4 0.000000 0.000000 0.000000 0.030172 0.000000 0.000673
# 5 -0.003109 0.001093 0.001488 0.000000 0.023760 0.000000
# 6 0.000000 0.000000 0.000000 0.000673 0.000000 0.031903
#
#
# Mechanical properties :
#
#
# Convention : Reuss Voigt Hill
#
# Bulk Modulus (GPa) = 33.71401 37.36762 35.54082
# Shear Modulus (GPa) = 34.83278 37.07127 35.95202
#
# Velocity S-wave (km/s) = 3.82164 3.94253 3.88256
# Velocity P-wave (km/s) = 5.79734 6.03262 5.91615
#
# Compressibility (1/GPa) = 0.02966126
#
# Stress axis : x y z
#
# Youngs Moduli (GPa) = 105.23657 88.08640 55.91014
#
# Poissons Ratio (x) = 0.17622 0.03450
# Poissons Ratio (y) = 0.21053 0.10747
# Poissons Ratio (z) = 0.06494 0.16932
#
# Static dielectric constant tensor:
#      x y z
#    x 4.336790 0.000000 0.137520 
#    y 0.000000 4.611210 0.000000 
#    z 0.137520 0.000000 4.284270 
# 
# 
# High freq. dielectric constant tensor:
#      x y z
#    x 1.960210 0.000000 0.013720 
#    y 0.000000 1.953120 0.000000 
#    z 0.013720 0.000000 1.943480 
# 
# From -- ./inp_files/7271.got.cif
#   From: 2010.03.12/outbox.cif.g09.slc.cpg/sg4_4_cif.got.tgz:7271.got - 2010.03.31 09:31:35.
