data_PCOD8047467
_publ_section_title
;
Structure prediction by ZEFSAII (Michael W. Deem and Ramdas Pophale) SiO2 
 PCOD8047467
Probable space group: P 21
;
_chemical_formula_sum "Si O2"
_cell_formula_units_Z 12
_cell_length_a 9.176808
_cell_length_b 5.130926
_cell_length_c 17.914496
_cell_angle_alpha 90.000000
_cell_angle_beta 37.327577
_cell_angle_gamma 90.000000
_cell_volume 511.482237
_symmetry_space_group_name_H-M "P 21"
_symmetry_group_IT_number 4
_symmetry_cell_setting 'monoclinic'
loop_
_space_group_symop_operation_xyz
x,y,z
-x,1/2+y,-z
loop_
_atom_site_type_symbol
_atom_site_label
_atom_site_fract_x
_atom_site_fract_y
_atom_site_fract_z
Si Si1 0.676537 0.421800 0.709014
Si Si2 0.148419 0.400241 0.962038
Si Si3 0.638750 0.945659 0.458629
Si Si4 0.951898 0.120617 0.711820
Si Si5 0.342999 0.353359 0.049183
Si Si6 0.107433 0.750846 0.531039
O O1 0.392210 0.463357 0.816327
O O2 0.722212 0.261037 0.767225
O O3 0.795110 0.272154 0.591551
O O4 0.819476 0.694820 0.652526
O O5 0.215102 0.358206 0.021157
O O6 0.030729 0.141556 0.975549
O O7 0.437716 0.719881 0.547668
O O8 0.870045 0.827886 0.319179
O O9 0.736324 0.009509 0.501723
O O10 0.864259 0.906780 0.805827
O O11 0.130645 0.000418 0.575367
O O12 0.451261 0.072787 0.026019
#
# Coordination Sequence:
#
# PCOD8047467 Si02
#       6
#     2   2   2   2   2   2
#     4  11  24  45  75 108 148 188 253 303 373 455
#     4  12  29  53  73 112 157 199 251 315 380 435
#     4  11  24  45  64 102 150 182 234 293 371 448
#     4  11  24  45  76 104 141 192 255 297 366 450
#     4  12  26  49  81 104 142 199 256 307 354 451
#     4  11  23  43  77 110 142 194 237 315 372 435
#
# _framework density 23.461224999999999
#
# number of rings (size 3 to 8) (size 9 to 14) (size 15 to 20)
#    0.000    0.667    5.000    2.000    4.667    1.333 
#    6.000    0.000    0.000    0.000    0.000    0.000 
#    0.000    0.000    0.000    0.000    0.000    0.000 
#
# Total GULP energy -148720.594733 kJ/mol
# GULP energy per Si atom -12393.382894 kJ/mol
# Density = 2.340783 g / cm^3
# Si number density = 23.461225 Si / 1000 Ang^3
#
#
#
# Elastic Constant Matrix: (Units=GPa)
#
#
# Indices 1 2 3 4 5 6 
#
# 1 119.7170 35.0323 33.3196 0.0000 -13.3953 0.0000
# 2 35.0323 96.9817 1.7974 0.0000 -11.7573 0.0000
# 3 33.3196 1.7974 80.2280 0.0000 -9.8420 0.0000
# 4 0.0000 0.0000 0.0000 41.1093 0.0000 -7.9383
# 5 -13.3953 -11.7573 -9.8420 0.0000 36.7082 0.0000
# 6 0.0000 0.0000 0.0000 -7.9383 0.0000 44.6267
#
#
#
# Elastic Compliance Matrix: (Units=1/GPa)
#
#
# Indices 1 2 3 4 5 6 
#
# 1 0.010758 -0.003609 -0.004185 0.000000 0.001648 0.000000
# 2 -0.003609 0.011941 0.001591 0.000000 0.002934 0.000000
# 3 -0.004185 0.001591 0.014520 0.000000 0.002875 0.000000
# 4 0.000000 0.000000 0.000000 0.025191 0.000000 0.004481
# 5 0.001648 0.002934 0.002875 0.000000 0.029554 0.000000
# 6 0.000000 0.000000 0.000000 0.004481 0.000000 0.023205
#
#
# Mechanical properties :
#
#
# Convention : Reuss Voigt Hill
#
# Bulk Modulus (GPa) = 40.30023 48.58061 44.44042
# Shear Modulus (GPa) = 36.80661 39.60735 38.20698
#
# Velocity S-wave (km/s) = 3.96514 4.11323 4.03987
# Velocity P-wave (km/s) = 6.17882 6.58103 6.38309
#
# Compressibility (1/GPa) = 0.02481376
#
# Stress axis : x y z
#
# Youngs Moduli (GPa) = 92.95217 83.74466 68.87219
#
# Poissons Ratio (x) = 0.30222 0.28823
# Poissons Ratio (y) = 0.33545 -0.10959
# Poissons Ratio (z) = 0.38901 -0.13326
#
# Static dielectric constant tensor:
#      x y z
#    x 4.465810 0.000000 -0.194770 
#    y 0.000000 4.553690 0.000000 
#    z -0.194770 0.000000 4.051080 
# 
# 
# High freq. dielectric constant tensor:
#      x y z
#    x 1.935390 0.000000 -0.014540 
#    y 0.000000 1.946390 0.000000 
#    z -0.014540 0.000000 1.915590 
# 
# From -- ./inp_files/8776.got.cif
#   From: 2010.03.12/outbox.cif.g09.slc.cpg/sg4_5_cif.got.tgz:8776.got - 2010.03.31 09:31:35.
