data_PCOD8047671
_publ_section_title
;
Structure prediction by ZEFSAII (Michael W. Deem and Ramdas Pophale) SiO2 
 PCOD8047671
Probable space group: P 21
;
_chemical_formula_sum "Si O2"
_cell_formula_units_Z 16
_cell_length_a 9.192341
_cell_length_b 8.944671
_cell_length_c 16.746962
_cell_angle_alpha 90.000000
_cell_angle_beta 28.765063
_cell_angle_gamma 90.000000
_cell_volume 662.627595
_symmetry_space_group_name_H-M "P 21"
_symmetry_group_IT_number 4
_symmetry_cell_setting 'monoclinic'
loop_
_space_group_symop_operation_xyz
x,y,z
-x,1/2+y,-z
loop_
_atom_site_type_symbol
_atom_site_label
_atom_site_fract_x
_atom_site_fract_y
_atom_site_fract_z
Si Si1 0.627961 0.817930 0.298487
Si Si2 0.482867 0.534110 0.776079
Si Si3 0.781845 0.176166 0.368127
Si Si4 0.276823 0.928964 0.006397
Si Si5 0.422868 0.227468 0.027238
Si Si6 0.802313 0.520652 0.133336
Si Si7 0.897766 0.413713 0.700665
Si Si8 0.463263 0.270480 0.371110
O O1 0.420746 0.756795 0.468560
O O2 0.749418 0.692196 0.179391
O O3 0.423496 0.926054 0.342512
O O4 0.917578 0.908290 0.193648
O O5 0.747145 0.531469 0.713521
O O6 0.470541 0.700613 0.747256
O O7 0.157462 0.484366 0.966078
O O8 0.581288 0.162727 0.384839
O O9 0.072778 0.277945 0.204145
O O10 0.892227 0.010999 0.341313
O O11 0.337541 0.984282 0.887150
O O12 0.429935 0.767355 0.955761
O O13 0.412836 0.052542 0.004544
O O14 0.620545 0.322635 0.871079
O O15 0.639293 0.427798 0.282083
O O16 0.107140 0.294972 0.554694
#
# Coordination Sequence:
#
# PCOD8047671 Si02
#       8
#     2   2   2   2   2   2   2   2
#     4  11  25  48  79 107 157 197 259 311 394 458
#     4  11  26  45  77 113 149 200 252 320 377 470
#     4  12  27  48  74 109 153 204 251 320 384 463
#     4  11  26  47  76 118 153 211 255 322 385 467
#     4  12  26  48  78 109 160 196 263 317 390 458
#     4  11  24  48  79 110 155 201 259 310 394 459
#     4  12  28  50  74 113 157 194 265 319 390 457
#     4  12  28  48  79 109 156 203 256 317 390 462
#
# _framework density 24.146294000000001
#
# number of rings (size 3 to 8) (size 9 to 14) (size 15 to 20)
#    0.000    0.500    2.500    5.250    7.000    3.000 
#    0.000    0.000    0.000    0.000    0.000    0.000 
#    0.000    0.000    0.000    0.000    0.000    0.000 
#
# Total GULP energy -198309.191073 kJ/mol
# GULP energy per Si atom -12394.324442 kJ/mol
# Density = 2.409134 g / cm^3
# Si number density = 24.146294 Si / 1000 Ang^3
#
#
#
# Elastic Constant Matrix: (Units=GPa)
#
#
# Indices 1 2 3 4 5 6 
#
# 1 83.7360 28.1483 32.7275 0.0000 -9.4953 0.0000
# 2 28.1483 96.8432 34.5954 0.0000 -5.1900 0.0000
# 3 32.7275 34.5954 153.4383 0.0000 8.6317 0.0000
# 4 0.0000 0.0000 0.0000 40.7643 0.0000 3.7066
# 5 -9.4953 -5.1900 8.6317 0.0000 30.8685 0.0000
# 6 0.0000 0.0000 0.0000 3.7066 0.0000 47.9422
#
#
#
# Elastic Compliance Matrix: (Units=1/GPa)
#
#
# Indices 1 2 3 4 5 6 
#
# 1 0.014541 -0.003014 -0.002687 0.000000 0.004718 0.000000
# 2 -0.003014 0.012071 -0.002175 0.000000 0.001711 0.000000
# 3 -0.002687 -0.002175 0.007770 0.000000 -0.003365 0.000000
# 4 0.000000 0.000000 0.000000 0.024705 0.000000 -0.001910
# 5 0.004718 0.001711 -0.003365 0.000000 0.035075 0.000000
# 6 0.000000 0.000000 0.000000 -0.001910 0.000000 0.021006
#
#
# Mechanical properties :
#
#
# Convention : Reuss Voigt Hill
#
# Bulk Modulus (GPa) = 53.67812 58.32888 56.00350
# Shear Modulus (GPa) = 36.46198 39.81808 38.14003
#
# Velocity S-wave (km/s) = 3.89015 4.06524 3.97865
# Velocity P-wave (km/s) = 6.51585 6.80028 6.65958
#
# Compressibility (1/GPa) = 0.01862956
#
# Stress axis : x y z
#
# Youngs Moduli (GPa) = 68.77301 82.84648 128.69733
#
# Poissons Ratio (x) = 0.24966 0.34586
# Poissons Ratio (y) = 0.20725 0.27991
# Poissons Ratio (z) = 0.18482 0.18019
#
# Static dielectric constant tensor:
#      x y z
#    x 4.461140 0.000000 0.070580 
#    y 0.000000 4.317800 0.000000 
#    z 0.070580 0.000000 4.445720 
# 
# 
# High freq. dielectric constant tensor:
#      x y z
#    x 1.964200 0.000000 0.013800 
#    y 0.000000 1.960580 0.000000 
#    z 0.013800 0.000000 1.963550 
# 
# From -- ./inp_files/14938.got.cif
#   From: 2010.03.12/outbox.cif.g09.slc.cpg/sg4_8_cif.got.tgz:14938.got - 2010.03.31 09:31:35.
