data_PCOD8047163
_publ_section_title
;
Structure prediction by ZEFSAII (Michael W. Deem and Ramdas Pophale) SiO2 
 PCOD8047163
Probable space group: P 21
;
_chemical_formula_sum "Si O2"
_cell_formula_units_Z 16
_cell_length_a 11.430203
_cell_length_b 7.909044
_cell_length_c 11.536598
_cell_angle_alpha 90.000000
_cell_angle_beta 136.432853
_cell_angle_gamma 90.000000
_cell_volume 718.792616
_symmetry_space_group_name_H-M "P 21"
_symmetry_group_IT_number 4
_symmetry_cell_setting 'monoclinic'
loop_
_space_group_symop_operation_xyz
x,y,z
-x,1/2+y,-z
loop_
_atom_site_type_symbol
_atom_site_label
_atom_site_fract_x
_atom_site_fract_y
_atom_site_fract_z
Si Si1 0.398167 0.123670 0.573664
Si Si2 0.072632 0.687475 0.294224
Si Si3 0.177218 0.434337 0.780269
Si Si4 0.268509 0.037523 0.045873
Si Si5 0.321125 0.869828 0.313587
Si Si6 0.848186 0.889401 0.500441
Si Si7 0.225431 0.811989 0.806303
Si Si8 0.482428 0.341348 0.162034
O O1 0.512962 0.278193 0.615410
O O2 0.229456 0.215551 0.503344
O O3 0.358372 0.014344 0.433200
O O4 0.490927 0.002288 0.734803
O O5 0.194580 0.737841 0.278440
O O6 0.190010 0.558308 0.452599
O O7 0.004283 0.845508 0.322125
O O8 0.910919 0.610579 0.117327
O O9 0.224381 0.409247 0.680072
O O10 0.169491 0.628751 0.810690
O O11 0.332289 0.357610 0.961980
O O12 0.420532 0.171223 0.183558
O O13 0.227630 0.944572 0.135430
O O14 0.321944 0.910540 0.979621
O O15 0.052236 0.898702 0.641949
O O16 0.343753 0.805062 0.779142
#
# Coordination Sequence:
#
# PCOD8047163 Si02
#       8
#     2   2   2   2   2   2   2   2
#     4  12  28  44  70 102 138 190 236 288 350 422
#     4  10  25  45  68 102 136 182 235 285 347 420
#     4  11  24  42  72 104 142 180 227 294 358 420
#     4  10  25  45  68 102 136 182 235 285 347 420
#     4  12  26  46  68  94 142 186 232 282 344 418
#     4  11  26  43  71 105 141 178 236 289 358 418
#     4  11  24  42  72 104 142 180 227 294 358 420
#     4  11  26  43  71 105 141 178 236 289 358 418
#
# _framework density 22.259550000000001
#
# number of rings (size 3 to 8) (size 9 to 14) (size 15 to 20)
#    0.000    1.000    0.000    4.500   15.750    5.000 
#    0.000    0.000    0.000    0.000    0.000    0.000 
#    0.000    0.000    0.000    0.000    0.000    0.000 
#
# Total GULP energy -198362.108820 kJ/mol
# GULP energy per Si atom -12397.631801 kJ/mol
# Density = 2.220889 g / cm^3
# Si number density = 22.259550 Si / 1000 Ang^3
#
#
#
# Elastic Constant Matrix: (Units=GPa)
#
#
# Indices 1 2 3 4 5 6 
#
# 1 70.8626 5.9693 33.2529 0.0000 -8.7406 0.0000
# 2 5.9693 90.0472 14.4894 0.0000 -5.8406 0.0000
# 3 33.2529 14.4894 77.9417 0.0000 -14.3140 0.0000
# 4 0.0000 0.0000 0.0000 37.9070 0.0000 -5.8913
# 5 -8.7406 -5.8406 -14.3140 0.0000 26.5118 0.0000
# 6 0.0000 0.0000 0.0000 -5.8913 0.0000 48.5273
#
#
#
# Elastic Compliance Matrix: (Units=1/GPa)
#
#
# Indices 1 2 3 4 5 6 
#
# 1 0.017736 0.000115 -0.007226 0.000000 0.001971 0.000000
# 2 0.000115 0.011504 -0.001904 0.000000 0.001544 0.000000
# 3 -0.007226 -0.001904 0.017486 0.000000 0.006639 0.000000
# 4 0.000000 0.000000 0.000000 0.026888 0.000000 0.003264
# 5 0.001971 0.001544 0.006639 0.000000 0.042294 0.000000
# 6 0.000000 0.000000 0.000000 0.003264 0.000000 0.021003
#
#
# Mechanical properties :
#
#
# Convention : Reuss Voigt Hill
#
# Bulk Modulus (GPa) = 34.84823 38.47500 36.66161
# Shear Modulus (GPa) = 30.39371 34.93190 32.66281
#
# Velocity S-wave (km/s) = 3.69917 3.96574 3.83477
# Velocity P-wave (km/s) = 5.82534 6.18803 6.00942
#
# Compressibility (1/GPa) = 0.02869586
#
# Stress axis : x y z
#
# Youngs Moduli (GPa) = 56.38159 86.92470 57.18737
#
# Poissons Ratio (x) = -0.00999 0.41325
# Poissons Ratio (y) = -0.00648 0.10889
# Poissons Ratio (z) = 0.40743 0.16551
#
# Static dielectric constant tensor:
#      x y z
#    x 4.094070 0.000000 -0.047860 
#    y 0.000000 4.624440 0.000000 
#    z -0.047860 0.000000 3.981900 
# 
# 
# High freq. dielectric constant tensor:
#      x y z
#    x 1.878920 0.000000 -0.000890 
#    y 0.000000 1.893560 0.000000 
#    z -0.000890 0.000000 1.883700 
# 
# From -- ./inp_files/12138.got.cif
#   From: 2010.03.12/outbox.cif.g09.slc.cpg/sg4_7_cif.got.tgz:12138.got - 2010.03.31 09:31:35.
