data_PCOD8047036
_publ_section_title
;
Structure prediction by ZEFSAII (Michael W. Deem and Ramdas Pophale) SiO2 
 PCOD8047036
Probable space group: P 21
;
_chemical_formula_sum "Si O2"
_cell_formula_units_Z 14
_cell_length_a 9.637035
_cell_length_b 8.040357
_cell_length_c 8.691653
_cell_angle_alpha 90.000000
_cell_angle_beta 85.787479
_cell_angle_gamma 90.000000
_cell_volume 671.655061
_symmetry_space_group_name_H-M "P 21"
_symmetry_group_IT_number 4
_symmetry_cell_setting 'monoclinic'
loop_
_space_group_symop_operation_xyz
x,y,z
-x,1/2+y,-z
loop_
_atom_site_type_symbol
_atom_site_label
_atom_site_fract_x
_atom_site_fract_y
_atom_site_fract_z
Si Si1 0.287784 0.994070 0.569692
Si Si2 0.517235 0.925975 0.780532
Si Si3 0.673140 0.405347 0.759185
Si Si4 0.776140 0.739926 0.669531
Si Si5 0.968447 0.391472 0.206296
Si Si6 0.428405 0.572337 0.913141
Si Si7 0.846869 0.163077 0.960051
O O1 0.433194 0.006594 0.646892
O O2 0.306739 0.865028 0.424487
O O3 0.172688 0.931762 0.696031
O O4 0.246557 0.175595 0.504246
O O5 0.675827 0.895835 0.713176
O O6 0.450173 0.753121 0.839083
O O7 0.513177 0.060657 0.917087
O O8 0.741458 0.587230 0.789376
O O9 0.507394 0.428367 0.809366
O O10 0.746758 0.268171 0.855731
O O11 0.934793 0.793143 0.681258
O O12 0.937089 0.281139 0.060529
O O13 0.044512 0.558335 0.146718
O O14 0.259831 0.545614 0.932686
#
# Coordination Sequence:
#
# PCOD8047036 Si02
#       7
#     2   2   2   2   2   2   2
#     4  10  24  41  65  93 139 166 211 276 334 397
#     4  11  21  44  67  97 128 174 221 278 328 384
#     4   9  22  41  65  95 135 168 221 275 324 387
#     4   9  23  42  63  95 133 172 220 271 322 403
#     4  12  24  43  69  97 136 174 223 264 342 393
#     4  11  20  41  68  97 128 165 229 273 322 381
#     4  12  24  42  69 100 129 185 217 279 324 399
#
# _framework density 20.844033
#
# number of rings (size 3 to 8) (size 9 to 14) (size 15 to 20)
#    0.857    0.571    4.286    0.857    2.000    2.286 
#    0.000    1.429    0.000    0.000    0.000    0.000 
#    0.000    0.000    0.000    0.000    0.000    0.000 
#
# Total GULP energy -173504.412441 kJ/mol
# GULP energy per Si atom -12393.172317 kJ/mol
# Density = 2.079659 g / cm^3
# Si number density = 20.844033 Si / 1000 Ang^3
#
#
#
# Elastic Constant Matrix: (Units=GPa)
#
#
# Indices 1 2 3 4 5 6 
#
# 1 91.0627 22.6884 25.8893 0.0000 -4.6093 0.0000
# 2 22.6884 65.0921 30.5281 0.0000 0.2274 0.0000
# 3 25.8893 30.5281 94.7972 0.0000 7.1620 0.0000
# 4 0.0000 0.0000 0.0000 37.0514 0.0000 3.1013
# 5 -4.6093 0.2274 7.1620 0.0000 17.1328 0.0000
# 6 0.0000 0.0000 0.0000 3.1013 0.0000 28.8916
#
#
#
# Elastic Compliance Matrix: (Units=1/GPa)
#
#
# Indices 1 2 3 4 5 6 
#
# 1 0.012810 -0.003151 -0.002837 0.000000 0.004674 0.000000
# 2 -0.003151 0.018957 -0.005330 0.000000 0.001129 0.000000
# 3 -0.002837 -0.005330 0.013519 0.000000 -0.006344 0.000000
# 4 0.000000 0.000000 0.000000 0.027234 0.000000 -0.002923
# 5 0.004674 0.001129 -0.006344 0.000000 0.062262 0.000000
# 6 0.000000 0.000000 0.000000 -0.002923 0.000000 0.034926
#
#
# Mechanical properties :
#
#
# Convention : Reuss Voigt Hill
#
# Bulk Modulus (GPa) = 44.14769 45.46265 44.80517
# Shear Modulus (GPa) = 25.01353 28.07159 26.54256
#
# Velocity S-wave (km/s) = 3.46791 3.67378 3.57233
# Velocity P-wave (km/s) = 6.10419 6.31299 6.20947
#
# Compressibility (1/GPa) = 0.02265124
#
# Stress axis : x y z
#
# Youngs Moduli (GPa) = 78.06683 52.75192 73.96919
#
# Poissons Ratio (x) = 0.16621 0.20983
# Poissons Ratio (y) = 0.24597 0.39422
# Poissons Ratio (z) = 0.22146 0.28114
#
# Static dielectric constant tensor:
#      x y z
#    x 3.919760 0.000000 -0.085000 
#    y 0.000000 3.583370 0.000000 
#    z -0.085000 0.000000 3.695410 
# 
# 
# High freq. dielectric constant tensor:
#      x y z
#    x 1.824060 0.000000 -0.006400 
#    y 0.000000 1.800550 0.000000 
#    z -0.006400 0.000000 1.808690 
# 
# From -- ./inp_files/5715.got.cif
#   From: 2010.03.12/outbox.cif.g09.slc.cpg/sg4_3_cif.got.tgz:5715.got - 2010.03.31 09:31:35.
