data_PCOD8047614
_publ_section_title
;
Structure prediction by ZEFSAII (Michael W. Deem and Ramdas Pophale) SiO2 
 PCOD8047614
Probable space group: P 21
;
_chemical_formula_sum "Si O2"
_cell_formula_units_Z 16
_cell_length_a 8.445045
_cell_length_b 9.236938
_cell_length_c 17.009786
_cell_angle_alpha 90.000000
_cell_angle_beta 32.307868
_cell_angle_gamma 90.000000
_cell_volume 709.170879
_symmetry_space_group_name_H-M "P 21"
_symmetry_group_IT_number 4
_symmetry_cell_setting 'monoclinic'
loop_
_space_group_symop_operation_xyz
x,y,z
-x,1/2+y,-z
loop_
_atom_site_type_symbol
_atom_site_label
_atom_site_fract_x
_atom_site_fract_y
_atom_site_fract_z
Si Si1 0.432758 0.930170 0.373590
Si Si2 0.780904 0.586717 0.119268
Si Si3 0.336984 0.291633 0.135813
Si Si4 0.051239 0.865001 0.066319
Si Si5 0.402098 0.600609 0.417572
Si Si6 0.883663 0.539797 0.345914
Si Si7 0.761924 0.522297 0.716772
Si Si8 0.558717 0.238452 0.877450
O O1 0.313574 0.766559 0.434518
O O2 0.791225 0.926941 0.231246
O O3 0.291819 0.031959 0.498447
O O4 0.355210 0.998051 0.321973
O O5 0.526782 0.529596 0.284868
O O6 0.637366 0.674603 0.108963
O O7 0.002002 0.693827 0.072975
O O8 0.961635 0.449282 0.011722
O O9 0.325121 0.178246 0.212099
O O10 0.039882 0.387437 0.259772
O O11 0.628737 0.391400 0.028274
O O12 0.373159 0.218355 0.035590
O O13 0.652794 0.588634 0.377738
O O14 0.118458 0.510722 0.564528
O O15 0.124942 0.663580 0.250334
O O16 0.624194 0.406088 0.833609
#
# Coordination Sequence:
#
# PCOD8047614 Si02
#       8
#     2   2   2   2   2   2   2   2
#     4  11  25  49  73 108 148 193 250 303 377 442
#     4  11  24  46  69 106 137 193 238 300 360 440
#     4  12  27  46  76 110 150 191 247 305 377 442
#     4  11  24  45  72 103 147 184 242 299 364 441
#     4  11  26  46  74 106 153 184 251 302 370 444
#     4  12  27  47  74 106 153 195 245 311 370 445
#     4  12  26  46  77 108 147 201 245 308 370 444
#     4  12  25  45  71 107 149 195 242 306 368 436
#
# _framework density 22.561558000000002
#
# number of rings (size 3 to 8) (size 9 to 14) (size 15 to 20)
#    0.000    0.500    5.000    3.750    5.250    0.000 
#    2.250    0.000    0.000    0.000    0.000    0.000 
#    0.000    0.000    0.000    0.000    0.000    0.000 
#
# Total GULP energy -198444.712950 kJ/mol
# GULP energy per Si atom -12402.794559 kJ/mol
# Density = 2.251021 g / cm^3
# Si number density = 22.561558 Si / 1000 Ang^3
#
#
#
# Elastic Constant Matrix: (Units=GPa)
#
#
# Indices 1 2 3 4 5 6 
#
# 1 91.1639 16.4872 31.9121 0.0000 13.6733 0.0000
# 2 16.4872 65.3895 22.4618 0.0000 12.3489 0.0000
# 3 31.9121 22.4618 128.4266 0.0000 16.4103 0.0000
# 4 0.0000 0.0000 0.0000 36.0768 0.0000 6.4055
# 5 13.6733 12.3489 16.4103 0.0000 43.7355 0.0000
# 6 0.0000 0.0000 0.0000 6.4055 0.0000 28.3732
#
#
#
# Elastic Compliance Matrix: (Units=1/GPa)
#
#
# Indices 1 2 3 4 5 6 
#
# 1 0.012541 -0.001844 -0.002478 0.000000 -0.002470 0.000000
# 2 -0.001844 0.017134 -0.002094 0.000000 -0.003475 0.000000
# 3 -0.002478 -0.002094 0.009027 0.000000 -0.002021 0.000000
# 4 0.000000 0.000000 0.000000 0.028876 0.000000 -0.006519
# 5 -0.002470 -0.003475 -0.002021 0.000000 0.025377 0.000000
# 6 0.000000 0.000000 0.000000 -0.006519 0.000000 0.036716
#
#
# Mechanical properties :
#
#
# Convention : Reuss Voigt Hill
#
# Bulk Modulus (GPa) = 38.65770 47.41137 43.03453
# Shear Modulus (GPa) = 33.08494 35.91169 34.49831
#
# Velocity S-wave (km/s) = 3.83355 3.99397 3.91458
# Velocity P-wave (km/s) = 6.06353 6.50606 6.28869
#
# Compressibility (1/GPa) = 0.02586807
#
# Stress axis : x y z
#
# Youngs Moduli (GPa) = 79.74030 58.36435 110.78092
#
# Poissons Ratio (x) = 0.10764 0.27451
# Poissons Ratio (y) = 0.14707 0.23201
# Poissons Ratio (z) = 0.19759 0.12223
#
# Static dielectric constant tensor:
#      x y z
#    x 4.019510 0.000000 0.129210 
#    y 0.000000 4.106810 0.000000 
#    z 0.129210 0.000000 4.490220 
# 
# 
# High freq. dielectric constant tensor:
#      x y z
#    x 1.889460 0.000000 0.003820 
#    y 0.000000 1.882890 0.000000 
#    z 0.003820 0.000000 1.911840 
# 
# From -- ./inp_files/14958.got.cif
#   From: 2010.03.12/outbox.cif.g09.slc.cpg/sg4_8_cif.got.tgz:14958.got - 2010.03.31 09:31:35.
