data_PCOD8047039
_publ_section_title
;
Structure prediction by ZEFSAII (Michael W. Deem and Ramdas Pophale) SiO2 
 PCOD8047039
Probable space group: P 21
;
_chemical_formula_sum "Si O2"
_cell_formula_units_Z 14
_cell_length_a 11.658432
_cell_length_b 9.232026
_cell_length_c 5.609861
_cell_angle_alpha 90.000000
_cell_angle_beta 87.275643
_cell_angle_gamma 90.000000
_cell_volume 603.112221
_symmetry_space_group_name_H-M "P 21"
_symmetry_group_IT_number 4
_symmetry_cell_setting 'monoclinic'
loop_
_space_group_symop_operation_xyz
x,y,z
-x,1/2+y,-z
loop_
_atom_site_type_symbol
_atom_site_label
_atom_site_fract_x
_atom_site_fract_y
_atom_site_fract_z
Si Si1 0.030851 0.034110 0.741685
Si Si2 0.889556 0.835862 0.431884
Si Si3 0.739391 0.363215 0.180487
Si Si4 0.523850 0.457412 0.444280
Si Si5 0.192062 0.538937 0.939096
Si Si6 0.416628 0.058730 0.053696
Si Si7 0.315363 0.333879 0.246861
O O1 0.939691 0.028506 0.963278
O O2 0.043670 0.204283 0.692937
O O3 0.983503 0.948279 0.518958
O O4 0.150549 0.963198 0.796683
O O5 0.803356 0.769233 0.636994
O O6 0.802050 0.924941 0.275041
O O7 0.648413 0.377212 0.410470
O O8 0.775370 0.198229 0.148677
O O9 0.676177 0.427169 0.951258
O O10 0.515409 0.539919 0.700494
O O11 0.413857 0.351829 0.439547
O O12 0.509128 0.555312 0.200569
O O13 0.284276 0.487299 0.126149
O O14 0.358571 0.216234 0.052365
#
# Coordination Sequence:
#
# PCOD8047039 Si02
#       7
#     2   2   2   2   2   2   2
#     4  11  23  44  64 103 134 188 231 294 349 422
#     4  11  25  41  71  98 143 180 239 289 357 414
#     4  10  24  41  68  98 143 181 238 283 363 407
#     4  10  26  43  73 103 142 183 232 292 350 423
#     4  11  25  42  66 103 134 187 229 300 343 427
#     4  10  25  46  70 104 137 190 229 288 353 415
#     4  11  26  43  72 101 141 179 242 286 355 420
#
# _framework density 23.212926
#
# number of rings (size 3 to 8) (size 9 to 14) (size 15 to 20)
#    0.857    0.571    0.000    3.429    6.000   10.286 
#    0.000    0.000    0.000    0.000    0.000    0.000 
#    0.000    0.000    0.000    0.000    0.000    0.000 
#
# Total GULP energy -173456.123129 kJ/mol
# GULP energy per Si atom -12389.723081 kJ/mol
# Density = 2.316009 g / cm^3
# Si number density = 23.212926 Si / 1000 Ang^3
#
#
#
# Elastic Constant Matrix: (Units=GPa)
#
#
# Indices 1 2 3 4 5 6 
#
# 1 72.3983 6.2825 6.8401 0.0000 14.5705 0.0000
# 2 6.2825 111.2119 12.6264 0.0000 9.1282 0.0000
# 3 6.8401 12.6264 96.0854 0.0000 18.0138 0.0000
# 4 0.0000 0.0000 0.0000 21.4461 0.0000 5.9744
# 5 14.5705 9.1282 18.0138 0.0000 20.6177 0.0000
# 6 0.0000 0.0000 0.0000 5.9744 0.0000 30.5595
#
#
#
# Elastic Compliance Matrix: (Units=1/GPa)
#
#
# Indices 1 2 3 4 5 6 
#
# 1 0.016216 -0.000026 0.001190 0.000000 -0.012488 0.000000
# 2 -0.000026 0.009354 -0.000543 0.000000 -0.003648 0.000000
# 3 0.001190 -0.000543 0.012565 0.000000 -0.011578 0.000000
# 4 0.000000 0.000000 0.000000 0.049314 0.000000 -0.009641
# 5 -0.012488 -0.003648 -0.011578 0.000000 0.069058 0.000000
# 6 0.000000 0.000000 0.000000 -0.009641 0.000000 0.034608
#
#
# Mechanical properties :
#
#
# Convention : Reuss Voigt Hill
#
# Bulk Modulus (GPa) = 25.39613 36.79929 31.09771
# Shear Modulus (GPa) = 24.63063 31.45445 28.04254
#
# Velocity S-wave (km/s) = 3.26095 3.68508 3.47948
# Velocity P-wave (km/s) = 5.01424 5.83042 5.43767
#
# Compressibility (1/GPa) = 0.03937608
#
# Stress axis : x y z
#
# Youngs Moduli (GPa) = 61.66934 106.90076 79.58762
#
# Poissons Ratio (x) = 0.00280 -0.09473
# Poissons Ratio (y) = 0.00161 0.04325
# Poissons Ratio (z) = -0.07340 0.05809
#
# Static dielectric constant tensor:
#      x y z
#    x 4.201950 0.000000 0.006530 
#    y 0.000000 4.057040 0.000000 
#    z 0.006530 0.000000 4.115790 
# 
# 
# High freq. dielectric constant tensor:
#      x y z
#    x 1.931410 0.000000 -0.002490 
#    y 0.000000 1.912740 0.000000 
#    z -0.002490 0.000000 1.907990 
# 
# From -- ./inp_files/2552.got.cif
#   From: 2010.03.12/outbox.cif.g09.slc.cpg/sg4_2_cif.got.tgz:2552.got - 2010.03.31 09:31:35.
