data_PCOD8047831
_publ_section_title
;
Structure prediction by ZEFSAII (Michael W. Deem and Ramdas Pophale) SiO2 
 PCOD8047831
Probable space group: P 21
;
_chemical_formula_sum "Si O2"
_cell_formula_units_Z 16
_cell_length_a 6.696641
_cell_length_b 9.191247
_cell_length_c 11.439542
_cell_angle_alpha 90.000000
_cell_angle_beta 89.999848
_cell_angle_gamma 90.000000
_cell_volume 704.109318
_symmetry_space_group_name_H-M "P 21"
_symmetry_group_IT_number 4
_symmetry_cell_setting 'monoclinic'
loop_
_space_group_symop_operation_xyz
x,y,z
-x,1/2+y,-z
loop_
_atom_site_type_symbol
_atom_site_label
_atom_site_fract_x
_atom_site_fract_y
_atom_site_fract_z
Si Si1 0.633463 0.070610 0.315083
Si Si2 0.947467 0.710236 0.384080
Si Si3 0.182215 0.450895 0.454773
Si Si4 0.052534 0.524825 0.884080
Si Si5 0.633464 0.664451 0.184917
Si Si6 0.817786 0.784167 0.954773
Si Si7 0.469321 0.367530 0.249999
Si Si8 0.713870 0.367531 0.750000
O O1 0.609150 0.243154 0.303243
O O2 0.777884 0.008455 0.214154
O O3 0.727323 0.045773 0.440984
O O4 0.420918 0.990162 0.310977
O O5 0.874084 0.789398 0.502383
O O6 0.777882 0.726605 0.285848
O O7 0.988408 0.540461 0.410104
O O8 0.150708 0.789947 0.346651
O O9 0.336740 0.439976 0.350021
O O10 0.011593 0.694601 0.910102
O O11 0.849292 0.445114 0.846652
O O12 0.125917 0.445664 0.002383
O O13 0.609150 0.491907 0.196757
O O14 0.420920 0.744901 0.189022
O O15 0.727329 0.689289 0.059018
O O16 0.663257 0.795085 0.850024
#
# Coordination Sequence:
#
# PCOD8047831 Si02
#       8
#     2   2   2   2   2   2   2   2
#     4  12  28  53  75 110 152 203 256 313 382 451
#     4  12  28  50  78 110 149 207 250 314 385 450
#     4  12  29  49  78 111 153 200 256 318 376 454
#     4  12  28  50  78 110 149 207 250 314 385 450
#     4  12  28  53  75 110 152 203 256 313 382 451
#     4  12  29  49  78 111 153 200 256 318 376 454
#     4  12  32  46  80 116 150 202 262 310 384 458
#     4  12  22  54  74 104 146 200 256 298 386 450
#
# _framework density 22.723742999999999
#
# number of rings (size 3 to 8) (size 9 to 14) (size 15 to 20)
#    0.000    0.000    7.500    0.000   17.500    0.000 
#    0.000    0.000    0.000    0.000    0.000    0.000 
#    0.000    0.000    0.000    0.000    0.000    0.000 
#
# Total GULP energy -198526.723217 kJ/mol
# GULP energy per Si atom -12407.920201 kJ/mol
# Density = 2.267202 g / cm^3
# Si number density = 22.723743 Si / 1000 Ang^3
#
#
#
# Elastic Constant Matrix: (Units=GPa)
#
#
# Indices 1 2 3 4 5 6 
#
# 1 88.6548 23.2612 22.6793 0.0000 -2.4058 0.0000
# 2 23.2612 116.8633 17.4134 0.0000 -0.5562 0.0000
# 3 22.6793 17.4134 104.6575 0.0000 3.9339 0.0000
# 4 0.0000 0.0000 0.0000 30.3833 0.0000 -2.1019
# 5 -2.4058 -0.5562 3.9339 0.0000 20.9593 0.0000
# 6 0.0000 0.0000 0.0000 -2.1019 0.0000 52.4420
#
#
#
# Elastic Compliance Matrix: (Units=1/GPa)
#
#
# Indices 1 2 3 4 5 6 
#
# 1 0.012506 -0.002119 -0.002426 0.000000 0.001835 0.000000
# 2 -0.002119 0.009139 -0.001069 0.000000 0.000200 0.000000
# 3 -0.002426 -0.001069 0.010343 0.000000 -0.002248 0.000000
# 4 0.000000 0.000000 0.000000 0.033004 0.000000 0.001323
# 5 0.001835 0.000200 -0.002248 0.000000 0.048349 0.000000
# 6 0.000000 0.000000 0.000000 0.001323 0.000000 0.019122
#
#
# Mechanical properties :
#
#
# Convention : Reuss Voigt Hill
#
# Bulk Modulus (GPa) = 48.17063 48.54260 48.35662
# Shear Modulus (GPa) = 33.19775 37.21169 35.20472
#
# Velocity S-wave (km/s) = 3.82636 4.05108 3.94032
# Velocity P-wave (km/s) = 6.38480 6.57952 6.48289
#
# Compressibility (1/GPa) = 0.02075954
#
# Stress axis : x y z
#
# Youngs Moduli (GPa) = 79.96025 109.42094 96.68224
#
# Poissons Ratio (x) = 0.23186 0.23460
# Poissons Ratio (y) = 0.16944 0.10335
# Poissons Ratio (z) = 0.19402 0.11696
#
# Static dielectric constant tensor:
#      x y z
#    x 4.186000 0.000000 -0.015550 
#    y 0.000000 4.318680 0.000000 
#    z -0.015550 0.000000 4.022680 
# 
# 
# High freq. dielectric constant tensor:
#      x y z
#    x 1.898880 0.000000 -0.000020 
#    y 0.000000 1.915290 0.000000 
#    z -0.000020 0.000000 1.898620 
# 
# From -- ./inp_files/1343.got.cif
#   From: 2010.03.12/outbox.cif.g09.slc.cpg/sg4_1_cif.got.tgz:1343.got - 2010.03.31 09:31:35.
