data_PCOD8047708
_publ_section_title
;
Structure prediction by ZEFSAII (Michael W. Deem and Ramdas Pophale) SiO2 
 PCOD8047708
Probable space group: P 21
;
_chemical_formula_sum "Si O2"
_cell_formula_units_Z 14
_cell_length_a 9.083457
_cell_length_b 8.651270
_cell_length_c 7.736486
_cell_angle_alpha 90.000000
_cell_angle_beta 108.751119
_cell_angle_gamma 90.000000
_cell_volume 575.691518
_symmetry_space_group_name_H-M "P 21"
_symmetry_group_IT_number 4
_symmetry_cell_setting 'monoclinic'
loop_
_space_group_symop_operation_xyz
x,y,z
-x,1/2+y,-z
loop_
_atom_site_type_symbol
_atom_site_label
_atom_site_fract_x
_atom_site_fract_y
_atom_site_fract_z
Si Si1 0.652792 0.934530 0.234895
Si Si2 0.561907 0.899905 0.827036
Si Si3 0.704324 0.609815 0.380784
Si Si4 0.024103 0.474571 0.516168
Si Si5 0.920244 0.352668 0.825101
Si Si6 0.630818 0.575025 0.729727
Si Si7 0.868137 0.994421 0.814422
O O1 0.675077 0.750449 0.242213
O O2 0.519382 0.966636 0.324379
O O3 0.597746 0.980177 0.023743
O O4 0.809256 0.030060 0.345012
O O5 0.589432 0.714874 0.846140
O O6 0.385213 0.952285 0.711976
O O7 0.683236 0.968609 0.733886
O O8 0.891764 0.603432 0.451210
O O9 0.649344 0.653403 0.551187
O O10 0.953332 0.354742 0.630784
O O11 0.054534 0.419315 0.329513
O O12 0.780623 0.468282 0.830681
O O13 0.889006 0.175543 0.853002
O O14 0.068583 0.403286 0.993985
#
# Coordination Sequence:
#
# PCOD8047708 Si02
#       7
#     2   2   2   2   2   2   2
#     4  12  25  47  71 107 146 189 250 305 366 439
#     4  12  26  46  72 109 147 194 241 307 372 438
#     4  11  25  46  73 105 140 193 249 300 370 439
#     4  11  26  46  74 105 147 192 242 303 363 439
#     4  11  26  46  72 114 140 197 244 308 365 441
#     4  11  25  45  74 101 147 189 250 298 372 435
#     4  12  25  46  76 103 155 188 248 301 374 431
#
# _framework density 24.318580999999998
#
# number of rings (size 3 to 8) (size 9 to 14) (size 15 to 20)
#    0.000    0.571    1.429    6.000    4.000    8.000 
#    0.000    0.000    0.000    0.000    0.000    0.000 
#    0.000    0.000    0.000    0.000    0.000    0.000 
#
# Total GULP energy -173481.487898 kJ/mol
# GULP energy per Si atom -12391.534850 kJ/mol
# Density = 2.426323 g / cm^3
# Si number density = 24.318581 Si / 1000 Ang^3
#
#
#
# Elastic Constant Matrix: (Units=GPa)
#
#
# Indices 1 2 3 4 5 6 
#
# 1 147.0913 26.8779 39.8093 0.0000 11.7548 0.0000
# 2 26.8779 100.1883 26.4177 0.0000 3.1079 0.0000
# 3 39.8093 26.4177 112.0944 0.0000 1.9028 0.0000
# 4 0.0000 0.0000 0.0000 29.3465 0.0000 2.5993
# 5 11.7548 3.1079 1.9028 0.0000 43.0493 0.0000
# 6 0.0000 0.0000 0.0000 2.5993 0.0000 32.3680
#
#
#
# Elastic Compliance Matrix: (Units=1/GPa)
#
#
# Indices 1 2 3 4 5 6 
#
# 1 0.007869 -0.001410 -0.002429 0.000000 -0.001939 0.000000
# 2 -0.001410 0.010914 -0.002066 0.000000 -0.000312 0.000000
# 3 -0.002429 -0.002066 0.010265 0.000000 0.000359 0.000000
# 4 0.000000 0.000000 0.000000 0.034320 0.000000 -0.002756
# 5 -0.001939 -0.000312 0.000359 0.000000 0.023765 0.000000
# 6 0.000000 0.000000 0.000000 -0.002756 0.000000 0.031116
#
#
# Mechanical properties :
#
#
# Convention : Reuss Voigt Hill
#
# Bulk Modulus (GPa) = 58.01724 60.62043 59.31884
# Shear Modulus (GPa) = 36.81760 38.70403 37.76081
#
# Velocity S-wave (km/s) = 3.89520 3.99374 3.94478
# Velocity P-wave (km/s) = 6.64372 6.80061 6.72263
#
# Compressibility (1/GPa) = 0.01723626
#
# Stress axis : x y z
#
# Youngs Moduli (GPa) = 127.08705 91.62567 97.42253
#
# Poissons Ratio (x) = 0.12922 0.23666
# Poissons Ratio (y) = 0.17923 0.20128
# Poissons Ratio (z) = 0.30872 0.18930
#
# Static dielectric constant tensor:
#      x y z
#    x 4.703480 0.000000 0.101380 
#    y 0.000000 4.035420 0.000000 
#    z 0.101380 0.000000 4.329380 
# 
# 
# High freq. dielectric constant tensor:
#      x y z
#    x 1.987920 0.000000 -0.002190 
#    y 0.000000 1.948050 0.000000 
#    z -0.002190 0.000000 1.970760 
# 
# From -- ./inp_files/5260.got.cif
#   From: 2010.03.12/outbox.cif.g09.slc.cpg/sg4_3_cif.got.tgz:5260.got - 2010.03.31 09:31:35.
