data_PCOD8047739
_publ_section_title
;
Structure prediction by ZEFSAII (Michael W. Deem and Ramdas Pophale) SiO2 
 PCOD8047739
Probable space group: P 21
;
_chemical_formula_sum "Si O2"
_cell_formula_units_Z 16
_cell_length_a 8.598361
_cell_length_b 9.379320
_cell_length_c 17.597446
_cell_angle_alpha 90.000000
_cell_angle_beta 150.640055
_cell_angle_gamma 90.000000
_cell_volume 695.814953
_symmetry_space_group_name_H-M "P 21"
_symmetry_group_IT_number 4
_symmetry_cell_setting 'monoclinic'
loop_
_space_group_symop_operation_xyz
x,y,z
-x,1/2+y,-z
loop_
_atom_site_type_symbol
_atom_site_label
_atom_site_fract_x
_atom_site_fract_y
_atom_site_fract_z
Si Si1 0.148461 0.021850 0.392875
Si Si2 0.112110 0.756496 0.140252
Si Si3 0.645812 0.315822 0.392709
Si Si4 0.813533 0.774310 0.489888
Si Si5 0.612186 0.590445 0.139730
Si Si6 0.323608 0.363156 0.913008
Si Si7 0.701399 0.062645 0.517310
Si Si8 0.817299 0.982610 0.910128
O O1 0.112492 0.187385 0.401017
O O2 0.460555 0.997586 0.475408
O O3 0.185176 0.938622 0.487290
O O4 0.842135 0.969679 0.216892
O O5 0.481334 0.727824 0.312120
O O6 0.988358 0.607891 0.050345
O O7 0.934498 0.786928 0.143034
O O8 0.066306 0.890740 0.064740
O O9 0.525024 0.189328 0.396570
O O10 0.350194 0.376537 0.220257
O O11 0.905809 0.243969 0.449155
O O12 0.810703 0.940697 0.506597
O O13 0.481456 0.738158 0.047349
O O14 0.440614 0.559208 0.145834
O O15 0.984837 0.622813 0.308639
O O16 0.570679 0.455356 0.066740
#
# Coordination Sequence:
#
# PCOD8047739 Si02
#       8
#     2   2   2   2   2   2   2   2
#     4  12  25  45  70 102 135 182 226 282 343 398
#     4  11  25  47  67 102 138 178 226 282 335 411
#     4  12  25  45  70 102 135 182 226 282 343 398
#     4  12  24  44  70 101 139 176 227 282 334 404
#     4  11  25  47  67 102 138 178 226 282 335 411
#     4  11  26  46  69 100 140 179 229 276 346 404
#     4  12  24  44  70 101 139 176 227 282 334 404
#     4  11  26  46  69 100 140 179 229 276 346 404
#
# _framework density 22.994620999999999
#
# number of rings (size 3 to 8) (size 9 to 14) (size 15 to 20)
#    0.000    0.500    5.000    3.000    3.500    1.000 
#    0.000    0.000    0.000    0.000    0.000    0.000 
#    0.000    0.000    0.000    0.000    0.000    0.000 
#
# Total GULP energy -198506.231828 kJ/mol
# GULP energy per Si atom -12406.639489 kJ/mol
# Density = 2.294228 g / cm^3
# Si number density = 22.994621 Si / 1000 Ang^3
#
#
#
# Elastic Constant Matrix: (Units=GPa)
#
#
# Indices 1 2 3 4 5 6 
#
# 1 75.3717 31.1694 34.4829 0.0000 -14.5436 0.0000
# 2 31.1694 134.3064 34.4313 0.0000 -17.8576 0.0000
# 3 34.4829 34.4313 60.4736 0.0000 -18.1243 0.0000
# 4 0.0000 0.0000 0.0000 36.3905 0.0000 -9.5264
# 5 -14.5436 -17.8576 -18.1243 0.0000 31.2512 0.0000
# 6 0.0000 0.0000 0.0000 -9.5264 0.0000 41.2710
#
#
#
# Elastic Compliance Matrix: (Units=1/GPa)
#
#
# Indices 1 2 3 4 5 6 
#
# 1 0.018492 -0.001694 -0.008824 0.000000 0.002520 0.000000
# 2 -0.001694 0.009044 -0.003475 0.000000 0.002364 0.000000
# 3 -0.008824 -0.003475 0.026290 0.000000 0.009155 0.000000
# 4 0.000000 0.000000 0.000000 0.029247 0.000000 0.006751
# 5 0.002520 0.002364 0.009155 0.000000 0.039832 0.000000
# 6 0.000000 0.000000 0.000000 0.006751 0.000000 0.025788
#
#
# Mechanical properties :
#
#
# Convention : Reuss Voigt Hill
#
# Bulk Modulus (GPa) = 38.70090 52.25764 45.47927
# Shear Modulus (GPa) = 26.98440 33.12041 30.05241
#
# Velocity S-wave (km/s) = 3.42937 3.79932 3.61907
# Velocity P-wave (km/s) = 5.70506 6.48242 6.10612
#
# Compressibility (1/GPa) = 0.02583919
#
# Stress axis : x y z
#
# Youngs Moduli (GPa) = 54.07862 110.57076 38.03729
#
# Poissons Ratio (x) = 0.18733 0.33566
# Poissons Ratio (y) = 0.09162 0.13217
# Poissons Ratio (z) = 0.47721 0.38419
#
# Static dielectric constant tensor:
#      x y z
#    x 4.073400 0.000000 -0.309730 
#    y 0.000000 4.262060 0.000000 
#    z -0.309730 0.000000 3.991330 
# 
# 
# High freq. dielectric constant tensor:
#      x y z
#    x 1.908740 0.000000 -0.022170 
#    y 0.000000 1.927920 0.000000 
#    z -0.022170 0.000000 1.898050 
# 
# From -- ./inp_files/5728.got.cif
#   From: 2010.03.12/outbox.cif.g09.slc.cpg/sg4_3_cif.got.tgz:5728.got - 2010.03.31 09:31:35.
