data_PCOD8047169
_publ_section_title
;
Structure prediction by ZEFSAII (Michael W. Deem and Ramdas Pophale) SiO2 
 PCOD8047169
Probable space group: P 21
;
_chemical_formula_sum "Si O2"
_cell_formula_units_Z 16
_cell_length_a 9.009748
_cell_length_b 10.149435
_cell_length_c 11.681029
_cell_angle_alpha 90.000000
_cell_angle_beta 44.403884
_cell_angle_gamma 90.000000
_cell_volume 747.402925
_symmetry_space_group_name_H-M "P 21"
_symmetry_group_IT_number 4
_symmetry_cell_setting 'monoclinic'
loop_
_space_group_symop_operation_xyz
x,y,z
-x,1/2+y,-z
loop_
_atom_site_type_symbol
_atom_site_label
_atom_site_fract_x
_atom_site_fract_y
_atom_site_fract_z
Si Si1 0.237123 0.635850 0.575419
Si Si2 0.583065 0.210171 0.864294
Si Si3 0.104506 0.203524 0.057749
Si Si4 0.778882 0.377401 0.574843
Si Si5 0.247967 0.460968 0.354312
Si Si6 0.373854 0.772030 0.900451
Si Si7 0.996736 0.435757 0.969036
Si Si8 0.582055 0.052607 0.304449
O O1 0.291678 0.765941 0.475254
O O2 0.220279 0.513560 0.498226
O O3 0.427594 0.613960 0.562316
O O4 0.013547 0.649074 0.764518
O O5 0.718984 0.330455 0.735931
O O6 0.680368 0.071676 0.773947
O O7 0.347350 0.228931 0.948864
O O8 0.582053 0.211033 0.000772
O O9 0.998242 0.343947 0.081728
O O10 0.083002 0.088099 0.971621
O O11 0.648150 0.506835 0.610427
O O12 0.026630 0.404982 0.430127
O O13 0.419332 0.345908 0.260803
O O14 0.325012 0.657642 0.836716
O O15 0.170706 0.867754 0.025101
O O16 0.239428 0.436177 0.788091
#
# Coordination Sequence:
#
# PCOD8047169 Si02
#       8
#     2   2   2   2   2   2   2   2
#     4  10  25  46  67 101 136 187 223 289 357 408
#     4  11  26  43  72 103 132 190 229 285 342 414
#     4  11  22  46  72 102 143 179 238 288 341 421
#     4  11  26  47  66 102 143 179 229 285 352 415
#     4  11  27  46  69 102 141 182 225 292 357 413
#     4  12  26  45  73 104 134 183 242 284 347 419
#     4  11  22  44  69 104 134 180 235 290 338 407
#     4  11  26  43  72 102 137 184 233 287 346 419
#
# _framework density 21.407461999999999
#
# number of rings (size 3 to 8) (size 9 to 14) (size 15 to 20)
#    0.000    1.000    5.000    0.750   12.250    1.000 
#    2.250    0.000    0.000    0.000    0.000    0.000 
#    0.000    0.000    0.000    0.000    0.000    0.000 
#
# Total GULP energy -198370.906392 kJ/mol
# GULP energy per Si atom -12398.181649 kJ/mol
# Density = 2.135874 g / cm^3
# Si number density = 21.407462 Si / 1000 Ang^3
#
#
#
# Elastic Constant Matrix: (Units=GPa)
#
#
# Indices 1 2 3 4 5 6 
#
# 1 112.8407 38.6439 37.9994 0.0000 -0.2238 0.0000
# 2 38.6439 71.6355 28.6796 0.0000 8.7482 0.0000
# 3 37.9994 28.6796 88.9278 0.0000 5.0806 0.0000
# 4 0.0000 0.0000 0.0000 34.5186 0.0000 -5.2404
# 5 -0.2238 8.7482 5.0806 0.0000 49.0986 0.0000
# 6 0.0000 0.0000 0.0000 -5.2404 0.0000 33.1719
#
#
#
# Elastic Compliance Matrix: (Units=1/GPa)
#
#
# Indices 1 2 3 4 5 6 
#
# 1 0.011788 -0.005137 -0.003456 0.000000 0.001327 0.000000
# 2 -0.005137 0.018539 -0.003615 0.000000 -0.002953 0.000000
# 3 -0.003456 -0.003615 0.013934 0.000000 -0.000814 0.000000
# 4 0.000000 0.000000 0.000000 0.029682 0.000000 0.004689
# 5 0.001327 -0.002953 -0.000814 0.000000 0.020983 0.000000
# 6 0.000000 0.000000 0.000000 0.004689 0.000000 0.030887
#
#
# Mechanical properties :
#
#
# Convention : Reuss Voigt Hill
#
# Bulk Modulus (GPa) = 50.39261 53.78332 52.08797
# Shear Modulus (GPa) = 31.87882 34.56324 33.22103
#
# Velocity S-wave (km/s) = 3.86313 4.02250 3.94362
# Velocity P-wave (km/s) = 6.59464 6.83755 6.71719
#
# Compressibility (1/GPa) = 0.01984418
#
# Stress axis : x y z
#
# Youngs Moduli (GPa) = 84.83295 53.94116 71.76615
#
# Poissons Ratio (x) = 0.27712 0.24802
# Poissons Ratio (y) = 0.43582 0.25943
# Poissons Ratio (z) = 0.29318 0.19499
#
# Static dielectric constant tensor:
#      x y z
#    x 3.899740 0.000000 -0.032530 
#    y 0.000000 3.997230 0.000000 
#    z -0.032530 0.000000 3.784680 
# 
# 
# High freq. dielectric constant tensor:
#      x y z
#    x 1.851040 0.000000 -0.010060 
#    y 0.000000 1.846140 0.000000 
#    z -0.010060 0.000000 1.828900 
# 
# From -- ./inp_files/11021.got.cif
#   From: 2010.03.12/outbox.cif.g09.slc.cpg/sg4_6_cif.got.tgz:11021.got - 2010.03.31 09:31:35.
