data_PCOD8047381
_publ_section_title
;
Structure prediction by ZEFSAII (Michael W. Deem and Ramdas Pophale) SiO2 
 PCOD8047381
Probable space group: P 21
;
_chemical_formula_sum "Si O2"
_cell_formula_units_Z 14
_cell_length_a 13.741494
_cell_length_b 6.506952
_cell_length_c 17.982605
_cell_angle_alpha 90.000000
_cell_angle_beta 22.208315
_cell_angle_gamma 90.000000
_cell_volume 607.753414
_symmetry_space_group_name_H-M "P 21"
_symmetry_group_IT_number 4
_symmetry_cell_setting 'monoclinic'
loop_
_space_group_symop_operation_xyz
x,y,z
-x,1/2+y,-z
loop_
_atom_site_type_symbol
_atom_site_label
_atom_site_fract_x
_atom_site_fract_y
_atom_site_fract_z
Si Si1 0.092144 0.274830 0.037742
Si Si2 0.764148 0.876687 0.301680
Si Si3 0.116591 0.256695 0.265164
Si Si4 0.594474 0.068692 0.673539
Si Si5 0.058565 0.579776 0.192036
Si Si6 0.450807 0.921758 0.938991
Si Si7 0.360969 0.006367 0.694522
O O1 0.146175 0.429231 0.065476
O O2 0.898335 0.371303 0.113993
O O3 0.380250 0.241229 0.803431
O O4 0.978188 0.053374 0.142785
O O5 0.725596 0.747556 0.252552
O O6 0.843439 0.732663 0.314979
O O7 0.491834 0.967785 0.521346
O O8 0.967244 0.429194 0.322735
O O9 0.284377 0.381560 0.205655
O O10 0.891267 0.136338 0.468242
O O11 0.290753 0.107283 0.090349
O O12 0.551997 0.938126 0.627141
O O13 0.517614 0.966257 0.805573
O O14 0.301409 0.708224 0.049672
#
# Coordination Sequence:
#
# PCOD8047381 Si02
#       7
#     2   2   2   2   2   2   2
#     4  11  24  43  68 106 152 187 248 305 373 452
#     4  11  22  45  72 105 144 202 249 299 376 464
#     4  12  27  50  79 109 145 205 251 318 391 461
#     4  12  28  47  72 115 152 188 260 316 380 454
#     4  11  22  46  77 100 146 196 240 315 377 445
#     4  12  26  51  78 107 151 192 257 318 386 457
#     4  11  25  42  72 104 150 198 247 307 371 453
#
# _framework density 23.035657
#
# number of rings (size 3 to 8) (size 9 to 14) (size 15 to 20)
#    0.000    0.571    5.714    1.714    4.000    2.286 
#    7.714    0.000    0.000    0.000    0.000    0.000 
#    0.000    0.000    0.000    0.000    0.000    0.000 
#
# Total GULP energy -173435.383623 kJ/mol
# GULP energy per Si atom -12388.241687 kJ/mol
# Density = 2.298323 g / cm^3
# Si number density = 23.035657 Si / 1000 Ang^3
#
#
#
# Elastic Constant Matrix: (Units=GPa)
#
#
# Indices 1 2 3 4 5 6 
#
# 1 107.8301 34.3947 25.6050 0.0000 -4.0308 0.0000
# 2 34.3947 104.7374 26.7304 0.0000 -0.1886 0.0000
# 3 25.6050 26.7304 108.7331 0.0000 -3.7403 0.0000
# 4 0.0000 0.0000 0.0000 32.0311 0.0000 -13.7456
# 5 -4.0308 -0.1886 -3.7403 0.0000 34.9401 0.0000
# 6 0.0000 0.0000 0.0000 -13.7456 0.0000 23.1064
#
#
#
# Elastic Compliance Matrix: (Units=1/GPa)
#
#
# Indices 1 2 3 4 5 6 
#
# 1 0.010703 -0.003071 -0.001730 0.000000 0.001033 0.000000
# 2 -0.003071 0.011070 -0.002016 0.000000 -0.000510 0.000000
# 3 -0.001730 -0.002016 0.010130 0.000000 0.000874 0.000000
# 4 0.000000 0.000000 0.000000 0.041922 0.000000 0.024938
# 5 0.001033 -0.000510 0.000874 0.000000 0.028830 0.000000
# 6 0.000000 0.000000 0.000000 0.024938 0.000000 0.058113
#
#
# Mechanical properties :
#
#
# Convention : Reuss Voigt Hill
#
# Bulk Modulus (GPa) = 54.73810 54.97345 54.85577
# Shear Modulus (GPa) = 27.70220 33.65355 30.67788
#
# Velocity S-wave (km/s) = 3.47158 3.82636 3.65328
# Velocity P-wave (km/s) = 6.31531 6.59073 6.45449
#
# Compressibility (1/GPa) = 0.01826881
#
# Stress axis : x y z
#
# Youngs Moduli (GPa) = 93.43267 90.33582 98.71915
#
# Poissons Ratio (x) = 0.27746 0.17076
# Poissons Ratio (y) = 0.28697 0.19898
# Poissons Ratio (z) = 0.16162 0.18208
#
# Static dielectric constant tensor:
#      x y z
#    x 4.347750 0.000000 -0.129860 
#    y 0.000000 4.448070 0.000000 
#    z -0.129860 0.000000 4.032160 
# 
# 
# High freq. dielectric constant tensor:
#      x y z
#    x 1.923630 0.000000 -0.007890 
#    y 0.000000 1.911360 0.000000 
#    z -0.007890 0.000000 1.907580 
# 
# From -- ./inp_files/15728.got.cif
#   From: 2010.03.12/outbox.cif.g09.slc.cpg/sg4_8_cif.got.tgz:15728.got - 2010.03.31 09:31:35.
