data_PCOD8047656
_publ_section_title
;
Structure prediction by ZEFSAII (Michael W. Deem and Ramdas Pophale) SiO2 
 PCOD8047656
Probable space group: P 21
;
_chemical_formula_sum "Si O2"
_cell_formula_units_Z 16
_cell_length_a 6.443188
_cell_length_b 8.552685
_cell_length_c 16.797500
_cell_angle_alpha 90.000000
_cell_angle_beta 132.469458
_cell_angle_gamma 90.000000
_cell_volume 682.795792
_symmetry_space_group_name_H-M "P 21"
_symmetry_group_IT_number 4
_symmetry_cell_setting 'monoclinic'
loop_
_space_group_symop_operation_xyz
x,y,z
-x,1/2+y,-z
loop_
_atom_site_type_symbol
_atom_site_label
_atom_site_fract_x
_atom_site_fract_y
_atom_site_fract_z
Si Si1 0.742430 0.645940 0.757238
Si Si2 0.847833 0.423821 0.641352
Si Si3 0.869269 0.377456 0.210308
Si Si4 0.118362 0.604763 0.575263
Si Si5 0.210486 0.926188 0.079475
Si Si6 0.686638 0.733086 0.971889
Si Si7 0.282716 0.228954 0.840116
Si Si8 0.213816 0.384340 0.460567
O O1 0.815772 0.572510 0.690364
O O2 0.412284 0.685415 0.676538
O O3 0.818599 0.524124 0.846260
O O4 0.926276 0.806899 0.806647
O O5 0.545869 0.368517 0.530284
O O6 0.045238 0.467278 0.618376
O O7 0.986177 0.282975 0.726766
O O8 0.606083 0.259605 0.150438
O O9 0.727149 0.542831 0.154465
O O10 0.045593 0.391521 0.335904
O O11 0.140843 0.537877 0.492273
O O12 0.873168 0.732464 0.511338
O O13 0.251810 0.047911 0.018063
O O14 0.464531 0.799442 0.147974
O O15 0.927691 0.830438 0.989522
O O16 0.672123 0.791322 0.058808
#
# Coordination Sequence:
#
# PCOD8047656 Si02
#       8
#     2   2   2   2   2   2   2   2
#     4  11  24  47  74 102 149 203 250 314 379 449
#     4  11  24  47  74 105 149 200 247 315 380 449
#     4  12  28  47  75 112 154 194 260 317 381 456
#     4  11  25  47  72 108 150 200 252 305 385 452
#     4  12  26  48  76 108 152 203 257 309 393 454
#     4  12  28  48  75 110 153 201 256 317 386 457
#     4  12  27  48  74 110 150 200 253 325 377 464
#     4  11  28  44  74 109 149 199 249 314 381 457
#
# _framework density 23.433067000000001
#
# number of rings (size 3 to 8) (size 9 to 14) (size 15 to 20)
#    0.000    0.500    3.750    3.000   10.500    0.000 
#    4.500    0.000    0.000    0.000    0.000    0.000 
#    0.000    0.000    0.000    0.000    0.000    0.000 
#
# Total GULP energy -198441.792690 kJ/mol
# GULP energy per Si atom -12402.612043 kJ/mol
# Density = 2.337973 g / cm^3
# Si number density = 23.433067 Si / 1000 Ang^3
#
#
#
# Elastic Constant Matrix: (Units=GPa)
#
#
# Indices 1 2 3 4 5 6 
#
# 1 127.3640 52.5507 61.0676 0.0000 21.7732 0.0000
# 2 52.5507 121.4076 30.0559 0.0000 20.6883 0.0000
# 3 61.0676 30.0559 127.5705 0.0000 21.1713 0.0000
# 4 0.0000 0.0000 0.0000 35.9131 0.0000 8.3424
# 5 21.7732 20.6883 21.1713 0.0000 43.2498 0.0000
# 6 0.0000 0.0000 0.0000 8.3424 0.0000 55.1815
#
#
#
# Elastic Compliance Matrix: (Units=1/GPa)
#
#
# Indices 1 2 3 4 5 6 
#
# 1 0.011862 -0.003682 -0.004476 0.000000 -0.002019 0.000000
# 2 -0.003682 0.010392 -0.000183 0.000000 -0.003027 0.000000
# 3 -0.004476 -0.000183 0.010488 0.000000 -0.002793 0.000000
# 4 0.000000 0.000000 0.000000 0.028858 0.000000 -0.004363
# 5 -0.002019 -0.003027 -0.002793 0.000000 0.026954 0.000000
# 6 0.000000 0.000000 0.000000 -0.004363 0.000000 0.018782
#
#
# Mechanical properties :
#
#
# Convention : Reuss Voigt Hill
#
# Bulk Modulus (GPa) = 62.26820 73.74340 68.00580
# Shear Modulus (GPa) = 38.64858 42.38007 40.51432
#
# Velocity S-wave (km/s) = 4.06559 4.25733 4.16256
# Velocity P-wave (km/s) = 6.97633 7.46355 7.22405
#
# Compressibility (1/GPa) = 0.01605956
#
# Stress axis : x y z
#
# Youngs Moduli (GPa) = 84.30279 96.22949 95.34725
#
# Poissons Ratio (x) = 0.35435 0.42674
# Poissons Ratio (y) = 0.31043 0.01747
# Poissons Ratio (z) = 0.37731 0.01763
#
# Static dielectric constant tensor:
#      x y z
#    x 4.343280 0.000000 0.110910 
#    y 0.000000 4.210320 0.000000 
#    z 0.110910 0.000000 4.097710 
# 
# 
# High freq. dielectric constant tensor:
#      x y z
#    x 1.936220 0.000000 0.005230 
#    y 0.000000 1.927120 0.000000 
#    z 0.005230 0.000000 1.932440 
# 
# From -- ./inp_files/2578.got.cif
#   From: 2010.03.12/outbox.cif.g09.slc.cpg/sg4_2_cif.got.tgz:2578.got - 2010.03.31 09:31:35.
