data_PCOD8047394
_publ_section_title
;
Structure prediction by ZEFSAII (Michael W. Deem and Ramdas Pophale) SiO2 
 PCOD8047394
Probable space group: P 21
;
_chemical_formula_sum "Si O2"
_cell_formula_units_Z 14
_cell_length_a 5.458857
_cell_length_b 10.113527
_cell_length_c 15.020517
_cell_angle_alpha 90.000000
_cell_angle_beta 139.408885
_cell_angle_gamma 90.000000
_cell_volume 539.561543
_symmetry_space_group_name_H-M "P 21"
_symmetry_group_IT_number 4
_symmetry_cell_setting 'monoclinic'
loop_
_space_group_symop_operation_xyz
x,y,z
-x,1/2+y,-z
loop_
_atom_site_type_symbol
_atom_site_label
_atom_site_fract_x
_atom_site_fract_y
_atom_site_fract_z
Si Si1 0.395203 0.088400 0.454547
Si Si2 0.516293 0.155898 0.825000
Si Si3 0.405094 0.487049 0.312509
Si Si4 0.228453 0.420503 0.809427
Si Si5 0.322293 0.163047 0.115501
Si Si6 0.613592 0.400168 0.094136
Si Si7 0.247724 0.725998 0.607120
O O1 0.691623 0.168895 0.475844
O O2 0.118733 0.176486 0.440828
O O3 0.653954 0.013945 0.598492
O O4 0.161726 0.988192 0.327333
O O5 0.231929 0.276936 0.763085
O O6 0.520746 0.123311 0.720825
O O7 0.422603 0.022671 0.850055
O O8 0.912242 0.207055 0.972066
O O9 0.758524 0.386072 0.399736
O O10 0.031960 0.417131 0.168455
O O11 0.584482 0.511351 0.881613
O O12 0.274661 0.401035 0.928464
O O13 0.614245 0.261273 0.146053
O O14 0.378160 0.180276 0.236219
#
# Coordination Sequence:
#
# PCOD8047394 Si02
#       7
#     2   2   2   2   2   2   2
#     4  11  29  47  78 106 154 203 252 316 378 458
#     4  12  25  43  73 113 148 186 262 320 379 444
#     4  12  27  47  74 109 147 205 250 316 380 457
#     4  11  24  44  70 112 144 195 252 315 376 450
#     4  11  22  47  75 108 146 202 246 314 381 457
#     4  12  24  47  77 108 151 198 255 315 390 451
#     4  11  25  51  75 104 154 201 257 302 390 457
#
# _framework density 25.946994
#
# number of rings (size 3 to 8) (size 9 to 14) (size 15 to 20)
#    0.000    0.571    2.857    5.143    4.000    1.143 
#    2.571    0.000    0.000    0.000    0.000    0.000 
#    0.000    0.000    0.000    0.000    0.000    0.000 
#
# Total GULP energy -173579.108505 kJ/mol
# GULP energy per Si atom -12398.507750 kJ/mol
# Density = 2.588794 g / cm^3
# Si number density = 25.946994 Si / 1000 Ang^3
#
#
#
# Elastic Constant Matrix: (Units=GPa)
#
#
# Indices 1 2 3 4 5 6 
#
# 1 80.5426 13.2362 9.4781 0.0000 -13.5589 0.0000
# 2 13.2362 93.8132 16.7190 0.0000 -20.8711 0.0000
# 3 9.4781 16.7190 96.2887 0.0000 -17.7890 0.0000
# 4 0.0000 0.0000 0.0000 23.1555 0.0000 -14.0468
# 5 -13.5589 -20.8711 -17.7890 0.0000 39.8026 0.0000
# 6 0.0000 0.0000 0.0000 -14.0468 0.0000 37.3540
#
#
#
# Elastic Compliance Matrix: (Units=1/GPa)
#
#
# Indices 1 2 3 4 5 6 
#
# 1 0.013267 -0.000942 -0.000435 0.000000 0.003831 0.000000
# 2 -0.000942 0.012225 -0.000986 0.000000 0.005649 0.000000
# 3 -0.000435 -0.000986 0.011419 0.000000 0.004438 0.000000
# 4 0.000000 0.000000 0.000000 0.055949 0.000000 0.021039
# 5 0.003831 0.005649 0.004438 0.000000 0.031375 0.000000
# 6 0.000000 0.000000 0.000000 0.021039 0.000000 0.034683
#
#
# Mechanical properties :
#
#
# Convention : Reuss Voigt Hill
#
# Bulk Modulus (GPa) = 31.07024 38.83456 34.95240
# Shear Modulus (GPa) = 28.67435 35.47652 32.07543
#
# Velocity S-wave (km/s) = 3.32793 3.70167 3.51976
# Velocity P-wave (km/s) = 5.17371 5.76795 5.47889
#
# Compressibility (1/GPa) = 0.03218514
#
# Stress axis : x y z
#
# Youngs Moduli (GPa) = 75.37678 81.80068 87.56971
#
# Poissons Ratio (x) = 0.07706 0.03805
# Poissons Ratio (y) = 0.07101 0.08638
# Poissons Ratio (z) = 0.03275 0.08069
#
# Static dielectric constant tensor:
#      x y z
#    x 4.469470 0.000000 -0.132590 
#    y 0.000000 4.635180 0.000000 
#    z -0.132590 0.000000 4.898470 
# 
# 
# High freq. dielectric constant tensor:
#      x y z
#    x 2.022290 0.000000 -0.013170 
#    y 0.000000 2.043070 0.000000 
#    z -0.013170 0.000000 2.052400 
# 
# From -- ./inp_files/2656.got.cif
#   From: 2010.03.12/outbox.cif.g09.slc.cpg/sg4_2_cif.got.tgz:2656.got - 2010.03.31 09:31:35.
