data_PCOD8047358
_publ_section_title
;
Structure prediction by ZEFSAII (Michael W. Deem and Ramdas Pophale) SiO2 
 PCOD8047358
Probable space group: P 21
;
_chemical_formula_sum "Si O2"
_cell_formula_units_Z 14
_cell_length_a 9.676543
_cell_length_b 9.091427
_cell_length_c 9.450197
_cell_angle_alpha 90.000000
_cell_angle_beta 48.533157
_cell_angle_gamma 90.000000
_cell_volume 622.976287
_symmetry_space_group_name_H-M "P 21"
_symmetry_group_IT_number 4
_symmetry_cell_setting 'monoclinic'
loop_
_space_group_symop_operation_xyz
x,y,z
-x,1/2+y,-z
loop_
_atom_site_type_symbol
_atom_site_label
_atom_site_fract_x
_atom_site_fract_y
_atom_site_fract_z
Si Si1 0.642247 0.697530 0.056452
Si Si2 0.150539 0.102955 0.368199
Si Si3 0.801033 0.918201 0.173222
Si Si4 0.728639 0.690422 0.423773
Si Si5 0.330405 0.708883 0.631623
Si Si6 0.772528 0.263199 0.616530
Si Si7 0.805554 0.474916 0.151993
O O1 0.721735 0.840561 0.085105
O O2 0.422539 0.718206 0.176082
O O3 0.668239 0.553666 0.135501
O O4 0.760781 0.669135 0.834478
O O5 0.264473 0.186598 0.412917
O O6 0.936936 0.148079 0.540208
O O7 0.171418 0.926518 0.367547
O O8 0.866883 0.803365 0.250919
O O9 0.660822 0.037750 0.331862
O O10 0.983270 0.013614 0.020872
O O11 0.540235 0.762010 0.492233
O O12 0.760344 0.527370 0.342407
O O13 0.245249 0.746972 0.538711
O O14 0.222507 0.799447 0.826673
#
# Coordination Sequence:
#
# PCOD8047358 Si02
#       7
#     2   2   2   2   2   2   2
#     4  11  27  50  72 111 153 197 245 308 383 456
#     4  12  29  49  72 113 154 200 250 314 387 451
#     4  11  23  43  75 107 141 187 252 307 364 445
#     4  11  24  44  71 104 140 193 245 300 376 436
#     4  12  22  45  76 102 141 193 247 311 364 446
#     4  12  27  50  75 106 159 202 251 313 383 454
#     4  11  22  43  73 105 138 188 248 305 365 440
#
# _framework density 22.472766
#
# number of rings (size 3 to 8) (size 9 to 14) (size 15 to 20)
#    0.000    0.571    4.286    5.143    4.000    2.286 
#    2.571    0.000    0.000    0.000    0.000    0.000 
#    0.000    0.000    0.000    0.000    0.000    0.000 
#
# Total GULP energy -173497.677100 kJ/mol
# GULP energy per Si atom -12392.691221 kJ/mol
# Density = 2.242162 g / cm^3
# Si number density = 22.472766 Si / 1000 Ang^3
#
#
#
# Elastic Constant Matrix: (Units=GPa)
#
#
# Indices 1 2 3 4 5 6 
#
# 1 92.7888 54.2200 37.4243 0.0000 -5.4283 0.0000
# 2 54.2200 124.6446 52.2061 0.0000 4.3282 0.0000
# 3 37.4243 52.2061 114.2798 0.0000 5.7674 0.0000
# 4 0.0000 0.0000 0.0000 35.4769 0.0000 -4.5324
# 5 -5.4283 4.3282 5.7674 0.0000 48.9049 0.0000
# 6 0.0000 0.0000 0.0000 -4.5324 0.0000 30.5832
#
#
#
# Elastic Compliance Matrix: (Units=1/GPa)
#
#
# Indices 1 2 3 4 5 6 
#
# 1 0.015253 -0.005660 -0.002535 0.000000 0.002493 0.000000
# 2 -0.005660 0.012027 -0.003577 0.000000 -0.001271 0.000000
# 3 -0.002535 -0.003577 0.011280 0.000000 -0.001295 0.000000
# 4 0.000000 0.000000 0.000000 0.028731 0.000000 0.004258
# 5 0.002493 -0.001271 -0.001295 0.000000 0.020990 0.000000
# 6 0.000000 0.000000 0.000000 0.004258 0.000000 0.033329
#
#
# Mechanical properties :
#
#
# Convention : Reuss Voigt Hill
#
# Bulk Modulus (GPa) = 66.59356 68.82378 67.70867
# Shear Modulus (GPa) = 33.29831 35.51720 34.40776
#
# Velocity S-wave (km/s) = 3.85349 3.97981 3.91716
# Velocity P-wave (km/s) = 7.03537 7.19794 7.11712
#
# Compressibility (1/GPa) = 0.01501647
#
# Stress axis : x y z
#
# Youngs Moduli (GPa) = 65.56239 83.14715 88.65244
#
# Poissons Ratio (x) = 0.47057 0.22476
# Poissons Ratio (y) = 0.37105 0.31708
# Poissons Ratio (z) = 0.16622 0.29739
#
# Static dielectric constant tensor:
#      x y z
#    x 3.985260 0.000000 -0.102260 
#    y 0.000000 4.070140 0.000000 
#    z -0.102260 0.000000 4.114550 
# 
# 
# High freq. dielectric constant tensor:
#      x y z
#    x 1.878080 0.000000 -0.012300 
#    y 0.000000 1.898640 0.000000 
#    z -0.012300 0.000000 1.894280 
# 
# From -- ./inp_files/5235.got.cif
#   From: 2010.03.12/outbox.cif.g09.slc.cpg/sg4_3_cif.got.tgz:5235.got - 2010.03.31 09:31:35.
