data_PCOD8047056
_publ_section_title
;
Structure prediction by ZEFSAII (Michael W. Deem and Ramdas Pophale) SiO2 
 PCOD8047056
Probable space group: P 21
;
_chemical_formula_sum "Si O2"
_cell_formula_units_Z 16
_cell_length_a 11.444509
_cell_length_b 11.542212
_cell_length_c 8.443938
_cell_angle_alpha 90.000000
_cell_angle_beta 138.201689
_cell_angle_gamma 90.000000
_cell_volume 743.426845
_symmetry_space_group_name_H-M "P 21"
_symmetry_group_IT_number 4
_symmetry_cell_setting 'monoclinic'
loop_
_space_group_symop_operation_xyz
x,y,z
-x,1/2+y,-z
loop_
_atom_site_type_symbol
_atom_site_label
_atom_site_fract_x
_atom_site_fract_y
_atom_site_fract_z
Si Si1 0.142893 0.555700 0.717873
Si Si2 0.862432 0.466015 0.210448
Si Si3 0.308976 0.399810 0.110814
Si Si4 0.306772 0.777074 0.784438
Si Si5 0.702077 0.425962 0.530248
Si Si6 0.697598 0.701481 0.128485
Si Si7 0.134871 0.163603 0.375095
Si Si8 0.982687 0.878289 0.939722
O O1 0.193666 0.660193 0.651888
O O2 0.014714 0.469478 0.495988
O O3 0.048526 0.600854 0.781157
O O4 0.309361 0.488791 0.960828
O O5 0.752032 0.345902 0.115653
O O6 0.724925 0.570969 0.092282
O O7 0.963518 0.467005 0.145153
O O8 0.502429 0.400443 0.383740
O O9 0.167519 0.433729 0.101406
O O10 0.251490 0.278542 0.972254
O O11 0.267079 0.868910 0.608403
O O12 0.503570 0.732668 0.988317
O O13 0.728795 0.565399 0.548503
O O14 0.836505 0.360189 0.781692
O O15 0.811320 0.721712 0.402049
O O16 0.103829 0.259999 0.211126
#
# Coordination Sequence:
#
# PCOD8047056 Si02
#       8
#     2   2   2   2   2   2   2   2
#     4  11  22  41  72  98 127 178 233 285 343 391
#     4  11  24  42  68 100 134 175 229 285 337 410
#     4  11  25  45  68 102 138 188 222 282 345 411
#     4  11  22  44  70 102 128 174 235 288 340 397
#     4  11  25  46  66  98 144 174 235 282 341 410
#     4  10  24  42  73  96 134 175 234 287 337 398
#     4  11  22  43  70  96 133 183 224 295 332 401
#     4  12  26  43  65 100 142 185 220 274 353 418
#
# _framework density 21.521957
#
# number of rings (size 3 to 8) (size 9 to 14) (size 15 to 20)
#    0.000    1.000    5.000    1.500    8.750    1.000 
#    4.500    0.000    0.000    0.000    0.000    0.000 
#    0.000    0.000    0.000    0.000    0.000    0.000 
#
# Total GULP energy -198301.875038 kJ/mol
# GULP energy per Si atom -12393.867190 kJ/mol
# Density = 2.147297 g / cm^3
# Si number density = 21.521957 Si / 1000 Ang^3
#
#
#
# Elastic Constant Matrix: (Units=GPa)
#
#
# Indices 1 2 3 4 5 6 
#
# 1 119.8316 42.5298 50.8919 0.0000 8.8889 0.0000
# 2 42.5298 113.7955 54.5138 0.0000 3.0586 0.0000
# 3 50.8919 54.5138 114.9075 0.0000 11.9462 0.0000
# 4 0.0000 0.0000 0.0000 38.8926 0.0000 -0.3444
# 5 8.8889 3.0586 11.9462 0.0000 24.0183 0.0000
# 6 0.0000 0.0000 0.0000 -0.3444 0.0000 37.1632
#
#
#
# Elastic Compliance Matrix: (Units=1/GPa)
#
#
# Indices 1 2 3 4 5 6 
#
# 1 0.010789 -0.002314 -0.003476 0.000000 -0.001969 0.000000
# 2 -0.002314 0.011907 -0.004804 0.000000 0.001729 0.000000
# 3 -0.003476 -0.004804 0.012996 0.000000 -0.004566 0.000000
# 4 0.000000 0.000000 0.000000 0.025714 0.000000 0.000238
# 5 -0.001969 0.001729 -0.004566 0.000000 0.044415 0.000000
# 6 0.000000 0.000000 0.000000 0.000238 0.000000 0.026911
#
#
# Mechanical properties :
#
#
# Convention : Reuss Voigt Hill
#
# Bulk Modulus (GPa) = 68.94507 71.60065 70.27286
# Shear Modulus (GPa) = 31.49551 33.38807 32.44179
#
# Velocity S-wave (km/s) = 3.82961 3.94299 3.88671
# Velocity P-wave (km/s) = 7.18741 7.35326 7.27081
#
# Compressibility (1/GPa) = 0.01450430
#
# Stress axis : x y z
#
# Youngs Moduli (GPa) = 92.69122 83.98108 76.94865
#
# Poissons Ratio (x) = 0.19435 0.26744
# Poissons Ratio (y) = 0.21451 0.36966
# Poissons Ratio (z) = 0.32215 0.40344
#
# Static dielectric constant tensor:
#      x y z
#    x 3.935970 0.000000 0.056440 
#    y 0.000000 3.972430 0.000000 
#    z 0.056440 0.000000 3.837560 
# 
# 
# High freq. dielectric constant tensor:
#      x y z
#    x 1.846020 0.000000 0.008380 
#    y 0.000000 1.848460 0.000000 
#    z 0.008380 0.000000 1.836550 
# 
# From -- ./inp_files/8162.got.cif
#   From: 2010.03.12/outbox.cif.g09.slc.cpg/sg4_5_cif.got.tgz:8162.got - 2010.03.31 09:31:35.
