data_PCOD8047382
_publ_section_title
;
Structure prediction by ZEFSAII (Michael W. Deem and Ramdas Pophale) SiO2 
 PCOD8047382
Probable space group: P 21
;
_chemical_formula_sum "Si O2"
_cell_formula_units_Z 16
_cell_length_a 9.720345
_cell_length_b 15.116741
_cell_length_c 6.679049
_cell_angle_alpha 90.000000
_cell_angle_beta 50.074762
_cell_angle_gamma 90.000000
_cell_volume 752.633118
_symmetry_space_group_name_H-M "P 21"
_symmetry_group_IT_number 4
_symmetry_cell_setting 'monoclinic'
loop_
_space_group_symop_operation_xyz
x,y,z
-x,1/2+y,-z
loop_
_atom_site_type_symbol
_atom_site_label
_atom_site_fract_x
_atom_site_fract_y
_atom_site_fract_z
Si Si1 0.476115 0.754250 0.860551
Si Si2 0.814429 0.820158 0.332060
Si Si3 0.315500 0.638383 0.684679
Si Si4 0.686224 0.952458 0.127973
Si Si5 0.363743 0.936521 0.158198
Si Si6 0.402836 0.122461 0.916861
Si Si7 0.981507 0.879319 0.563573
Si Si8 0.032062 0.211055 0.162508
O O1 0.675963 0.762592 0.588693
O O2 0.342669 0.718549 0.814611
O O3 0.399374 0.848375 0.998341
O O4 0.491462 0.686620 0.030728
O O5 0.708523 0.890684 0.298296
O O6 0.944560 0.871977 0.361636
O O7 0.930034 0.756151 0.085609
O O8 0.275200 0.552461 0.852393
O O9 0.496259 0.626724 0.388586
O O10 0.146422 0.653017 0.696938
O O11 0.483620 0.937731 0.245044
O O12 0.817668 0.927776 0.824054
O O13 0.159226 0.938080 0.425303
O O14 0.408632 0.021910 0.984533
O O15 0.197508 0.151075 0.077990
O O16 0.010792 0.782311 0.627094
#
# Coordination Sequence:
#
# PCOD8047382 Si02
#       8
#     2   2   2   2   2   2   2   2
#     4  12  23  47  73  99 142 185 229 292 353 410
#     4  11  22  45  72  98 139 180 226 295 345 409
#     4  12  27  44  71 101 139 187 234 285 352 421
#     4  11  26  45  67 103 137 179 232 289 347 413
#     4  12  26  46  72 104 142 186 236 287 354 420
#     4  12  26  47  69 103 142 184 232 293 345 413
#     4  11  25  46  70 100 139 183 230 291 348 419
#     4  11  25  44  70 102 136 182 235 282 350 417
#
# _framework density 21.258697000000002
#
# number of rings (size 3 to 8) (size 9 to 14) (size 15 to 20)
#    0.000    0.500    5.000    3.000    3.500    2.000 
#    4.500    0.000    0.000    0.000    0.000    0.000 
#    0.000    0.000    0.000    0.000    0.000    0.000 
#
# Total GULP energy -198520.577404 kJ/mol
# GULP energy per Si atom -12407.536088 kJ/mol
# Density = 2.121031 g / cm^3
# Si number density = 21.258697 Si / 1000 Ang^3
#
#
#
# Elastic Constant Matrix: (Units=GPa)
#
#
# Indices 1 2 3 4 5 6 
#
# 1 136.7335 34.3008 30.3154 0.0000 3.7209 0.0000
# 2 34.3008 129.2515 27.6456 0.0000 12.9971 0.0000
# 3 30.3154 27.6456 55.0697 0.0000 19.8305 0.0000
# 4 0.0000 0.0000 0.0000 23.7517 0.0000 -0.2730
# 5 3.7209 12.9971 19.8305 0.0000 30.2550 0.0000
# 6 0.0000 0.0000 0.0000 -0.2730 0.0000 36.5861
#
#
#
# Elastic Compliance Matrix: (Units=1/GPa)
#
#
# Indices 1 2 3 4 5 6 
#
# 1 0.008748 -0.001524 -0.005103 0.000000 0.002924 0.000000
# 2 -0.001524 0.008963 -0.003065 0.000000 -0.001654 0.000000
# 3 -0.005103 -0.003065 0.028544 0.000000 -0.016764 0.000000
# 4 0.000000 0.000000 0.000000 0.042106 0.000000 0.000314
# 5 0.002924 -0.001654 -0.016764 0.000000 0.044391 0.000000
# 6 0.000000 0.000000 0.000000 0.000314 0.000000 0.027335
#
#
# Mechanical properties :
#
#
# Convention : Reuss Voigt Hill
#
# Bulk Modulus (GPa) = 37.21642 56.17537 46.69590
# Shear Modulus (GPa) = 26.53527 33.37141 29.95334
#
# Velocity S-wave (km/s) = 3.53683 3.96634 3.75773
# Velocity P-wave (km/s) = 5.85007 6.88896 6.39066
#
# Compressibility (1/GPa) = 0.02686986
#
# Stress axis : x y z
#
# Youngs Moduli (GPa) = 114.31585 111.56737 35.03396
#
# Poissons Ratio (x) = 0.17002 0.17879
# Poissons Ratio (y) = 0.17421 0.10738
# Poissons Ratio (z) = 0.58340 0.34197
#
# Static dielectric constant tensor:
#      x y z
#    x 4.063590 0.000000 0.057080 
#    y 0.000000 3.876110 0.000000 
#    z 0.057080 0.000000 3.840690 
# 
# 
# High freq. dielectric constant tensor:
#      x y z
#    x 1.849690 0.000000 0.003740 
#    y 0.000000 1.837760 0.000000 
#    z 0.003740 0.000000 1.838550 
# 
# From -- ./inp_files/1837.got.cif
#   From: 2010.03.12/outbox.cif.g09.slc.cpg/sg4_1_cif.got.tgz:1837.got - 2010.03.31 09:31:35.
