data_PCOD8047170
_publ_section_title
;
Structure prediction by ZEFSAII (Michael W. Deem and Ramdas Pophale) SiO2 
 PCOD8047170
Probable space group: P 21
;
_chemical_formula_sum "Si O2"
_cell_formula_units_Z 16
_cell_length_a 8.145874
_cell_length_b 9.625854
_cell_length_c 9.842574
_cell_angle_alpha 90.000000
_cell_angle_beta 117.171516
_cell_angle_gamma 90.000000
_cell_volume 686.596617
_symmetry_space_group_name_H-M "P 21"
_symmetry_group_IT_number 4
_symmetry_cell_setting 'monoclinic'
loop_
_space_group_symop_operation_xyz
x,y,z
-x,1/2+y,-z
loop_
_atom_site_type_symbol
_atom_site_label
_atom_site_fract_x
_atom_site_fract_y
_atom_site_fract_z
Si Si1 0.879507 0.481940 0.527329
Si Si2 0.599764 0.101510 0.686395
Si Si3 0.235598 0.411500 0.809767
Si Si4 0.535701 0.317919 0.438166
Si Si5 0.651632 0.421559 0.941607
Si Si6 0.232083 0.120134 0.237874
Si Si7 0.275660 0.104049 0.778637
Si Si8 0.155332 0.639887 0.997969
O O1 0.739459 0.349882 0.453276
O O2 0.794848 0.577978 0.615238
O O3 0.886887 0.569692 0.390814
O O4 0.087682 0.436838 0.634440
O O5 0.562936 0.243880 0.592689
O O6 0.465555 0.098544 0.766044
O O7 0.570295 0.965618 0.580992
O O8 0.807161 0.101441 0.828792
O O9 0.436947 0.452417 0.834259
O O10 0.235540 0.247810 0.841181
O O11 0.184060 0.500011 0.921980
O O12 0.409274 0.222118 0.291527
O O13 0.749122 0.480924 0.844115
O O14 0.722544 0.490387 0.105006
O O15 0.697492 0.260167 0.981171
O O16 0.050383 0.197158 0.108957
#
# Coordination Sequence:
#
# PCOD8047170 Si02
#       8
#     2   2   2   2   2   2   2   2
#     4  10  25  46  69 101 144 183 241 293 347 428
#     4  11  23  44  69 100 142 182 234 292 353 418
#     4  11  24  45  71 100 140 187 234 293 358 421
#     4  11  23  44  70  96 140 185 228 289 351 414
#     4  12  25  44  73 105 140 187 230 295 364 416
#     4  11  26  43  71 107 139 186 242 289 350 422
#     4  11  24  44  68 103 142 184 233 290 359 419
#     4  11  26  46  69 104 147 182 238 299 346 434
#
# _framework density 23.303349000000001
#
# number of rings (size 3 to 8) (size 9 to 14) (size 15 to 20)
#    0.000    1.000    5.000    0.750    3.500    7.000 
#    0.000    0.000    0.000    0.000    0.000    0.000 
#    0.000    0.000    0.000    0.000    0.000    0.000 
#
# Total GULP energy -198337.009047 kJ/mol
# GULP energy per Si atom -12396.063065 kJ/mol
# Density = 2.325031 g / cm^3
# Si number density = 23.303349 Si / 1000 Ang^3
#
#
#
# Elastic Constant Matrix: (Units=GPa)
#
#
# Indices 1 2 3 4 5 6 
#
# 1 60.4684 20.2305 49.4378 0.0000 26.6351 0.0000
# 2 20.2305 130.7798 72.7480 0.0000 -0.8035 0.0000
# 3 49.4378 72.7480 164.2512 0.0000 28.1528 0.0000
# 4 0.0000 0.0000 0.0000 43.6854 0.0000 -0.7450
# 5 26.6351 -0.8035 28.1528 0.0000 45.3065 0.0000
# 6 0.0000 0.0000 0.0000 -0.7450 0.0000 29.2199
#
#
#
# Elastic Compliance Matrix: (Units=1/GPa)
#
#
# Indices 1 2 3 4 5 6 
#
# 1 0.026849 -0.001222 -0.005407 0.000000 -0.012446 0.000000
# 2 -0.001222 0.010671 -0.005052 0.000000 0.004047 0.000000
# 3 -0.005407 -0.005052 0.010547 0.000000 -0.003465 0.000000
# 4 0.000000 0.000000 0.000000 0.022901 0.000000 0.000584
# 5 -0.012446 0.004047 -0.003465 0.000000 0.031614 0.000000
# 6 0.000000 0.000000 0.000000 0.000584 0.000000 0.034238
#
#
# Mechanical properties :
#
#
# Convention : Reuss Voigt Hill
#
# Bulk Modulus (GPa) = 40.47726 71.14801 55.81264
# Shear Modulus (GPa) = 29.68840 37.84790 33.76815
#
# Velocity S-wave (km/s) = 3.57318 4.03443 3.81079
# Velocity P-wave (km/s) = 5.86779 7.23186 6.58524
#
# Compressibility (1/GPa) = 0.02470523
#
# Stress axis : x y z
#
# Youngs Moduli (GPa) = 37.24499 93.71629 94.81442
#
# Poissons Ratio (x) = 0.11455 0.51263
# Poissons Ratio (y) = 0.04552 0.47898
# Poissons Ratio (z) = 0.20137 0.47344
#
# Static dielectric constant tensor:
#      x y z
#    x 4.033670 0.000000 0.534280 
#    y 0.000000 4.229430 0.000000 
#    z 0.534280 0.000000 4.559340 
# 
# 
# High freq. dielectric constant tensor:
#      x y z
#    x 1.895130 0.000000 0.031080 
#    y 0.000000 1.923960 0.000000 
#    z 0.031080 0.000000 1.942640 
# 
# From -- ./inp_files/5856.got.cif
#   From: 2010.03.12/outbox.cif.g09.slc.cpg/sg4_3_cif.got.tgz:5856.got - 2010.03.31 09:31:35.
