data_PCOD8047450
_publ_section_title
;
Structure prediction by ZEFSAII (Michael W. Deem and Ramdas Pophale) SiO2 
 PCOD8047450
Probable space group: P 21
;
_chemical_formula_sum "Si O2"
_cell_formula_units_Z 16
_cell_length_a 9.129789
_cell_length_b 5.006093
_cell_length_c 28.848695
_cell_angle_alpha 90.000000
_cell_angle_beta 28.859854
_cell_angle_gamma 90.000000
_cell_volume 636.407212
_symmetry_space_group_name_H-M "P 21"
_symmetry_group_IT_number 4
_symmetry_cell_setting 'monoclinic'
loop_
_space_group_symop_operation_xyz
x,y,z
-x,1/2+y,-z
loop_
_atom_site_type_symbol
_atom_site_label
_atom_site_fract_x
_atom_site_fract_y
_atom_site_fract_z
Si Si1 0.174986 0.018380 0.762590
Si Si2 0.343442 0.453380 0.299656
Si Si3 0.217413 0.654998 0.885718
Si Si4 0.268150 0.783355 0.231104
Si Si5 0.380367 0.939570 0.926949
Si Si6 0.386410 0.200610 0.053783
Si Si7 0.230212 0.504758 0.688062
Si Si8 0.906088 0.322570 0.497356
O O1 0.460796 0.106149 0.715536
O O2 0.080246 0.305997 0.767887
O O3 0.266387 0.805682 0.696818
O O4 0.923936 0.871721 0.864103
O O5 0.583051 0.238976 0.213438
O O6 0.200990 0.635569 0.298492
O O7 0.066895 0.307868 0.402416
O O8 0.398820 0.410711 0.857844
O O9 0.197155 0.879936 0.930883
O O10 0.865354 0.589449 0.971039
O O11 0.310889 0.588769 0.174603
O O12 0.993515 0.988980 0.295303
O O13 0.510378 0.690867 0.920582
O O14 0.625275 0.395501 0.960235
O O15 0.557700 0.391174 0.583668
O O16 0.932784 0.034560 0.513516
#
# Coordination Sequence:
#
# PCOD8047450 Si02
#       8
#     2   2   2   2   2   2   2   2
#     4  12  25  46  75 102 150 188 247 302 372 441
#     4  11  27  45  72 110 138 188 254 307 369 449
#     4  11  24  42  71  98 147 191 245 296 367 444
#     4  11  26  45  72 105 149 192 247 305 372 448
#     4  11  23  43  67  98 142 198 236 292 365 443
#     4  12  27  41  67 105 143 186 247 300 359 432
#     4  12  25  49  76 105 142 199 239 309 378 447
#     4  12  25  51  80 107 143 194 245 311 388 460
#
# _framework density 25.141135999999999
#
# number of rings (size 3 to 8) (size 9 to 14) (size 15 to 20)
#    0.000    0.500    5.000    2.250    8.750    0.000 
#    2.250    0.000    0.000    0.000    0.000    0.000 
#    0.000    0.000    0.000    0.000    0.000    0.000 
#
# Total GULP energy -198272.517253 kJ/mol
# GULP energy per Si atom -12392.032328 kJ/mol
# Density = 2.508391 g / cm^3
# Si number density = 25.141136 Si / 1000 Ang^3
#
#
#
# Elastic Constant Matrix: (Units=GPa)
#
#
# Indices 1 2 3 4 5 6 
#
# 1 98.2683 4.0682 19.3186 -0.0028 1.0724 -0.0031
# 2 4.0682 59.8214 -13.5067 0.0065 13.3118 0.0014
# 3 19.3186 -13.5067 111.5769 0.0581 13.8773 0.0269
# 4 -0.0028 0.0065 0.0581 30.3286 0.0128 -2.1676
# 5 1.0724 13.3118 13.8773 0.0128 37.7001 0.0026
# 6 -0.0031 0.0014 0.0269 -2.1676 0.0026 29.2911
#
#
#
# Elastic Compliance Matrix: (Units=1/GPa)
#
#
# Indices 1 2 3 4 5 6 
#
# 1 0.010645 -0.001427 -0.002139 0.000005 0.000988 0.000003
# 2 -0.001427 0.019445 0.003615 -0.000008 -0.008156 -0.000004
# 3 -0.002139 0.003615 0.010398 -0.000020 -0.005043 -0.000011
# 4 0.000005 -0.000008 -0.000020 0.033148 -0.000001 0.002453
# 5 0.000988 -0.008156 -0.005043 -0.000001 0.031233 0.000002
# 6 0.000003 -0.000004 -0.000011 0.002453 0.000002 0.034322
#
#
# Mechanical properties :
#
#
# Convention : Reuss Voigt Hill
#
# Bulk Modulus (GPa) = 24.63850 32.15851 28.39851
# Shear Modulus (GPa) = 32.76137 36.78306 34.77221
#
# Velocity S-wave (km/s) = 3.61376 3.82915 3.72301
# Velocity P-wave (km/s) = 5.21859 5.68936 5.45905
#
# Compressibility (1/GPa) = 0.04058689
#
# Stress axis : x y z
#
# Youngs Moduli (GPa) = 93.94124 51.42809 96.17608
#
# Poissons Ratio (x) = 0.07337 0.20569
# Poissons Ratio (y) = 0.13403 -0.34770
# Poissons Ratio (z) = 0.20091 -0.18593
#
# Static dielectric constant tensor:
#      x y z
#    x 4.572840 0.000020 0.031950 
#    y 0.000020 4.433450 0.000010 
#    z 0.031950 0.000010 4.573870 
# 
# 
# High freq. dielectric constant tensor:
#      x y z
#    x 2.008330 0.000000 -0.004320 
#    y 0.000000 1.991110 0.000000 
#    z -0.004320 0.000000 2.001520 
# 
# From -- ./inp_files/8616.got.cif
#   From: 2010.03.12/outbox.cif.g09.slc.cpg/sg4_5_cif.got.tgz:8616.got - 2010.03.31 09:31:35.
