data_PCOD8047979
_publ_section_title
;
Structure prediction by ZEFSAII (Michael W. Deem and Ramdas Pophale) SiO2 
 PCOD8047979
Probable space group: P 21
;
_chemical_formula_sum "Si O2"
_cell_formula_units_Z 12
_cell_length_a 16.437319
_cell_length_b 6.195288
_cell_length_c 17.116519
_cell_angle_alpha 90.000000
_cell_angle_beta 163.805164
_cell_angle_gamma 90.000000
_cell_volume 486.142441
_symmetry_space_group_name_H-M "P 21"
_symmetry_group_IT_number 4
_symmetry_cell_setting 'monoclinic'
loop_
_space_group_symop_operation_xyz
x,y,z
-x,1/2+y,-z
loop_
_atom_site_type_symbol
_atom_site_label
_atom_site_fract_x
_atom_site_fract_y
_atom_site_fract_z
Si Si1 0.306904 0.068380 0.003988
Si Si2 0.701072 0.020776 0.503988
Si Si3 0.687522 0.167851 0.773805
Si Si4 0.860088 0.921304 0.273805
Si Si5 0.342805 0.211990 0.765107
Si Si6 0.187412 0.877165 0.265109
O O1 0.492298 0.147998 0.250370
O O2 0.529033 0.913055 0.163776
O O3 0.203943 0.275628 0.860426
O O4 0.008441 0.941159 0.750370
O O5 0.798518 0.176099 0.663776
O O6 0.516906 0.813527 0.360422
O O7 0.864564 0.304365 0.872388
O O8 0.493162 0.998237 0.547769
O O9 0.922250 0.038647 0.043349
O O10 0.880219 0.784792 0.372396
O O11 0.164446 0.050509 0.543347
O O12 0.602371 0.090917 0.047766
#
# Coordination Sequence:
#
# PCOD8047979 Si02
#       6
#     2   2   2   2   2   2
#     4  12  28  50  76 114 158 194 248 320 380 442
#     4  12  28  50  76 114 158 194 248 320 380 442
#     4  12  26  47  81 113 147 201 258 305 374 453
#     4  12  26  47  81 113 147 201 258 305 374 453
#     4  12  26  47  81 113 147 201 258 305 374 453
#     4  12  26  47  81 113 147 201 258 305 374 453
#
# _framework density 24.684124000000001
#
# number of rings (size 3 to 8) (size 9 to 14) (size 15 to 20)
#    0.000    0.000    3.333    6.000    4.667    5.333 
#    0.000    0.000    0.000    0.000    0.000    0.000 
#    0.000    0.000    0.000    0.000    0.000    0.000 
#
# Total GULP energy -148852.332354 kJ/mol
# GULP energy per Si atom -12404.361029 kJ/mol
# Density = 2.462794 g / cm^3
# Si number density = 24.684124 Si / 1000 Ang^3
#
#
#
# Elastic Constant Matrix: (Units=GPa)
#
#
# Indices 1 2 3 4 5 6 
#
# 1 68.7731 0.3331 16.4303 0.0000 2.1654 0.0000
# 2 0.3331 51.3758 12.6350 0.0000 1.1877 0.0000
# 3 16.4303 12.6350 136.2182 0.0000 4.3298 0.0000
# 4 0.0000 0.0000 0.0000 69.9777 0.0000 4.8491
# 5 2.1654 1.1877 4.3298 0.0000 37.6208 0.0000
# 6 0.0000 0.0000 0.0000 4.8491 0.0000 19.5840
#
#
#
# Elastic Compliance Matrix: (Units=1/GPa)
#
#
# Indices 1 2 3 4 5 6 
#
# 1 0.014995 0.000366 -0.001821 0.000000 -0.000665 0.000000
# 2 0.000366 0.019934 -0.001879 0.000000 -0.000434 0.000000
# 3 -0.001821 -0.001879 0.007758 0.000000 -0.000729 0.000000
# 4 0.000000 0.000000 0.000000 0.014540 0.000000 -0.003600
# 5 -0.000665 -0.000434 -0.000729 0.000000 0.026717 0.000000
# 6 0.000000 0.000000 0.000000 -0.003600 0.000000 0.051954
#
#
# Mechanical properties :
#
#
# Convention : Reuss Voigt Hill
#
# Bulk Modulus (GPa) = 27.76388 35.01822 31.39105
# Shear Modulus (GPa) = 32.34715 40.56776 36.45745
#
# Velocity S-wave (km/s) = 3.62393 4.05838 3.84729
# Velocity P-wave (km/s) = 5.36494 6.01481 5.69915
#
# Compressibility (1/GPa) = 0.03601802
#
# Stress axis : x y z
#
# Youngs Moduli (GPa) = 66.68940 50.16489 128.89345
#
# Poissons Ratio (x) = -0.01837 0.23477
# Poissons Ratio (y) = -0.02441 0.24224
# Poissons Ratio (z) = 0.12147 0.09428
#
# Static dielectric constant tensor:
#      x y z
#    x 4.404390 0.000000 0.033300 
#    y 0.000000 4.391450 0.000000 
#    z 0.033300 0.000000 4.750360 
# 
# 
# High freq. dielectric constant tensor:
#      x y z
#    x 1.976910 0.000000 0.002910 
#    y 0.000000 1.982030 0.000000 
#    z 0.002910 0.000000 2.007190 
# 
# From -- ./inp_files/14125.got.cif
#   From: 2010.03.12/outbox.cif.g09.slc.cpg/sg4_8_cif.got.tgz:14125.got - 2010.03.31 09:31:35.
