data_PCOD8047526
_publ_section_title
;
Structure prediction by ZEFSAII (Michael W. Deem and Ramdas Pophale) SiO2 
 PCOD8047526
Probable space group: P 21
;
_chemical_formula_sum "Si O2"
_cell_formula_units_Z 16
_cell_length_a 10.991109
_cell_length_b 11.045423
_cell_length_c 8.417447
_cell_angle_alpha 90.000000
_cell_angle_beta 136.371423
_cell_angle_gamma 90.000000
_cell_volume 705.084501
_symmetry_space_group_name_H-M "P 21"
_symmetry_group_IT_number 4
_symmetry_cell_setting 'monoclinic'
loop_
_space_group_symop_operation_xyz
x,y,z
-x,1/2+y,-z
loop_
_atom_site_type_symbol
_atom_site_label
_atom_site_fract_x
_atom_site_fract_y
_atom_site_fract_z
Si Si1 0.269341 0.094020 0.924896
Si Si2 0.755309 0.778140 0.385947
Si Si3 0.520402 0.789433 0.749865
Si Si4 0.381567 0.834413 0.963671
Si Si5 0.897074 0.005569 0.672422
Si Si6 0.137562 0.429675 0.998727
Si Si7 0.917454 0.190588 0.145112
Si Si8 0.828630 0.258172 0.708954
O O1 0.220899 0.204470 0.757139
O O2 0.373657 0.980543 0.950293
O O3 0.388448 0.156310 0.175013
O O4 0.102023 0.034356 0.848503
O O5 0.828785 0.918152 0.464988
O O6 0.873250 0.707051 0.625502
O O7 0.546395 0.787629 0.229279
O O8 0.422622 0.797283 0.824945
O O9 0.668111 0.888612 0.862528
O O10 0.367019 0.815607 0.475874
O O11 0.200831 0.769464 0.845898
O O12 0.875384 0.943215 0.823860
O O13 0.802291 0.135773 0.580055
O O14 0.120268 0.549807 0.877718
O O15 0.983743 0.342166 0.784996
O O16 0.881464 0.234501 0.936667
#
# Coordination Sequence:
#
# PCOD8047526 Si02
#       8
#     2   2   2   2   2   2   2   2
#     4  11  24  46  72 103 141 193 238 291 361 430
#     4  11  25  43  74 101 145 190 234 299 356 426
#     4  11  27  43  70 103 144 188 237 296 354 427
#     4  11  26  45  68 105 146 184 243 293 360 422
#     4  11  23  47  71 103 144 185 236 303 355 421
#     4  11  25  45  71 106 145 182 245 290 364 430
#     4  11  26  45  71 107 139 192 239 299 357 429
#     4  11  24  46  73 102 144 190 238 297 361 425
#
# _framework density 22.692316000000002
#
# number of rings (size 3 to 8) (size 9 to 14) (size 15 to 20)
#    0.000    1.000    3.750    0.750    8.750    2.000 
#    4.500    0.000    0.000    0.000    0.000    0.000 
#    0.000    0.000    0.000    0.000    0.000    0.000 
#
# Total GULP energy -198242.288076 kJ/mol
# GULP energy per Si atom -12390.143005 kJ/mol
# Density = 2.264067 g / cm^3
# Si number density = 22.692316 Si / 1000 Ang^3
#
#
#
# Elastic Constant Matrix: (Units=GPa)
#
#
# Indices 1 2 3 4 5 6 
#
# 1 68.4610 39.8940 23.9706 0.0000 11.6115 0.0000
# 2 39.8940 149.0812 39.3149 0.0000 5.2522 0.0000
# 3 23.9706 39.3149 133.1816 0.0000 27.0864 0.0000
# 4 0.0000 0.0000 0.0000 36.1060 0.0000 7.8431
# 5 11.6115 5.2522 27.0864 0.0000 27.0148 0.0000
# 6 0.0000 0.0000 0.0000 7.8431 0.0000 32.6154
#
#
#
# Elastic Compliance Matrix: (Units=1/GPa)
#
#
# Indices 1 2 3 4 5 6 
#
# 1 0.018599 -0.004568 -0.000696 0.000000 -0.006409 0.000000
# 2 -0.004568 0.008414 -0.002171 0.000000 0.002504 0.000000
# 3 -0.000696 -0.002171 0.010210 0.000000 -0.009516 0.000000
# 4 0.000000 0.000000 0.000000 0.029223 0.000000 -0.007027
# 5 -0.006409 0.002504 -0.009516 0.000000 0.048826 0.000000
# 6 0.000000 0.000000 0.000000 -0.007027 0.000000 0.032350
#
#
# Mechanical properties :
#
#
# Convention : Reuss Voigt Hill
#
# Bulk Modulus (GPa) = 44.73428 61.89808 53.31618
# Shear Modulus (GPa) = 29.42161 35.65017 32.53589
#
# Velocity S-wave (km/s) = 3.60466 3.96791 3.79064
# Velocity P-wave (km/s) = 6.08942 6.95189 6.53490
#
# Compressibility (1/GPa) = 0.02235422
#
# Stress axis : x y z
#
# Youngs Moduli (GPa) = 53.76557 118.84329 97.94308
#
# Poissons Ratio (x) = 0.54286 0.06814
# Poissons Ratio (y) = 0.24560 0.21264
# Poissons Ratio (z) = 0.03741 0.25802
#
# Static dielectric constant tensor:
#      x y z
#    x 4.041270 0.000000 0.350180 
#    y 0.000000 4.690460 0.000000 
#    z 0.350180 0.000000 4.407110 
# 
# 
# High freq. dielectric constant tensor:
#      x y z
#    x 1.884450 0.000000 0.020750 
#    y 0.000000 1.912770 0.000000 
#    z 0.020750 0.000000 1.899240 
# 
# From -- ./inp_files/8488.got.cif
#   From: 2010.03.12/outbox.cif.g09.slc.cpg/sg4_5_cif.got.tgz:8488.got - 2010.03.31 09:31:35.
