data_PCOD8047257
_publ_section_title
;
Structure prediction by ZEFSAII (Michael W. Deem and Ramdas Pophale) SiO2 
 PCOD8047257
Probable space group: P 21
;
_chemical_formula_sum "Si O2"
_cell_formula_units_Z 16
_cell_length_a 17.257097
_cell_length_b 9.346959
_cell_length_c 8.482417
_cell_angle_alpha 90.000000
_cell_angle_beta 147.233943
_cell_angle_gamma 90.000000
_cell_volume 740.497555
_symmetry_space_group_name_H-M "P 21"
_symmetry_group_IT_number 4
_symmetry_cell_setting 'monoclinic'
loop_
_space_group_symop_operation_xyz
x,y,z
-x,1/2+y,-z
loop_
_atom_site_type_symbol
_atom_site_label
_atom_site_fract_x
_atom_site_fract_y
_atom_site_fract_z
Si Si1 0.665237 0.848320 0.566168
Si Si2 0.590940 0.593555 0.242504
Si Si3 0.650041 0.383955 0.861445
Si Si4 0.874450 0.872247 0.215569
Si Si5 0.682297 0.669589 0.068789
Si Si6 0.379752 0.806887 0.535952
Si Si7 0.860726 0.166159 0.356978
Si Si8 0.282385 0.586728 0.583048
O O1 0.644673 0.682874 0.485078
O O2 0.516206 0.906285 0.379961
O O3 0.708979 0.929955 0.479621
O O4 0.786643 0.865206 0.903758
O O5 0.694398 0.627739 0.272571
O O6 0.594890 0.427419 0.290018
O O7 0.429674 0.632390 0.919895
O O8 0.678079 0.372778 0.723834
O O9 0.728312 0.529727 0.048080
O O10 0.713098 0.241884 0.051294
O O11 0.789435 0.798722 0.213778
O O12 0.021744 0.789914 0.441150
O O13 0.901717 0.037512 0.308470
O O14 0.524559 0.720346 0.748349
O O15 0.259809 0.699506 0.401229
O O16 0.843368 0.100059 0.503239
#
# Coordination Sequence:
#
# PCOD8047257 Si02
#       8
#     2   2   2   2   2   2   2   2
#     4  12  23  41  71 104 136 173 230 284 344 403
#     4  11  21  36  63 102 134 171 216 283 344 398
#     4  12  23  40  69 103 136 174 225 292 341 408
#     4  12  27  47  69  98 137 189 234 281 338 415
#     4  11  23  39  66  99 138 175 226 275 350 408
#     4  11  22  35  63 101 135 167 219 285 338 398
#     4  12  27  48  70  95 143 188 231 280 346 412
#     4  11  22  42  65 100 137 177 219 284 345 406
#
# _framework density 21.607094
#
# number of rings (size 3 to 8) (size 9 to 14) (size 15 to 20)
#    0.000    0.500    5.000    6.000    0.000    0.000 
#    0.000    8.750    0.000    0.000    0.000    0.000 
#    0.000    0.000    0.000    0.000    0.000    0.000 
#
# Total GULP energy -198453.499531 kJ/mol
# GULP energy per Si atom -12403.343721 kJ/mol
# Density = 2.155791 g / cm^3
# Si number density = 21.607094 Si / 1000 Ang^3
#
#
#
# Elastic Constant Matrix: (Units=GPa)
#
#
# Indices 1 2 3 4 5 6 
#
# 1 93.4144 27.7162 36.9142 0.0000 -7.6223 0.0000
# 2 27.7162 126.8669 30.1135 0.0000 -2.7635 0.0000
# 3 36.9142 30.1135 74.0547 0.0000 -3.3556 0.0000
# 4 0.0000 0.0000 0.0000 24.2702 0.0000 -3.3953
# 5 -7.6223 -2.7635 -3.3556 0.0000 22.5466 0.0000
# 6 0.0000 0.0000 0.0000 -3.3953 0.0000 51.0323
#
#
#
# Elastic Compliance Matrix: (Units=1/GPa)
#
#
# Indices 1 2 3 4 5 6 
#
# 1 0.013869 -0.001493 -0.006143 0.000000 0.003591 0.000000
# 2 -0.001493 0.008892 -0.002864 0.000000 0.000159 0.000000
# 3 -0.006143 -0.002864 0.017740 0.000000 0.000212 0.000000
# 4 0.000000 0.000000 0.000000 0.041590 0.000000 0.002767
# 5 0.003591 0.000159 0.000212 0.000000 0.045618 0.000000
# 6 0.000000 0.000000 0.000000 0.002767 0.000000 0.019780
#
#
# Mechanical properties :
#
#
# Convention : Reuss Voigt Hill
#
# Bulk Modulus (GPa) = 51.28446 53.75821 52.52133
# Shear Modulus (GPa) = 28.57325 32.87595 30.72460
#
# Velocity S-wave (km/s) = 3.64043 3.90492 3.77499
# Velocity P-wave (km/s) = 6.43870 6.72793 6.58490
#
# Compressibility (1/GPa) = 0.01949909
#
# Stress axis : x y z
#
# Youngs Moduli (GPa) = 72.10493 112.46257 56.36985
#
# Poissons Ratio (x) = 0.16796 0.34629
# Poissons Ratio (y) = 0.10769 0.16145
# Poissons Ratio (z) = 0.44295 0.32211
#
# Static dielectric constant tensor:
#      x y z
#    x 4.015190 0.000000 -0.170000 
#    y 0.000000 4.020250 0.000000 
#    z -0.170000 0.000000 3.512040 
# 
# 
# High freq. dielectric constant tensor:
#      x y z
#    x 1.853940 0.000000 -0.019880 
#    y 0.000000 1.870890 0.000000 
#    z -0.019880 0.000000 1.809730 
# 
# From -- ./inp_files/5578.got.cif
#   From: 2010.03.12/outbox.cif.g09.slc.cpg/sg4_3_cif.got.tgz:5578.got - 2010.03.31 09:31:35.
