data_PCOD8047525
_publ_section_title
;
Structure prediction by ZEFSAII (Michael W. Deem and Ramdas Pophale) SiO2 
 PCOD8047525
Probable space group: P 21
;
_chemical_formula_sum "Si O2"
_cell_formula_units_Z 16
_cell_length_a 8.641171
_cell_length_b 12.997851
_cell_length_c 8.240949
_cell_angle_alpha 90.000000
_cell_angle_beta 127.625613
_cell_angle_gamma 90.000000
_cell_volume 733.087441
_symmetry_space_group_name_H-M "P 21"
_symmetry_group_IT_number 4
_symmetry_cell_setting 'monoclinic'
loop_
_space_group_symop_operation_xyz
x,y,z
-x,1/2+y,-z
loop_
_atom_site_type_symbol
_atom_site_label
_atom_site_fract_x
_atom_site_fract_y
_atom_site_fract_z
Si Si1 0.287976 0.455060 0.373039
Si Si2 0.977780 0.303515 0.080689
Si Si3 0.065534 0.625749 0.694119
Si Si4 0.327199 0.144257 0.720344
Si Si5 0.351632 0.486393 0.052272
Si Si6 0.407560 0.789301 0.331428
Si Si7 0.702679 0.756308 0.976801
Si Si8 0.661049 0.158226 0.412824
O O1 0.081766 0.393655 0.251995
O O2 0.300824 0.510240 0.207122
O O3 0.467330 0.376579 0.501480
O O4 0.306127 0.537538 0.527504
O O5 0.105567 0.276163 0.005275
O O6 0.953259 0.201584 0.168033
O O7 0.763111 0.340401 0.886593
O O8 0.188169 0.685071 0.633682
O O9 0.851140 0.595481 0.494143
O O10 0.172121 0.522280 0.823537
O O11 0.458018 0.051809 0.873488
O O12 0.452404 0.219172 0.687452
O O13 0.238469 0.206386 0.814945
O O14 0.398134 0.366708 0.051817
O O15 0.298289 0.723542 0.400030
O O16 0.558271 0.680772 0.787304
#
# Coordination Sequence:
#
# PCOD8047525 Si02
#       8
#     2   2   2   2   2   2   2   2
#     4  11  25  45  71 108 141 188 240 287 352 429
#     4  11  23  47  71 103 138 188 235 291 353 419
#     4  12  25  44  72  99 143 185 234 296 348 418
#     4  12  24  46  72 102 140 190 230 293 357 417
#     4  11  24  45  69 106 140 182 241 285 350 424
#     4  12  23  46  75  99 147 185 230 295 354 421
#     4  11  25  47  74 103 145 185 237 294 355 424
#     4  12  23  48  72 106 144 187 235 293 355 422
#
# _framework density 21.825500000000002
#
# number of rings (size 3 to 8) (size 9 to 14) (size 15 to 20)
#    0.000    0.500    7.500    0.750    1.750    2.000 
#   11.250    0.000    0.000    0.000    0.000    0.000 
#    0.000    0.000    0.000    0.000    0.000    0.000 
#
# Total GULP energy -198464.709751 kJ/mol
# GULP energy per Si atom -12404.044359 kJ/mol
# Density = 2.177582 g / cm^3
# Si number density = 21.825500 Si / 1000 Ang^3
#
#
#
# Elastic Constant Matrix: (Units=GPa)
#
#
# Indices 1 2 3 4 5 6 
#
# 1 74.6397 33.5074 35.4053 0.0000 3.8981 0.0000
# 2 33.5074 96.8913 57.9343 0.0000 -0.2897 0.0000
# 3 35.4053 57.9343 156.3166 0.0000 27.5892 0.0000
# 4 0.0000 0.0000 0.0000 39.5732 0.0000 -3.0388
# 5 3.8981 -0.2897 27.5892 0.0000 45.0537 0.0000
# 6 0.0000 0.0000 0.0000 -3.0388 0.0000 18.6742
#
#
#
# Elastic Compliance Matrix: (Units=1/GPa)
#
#
# Indices 1 2 3 4 5 6 
#
# 1 0.016365 -0.004452 -0.002020 0.000000 -0.000208 0.000000
# 2 -0.004452 0.014973 -0.005186 0.000000 0.003657 0.000000
# 3 -0.002020 -0.005186 0.009812 0.000000 -0.005867 0.000000
# 4 0.000000 0.000000 0.000000 0.025589 0.000000 0.004164
# 5 -0.000208 0.003657 -0.005867 0.000000 0.025830 0.000000
# 6 0.000000 0.000000 0.000000 0.004164 0.000000 0.054227
#
#
# Mechanical properties :
#
#
# Convention : Reuss Voigt Hill
#
# Bulk Modulus (GPa) = 56.07459 64.61575 60.34517
# Shear Modulus (GPa) = 28.39957 34.06025 31.22991
#
# Velocity S-wave (km/s) = 3.61114 3.95469 3.78682
# Velocity P-wave (km/s) = 6.56774 7.10793 6.84317
#
# Compressibility (1/GPa) = 0.01783339
#
# Stress axis : x y z
#
# Youngs Moduli (GPa) = 61.10422 66.78906 101.91135
#
# Poissons Ratio (x) = 0.29737 0.20585
# Poissons Ratio (y) = 0.27206 0.52853
# Poissons Ratio (z) = 0.12343 0.34638
#
# Static dielectric constant tensor:
#      x y z
#    x 3.910490 0.000000 -0.010240 
#    y 0.000000 3.973360 0.000000 
#    z -0.010240 0.000000 4.194550 
# 
# 
# High freq. dielectric constant tensor:
#      x y z
#    x 1.854980 0.000000 -0.005050 
#    y 0.000000 1.847610 0.000000 
#    z -0.005050 0.000000 1.877730 
# 
# From -- ./inp_files/6473.got.cif
#   From: 2010.03.12/outbox.cif.g09.slc.cpg/sg4_4_cif.got.tgz:6473.got - 2010.03.31 09:31:35.
