data_PCOD8047498
_publ_section_title
;
Structure prediction by ZEFSAII (Michael W. Deem and Ramdas Pophale) SiO2 
 PCOD8047498
Probable space group: P 21
;
_chemical_formula_sum "Si O2"
_cell_formula_units_Z 12
_cell_length_a 11.618556
_cell_length_b 7.386753
_cell_length_c 16.702408
_cell_angle_alpha 90.000000
_cell_angle_beta 19.874994
_cell_angle_gamma 90.000000
_cell_volume 487.331315
_symmetry_space_group_name_H-M "P 21"
_symmetry_group_IT_number 4
_symmetry_cell_setting 'monoclinic'
loop_
_space_group_symop_operation_xyz
x,y,z
-x,1/2+y,-z
loop_
_atom_site_type_symbol
_atom_site_label
_atom_site_fract_x
_atom_site_fract_y
_atom_site_fract_z
Si Si1 0.797440 0.827140 0.900773
Si Si2 0.006057 0.879727 0.435873
Si Si3 0.712568 0.872643 0.223069
Si Si4 0.757536 0.269174 0.244336
Si Si5 0.908885 0.488857 0.450548
Si Si6 0.243664 0.549177 0.550031
O O1 0.019644 0.868564 0.833921
O O2 0.888968 0.614577 0.821995
O O3 0.409862 0.866652 0.168925
O O4 0.901672 0.949374 0.756477
O O5 0.852465 0.700251 0.499494
O O6 0.893350 0.907991 0.601663
O O7 0.846890 0.040858 0.486003
O O8 0.531520 0.700308 0.384315
O O9 0.735654 0.049445 0.266682
O O10 0.471936 0.914068 0.304647
O O11 0.079753 0.817810 0.949084
O O12 0.380101 0.356806 0.493438
#
# Coordination Sequence:
#
# PCOD8047498 Si02
#       6
#     2   2   2   2   2   2
#     4  11  27  45  71 108 147 190 251 301 366 435
#     4  12  24  48  75 105 151 194 246 309 361 449
#     4  11  23  45  70 109 142 192 243 295 371 430
#     4  12  24  46  73 106 152 189 247 310 360 441
#     4  11  24  44  72 106 146 192 243 303 370 431
#     4  11  26  44  73 106 146 195 242 300 372 432
#
# _framework density 24.623906999999999
#
# number of rings (size 3 to 8) (size 9 to 14) (size 15 to 20)
#    0.000    0.667    5.000    3.000    4.667    0.000 
#    0.000    0.000    0.000    0.000    0.000    0.000 
#    0.000    0.000    0.000    0.000    0.000    0.000 
#
# Total GULP energy -148679.384174 kJ/mol
# GULP energy per Si atom -12389.948681 kJ/mol
# Density = 2.456786 g / cm^3
# Si number density = 24.623907 Si / 1000 Ang^3
#
#
#
# Elastic Constant Matrix: (Units=GPa)
#
#
# Indices 1 2 3 4 5 6 
#
# 1 83.8032 25.5581 4.0406 0.0000 -1.4688 0.0000
# 2 25.5581 105.6887 21.6169 0.0000 0.7104 0.0000
# 3 4.0406 21.6169 52.5933 0.0000 -1.5504 0.0000
# 4 0.0000 0.0000 0.0000 34.7896 0.0000 -7.6937
# 5 -1.4688 0.7104 -1.5504 0.0000 31.8730 0.0000
# 6 0.0000 0.0000 0.0000 -7.6937 0.0000 50.5809
#
#
#
# Elastic Compliance Matrix: (Units=1/GPa)
#
#
# Indices 1 2 3 4 5 6 
#
# 1 0.012902 -0.003195 0.000342 0.000000 0.000682 0.000000
# 2 -0.003195 0.011127 -0.004346 0.000000 -0.000607 0.000000
# 3 0.000342 -0.004346 0.020807 0.000000 0.001125 0.000000
# 4 0.000000 0.000000 0.000000 0.029745 0.000000 0.004524
# 5 0.000682 -0.000607 0.001125 0.000000 0.031474 0.000000
# 6 0.000000 0.000000 0.000000 0.004524 0.000000 0.020458
#
#
# Mechanical properties :
#
#
# Convention : Reuss Voigt Hill
#
# Bulk Modulus (GPa) = 32.85222 38.27960 35.56591
# Shear Modulus (GPa) = 33.09983 36.17333 34.63658
#
# Velocity S-wave (km/s) = 3.67033 3.83695 3.75457
# Velocity P-wave (km/s) = 5.59753 5.93372 5.76808
#
# Compressibility (1/GPa) = 0.03043934
#
# Stress axis : x y z
#
# Youngs Moduli (GPa) = 77.50439 89.86931 48.06072
#
# Poissons Ratio (x) = 0.28710 -0.01643
# Poissons Ratio (y) = 0.24760 0.20887
# Poissons Ratio (z) = -0.02650 0.39057
#
# Static dielectric constant tensor:
#      x y z
#    x 4.482010 0.000000 -0.039490 
#    y 0.000000 4.582300 0.000000 
#    z -0.039490 0.000000 4.289750 
# 
# 
# High freq. dielectric constant tensor:
#      x y z
#    x 1.989710 0.000000 -0.006110 
#    y 0.000000 1.979880 0.000000 
#    z -0.006110 0.000000 1.959840 
# 
# From -- ./inp_files/15109.got.cif
#   From: 2010.03.12/outbox.cif.g09.slc.cpg/sg4_8_cif.got.tgz:15109.got - 2010.03.31 09:31:35.
