data_PCOD8047160
_publ_section_title
;
Structure prediction by ZEFSAII (Michael W. Deem and Ramdas Pophale) SiO2 
 PCOD8047160
Probable space group: P 21
;
_chemical_formula_sum "Si O2"
_cell_formula_units_Z 14
_cell_length_a 8.657562
_cell_length_b 12.670963
_cell_length_c 8.280134
_cell_angle_alpha 90.000000
_cell_angle_beta 138.769714
_cell_angle_gamma 90.000000
_cell_volume 598.667113
_symmetry_space_group_name_H-M "P 21"
_symmetry_group_IT_number 4
_symmetry_cell_setting 'monoclinic'
loop_
_space_group_symop_operation_xyz
x,y,z
-x,1/2+y,-z
loop_
_atom_site_type_symbol
_atom_site_label
_atom_site_fract_x
_atom_site_fract_y
_atom_site_fract_z
Si Si1 0.149733 0.779200 0.062509
Si Si2 0.718778 0.839151 0.908450
Si Si3 0.504604 0.460847 0.792110
Si Si4 0.904678 0.830524 0.399078
Si Si5 0.318040 0.964771 0.724987
Si Si6 0.536767 0.162362 0.458002
Si Si7 0.865181 0.651842 0.601117
O O1 0.342986 0.864716 0.162866
O O2 0.223291 0.708044 0.275454
O O3 0.911032 0.846178 0.914905
O O4 0.095418 0.692165 0.879072
O O5 0.555463 0.943084 0.806497
O O6 0.545561 0.741736 0.744891
O O7 0.868022 0.817377 0.182619
O O8 0.250250 0.420584 0.639983
O O9 0.452314 0.547299 0.613770
O O10 0.621157 0.508999 0.047640
O O11 0.831114 0.720388 0.416014
O O12 0.177680 0.856158 0.646781
O O13 0.135224 0.033917 0.473847
O O14 0.359530 0.161046 0.465613
#
# Coordination Sequence:
#
# PCOD8047160 Si02
#       7
#     2   2   2   2   2   2   2
#     4  11  24  49  72 104 149 188 240 311 352 437
#     4  10  25  44  71 105 140 189 234 300 357 427
#     4  11  25  46  72 103 142 192 243 297 375 418
#     4  11  23  45  71 103 145 185 236 308 349 440
#     4  11  25  46  74 105 144 194 241 301 362 441
#     4  11  25  44  71 105 145 189 244 301 355 445
#     4  11  25  44  71 107 141 189 242 298 368 422
#
# _framework density 23.385282
#
# number of rings (size 3 to 8) (size 9 to 14) (size 15 to 20)
#    0.000    1.143    2.857    1.714    4.000    6.857 
#    2.571    0.000    0.000    0.000    0.000    0.000 
#    0.000    0.000    0.000    0.000    0.000    0.000 
#
# Total GULP energy -173475.909228 kJ/mol
# GULP energy per Si atom -12391.136373 kJ/mol
# Density = 2.333206 g / cm^3
# Si number density = 23.385282 Si / 1000 Ang^3
#
#
#
# Elastic Constant Matrix: (Units=GPa)
#
#
# Indices 1 2 3 4 5 6 
#
# 1 90.0334 34.5091 28.3818 0.0000 1.0999 0.0000
# 2 34.5091 96.1039 44.4863 0.0000 -11.3190 0.0000
# 3 28.3818 44.4863 105.0988 0.0000 -3.4621 0.0000
# 4 0.0000 0.0000 0.0000 39.7965 0.0000 -4.6156
# 5 1.0999 -11.3190 -3.4621 0.0000 19.8350 0.0000
# 6 0.0000 0.0000 0.0000 -4.6156 0.0000 32.8392
#
#
#
# Elastic Compliance Matrix: (Units=1/GPa)
#
#
# Indices 1 2 3 4 5 6 
#
# 1 0.013420 -0.004361 -0.001895 0.000000 -0.003564 0.000000
# 2 -0.004361 0.015239 -0.005007 0.000000 0.008064 0.000000
# 3 -0.001895 -0.005007 0.012125 0.000000 -0.000636 0.000000
# 4 0.000000 0.000000 0.000000 0.025544 0.000000 0.003590
# 5 -0.003564 0.008064 -0.000636 0.000000 0.055104 0.000000
# 6 0.000000 0.000000 0.000000 0.003590 0.000000 0.030956
#
#
# Mechanical properties :
#
#
# Convention : Reuss Voigt Hill
#
# Bulk Modulus (GPa) = 54.77437 56.22117 55.49777
# Shear Modulus (GPa) = 27.62421 30.75141 29.18781
#
# Velocity S-wave (km/s) = 3.44068 3.63021 3.53672
# Velocity P-wave (km/s) = 6.26561 6.45482 6.36092
#
# Compressibility (1/GPa) = 0.01825672
#
# Stress axis : x y z
#
# Youngs Moduli (GPa) = 74.51803 65.62167 82.47338
#
# Poissons Ratio (x) = 0.28618 0.15632
# Poissons Ratio (y) = 0.32498 0.41294
# Poissons Ratio (z) = 0.14124 0.32857
#
# Static dielectric constant tensor:
#      x y z
#    x 4.286660 0.000000 -0.047290 
#    y 0.000000 4.078860 0.000000 
#    z -0.047290 0.000000 4.448380 
# 
# 
# High freq. dielectric constant tensor:
#      x y z
#    x 1.936100 0.000000 -0.007330 
#    y 0.000000 1.908450 0.000000 
#    z -0.007330 0.000000 1.935340 
# 
# From -- ./inp_files/1112.got.cif
#   From: 2010.03.12/outbox.cif.g09.slc.cpg/sg4_1_cif.got.tgz:1112.got - 2010.03.31 09:31:35.
