data_PCOD8047676
_publ_section_title
;
Structure prediction by ZEFSAII (Michael W. Deem and Ramdas Pophale) SiO2 
 PCOD8047676
Probable space group: P 21
;
_chemical_formula_sum "Si O2"
_cell_formula_units_Z 14
_cell_length_a 5.308853
_cell_length_b 9.665482
_cell_length_c 14.869055
_cell_angle_alpha 90.000000
_cell_angle_beta 127.423063
_cell_angle_gamma 90.000000
_cell_volume 605.928111
_symmetry_space_group_name_H-M "P 21"
_symmetry_group_IT_number 4
_symmetry_cell_setting 'monoclinic'
loop_
_space_group_symop_operation_xyz
x,y,z
-x,1/2+y,-z
loop_
_atom_site_type_symbol
_atom_site_label
_atom_site_fract_x
_atom_site_fract_y
_atom_site_fract_z
Si Si1 0.705807 0.779930 0.962947
Si Si2 0.794926 0.100515 0.227092
Si Si3 0.448095 0.504071 0.317605
Si Si4 0.505286 0.689691 0.656525
Si Si5 0.775541 0.794392 0.180717
Si Si6 0.218117 0.586366 0.091318
Si Si7 0.890977 0.135041 0.600914
O O1 0.353374 0.719598 0.870649
O O2 0.733080 0.928536 0.925721
O O3 0.863662 0.791978 0.095362
O O4 0.928590 0.655554 0.972815
O O5 0.700414 0.118048 0.310509
O O6 0.173387 0.105730 0.295142
O O7 0.657485 0.950383 0.171725
O O8 0.420993 0.342127 0.292367
O O9 0.195100 0.579667 0.195941
O O10 0.342331 0.529273 0.397489
O O11 0.801567 0.556845 0.371160
O O12 0.294139 0.701651 0.521720
O O13 0.516043 0.677030 0.131722
O O14 0.042041 0.758512 0.313018
#
# Coordination Sequence:
#
# PCOD8047676 Si02
#       7
#     2   2   2   2   2   2   2
#     4  12  25  46  75 106 148 194 242 306 365 442
#     4  12  29  47  75 109 151 190 246 301 367 433
#     4  11  24  49  72 108 145 194 244 297 365 431
#     4  12  28  48  74 110 148 195 245 303 361 437
#     4  11  27  45  72 108 143 195 241 305 361 437
#     4  11  25  45  73 106 150 191 245 299 371 437
#     4  11  26  46  77 103 147 193 243 301 362 431
#
# _framework density 23.105051
#
# number of rings (size 3 to 8) (size 9 to 14) (size 15 to 20)
#    0.000    0.571    2.857    3.429   12.000    1.143 
#    0.000    0.000    0.000    0.000    0.000    0.000 
#    0.000    0.000    0.000    0.000    0.000    0.000 
#
# Total GULP energy -173503.016073 kJ/mol
# GULP energy per Si atom -12393.072577 kJ/mol
# Density = 2.305246 g / cm^3
# Si number density = 23.105051 Si / 1000 Ang^3
#
#
#
# Elastic Constant Matrix: (Units=GPa)
#
#
# Indices 1 2 3 4 5 6 
#
# 1 115.2269 31.2647 38.3024 0.0000 -4.7930 0.0000
# 2 31.2647 139.3350 32.7029 0.0000 3.9408 0.0000
# 3 38.3024 32.7029 115.2690 0.0000 -5.1154 0.0000
# 4 0.0000 0.0000 0.0000 34.5521 0.0000 0.8305
# 5 -4.7930 3.9408 -5.1154 0.0000 30.6388 0.0000
# 6 0.0000 0.0000 0.0000 0.8305 0.0000 25.1414
#
#
#
# Elastic Compliance Matrix: (Units=1/GPa)
#
#
# Indices 1 2 3 4 5 6 
#
# 1 0.010123 -0.001642 -0.002839 0.000000 0.001321 0.000000
# 2 -0.001642 0.008012 -0.001798 0.000000 -0.001588 0.000000
# 3 -0.002839 -0.001798 0.010195 0.000000 0.001489 0.000000
# 4 0.000000 0.000000 0.000000 0.028965 0.000000 -0.000957
# 5 0.001321 -0.001588 0.001489 0.000000 0.033298 0.000000
# 6 0.000000 0.000000 0.000000 -0.000957 0.000000 0.039807
#
#
# Mechanical properties :
#
#
# Convention : Reuss Voigt Hill
#
# Bulk Modulus (GPa) = 63.40626 63.81900 63.61263
# Shear Modulus (GPa) = 33.73468 35.90383 34.81926
#
# Velocity S-wave (km/s) = 3.82521 3.94628 3.88622
# Velocity P-wave (km/s) = 6.85652 6.96027 6.90859
#
# Compressibility (1/GPa) = 0.01577131
#
# Stress axis : x y z
#
# Youngs Moduli (GPa) = 98.78633 124.80710 98.08801
#
# Poissons Ratio (x) = 0.20499 0.27848
# Poissons Ratio (y) = 0.16225 0.17635
# Poissons Ratio (z) = 0.28047 0.22439
#
# Static dielectric constant tensor:
#      x y z
#    x 4.062510 0.000000 -0.106250 
#    y 0.000000 4.357950 0.000000 
#    z -0.106250 0.000000 4.690820 
# 
# 
# High freq. dielectric constant tensor:
#      x y z
#    x 1.908710 0.000000 -0.008680 
#    y 0.000000 1.927400 0.000000 
#    z -0.008680 0.000000 1.926710 
# 
# From -- ./inp_files/2368.got.cif
#   From: 2010.03.12/outbox.cif.g09.slc.cpg/sg4_2_cif.got.tgz:2368.got - 2010.03.31 09:31:35.
