data_PCOD8047123
_publ_section_title
;
Structure prediction by ZEFSAII (Michael W. Deem and Ramdas Pophale) SiO2 
 PCOD8047123
Probable space group: P 21
;
_chemical_formula_sum "Si O2"
_cell_formula_units_Z 16
_cell_length_a 12.160560
_cell_length_b 9.044662
_cell_length_c 6.419876
_cell_angle_alpha 90.000000
_cell_angle_beta 76.358650
_cell_angle_gamma 90.000000
_cell_volume 686.191683
_symmetry_space_group_name_H-M "P 21"
_symmetry_group_IT_number 4
_symmetry_cell_setting 'monoclinic'
loop_
_space_group_symop_operation_xyz
x,y,z
-x,1/2+y,-z
loop_
_atom_site_type_symbol
_atom_site_label
_atom_site_fract_x
_atom_site_fract_y
_atom_site_fract_z
Si Si1 0.777992 0.799290 0.157818
Si Si2 0.148683 0.821552 0.742773
Si Si3 0.239651 0.538269 0.511448
Si Si4 0.383534 0.221972 0.124269
Si Si5 0.977533 0.010477 0.582321
Si Si6 0.674269 0.546176 0.449441
Si Si7 0.526597 0.023859 0.752224
Si Si8 0.977181 0.320463 0.804305
O O1 0.754355 0.639866 0.263522
O O2 0.912720 0.826240 0.093040
O O3 0.719242 0.921299 0.333290
O O4 0.716870 0.800606 0.960980
O O5 0.155349 0.656638 0.653088
O O6 0.264143 0.888715 0.596358
O O7 0.135497 0.810929 0.000939
O O8 0.037000 0.909392 0.726398
O O9 0.156064 0.465003 0.375367
O O10 0.352235 0.599222 0.350905
O O11 0.326511 0.115876 0.320979
O O12 0.457759 0.352777 0.191600
O O13 0.467660 0.120022 0.955498
O O14 0.988642 0.182282 0.640491
O O15 0.033652 0.968867 0.331387
O O16 0.546722 0.529954 0.425302
#
# Coordination Sequence:
#
# PCOD8047123 Si02
#       8
#     2   2   2   2   2   2   2   2
#     4  10  24  46  73 104 144 197 241 296 367 435
#     4  12  28  44  74 109 151 190 244 308 367 447
#     4  11  26  46  73 108 150 193 246 311 356 450
#     4  11  27  47  78 108 146 202 240 306 368 439
#     4  11  25  48  69 110 150 188 247 300 369 430
#     4  11  26  49  70 111 150 190 242 308 361 438
#     4  11  28  46  77 109 147 196 249 302 370 437
#     4  11  26  46  74 107 146 198 241 303 368 442
#
# _framework density 23.317098999999999
#
# number of rings (size 3 to 8) (size 9 to 14) (size 15 to 20)
#    0.000    1.000    3.750    0.000   10.500    4.000 
#    0.000    0.000    0.000    0.000    0.000    0.000 
#    0.000    0.000    0.000    0.000    0.000    0.000 
#
# Total GULP energy -198311.871571 kJ/mol
# GULP energy per Si atom -12394.491973 kJ/mol
# Density = 2.326403 g / cm^3
# Si number density = 23.317099 Si / 1000 Ang^3
#
#
#
# Elastic Constant Matrix: (Units=GPa)
#
#
# Indices 1 2 3 4 5 6 
#
# 1 112.8340 26.7744 59.8623 0.0000 1.9162 0.0000
# 2 26.7744 101.7525 43.1529 0.0000 -4.7164 0.0000
# 3 59.8623 43.1529 103.1042 0.0000 -8.0251 0.0000
# 4 0.0000 0.0000 0.0000 37.0302 0.0000 -1.2899
# 5 1.9162 -4.7164 -8.0251 0.0000 36.0385 0.0000
# 6 0.0000 0.0000 0.0000 -1.2899 0.0000 38.1226
#
#
#
# Elastic Compliance Matrix: (Units=1/GPa)
#
#
# Indices 1 2 3 4 5 6 
#
# 1 0.013019 -0.000307 -0.007619 0.000000 -0.002429 0.000000
# 2 -0.000307 0.011963 -0.004789 0.000000 0.000516 0.000000
# 3 -0.007619 -0.004789 0.016394 0.000000 0.003429 0.000000
# 4 0.000000 0.000000 0.000000 0.027037 0.000000 0.000915
# 5 -0.002429 0.000516 0.003429 0.000000 0.028708 0.000000
# 6 0.000000 0.000000 0.000000 0.000915 0.000000 0.026262
#
#
# Mechanical properties :
#
#
# Convention : Reuss Voigt Hill
#
# Bulk Modulus (GPa) = 62.71156 64.14110 63.42633
# Shear Modulus (GPa) = 32.44029 34.76499 33.60264
#
# Velocity S-wave (km/s) = 3.73401 3.86549 3.80032
# Velocity P-wave (km/s) = 6.74863 6.89134 6.82036
#
# Compressibility (1/GPa) = 0.01594602
#
# Stress axis : x y z
#
# Youngs Moduli (GPa) = 76.81051 83.58881 60.99808
#
# Poissons Ratio (x) = 0.02566 0.46477
# Poissons Ratio (y) = 0.02358 0.29210
# Poissons Ratio (z) = 0.58526 0.40029
#
# Static dielectric constant tensor:
#      x y z
#    x 4.235710 0.000000 0.196980 
#    y 0.000000 4.143020 0.000000 
#    z 0.196980 0.000000 4.127830 
# 
# 
# High freq. dielectric constant tensor:
#      x y z
#    x 1.923110 0.000000 0.003410 
#    y 0.000000 1.926310 0.000000 
#    z 0.003410 0.000000 1.923150 
# 
# From -- ./inp_files/2619.got.cif
#   From: 2010.03.12/outbox.cif.g09.slc.cpg/sg4_2_cif.got.tgz:2619.got - 2010.03.31 09:31:35.
