data_PCOD8047135
_publ_section_title
;
Structure prediction by ZEFSAII (Michael W. Deem and Ramdas Pophale) SiO2 
 PCOD8047135
Probable space group: P 21
;
_chemical_formula_sum "Si O2"
_cell_formula_units_Z 14
_cell_length_a 13.858299
_cell_length_b 7.478009
_cell_length_c 9.376318
_cell_angle_alpha 90.000000
_cell_angle_beta 34.636260
_cell_angle_gamma 90.000000
_cell_volume 552.274801
_symmetry_space_group_name_H-M "P 21"
_symmetry_group_IT_number 4
_symmetry_cell_setting 'monoclinic'
loop_
_space_group_symop_operation_xyz
x,y,z
-x,1/2+y,-z
loop_
_atom_site_type_symbol
_atom_site_label
_atom_site_fract_x
_atom_site_fract_y
_atom_site_fract_z
Si Si1 0.396840 0.908870 0.621081
Si Si2 0.855347 0.449009 0.827514
Si Si3 0.636138 0.228400 0.627663
Si Si4 0.725098 0.779667 0.330402
Si Si5 0.409080 0.996559 0.075197
Si Si6 0.990810 0.808078 0.765709
Si Si7 0.137516 0.195667 0.536472
O O1 0.423068 0.759318 0.464198
O O2 0.567382 0.919322 0.511621
O O3 0.368163 0.091560 0.573018
O O4 0.229701 0.880946 0.921332
O O5 0.728632 0.395308 0.855053
O O6 0.899632 0.662562 0.771862
O O7 0.024109 0.337743 0.590933
O O8 0.554819 0.381848 0.827600
O O9 0.839021 0.217121 0.379534
O O10 0.569433 0.042820 0.779181
O O11 0.832430 0.774156 0.343539
O O12 0.859612 0.842431 0.050904
O O13 0.320759 0.181158 0.237652
O O14 0.042058 0.001471 0.640268
#
# Coordination Sequence:
#
# PCOD8047135 Si02
#       7
#     2   2   2   2   2   2   2
#     4  11  24  46  71 106 142 185 252 300 354 434
#     4  11  27  46  77 108 138 198 246 293 379 429
#     4  11  24  49  71 103 152 187 241 311 356 436
#     4  11  24  45  72 108 140 191 243 302 370 414
#     4  11  27  47  70 110 144 194 242 290 383 435
#     4  10  24  47  73 103 145 187 243 308 352 434
#     4  11  26  48  72 106 147 192 243 302 368 442
#
# _framework density 25.349696999999999
#
# number of rings (size 3 to 8) (size 9 to 14) (size 15 to 20)
#    0.000    1.143    2.857    2.571   12.000    1.143 
#    2.571    0.000    0.000    0.000    0.000    0.000 
#    0.000    0.000    0.000    0.000    0.000    0.000 
#
# Total GULP energy -173507.099162 kJ/mol
# GULP energy per Si atom -12393.364226 kJ/mol
# Density = 2.529200 g / cm^3
# Si number density = 25.349697 Si / 1000 Ang^3
#
#
#
# Elastic Constant Matrix: (Units=GPa)
#
#
# Indices 1 2 3 4 5 6 
#
# 1 59.5968 8.8377 -14.8288 0.0000 -1.0013 0.0000
# 2 8.8377 56.3691 5.0171 0.0000 7.0263 0.0000
# 3 -14.8288 5.0171 70.9517 0.0000 -6.7034 0.0000
# 4 0.0000 0.0000 0.0000 47.3701 0.0000 -4.0819
# 5 -1.0013 7.0263 -6.7034 0.0000 41.5131 0.0000
# 6 0.0000 0.0000 0.0000 -4.0819 0.0000 38.8969
#
#
#
# Elastic Compliance Matrix: (Units=1/GPa)
#
#
# Indices 1 2 3 4 5 6 
#
# 1 0.018381 -0.003474 0.004250 0.000000 0.001718 0.000000
# 2 -0.003474 0.018959 -0.002415 0.000000 -0.003683 0.000000
# 3 0.004250 -0.002415 0.015437 0.000000 0.003004 0.000000
# 4 0.000000 0.000000 0.000000 0.021303 0.000000 0.002236
# 5 0.001718 -0.003683 0.003004 0.000000 0.025239 0.000000
# 6 0.000000 0.000000 0.000000 0.002236 0.000000 0.025944
#
#
# Mechanical properties :
#
#
# Convention : Reuss Voigt Hill
#
# Bulk Modulus (GPa) = 20.20283 20.55216 20.37750
# Shear Modulus (GPa) = 34.47339 38.08212 36.27775
#
# Velocity S-wave (km/s) = 3.69170 3.88012 3.78708
# Velocity P-wave (km/s) = 5.11454 5.31026 5.21332
#
# Compressibility (1/GPa) = 0.04949802
#
# Stress axis : x y z
#
# Youngs Moduli (GPa) = 54.40449 52.74589 64.78030
#
# Poissons Ratio (x) = 0.18324 -0.27528
# Poissons Ratio (y) = 0.18901 0.15642
# Poissons Ratio (z) = -0.23119 0.12736
#
# Static dielectric constant tensor:
#      x y z
#    x 4.579340 0.000000 -0.002440 
#    y 0.000000 4.457540 0.000000 
#    z -0.002440 0.000000 4.837740 
# 
# 
# High freq. dielectric constant tensor:
#      x y z
#    x 2.010790 0.000000 0.004250 
#    y 0.000000 2.004250 0.000000 
#    z 0.004250 0.000000 2.026560 
# 
# From -- ./inp_files/7938.got.cif
#   From: 2010.03.12/outbox.cif.g09.slc.cpg/sg4_4_cif.got.tgz:7938.got - 2010.03.31 09:31:35.
