data_PCOD8047665
_publ_section_title
;
Structure prediction by ZEFSAII (Michael W. Deem and Ramdas Pophale) SiO2 
 PCOD8047665
Probable space group: P 21
;
_chemical_formula_sum "Si O2"
_cell_formula_units_Z 16
_cell_length_a 30.091729
_cell_length_b 5.059983
_cell_length_c 22.900156
_cell_angle_alpha 90.000000
_cell_angle_beta 169.735979
_cell_angle_gamma 90.000000
_cell_volume 621.304059
_symmetry_space_group_name_H-M "P 21"
_symmetry_group_IT_number 4
_symmetry_cell_setting 'monoclinic'
loop_
_space_group_symop_operation_xyz
x,y,z
-x,1/2+y,-z
loop_
_atom_site_type_symbol
_atom_site_label
_atom_site_fract_x
_atom_site_fract_y
_atom_site_fract_z
Si Si1 0.102574 0.107940 0.518767
Si Si2 0.479161 0.364249 0.608720
Si Si3 0.634495 0.594412 0.655956
Si Si4 0.185382 0.117346 0.814551
Si Si5 0.381619 0.850768 0.550666
Si Si6 0.914407 0.353360 0.722248
Si Si7 0.518498 0.095542 0.139047
Si Si8 0.987359 0.737499 0.723811
O O1 0.074419 0.052969 0.412919
O O2 0.959026 0.375533 0.345021
O O3 0.997915 0.868609 0.422673
O O4 0.393162 0.153867 0.913958
O O5 0.340273 0.233094 0.374229
O O6 0.323815 0.632340 0.424812
O O7 0.483596 0.132084 0.662544
O O8 0.773054 0.429961 0.976873
O O9 0.539910 0.293291 0.530701
O O10 0.908336 0.594901 0.041393
O O11 0.416833 0.180201 0.154458
O O12 0.284969 0.030510 0.879651
O O13 0.156730 0.927747 0.303296
O O14 0.074018 0.570576 0.893047
O O15 0.666476 0.334738 0.361275
O O16 0.728464 0.876034 0.404031
#
# Coordination Sequence:
#
# PCOD8047665 Si02
#       8
#     2   2   2   2   2   2   2   2
#     4  12  27  46  76 104 149 194 254 298 372 439
#     4  12  25  48  77 107 147 194 244 301 370 443
#     4  12  26  47  77 111 147 191 242 303 375 442
#     4  11  24  48  72 104 146 202 243 302 363 445
#     4  11  25  47  74 108 149 195 244 302 365 440
#     4  11  29  47  74 106 150 193 245 308 374 433
#     4  11  29  44  74 105 151 191 251 304 374 436
#     4  12  27  45  74 107 149 188 245 310 373 436
#
# _framework density 25.752286999999999
#
# number of rings (size 3 to 8) (size 9 to 14) (size 15 to 20)
#    0.000    0.500    3.750    2.250   14.000    1.000 
#    0.000    0.000    0.000    0.000    0.000    0.000 
#    0.000    0.000    0.000    0.000    0.000    0.000 
#
# Total GULP energy -198246.254574 kJ/mol
# GULP energy per Si atom -12390.390911 kJ/mol
# Density = 2.569367 g / cm^3
# Si number density = 25.752287 Si / 1000 Ang^3
#
#
#
# Elastic Constant Matrix: (Units=GPa)
#
#
# Indices 1 2 3 4 5 6 
#
# 1 137.3878 26.3507 24.4647 0.0000 26.8713 0.0000
# 2 26.3507 91.6989 5.4568 0.0000 26.9986 0.0000
# 3 24.4647 5.4568 79.0317 0.0000 0.2490 0.0000
# 4 0.0000 0.0000 0.0000 34.0748 0.0000 5.2680
# 5 26.8713 26.9986 0.2490 0.0000 37.2526 0.0000
# 6 0.0000 0.0000 0.0000 5.2680 0.0000 37.7196
#
#
#
# Elastic Compliance Matrix: (Units=1/GPa)
#
#
# Indices 1 2 3 4 5 6 
#
# 1 0.009078 -0.000665 -0.002745 0.000000 -0.006048 0.000000
# 2 -0.000665 0.013980 -0.000729 0.000000 -0.009648 0.000000
# 3 -0.002745 -0.000729 0.013546 0.000000 0.002418 0.000000
# 4 0.000000 0.000000 0.000000 0.029995 0.000000 -0.004189
# 5 -0.006048 -0.009648 0.002418 0.000000 0.038183 0.000000
# 6 0.000000 0.000000 0.000000 -0.004189 0.000000 0.027096
#
#
# Mechanical properties :
#
#
# Convention : Reuss Voigt Hill
#
# Bulk Modulus (GPa) = 35.30324 46.74032 41.02178
# Shear Modulus (GPa) = 33.42303 38.59914 36.01108
#
# Velocity S-wave (km/s) = 3.60650 3.87571 3.74353
# Velocity P-wave (km/s) = 5.57503 6.18204 5.88636
#
# Compressibility (1/GPa) = 0.02832601
#
# Stress axis : x y z
#
# Youngs Moduli (GPa) = 110.15758 71.52970 73.82435
#
# Poissons Ratio (x) = 0.04753 0.20266
# Poissons Ratio (y) = 0.07320 0.05383
# Poissons Ratio (z) = 0.30240 0.05216
#
# Static dielectric constant tensor:
#      x y z
#    x 5.302060 0.000000 -0.124350 
#    y 0.000000 4.305290 0.000000 
#    z -0.124350 0.000000 4.773610 
# 
# 
# High freq. dielectric constant tensor:
#      x y z
#    x 2.048320 0.000000 -0.007670 
#    y 0.000000 2.012050 0.000000 
#    z -0.007670 0.000000 2.032810 
# 
# From -- ./inp_files/15969.got.cif
#   From: 2010.03.12/outbox.cif.g09.slc.cpg/sg4_8_cif.got.tgz:15969.got - 2010.03.31 09:31:35.
