data_PCOD8047715
_publ_section_title
;
Structure prediction by ZEFSAII (Michael W. Deem and Ramdas Pophale) SiO2 
 PCOD8047715
Probable space group: P 21
;
_chemical_formula_sum "Si O2"
_cell_formula_units_Z 14
_cell_length_a 8.412468
_cell_length_b 11.990400
_cell_length_c 8.396643
_cell_angle_alpha 90.000000
_cell_angle_beta 47.617891
_cell_angle_gamma 90.000000
_cell_volume 625.620272
_symmetry_space_group_name_H-M "P 21"
_symmetry_group_IT_number 4
_symmetry_cell_setting 'monoclinic'
loop_
_space_group_symop_operation_xyz
x,y,z
-x,1/2+y,-z
loop_
_atom_site_type_symbol
_atom_site_label
_atom_site_fract_x
_atom_site_fract_y
_atom_site_fract_z
Si Si1 0.198849 0.228910 0.968038
Si Si2 0.250004 0.636434 0.750001
Si Si3 0.678989 0.976953 0.567015
Si Si4 0.577500 0.540571 0.988516
Si Si5 0.922515 0.540574 0.511479
Si Si6 0.698855 0.728912 0.468038
Si Si7 0.178998 0.476950 0.067013
O O1 0.262284 0.356839 0.956472
O O2 0.945413 0.212664 0.181644
O O3 0.340240 0.158849 0.998312
O O4 0.249996 0.199157 0.750000
O O5 0.376140 0.554994 0.543913
O O6 0.445419 0.712666 0.681643
O O7 0.123870 0.554996 0.956088
O O8 0.762289 0.856842 0.456473
O O9 0.470999 0.962913 0.823940
O O10 0.859585 0.050016 0.535447
O O11 0.359607 0.550007 0.035431
O O12 0.750014 0.486872 0.749997
O O13 0.840245 0.658850 0.498314
O O14 0.971013 0.462913 0.323940
#
# Coordination Sequence:
#
# PCOD8047715 Si02
#       7
#     2   2   2   2   2   2   2
#     4  12  26  46  73 104 138 185 234 283 347 409
#     4  12  24  44  72 106 140 178 236 286 340 416
#     4  11  26  45  69 105 142 183 225 287 352 404
#     4  11  25  46  69 102 145 176 231 285 341 418
#     4  11  25  46  69 102 145 176 231 285 341 418
#     4  12  26  46  73 104 138 185 234 283 347 409
#     4  11  26  45  69 105 142 183 225 287 352 404
#
# _framework density 22.377790000000001
#
# number of rings (size 3 to 8) (size 9 to 14) (size 15 to 20)
#    0.000    0.571    7.143    0.000    4.000    4.571 
#    5.143    0.000    0.000    0.000    0.000    0.000 
#    0.000    0.000    0.000    0.000    0.000    0.000 
#
# Total GULP energy -173459.604940 kJ/mol
# GULP energy per Si atom -12389.971781 kJ/mol
# Density = 2.232686 g / cm^3
# Si number density = 22.377790 Si / 1000 Ang^3
#
#
#
# Elastic Constant Matrix: (Units=GPa)
#
#
# Indices 1 2 3 4 5 6 
#
# 1 95.8487 61.5259 25.3590 0.0000 -3.1897 0.0000
# 2 61.5259 91.2354 20.0260 0.0000 -10.5810 0.0000
# 3 25.3590 20.0260 172.3409 0.0000 7.5020 0.0000
# 4 0.0000 0.0000 0.0000 29.8262 0.0000 0.8248
# 5 -3.1897 -10.5810 7.5020 0.0000 31.3473 0.0000
# 6 0.0000 0.0000 0.0000 0.8248 0.0000 17.0024
#
#
#
# Elastic Compliance Matrix: (Units=1/GPa)
#
#
# Indices 1 2 3 4 5 6 
#
# 1 0.018810 -0.012660 -0.001207 0.000000 -0.002071 0.000000
# 2 -0.012660 0.020330 -0.000750 0.000000 0.005753 0.000000
# 3 -0.001207 -0.000750 0.006148 0.000000 -0.001847 0.000000
# 4 0.000000 0.000000 0.000000 0.033573 0.000000 -0.001629
# 5 -0.002071 0.005753 -0.001847 0.000000 0.034074 0.000000
# 6 0.000000 0.000000 0.000000 -0.001629 0.000000 0.058894
#
#
# Mechanical properties :
#
#
# Convention : Reuss Voigt Hill
#
# Bulk Modulus (GPa) = 62.28813 63.69408 62.99110
# Shear Modulus (GPa) = 24.22329 32.46947 28.34638
#
# Velocity S-wave (km/s) = 3.29366 3.81329 3.56296
# Velocity P-wave (km/s) = 6.50842 6.92193 6.71836
#
# Compressibility (1/GPa) = 0.01605442
#
# Stress axis : x y z
#
# Youngs Moduli (GPa) = 53.16316 49.18831 162.66671
#
# Poissons Ratio (x) = 0.62273 0.19627
# Poissons Ratio (y) = 0.67305 0.12199
# Poissons Ratio (z) = 0.06414 0.03689
#
# Static dielectric constant tensor:
#      x y z
#    x 3.960250 0.000000 0.096180 
#    y 0.000000 3.588120 0.000000 
#    z 0.096180 0.000000 4.818740 
# 
# 
# High freq. dielectric constant tensor:
#      x y z
#    x 1.878670 0.000000 0.012020 
#    y 0.000000 1.853650 0.000000 
#    z 0.012020 0.000000 1.908930 
# 
# From -- ./inp_files/5997.got.cif
#   From: 2010.03.12/outbox.cif.g09.slc.cpg/sg4_3_cif.got.tgz:5997.got - 2010.03.31 09:31:35.
