data_PCOD8047530
_publ_section_title
;
Structure prediction by ZEFSAII (Michael W. Deem and Ramdas Pophale) SiO2 
 PCOD8047530
Probable space group: P 21
;
_chemical_formula_sum "Si O2"
_cell_formula_units_Z 16
_cell_length_a 14.962033
_cell_length_b 5.064349
_cell_length_c 11.463819
_cell_angle_alpha 90.000000
_cell_angle_beta 43.884549
_cell_angle_gamma 90.000000
_cell_volume 602.152928
_symmetry_space_group_name_H-M "P 21"
_symmetry_group_IT_number 4
_symmetry_cell_setting 'monoclinic'
loop_
_space_group_symop_operation_xyz
x,y,z
-x,1/2+y,-z
loop_
_atom_site_type_symbol
_atom_site_label
_atom_site_fract_x
_atom_site_fract_y
_atom_site_fract_z
Si Si1 0.934672 0.532080 0.160555
Si Si2 0.045852 0.537775 0.711503
Si Si3 0.243526 0.919737 0.058794
Si Si4 0.203175 0.672481 0.862925
Si Si5 0.659262 0.024446 0.863962
Si Si6 0.916591 0.821102 0.559051
Si Si7 0.443256 0.703395 0.502460
Si Si8 0.497234 0.225311 0.814807
O O1 0.907428 0.323095 0.290191
O O2 0.837268 0.467407 0.146372
O O3 0.926710 0.828944 0.212928
O O4 0.079096 0.478989 0.973936
O O5 0.126568 0.446184 0.523828
O O6 0.896954 0.557719 0.807163
O O7 0.358921 0.107524 0.913195
O O8 0.245483 0.690766 0.957734
O O9 0.271899 0.793373 0.158968
O O10 0.312606 0.563454 0.672934
O O11 0.775857 0.803425 0.757110
O O12 0.596889 0.044796 0.793913
O O13 0.540171 0.970708 0.065689
O O14 0.015716 0.036076 0.523669
O O15 0.545248 0.469727 0.430741
O O16 0.437672 0.789973 0.371550
#
# Coordination Sequence:
#
# PCOD8047530 Si02
#       8
#     2   2   2   2   2   2   2   2
#     4  11  26  45  74 112 150 196 243 318 379 457
#     4  11  25  45  74 111 151 194 251 308 388 446
#     4  11  23  47  72 103 145 203 248 306 370 459
#     4  11  25  49  76 110 153 196 255 308 390 453
#     4  12  27  48  76 110 149 205 256 322 378 451
#     4  12  26  48  75 113 149 195 257 311 386 454
#     4  12  29  51  78 113 151 203 258 314 382 456
#     4  12  27  49  75 110 152 204 262 317 379 450
#
# _framework density 26.571321999999999
#
# number of rings (size 3 to 8) (size 9 to 14) (size 15 to 20)
#    0.000    0.500    3.750    3.750    8.750    2.000 
#    2.250    0.000    0.000    0.000    0.000    0.000 
#    0.000    0.000    0.000    0.000    0.000    0.000 
#
# Total GULP energy -198294.062601 kJ/mol
# GULP energy per Si atom -12393.378913 kJ/mol
# Density = 2.651084 g / cm^3
# Si number density = 26.571322 Si / 1000 Ang^3
#
#
#
# Elastic Constant Matrix: (Units=GPa)
#
#
# Indices 1 2 3 4 5 6 
#
# 1 100.7274 13.5977 12.6242 0.0000 14.5774 0.0000
# 2 13.5977 50.2763 -27.0235 0.0000 -1.6753 0.0000
# 3 12.6242 -27.0235 102.2127 0.0000 3.3989 0.0000
# 4 0.0000 0.0000 0.0000 32.0820 0.0000 -1.1142
# 5 14.5774 -1.6753 3.3989 0.0000 47.6881 0.0000
# 6 0.0000 0.0000 0.0000 -1.1142 0.0000 36.2691
#
#
#
# Elastic Compliance Matrix: (Units=1/GPa)
#
#
# Indices 1 2 3 4 5 6 
#
# 1 0.011348 -0.004518 -0.002481 0.000000 -0.003451 0.000000
# 2 -0.004518 0.024990 0.007107 0.000000 0.001752 0.000000
# 3 -0.002481 0.007107 0.011964 0.000000 0.000155 0.000000
# 4 0.000000 0.000000 0.000000 0.031203 0.000000 0.000959
# 5 -0.003451 0.001752 0.000155 0.000000 0.022075 0.000000
# 6 0.000000 0.000000 0.000000 0.000959 0.000000 0.027601
#
#
# Mechanical properties :
#
#
# Convention : Reuss Voigt Hill
#
# Bulk Modulus (GPa) = 20.61122 27.95705 24.28414
# Shear Modulus (GPa) = 34.44978 40.14237 37.29607
#
# Velocity S-wave (km/s) = 3.60460 3.89104 3.75056
# Velocity P-wave (km/s) = 5.00979 5.54358 5.28343
#
# Compressibility (1/GPa) = 0.04851726
#
# Stress axis : x y z
#
# Youngs Moduli (GPa) = 88.12074 40.01554 83.58592
#
# Poissons Ratio (x) = 0.18079 0.20740
# Poissons Ratio (y) = 0.39812 -0.59403
# Poissons Ratio (z) = 0.21865 -0.28438
#
# Static dielectric constant tensor:
#      x y z
#    x 4.928630 0.000000 0.120240 
#    y 0.000000 4.363070 0.000000 
#    z 0.120240 0.000000 5.126540 
# 
# 
# High freq. dielectric constant tensor:
#      x y z
#    x 2.076170 0.000000 0.011700 
#    y 0.000000 2.048230 0.000000 
#    z 0.011700 0.000000 2.074640 
# 
# From -- ./inp_files/12484.got.cif
#   From: 2010.03.12/outbox.cif.g09.slc.cpg/sg4_7_cif.got.tgz:12484.got - 2010.03.31 09:31:35.
