data_PCOD8047311
_publ_section_title
;
Structure prediction by ZEFSAII (Michael W. Deem and Ramdas Pophale) SiO2 
 PCOD8047311
Probable space group: P 21
;
_chemical_formula_sum "Si O2"
_cell_formula_units_Z 10
_cell_length_a 15.303518
_cell_length_b 6.527134
_cell_length_c 10.125931
_cell_angle_alpha 90.000000
_cell_angle_beta 25.792239
_cell_angle_gamma 90.000000
_cell_volume 440.095553
_symmetry_space_group_name_H-M "P 21"
_symmetry_group_IT_number 4
_symmetry_cell_setting 'monoclinic'
loop_
_space_group_symop_operation_xyz
x,y,z
-x,1/2+y,-z
loop_
_atom_site_type_symbol
_atom_site_label
_atom_site_fract_x
_atom_site_fract_y
_atom_site_fract_z
Si Si1 0.757364 0.349170 0.261843
Si Si2 0.993796 0.194929 0.174319
Si Si3 0.726472 0.847574 0.637388
Si Si4 0.459033 0.526481 0.860664
Si Si5 0.883238 0.090903 0.860684
O O1 0.943911 0.314325 0.107291
O O2 0.551078 0.378621 0.622274
O O3 0.747095 0.162379 0.171526
O O4 0.809479 0.555894 0.111096
O O5 0.044325 0.357785 0.219376
O O6 0.796268 0.063110 0.480757
O O7 0.611209 0.712567 0.684642
O O8 0.922670 0.731510 0.423487
O O9 0.574442 0.889787 0.964070
O O10 0.248053 0.612081 0.093509
#
# Coordination Sequence:
#
# PCOD8047311 Si02
#       5
#     2   2   2   2   2
#     4  11  22  43  71 104 137 182 232 289 349 417
#     4  11  21  46  72  98 148 181 229 291 358 406
#     4  11  27  48  68 103 143 188 232 296 351 417
#     4  12  27  46  74 103 142 187 240 289 353 423
#     4  11  27  45  71 104 142 188 233 293 353 419
#
# _framework density 22.722339000000002
#
# number of rings (size 3 to 8) (size 9 to 14) (size 15 to 20)
#    0.000    0.800    4.000    2.400    5.600    0.000 
#    7.200    0.000    0.000    0.000    0.000    0.000 
#    0.000    0.000    0.000    0.000    0.000    0.000 
#
# Total GULP energy -124058.239593 kJ/mol
# GULP energy per Si atom -12405.823959 kJ/mol
# Density = 2.267062 g / cm^3
# Si number density = 22.722339 Si / 1000 Ang^3
#
#
#
# Elastic Constant Matrix: (Units=GPa)
#
#
# Indices 1 2 3 4 5 6 
#
# 1 102.8248 25.0109 3.8512 0.0000 -20.1538 0.0000
# 2 25.0109 110.5796 44.1633 0.0000 -4.0681 0.0000
# 3 3.8512 44.1633 101.9793 0.0000 10.5542 0.0000
# 4 0.0000 0.0000 0.0000 44.8060 0.0000 1.4812
# 5 -20.1538 -4.0681 10.5542 0.0000 33.5391 0.0000
# 6 0.0000 0.0000 0.0000 1.4812 0.0000 19.9678
#
#
#
# Elastic Compliance Matrix: (Units=1/GPa)
#
#
# Indices 1 2 3 4 5 6 
#
# 1 0.011617 -0.002329 -0.000128 0.000000 0.006739 0.000000
# 2 -0.002329 0.011683 -0.005141 0.000000 0.001636 0.000000
# 3 -0.000128 -0.005141 0.012517 0.000000 -0.004639 0.000000
# 4 0.000000 0.000000 0.000000 0.022373 0.000000 -0.001660
# 5 0.006739 0.001636 -0.004639 0.000000 0.035523 0.000000
# 6 0.000000 0.000000 0.000000 -0.001660 0.000000 0.050204
#
#
# Mechanical properties :
#
#
# Convention : Reuss Voigt Hill
#
# Bulk Modulus (GPa) = 48.48903 51.27050 49.87976
# Shear Modulus (GPa) = 30.12279 35.81980 32.97130
#
# Velocity S-wave (km/s) = 3.64495 3.97471 3.81340
# Velocity P-wave (km/s) = 6.25303 6.60889 6.43342
#
# Compressibility (1/GPa) = 0.02062322
#
# Stress axis : x y z
#
# Youngs Moduli (GPa) = 86.07882 85.59219 79.89010
#
# Poissons Ratio (x) = 0.19932 0.01020
# Poissons Ratio (y) = 0.20045 0.41071
# Poissons Ratio (z) = 0.01099 0.44002
#
# Static dielectric constant tensor:
#      x y z
#    x 3.850360 0.000000 0.079090 
#    y 0.000000 4.147720 0.000000 
#    z 0.079090 0.000000 4.008380 
# 
# 
# High freq. dielectric constant tensor:
#      x y z
#    x 1.881900 0.000000 0.002530 
#    y 0.000000 1.902360 0.000000 
#    z 0.002530 0.000000 1.898230 
# 
# From -- ./inp_files/5049.got.cif
#   From: 2010.03.12/outbox.cif.g09.slc.cpg/sg4_3_cif.got.tgz:5049.got - 2010.03.31 09:31:35.
