data_PCOD8047845
_publ_section_title
;
Structure prediction by ZEFSAII (Michael W. Deem and Ramdas Pophale) SiO2 
 PCOD8047845
Probable space group: P 21
;
_chemical_formula_sum "Si O2"
_cell_formula_units_Z 12
_cell_length_a 13.925864
_cell_length_b 8.461146
_cell_length_c 12.994447
_cell_angle_alpha 90.000000
_cell_angle_beta 158.822895
_cell_angle_gamma 90.000000
_cell_volume 553.120035
_symmetry_space_group_name_H-M "P 21"
_symmetry_group_IT_number 4
_symmetry_cell_setting 'monoclinic'
loop_
_space_group_symop_operation_xyz
x,y,z
-x,1/2+y,-z
loop_
_atom_site_type_symbol
_atom_site_label
_atom_site_fract_x
_atom_site_fract_y
_atom_site_fract_z
Si Si1 0.682387 0.500000 0.334021
Si Si2 0.715930 0.674094 0.786579
Si Si3 0.203941 0.467950 0.278744
Si Si4 0.803445 0.858204 0.495928
Si Si5 0.185418 0.311039 0.892291
Si Si6 0.298535 0.003444 0.889746
O O1 0.727446 0.676309 0.416668
O O2 0.699328 0.483788 0.229380
O O3 0.891710 0.382186 0.594950
O O4 0.392720 0.452646 0.085123
O O5 0.424274 0.602455 0.489350
O O6 0.720342 0.822384 0.716502
O O7 0.783878 0.723772 0.969677
O O8 0.928388 0.542583 0.963470
O O9 0.173724 0.410576 0.364417
O O10 0.087511 0.881233 0.725904
O O11 0.588771 0.965979 0.223658
O O12 0.223197 0.183708 0.839410
#
# Coordination Sequence:
#
# PCOD8047845 Si02
#       6
#     2   2   2   2   2   2
#     4  12  26  40  71 103 136 182 227 273 330 411
#     4  12  27  48  74 102 134 179 225 284 347 404
#     4  12  26  48  73 102 134 179 225 285 345 404
#     4  12  25  45  68 100 141 175 228 282 335 399
#     4  12  25  45  68 101 141 174 227 282 336 399
#     4  12  23  46  68  98 138 185 226 274 337 395
#
# _framework density 21.695111000000001
#
# number of rings (size 3 to 8) (size 9 to 14) (size 15 to 20)
#    0.000    0.000    3.333    7.000    4.667    0.000 
#    0.000    0.000    0.000    0.000    0.000    0.000 
#    0.000    0.000    0.000    0.000    0.000    0.000 
#
# Total GULP energy -148926.914904 kJ/mol
# GULP energy per Si atom -12410.576242 kJ/mol
# Density = 2.164573 g / cm^3
# Si number density = 21.695111 Si / 1000 Ang^3
#
#
#
# Elastic Constant Matrix: (Units=GPa)
#
#
# Indices 1 2 3 4 5 6 
#
# 1 94.4563 28.7503 19.5865 0.0000 13.3304 0.0000
# 2 28.7503 107.3320 5.5449 0.0000 -2.2532 0.0000
# 3 19.5865 5.5449 70.6638 0.0000 1.6586 0.0000
# 4 0.0000 0.0000 0.0000 61.6225 0.0000 8.8982
# 5 13.3304 -2.2532 1.6586 0.0000 26.7606 0.0000
# 6 0.0000 0.0000 0.0000 8.8982 0.0000 50.2039
#
#
#
# Elastic Compliance Matrix: (Units=1/GPa)
#
#
# Indices 1 2 3 4 5 6 
#
# 1 0.013282 -0.003531 -0.003247 0.000000 -0.006712 0.000000
# 2 -0.003531 0.010312 0.000108 0.000000 0.002620 0.000000
# 3 -0.003247 0.000108 0.015027 0.000000 0.000695 0.000000
# 4 0.000000 0.000000 0.000000 0.016654 0.000000 -0.002952
# 5 -0.006712 0.002620 0.000695 0.000000 0.040890 0.000000
# 6 0.000000 0.000000 0.000000 -0.002952 0.000000 0.020442
#
#
# Mechanical properties :
#
#
# Convention : Reuss Voigt Hill
#
# Bulk Modulus (GPa) = 39.55492 42.24615 40.90054
# Shear Modulus (GPa) = 36.13404 42.28876 39.21140
#
# Velocity S-wave (km/s) = 4.08553 4.41980 4.25595
# Velocity P-wave (km/s) = 6.36609 6.74990 6.56080
#
# Compressibility (1/GPa) = 0.02528131
#
# Stress axis : x y z
#
# Youngs Moduli (GPa) = 75.28845 96.97304 66.54816
#
# Poissons Ratio (x) = 0.34241 0.21608
# Poissons Ratio (y) = 0.26584 -0.00719
# Poissons Ratio (z) = 0.24446 -0.01048
#
# Static dielectric constant tensor:
#      x y z
#    x 3.981860 0.000000 0.038430 
#    y 0.000000 3.621870 0.000000 
#    z 0.038430 0.000000 4.160810 
# 
# 
# High freq. dielectric constant tensor:
#      x y z
#    x 1.862320 0.000000 0.003540 
#    y 0.000000 1.869900 0.000000 
#    z 0.003540 0.000000 1.870350 
# 
# From -- ./inp_files/2456.got.cif
#   From: 2010.03.12/outbox.cif.g09.slc.cpg/sg4_2_cif.got.tgz:2456.got - 2010.03.31 09:31:35.
