data_PCOD8047481
_publ_section_title
;
Structure prediction by ZEFSAII (Michael W. Deem and Ramdas Pophale) SiO2 
 PCOD8047481
Probable space group: P 21
;
_chemical_formula_sum "Si O2"
_cell_formula_units_Z 16
_cell_length_a 6.681742
_cell_length_b 8.962104
_cell_length_c 17.837330
_cell_angle_alpha 90.000000
_cell_angle_beta 137.219911
_cell_angle_gamma 90.000000
_cell_volume 725.468291
_symmetry_space_group_name_H-M "P 21"
_symmetry_group_IT_number 4
_symmetry_cell_setting 'monoclinic'
loop_
_space_group_symop_operation_xyz
x,y,z
-x,1/2+y,-z
loop_
_atom_site_type_symbol
_atom_site_label
_atom_site_fract_x
_atom_site_fract_y
_atom_site_fract_z
Si Si1 0.825157 0.590910 0.638867
Si Si2 0.729462 0.543665 0.201064
Si Si3 0.773324 0.872293 0.714616
Si Si4 0.357389 0.576944 0.875460
Si Si5 0.316873 0.286638 0.145646
Si Si6 0.340540 0.778449 0.014025
Si Si7 0.164270 0.938186 0.504822
Si Si8 0.152157 0.595366 0.455014
O O1 0.844618 0.767026 0.662137
O O2 0.954897 0.545877 0.593748
O O3 0.488382 0.537643 0.544947
O O4 0.038070 0.515078 0.760180
O O5 0.471623 0.438117 0.161208
O O6 0.574503 0.691275 0.128889
O O7 0.926309 0.466760 0.188788
O O8 0.976300 0.587478 0.329384
O O9 0.674830 0.779078 0.761228
O O10 0.504613 0.978086 0.616318
O O11 0.526560 0.644345 0.849244
O O12 0.537397 0.445057 0.963510
O O13 0.305824 0.705769 0.922571
O O14 0.971352 0.285687 0.027960
O O15 0.129383 0.763823 0.477639
O O16 0.979859 0.973041 0.526807
#
# Coordination Sequence:
#
# PCOD8047481 Si02
#       8
#     2   2   2   2   2   2   2   2
#     4  11  24  43  70 103 142 184 227 287 348 422
#     4  12  24  48  72 101 147 181 237 292 349 421
#     4  11  23  44  72  97 140 189 229 281 355 410
#     4  12  26  46  72 104 141 183 237 295 349 419
#     4  12  23  46  72 100 133 190 234 284 354 408
#     4  12  27  47  71 107 136 187 239 292 354 409
#     4  11  25  42  70 106 139 183 236 278 346 420
#     4  11  26  44  69 108 138 189 231 289 349 423
#
# _framework density 22.05472
#
# number of rings (size 3 to 8) (size 9 to 14) (size 15 to 20)
#    0.000    0.500    5.000    3.000    5.250    0.000 
#    2.250    0.000    0.000    0.000    0.000    0.000 
#    0.000    0.000    0.000    0.000    0.000    0.000 
#
# Total GULP energy -198339.424419 kJ/mol
# GULP energy per Si atom -12396.214026 kJ/mol
# Density = 2.200452 g / cm^3
# Si number density = 22.054720 Si / 1000 Ang^3
#
#
#
# Elastic Constant Matrix: (Units=GPa)
#
#
# Indices 1 2 3 4 5 6 
#
# 1 102.7774 39.0913 51.4944 0.0000 7.9196 0.0000
# 2 39.0913 81.4296 34.3013 0.0000 4.2002 0.0000
# 3 51.4944 34.3013 156.6454 0.0000 16.0454 0.0000
# 4 0.0000 0.0000 0.0000 41.1120 0.0000 0.7975
# 5 7.9196 4.2002 16.0454 0.0000 43.4408 0.0000
# 6 0.0000 0.0000 0.0000 0.7975 0.0000 35.3265
#
#
#
# Elastic Compliance Matrix: (Units=1/GPa)
#
#
# Indices 1 2 3 4 5 6 
#
# 1 0.013290 -0.004994 -0.003197 0.000000 -0.000759 0.000000
# 2 -0.004994 0.015407 -0.001739 0.000000 0.000063 0.000000
# 3 -0.003197 -0.001739 0.008043 0.000000 -0.002220 0.000000
# 4 0.000000 0.000000 0.000000 0.024334 0.000000 -0.000549
# 5 -0.000759 0.000063 -0.002220 0.000000 0.023972 0.000000
# 6 0.000000 0.000000 0.000000 -0.000549 0.000000 0.028320
#
#
# Mechanical properties :
#
#
# Convention : Reuss Voigt Hill
#
# Bulk Modulus (GPa) = 59.24173 65.62515 62.43344
# Shear Modulus (GPa) = 36.00949 38.37355 37.19152
#
# Velocity S-wave (km/s) = 4.04509 4.17577 4.11095
# Velocity P-wave (km/s) = 6.98116 7.28489 7.13464
#
# Compressibility (1/GPa) = 0.01687999
#
# Stress axis : x y z
#
# Youngs Moduli (GPa) = 75.24642 64.90559 124.33119
#
# Poissons Ratio (x) = 0.32413 0.39755
# Poissons Ratio (y) = 0.37577 0.21616
# Poissons Ratio (z) = 0.24060 0.11284
#
# Static dielectric constant tensor:
#      x y z
#    x 4.076510 0.000000 0.217720 
#    y 0.000000 3.732140 0.000000 
#    z 0.217720 0.000000 4.254540 
# 
# 
# High freq. dielectric constant tensor:
#      x y z
#    x 1.871180 0.000000 0.011170 
#    y 0.000000 1.853230 0.000000 
#    z 0.011170 0.000000 1.892280 
# 
# From -- ./inp_files/3503.got.cif
#   From: 2010.03.12/outbox.cif.g09.slc.cpg/sg4_2_cif.got.tgz:3503.got - 2010.03.31 09:31:35.
