data_PCOD8047776
_publ_section_title
;
Structure prediction by ZEFSAII (Michael W. Deem and Ramdas Pophale) SiO2 
 PCOD8047776
Probable space group: P 21
;
_chemical_formula_sum "Si O2"
_cell_formula_units_Z 12
_cell_length_a 11.592073
_cell_length_b 4.984082
_cell_length_c 8.798975
_cell_angle_alpha 90.000000
_cell_angle_beta 67.885012
_cell_angle_gamma 90.000000
_cell_volume 470.967638
_symmetry_space_group_name_H-M "P 21"
_symmetry_group_IT_number 4
_symmetry_cell_setting 'monoclinic'
loop_
_space_group_symop_operation_xyz
x,y,z
-x,1/2+y,-z
loop_
_atom_site_type_symbol
_atom_site_label
_atom_site_fract_x
_atom_site_fract_y
_atom_site_fract_z
Si Si1 0.920299 0.942030 0.054830
Si Si2 0.212207 0.135970 0.633470
Si Si3 0.686611 0.986974 0.670907
Si Si4 0.074423 0.782561 0.508864
Si Si5 0.412565 0.051119 0.769474
Si Si6 0.320794 0.551409 0.982539
O O1 0.843407 0.889933 0.248319
O O2 0.970812 0.654860 0.971832
O O3 0.827876 0.055997 0.971592
O O4 0.254626 0.233250 0.445096
O O5 0.100001 0.918517 0.662263
O O6 0.324888 0.990716 0.667075
O O7 0.786485 0.229371 0.624529
O O8 0.557062 0.047040 0.648125
O O9 0.651995 0.938537 0.863202
O O10 0.002554 0.004160 0.440378
O O11 0.387552 0.351366 0.834522
O O12 0.379446 0.843370 0.921247
#
# Coordination Sequence:
#
# PCOD8047776 Si02
#       6
#     2   2   2   2   2   2
#     4  11  26  46  74 106 156 205 252 310 392 465
#     4  11  29  48  79 116 153 201 264 323 384 458
#     4  12  29  48  86 109 157 204 262 320 391 451
#     4  12  29  48  71 113 158 191 255 316 388 450
#     4  11  28  51  77 113 161 198 262 316 396 460
#     4  11  27  49  73 115 153 207 257 315 387 464
#
# _framework density 25.479457
#
# number of rings (size 3 to 8) (size 9 to 14) (size 15 to 20)
#    0.000    0.667    1.667    3.000   16.333    1.333 
#    3.000    0.000    0.000    0.000    0.000    0.000 
#    0.000    0.000    0.000    0.000    0.000    0.000 
#
# Total GULP energy -148795.137638 kJ/mol
# GULP energy per Si atom -12399.594803 kJ/mol
# Density = 2.542147 g / cm^3
# Si number density = 25.479457 Si / 1000 Ang^3
#
#
#
# Elastic Constant Matrix: (Units=GPa)
#
#
# Indices 1 2 3 4 5 6 
#
# 1 178.1930 50.4071 36.1398 0.0000 -11.9698 0.0000
# 2 50.4071 125.3997 25.1998 0.0000 -11.9689 0.0000
# 3 36.1398 25.1998 77.5262 0.0000 4.7550 0.0000
# 4 0.0000 0.0000 0.0000 33.3535 0.0000 -1.6308
# 5 -11.9698 -11.9689 4.7550 0.0000 38.4181 0.0000
# 6 0.0000 0.0000 0.0000 -1.6308 0.0000 39.2738
#
#
#
# Elastic Compliance Matrix: (Units=1/GPa)
#
#
# Indices 1 2 3 4 5 6 
#
# 1 0.006849 -0.002049 -0.002639 0.000000 0.001822 0.000000
# 2 -0.002049 0.009508 -0.002295 0.000000 0.002608 0.000000
# 3 -0.002639 -0.002295 0.015084 0.000000 -0.003404 0.000000
# 4 0.000000 0.000000 0.000000 0.030043 0.000000 0.001247
# 5 0.001822 0.002608 -0.003404 0.000000 0.027831 0.000000
# 6 0.000000 0.000000 0.000000 0.001247 0.000000 0.025514
#
#
# Mechanical properties :
#
#
# Convention : Reuss Voigt Hill
#
# Bulk Modulus (GPa) = 57.22385 67.17913 62.20149
# Shear Modulus (GPa) = 37.14158 40.16723 38.65441
#
# Velocity S-wave (km/s) = 3.82213 3.97477 3.89920
# Velocity P-wave (km/s) = 6.47965 6.89117 6.68858
#
# Compressibility (1/GPa) = 0.01747523
#
# Stress axis : x y z
#
# Youngs Moduli (GPa) = 146.00616 105.17084 66.29642
#
# Poissons Ratio (x) = 0.21549 0.17492
# Poissons Ratio (y) = 0.29916 0.15218
# Poissons Ratio (z) = 0.38524 0.24142
#
# Static dielectric constant tensor:
#      x y z
#    x 5.143080 0.000000 0.072440 
#    y 0.000000 4.431430 0.000000 
#    z 0.072440 0.000000 4.239070 
# 
# 
# High freq. dielectric constant tensor:
#      x y z
#    x 2.041470 0.000000 0.001360 
#    y 0.000000 2.021480 0.000000 
#    z 0.001360 0.000000 1.993350 
# 
# From -- ./inp_files/7054.got.cif
#   From: 2010.03.12/outbox.cif.g09.slc.cpg/sg4_4_cif.got.tgz:7054.got - 2010.03.31 09:31:35.
