data_PCOD8047110
_publ_section_title
;
Structure prediction by ZEFSAII (Michael W. Deem and Ramdas Pophale) SiO2 
 PCOD8047110
Probable space group: P 21
;
_chemical_formula_sum "Si O2"
_cell_formula_units_Z 16
_cell_length_a 9.304169
_cell_length_b 7.663523
_cell_length_c 18.776514
_cell_angle_alpha 90.000000
_cell_angle_beta 29.948394
_cell_angle_gamma 90.000000
_cell_volume 668.363615
_symmetry_space_group_name_H-M "P 21"
_symmetry_group_IT_number 4
_symmetry_cell_setting 'monoclinic'
loop_
_space_group_symop_operation_xyz
x,y,z
-x,1/2+y,-z
loop_
_atom_site_type_symbol
_atom_site_label
_atom_site_fract_x
_atom_site_fract_y
_atom_site_fract_z
Si Si1 0.880615 0.412980 0.452333
Si Si2 0.074547 0.416159 0.646242
Si Si3 0.943027 0.303100 0.131072
Si Si4 0.509259 0.962299 0.039412
Si Si5 0.439615 0.645835 0.579502
Si Si6 0.194256 0.758014 0.366595
Si Si7 0.576556 0.837821 0.862596
Si Si8 0.756158 0.566739 0.099495
O O1 0.574301 0.461827 0.548604
O O2 0.834424 0.285123 0.537693
O O3 0.017436 0.588885 0.422834
O O4 0.093116 0.321431 0.304714
O O5 0.226169 0.598769 0.605069
O O6 0.301982 0.262346 0.560808
O O7 0.805826 0.378836 0.813484
O O8 0.941952 0.417207 0.622386
O O9 0.719239 0.245427 0.287843
O O10 0.843010 0.485717 0.138550
O O11 0.253761 0.329449 0.032660
O O12 0.972014 0.148807 0.059570
O O13 0.534893 0.150541 0.064346
O O14 0.557094 0.979016 0.934339
O O15 0.530244 0.725833 0.205401
O O16 0.374258 0.902081 0.886169
#
# Coordination Sequence:
#
# PCOD8047110 Si02
#       8
#     2   2   2   2   2   2   2   2
#     4  10  26  44  71 109 146 190 247 306 383 446
#     4  11  26  48  72 110 145 200 247 313 374 453
#     4  12  27  48  72 112 149 199 250 316 378 455
#     4  12  26  47  77 105 152 201 253 310 387 444
#     4  11  28  46  73 109 153 190 257 311 377 450
#     4  10  24  45  73 102 148 195 241 306 377 455
#     4  11  26  45  76 107 146 200 253 312 373 458
#     4  11  25  47  72 110 145 193 256 306 381 445
#
# _framework density 23.939067000000001
#
# number of rings (size 3 to 8) (size 9 to 14) (size 15 to 20)
#    0.000    1.000    1.250    3.000   17.500    0.000 
#    2.250    0.000    0.000    0.000    0.000    0.000 
#    0.000    0.000    0.000    0.000    0.000    0.000 
#
# Total GULP energy -198408.357597 kJ/mol
# GULP energy per Si atom -12400.522350 kJ/mol
# Density = 2.388458 g / cm^3
# Si number density = 23.939067 Si / 1000 Ang^3
#
#
#
# Elastic Constant Matrix: (Units=GPa)
#
#
# Indices 1 2 3 4 5 6 
#
# 1 83.0558 19.3723 46.6197 0.0000 -5.7053 0.0000
# 2 19.3723 49.5761 19.1369 0.0000 3.7145 0.0000
# 3 46.6197 19.1369 110.5891 0.0000 6.1198 0.0000
# 4 0.0000 0.0000 0.0000 40.1188 0.0000 2.3837
# 5 -5.7053 3.7145 6.1198 0.0000 37.8308 0.0000
# 6 0.0000 0.0000 0.0000 2.3837 0.0000 48.5797
#
#
#
# Elastic Compliance Matrix: (Units=1/GPa)
#
#
# Indices 1 2 3 4 5 6 
#
# 1 0.017093 -0.004412 -0.006669 0.000000 0.004090 0.000000
# 2 -0.004412 0.022842 -0.001949 0.000000 -0.002593 0.000000
# 3 -0.006669 -0.001949 0.012347 0.000000 -0.002812 0.000000
# 4 0.000000 0.000000 0.000000 0.024999 0.000000 -0.001227
# 5 0.004090 -0.002593 -0.002812 0.000000 0.027760 0.000000
# 6 0.000000 0.000000 0.000000 -0.001227 0.000000 0.020645
#
#
# Mechanical properties :
#
#
# Convention : Reuss Voigt Hill
#
# Bulk Modulus (GPa) = 38.13577 45.94209 42.03893
# Shear Modulus (GPa) = 31.15559 35.84534 33.50047
#
# Velocity S-wave (km/s) = 3.61148 3.87377 3.74492
# Velocity P-wave (km/s) = 5.77541 6.26427 6.02480
#
# Compressibility (1/GPa) = 0.02622210
#
# Stress axis : x y z
#
# Youngs Moduli (GPa) = 58.50296 43.77977 80.99370
#
# Poissons Ratio (x) = 0.19314 0.54012
# Poissons Ratio (y) = 0.25809 0.15789
# Poissons Ratio (z) = 0.39014 0.08535
#
# Static dielectric constant tensor:
#      x y z
#    x 4.599520 0.000000 -0.046230 
#    y 0.000000 4.158940 0.000000 
#    z -0.046230 0.000000 4.452000 
# 
# 
# High freq. dielectric constant tensor:
#      x y z
#    x 1.957160 0.000000 -0.002790 
#    y 0.000000 1.947510 0.000000 
#    z -0.002790 0.000000 1.954760 
# 
# From -- ./inp_files/14935.got.cif
#   From: 2010.03.12/outbox.cif.g09.slc.cpg/sg4_8_cif.got.tgz:14935.got - 2010.03.31 09:31:35.
