data_PCOD8047545
_publ_section_title
;
Structure prediction by ZEFSAII (Michael W. Deem and Ramdas Pophale) SiO2 
 PCOD8047545
Probable space group: P 21
;
_chemical_formula_sum "Si O2"
_cell_formula_units_Z 16
_cell_length_a 12.693449
_cell_length_b 5.459803
_cell_length_c 15.027920
_cell_angle_alpha 90.000000
_cell_angle_beta 140.921615
_cell_angle_gamma 90.000000
_cell_volume 656.538170
_symmetry_space_group_name_H-M "P 21"
_symmetry_group_IT_number 4
_symmetry_cell_setting 'monoclinic'
loop_
_space_group_symop_operation_xyz
x,y,z
-x,1/2+y,-z
loop_
_atom_site_type_symbol
_atom_site_label
_atom_site_fract_x
_atom_site_fract_y
_atom_site_fract_z
Si Si1 0.141398 0.507490 0.231837
Si Si2 0.202471 0.768488 0.959264
Si Si3 0.607836 0.145896 0.303426
Si Si4 0.992208 0.405995 0.729262
Si Si5 0.378474 0.523925 0.230511
Si Si6 0.949263 0.315621 0.513476
Si Si7 0.303154 0.262154 0.492421
Si Si8 0.532166 0.512159 0.968667
O O1 0.096700 0.766323 0.247393
O O2 0.208012 0.516878 0.174949
O O3 0.289586 0.386420 0.386603
O O4 0.972324 0.351580 0.113947
O O5 0.164917 0.522783 0.878004
O O6 0.341795 0.712546 0.125914
O O7 0.277114 0.973314 0.941542
O O8 0.432936 0.261911 0.224677
O O9 0.747465 0.359348 0.385510
O O10 0.691607 0.959373 0.426452
O O11 0.586953 0.018242 0.194834
O O12 0.028635 0.251765 0.663501
O O13 0.865623 0.609306 0.607238
O O14 0.526019 0.609576 0.392473
O O15 0.023788 0.568199 0.525454
O O16 0.522825 0.769344 0.013623
#
# Coordination Sequence:
#
# PCOD8047545 Si02
#       8
#     2   2   2   2   2   2   2   2
#     4  11  28  45  82 112 158 208 262 324 405 478
#     4  11  29  50  74 113 162 204 261 329 387 489
#     4  12  27  51  75 112 163 197 273 336 389 478
#     4  11  26  50  73 112 160 198 265 326 394 472
#     4  12  27  48  80 113 158 210 262 323 407 479
#     4  12  28  47  80 115 152 210 259 328 400 466
#     4  11  23  48  76 109 154 199 258 324 394 460
#     4  12  30  53  82 116 155 218 268 328 404 472
#
# _framework density 24.370249999999999
#
# number of rings (size 3 to 8) (size 9 to 14) (size 15 to 20)
#    0.000    0.500    3.750    1.500   12.250    1.000 
#    0.000    0.000    0.000    0.000    0.000    0.000 
#    0.000    0.000    0.000    0.000    0.000    0.000 
#
# Total GULP energy -198366.595771 kJ/mol
# GULP energy per Si atom -12397.912236 kJ/mol
# Density = 2.431478 g / cm^3
# Si number density = 24.370250 Si / 1000 Ang^3
#
#
#
# Elastic Constant Matrix: (Units=GPa)
#
#
# Indices 1 2 3 4 5 6 
#
# 1 97.2315 21.7029 11.1388 0.0000 -20.4539 0.0000
# 2 21.7029 104.2206 15.5109 0.0000 -18.7041 0.0000
# 3 11.1388 15.5109 96.5033 0.0000 -12.1038 0.0000
# 4 0.0000 0.0000 0.0000 44.1288 0.0000 -0.9734
# 5 -20.4539 -18.7041 -12.1038 0.0000 27.9463 0.0000
# 6 0.0000 0.0000 0.0000 -0.9734 0.0000 32.2541
#
#
#
# Elastic Compliance Matrix: (Units=1/GPa)
#
#
# Indices 1 2 3 4 5 6 
#
# 1 0.012265 -0.001054 -0.000221 0.000000 0.008176 0.000000
# 2 -0.001054 0.011067 -0.000872 0.000000 0.006258 0.000000
# 3 -0.000221 -0.000872 0.011034 0.000000 0.004033 0.000000
# 4 0.000000 0.000000 0.000000 0.022676 0.000000 0.000684
# 5 0.008176 0.006258 0.004033 0.000000 0.047702 0.000000
# 6 0.000000 0.000000 0.000000 0.000684 0.000000 0.031024
#
#
# Mechanical properties :
#
#
# Convention : Reuss Voigt Hill
#
# Bulk Modulus (GPa) = 33.25319 43.85120 38.55219
# Shear Modulus (GPa) = 33.31391 37.50602 35.40997
#
# Velocity S-wave (km/s) = 3.70129 3.92728 3.81596
# Velocity P-wave (km/s) = 5.65161 6.21269 5.93878
#
# Compressibility (1/GPa) = 0.03007231
#
# Stress axis : x y z
#
# Youngs Moduli (GPa) = 81.53170 90.35506 90.62962
#
# Poissons Ratio (x) = 0.09523 0.02002
# Poissons Ratio (y) = 0.08593 0.07906
# Poissons Ratio (z) = 0.01801 0.07882
#
# Static dielectric constant tensor:
#      x y z
#    x 4.325800 0.000000 -0.049540 
#    y 0.000000 4.360540 0.000000 
#    z -0.049540 0.000000 4.547480 
# 
# 
# High freq. dielectric constant tensor:
#      x y z
#    x 1.966950 0.000000 -0.003140 
#    y 0.000000 1.969350 0.000000 
#    z -0.003140 0.000000 1.983520 
# 
# From -- ./inp_files/13868.got.cif
#   From: 2010.03.12/outbox.cif.g09.slc.cpg/sg4_7_cif.got.tgz:13868.got - 2010.03.31 09:31:35.
