data_PCOD8047277
_publ_section_title
;
Structure prediction by ZEFSAII (Michael W. Deem and Ramdas Pophale) SiO2 
 PCOD8047277
Probable space group: P 21
;
_chemical_formula_sum "Si O2"
_cell_formula_units_Z 16
_cell_length_a 7.511981
_cell_length_b 12.296448
_cell_length_c 8.589140
_cell_angle_alpha 90.000000
_cell_angle_beta 91.812112
_cell_angle_gamma 90.000000
_cell_volume 792.987961
_symmetry_space_group_name_H-M "P 21"
_symmetry_group_IT_number 4
_symmetry_cell_setting 'monoclinic'
loop_
_space_group_symop_operation_xyz
x,y,z
-x,1/2+y,-z
loop_
_atom_site_type_symbol
_atom_site_label
_atom_site_fract_x
_atom_site_fract_y
_atom_site_fract_z
Si Si1 0.872795 0.833650 0.969199
Si Si2 0.962514 0.059133 0.437912
Si Si3 0.176159 0.534591 0.250296
Si Si4 0.752917 0.249746 0.932450
Si Si5 0.746811 0.687256 0.693765
Si Si6 0.562759 0.893818 0.181686
Si Si7 0.266475 0.382573 0.506014
Si Si8 0.639530 0.134732 0.231686
O O1 0.899005 0.949841 0.881405
O O2 0.821171 0.733783 0.856154
O O3 0.051506 0.800687 0.062912
O O4 0.718193 0.834244 0.092293
O O5 0.800483 0.130036 0.359486
O O6 0.147003 0.078042 0.351700
O O7 0.973696 0.076135 0.627784
O O8 0.904908 0.933544 0.407151
O O9 0.261633 0.640243 0.172323
O O10 0.317442 0.464171 0.361150
O O11 0.626820 0.346188 0.870674
O O12 0.695058 0.221862 0.105286
O O13 0.797266 0.767106 0.554963
O O14 0.535758 0.674985 0.683875
O O15 0.572823 0.873631 0.367988
O O16 0.582978 0.021894 0.146856
#
# Coordination Sequence:
#
# PCOD8047277 Si02
#       8
#     2   2   2   2   2   2   2   2
#     4  11  23  42  65  94 136 169 210 276 324 390
#     4   9  21  42  62  89 126 168 209 271 320 383
#     4   9  22  44  64  92 132 169 213 274 321 379
#     4  12  24  40  70  95 127 180 212 266 337 391
#     4  11  21  42  67  92 129 176 210 266 339 383
#     4  11  24  41  60  99 130 168 220 268 324 392
#     4   8  22  40  64  89 129 167 213 275 314 388
#     4  11  23  41  64  94 131 167 217 270 325 392
#
# _framework density 20.176850000000002
#
# number of rings (size 3 to 8) (size 9 to 14) (size 15 to 20)
#    0.750    1.000    3.750    0.000    3.500    3.000 
#    0.000    3.750    0.000    0.000    0.000    0.000 
#    0.000    0.000    0.000    0.000    0.000    0.000 
#
# Total GULP energy -198208.838434 kJ/mol
# GULP energy per Si atom -12388.052402 kJ/mol
# Density = 2.013093 g / cm^3
# Si number density = 20.176850 Si / 1000 Ang^3
#
#
#
# Elastic Constant Matrix: (Units=GPa)
#
#
# Indices 1 2 3 4 5 6 
#
# 1 91.0076 11.6948 30.8604 0.0000 -1.6606 0.0000
# 2 11.6948 55.8731 19.9323 0.0000 3.1934 0.0000
# 3 30.8604 19.9323 82.4334 0.0000 5.3341 0.0000
# 4 0.0000 0.0000 0.0000 37.6644 0.0000 0.7044
# 5 -1.6606 3.1934 5.3341 0.0000 30.5041 0.0000
# 6 0.0000 0.0000 0.0000 0.7044 0.0000 25.5404
#
#
#
# Elastic Compliance Matrix: (Units=1/GPa)
#
#
# Indices 1 2 3 4 5 6 
#
# 1 0.012719 -0.001115 -0.004597 0.000000 0.001613 0.000000
# 2 -0.001115 0.019731 -0.004264 0.000000 -0.001381 0.000000
# 3 -0.004597 -0.004264 0.015040 0.000000 -0.002434 0.000000
# 4 0.000000 0.000000 0.000000 0.026564 0.000000 -0.000733
# 5 0.001613 -0.001381 -0.002434 0.000000 0.033440 0.000000
# 6 0.000000 0.000000 0.000000 -0.000733 0.000000 0.039174
#
#
# Mechanical properties :
#
#
# Convention : Reuss Voigt Hill
#
# Bulk Modulus (GPa) = 36.31105 39.36546 37.83826
# Shear Modulus (GPa) = 28.44131 29.86354 29.15242
#
# Velocity S-wave (km/s) = 3.75854 3.85137 3.80524
# Velocity P-wave (km/s) = 6.07214 6.27136 6.17256
#
# Compressibility (1/GPa) = 0.02753983
#
# Stress axis : x y z
#
# Youngs Moduli (GPa) = 78.61974 50.68114 66.48751
#
# Poissons Ratio (x) = 0.05649 0.30562
# Poissons Ratio (y) = 0.08764 0.28353
# Poissons Ratio (z) = 0.36138 0.21612
#
# Static dielectric constant tensor:
#      x y z
#    x 3.355540 0.000000 0.054630 
#    y 0.000000 3.678570 0.000000 
#    z 0.054630 0.000000 3.812690 
# 
# 
# High freq. dielectric constant tensor:
#      x y z
#    x 1.759350 0.000000 0.003850 
#    y 0.000000 1.787180 0.000000 
#    z 0.003850 0.000000 1.798660 
# 
# From -- ./inp_files/4739.got.cif
#   From: 2010.03.12/outbox.cif.g09.slc.cpg/sg4_3_cif.got.tgz:4739.got - 2010.03.31 09:31:35.
