data_PCOD8047750
_publ_section_title
;
Structure prediction by ZEFSAII (Michael W. Deem and Ramdas Pophale) SiO2 
 PCOD8047750
Probable space group: P 21
;
_chemical_formula_sum "Si O2"
_cell_formula_units_Z 16
_cell_length_a 16.127422
_cell_length_b 8.443900
_cell_length_c 8.578650
_cell_angle_alpha 90.000000
_cell_angle_beta 143.611526
_cell_angle_gamma 90.000000
_cell_volume 693.058382
_symmetry_space_group_name_H-M "P 21"
_symmetry_group_IT_number 4
_symmetry_cell_setting 'monoclinic'
loop_
_space_group_symop_operation_xyz
x,y,z
-x,1/2+y,-z
loop_
_atom_site_type_symbol
_atom_site_label
_atom_site_fract_x
_atom_site_fract_y
_atom_site_fract_z
Si Si1 0.868798 0.578370 0.257008
Si Si2 0.585782 0.694291 0.313842
Si Si3 0.134203 0.220679 0.085427
Si Si4 0.597652 0.181096 0.474149
Si Si5 0.128135 0.389331 0.565652
Si Si6 0.426523 0.393956 0.000219
Si Si7 0.597519 0.398803 0.758423
Si Si8 0.125720 0.532608 0.224349
O O1 0.871142 0.698662 0.406768
O O2 0.005791 0.469378 0.480753
O O3 0.871248 0.680023 0.103483
O O4 0.732728 0.467153 0.051224
O O5 0.721701 0.657598 0.622654
O O6 0.539636 0.532816 0.159680
O O7 0.459393 0.751870 0.229638
O O8 0.615664 0.833505 0.236014
O O9 0.124147 0.410562 0.078294
O O10 0.005369 0.148715 0.986960
O O11 0.483557 0.245662 0.181689
O O12 0.638900 0.323330 0.654284
O O13 0.732459 0.133870 0.576154
O O14 0.524408 0.030934 0.448593
O O15 0.110220 0.429230 0.357284
O O16 0.279851 0.453906 0.853050
#
# Coordination Sequence:
#
# PCOD8047750 Si02
#       8
#     2   2   2   2   2   2   2   2
#     4  11  27  46  71 101 143 186 238 293 364 428
#     4  12  26  45  73 106 144 188 240 296 364 428
#     4  11  25  48  68 105 137 187 241 293 351 425
#     4  12  25  46  74 108 143 187 240 297 360 430
#     4  11  25  48  68 102 145 186 236 291 357 430
#     4  12  25  44  72 104 144 188 237 296 358 434
#     4  12  25  45  72 106 141 187 237 298 364 423
#     4  11  26  46  74 102 141 187 241 292 354 426
#
# _framework density 23.086079999999999
#
# number of rings (size 3 to 8) (size 9 to 14) (size 15 to 20)
#    0.000    0.500    3.750    3.750    7.000    2.000 
#    0.000    0.000    0.000    0.000    0.000    0.000 
#    0.000    0.000    0.000    0.000    0.000    0.000 
#
# Total GULP energy -198448.931627 kJ/mol
# GULP energy per Si atom -12403.058227 kJ/mol
# Density = 2.303354 g / cm^3
# Si number density = 23.086080 Si / 1000 Ang^3
#
#
#
# Elastic Constant Matrix: (Units=GPa)
#
#
# Indices 1 2 3 4 5 6 
#
# 1 89.4199 28.4895 45.9210 0.0000 22.2148 0.0000
# 2 28.4895 86.2171 44.3527 0.0000 6.5147 0.0000
# 3 45.9210 44.3527 108.5464 0.0000 25.5214 0.0000
# 4 0.0000 0.0000 0.0000 47.6281 0.0000 5.6022
# 5 22.2148 6.5147 25.5214 0.0000 41.7285 0.0000
# 6 0.0000 0.0000 0.0000 5.6022 0.0000 45.3075
#
#
#
# Elastic Compliance Matrix: (Units=1/GPa)
#
#
# Indices 1 2 3 4 5 6 
#
# 1 0.015489 -0.002513 -0.004297 0.000000 -0.005225 0.000000
# 2 -0.002513 0.015186 -0.005722 0.000000 0.002466 0.000000
# 3 -0.004297 -0.005722 0.014740 0.000000 -0.005834 0.000000
# 4 0.000000 0.000000 0.000000 0.021306 0.000000 -0.002634
# 5 -0.005225 0.002466 -0.005834 0.000000 0.029929 0.000000
# 6 0.000000 0.000000 0.000000 -0.002634 0.000000 0.022397
#
#
# Mechanical properties :
#
#
# Convention : Reuss Voigt Hill
#
# Bulk Modulus (GPa) = 49.13700 57.96774 53.55237
# Shear Modulus (GPa) = 33.13554 37.96084 35.54819
#
# Velocity S-wave (km/s) = 3.79265 4.05942 3.92830
# Velocity P-wave (km/s) = 6.36470 6.86555 6.61986
#
# Compressibility (1/GPa) = 0.02035126
#
# Stress axis : x y z
#
# Youngs Moduli (GPa) = 64.56339 65.84963 67.84031
#
# Poissons Ratio (x) = 0.16545 0.29154
# Poissons Ratio (y) = 0.16222 0.38819
# Poissons Ratio (z) = 0.27745 0.37680
#
# Static dielectric constant tensor:
#      x y z
#    x 4.233370 0.000000 0.229130 
#    y 0.000000 4.184680 0.000000 
#    z 0.229130 0.000000 4.073410 
# 
# 
# High freq. dielectric constant tensor:
#      x y z
#    x 1.914690 0.000000 0.015600 
#    y 0.000000 1.918840 0.000000 
#    z 0.015600 0.000000 1.912820 
# 
# From -- ./inp_files/9676.got.cif
#   From: 2010.03.12/outbox.cif.g09.slc.cpg/sg4_5_cif.got.tgz:9676.got - 2010.03.31 09:31:35.
