data_PCOD8047229
_publ_section_title
;
Structure prediction by ZEFSAII (Michael W. Deem and Ramdas Pophale) SiO2 
 PCOD8047229
Probable space group: P 21
;
_chemical_formula_sum "Si O2"
_cell_formula_units_Z 16
_cell_length_a 8.948317
_cell_length_b 11.547667
_cell_length_c 8.948313
_cell_angle_alpha 90.000000
_cell_angle_beta 45.836937
_cell_angle_gamma 90.000000
_cell_volume 663.305925
_symmetry_space_group_name_H-M "P 21"
_symmetry_group_IT_number 4
_symmetry_cell_setting 'monoclinic'
loop_
_space_group_symop_operation_xyz
x,y,z
-x,1/2+y,-z
loop_
_atom_site_type_symbol
_atom_site_label
_atom_site_fract_x
_atom_site_fract_y
_atom_site_fract_z
Si Si1 0.200651 0.967480 0.626795
Si Si2 0.177977 0.046752 0.976213
Si Si3 0.976214 0.815418 0.177978
Si Si4 0.626795 0.894690 0.200652
Si Si5 0.785231 0.683631 0.570873
Si Si6 0.041652 0.721246 0.680425
Si Si7 0.680425 0.140923 0.041653
Si Si8 0.570873 0.178539 0.785231
O O1 0.440771 0.931085 0.440772
O O2 0.050706 0.855984 0.721226
O O3 0.133207 0.059353 0.546746
O O4 0.173040 0.032420 0.802287
O O5 0.015077 0.147397 0.133945
O O6 0.411064 0.074506 0.868164
O O7 0.109721 0.931085 0.109721
O O8 0.802285 0.829749 0.173043
O O9 0.868167 0.787664 0.411064
O O10 0.133945 0.714773 0.015077
O O11 0.546746 0.802817 0.133207
O O12 0.721227 0.006186 0.050707
O O13 0.535602 0.685009 0.739041
O O14 0.857502 0.701683 0.689492
O O15 0.260957 0.677161 0.464398
O O16 0.689488 0.160486 0.857506
#
# Coordination Sequence:
#
# PCOD8047229 Si02
#       8
#     2   2   2   2   2   2   2   2
#     4  10  27  50  75 111 160 201 258 325 387 471
#     4  12  29  45  74 111 156 204 255 318 394 459
#     4  12  29  45  74 111 156 204 255 318 394 459
#     4  10  27  50  75 111 160 201 258 325 387 471
#     4  11  25  49  78 114 149 204 260 320 385 468
#     4  11  26  49  79 112 155 199 263 321 386 466
#     4  11  26  49  79 112 155 199 263 321 386 466
#     4  11  25  49  78 114 149 204 260 320 385 468
#
# _framework density 24.121599
#
# number of rings (size 3 to 8) (size 9 to 14) (size 15 to 20)
#    0.000    1.000    2.500    0.750   14.000    0.000 
#    0.000    0.000    0.000    0.000    0.000    0.000 
#    0.000    0.000    0.000    0.000    0.000    0.000 
#
# Total GULP energy -198526.807450 kJ/mol
# GULP energy per Si atom -12407.925466 kJ/mol
# Density = 2.406670 g / cm^3
# Si number density = 24.121599 Si / 1000 Ang^3
#
#
#
# Elastic Constant Matrix: (Units=GPa)
#
#
# Indices 1 2 3 4 5 6 
#
# 1 130.2952 85.2308 47.2571 0.0000 -2.9747 0.0000
# 2 85.2308 153.4074 81.8629 0.0000 2.0069 0.0000
# 3 47.2571 81.8629 109.3186 0.0000 15.4742 0.0000
# 4 0.0000 0.0000 0.0000 60.7045 0.0000 -7.3604
# 5 -2.9747 2.0069 15.4742 0.0000 33.0223 0.0000
# 6 0.0000 0.0000 0.0000 -7.3604 0.0000 48.3524
#
#
#
# Elastic Compliance Matrix: (Units=1/GPa)
#
#
# Indices 1 2 3 4 5 6 
#
# 1 0.012162 -0.006392 -0.000730 0.000000 0.001826 0.000000
# 2 -0.006392 0.014579 -0.008512 0.000000 0.002527 0.000000
# 3 -0.000730 -0.008512 0.016894 0.000000 -0.007465 0.000000
# 4 0.000000 0.000000 0.000000 0.016783 0.000000 0.002555
# 5 0.001826 0.002527 -0.007465 0.000000 0.033792 0.000000
# 6 0.000000 0.000000 0.000000 0.002555 0.000000 0.021070
#
#
# Mechanical properties :
#
#
# Convention : Reuss Voigt Hill
#
# Bulk Modulus (GPa) = 80.85195 91.30253 86.07724
# Shear Modulus (GPa) = 33.18525 40.32721 36.75623
#
# Velocity S-wave (km/s) = 3.71313 4.09324 3.90781
# Velocity P-wave (km/s) = 7.20933 7.76354 7.49156
#
# Compressibility (1/GPa) = 0.01236829
#
# Stress axis : x y z
#
# Youngs Moduli (GPa) = 82.22180 68.59226 59.19315
#
# Poissons Ratio (x) = 0.43842 0.04319
# Poissons Ratio (y) = 0.52553 0.50385
# Poissons Ratio (z) = 0.06000 0.58386
#
# Static dielectric constant tensor:
#      x y z
#    x 4.267980 0.000000 -0.222410 
#    y 0.000000 4.616840 0.000000 
#    z -0.222410 0.000000 4.641210 
# 
# 
# High freq. dielectric constant tensor:
#      x y z
#    x 1.956240 0.000000 -0.014920 
#    y 0.000000 1.966290 0.000000 
#    z -0.014920 0.000000 1.981270 
# 
# From -- ./inp_files/6406.got.cif
#   From: 2010.03.12/outbox.cif.g09.slc.cpg/sg4_4_cif.got.tgz:6406.got - 2010.03.31 09:31:35.
