data_PCOD8047621
_publ_section_title
;
Structure prediction by ZEFSAII (Michael W. Deem and Ramdas Pophale) SiO2 
 PCOD8047621
Probable space group: P 21
;
_chemical_formula_sum "Si O2"
_cell_formula_units_Z 16
_cell_length_a 11.088847
_cell_length_b 8.438421
_cell_length_c 13.958353
_cell_angle_alpha 90.000000
_cell_angle_beta 32.848418
_cell_angle_gamma 90.000000
_cell_volume 708.461286
_symmetry_space_group_name_H-M "P 21"
_symmetry_group_IT_number 4
_symmetry_cell_setting 'monoclinic'
loop_
_space_group_symop_operation_xyz
x,y,z
-x,1/2+y,-z
loop_
_atom_site_type_symbol
_atom_site_label
_atom_site_fract_x
_atom_site_fract_y
_atom_site_fract_z
Si Si1 0.794270 0.419440 0.699878
Si Si2 0.281427 0.405477 0.062720
Si Si3 0.847885 0.780068 0.659043
Si Si4 0.180718 0.216765 0.952278
Si Si5 0.568731 0.398326 0.170549
Si Si6 0.901566 0.241529 0.810050
Si Si7 0.693103 0.655740 0.339598
Si Si8 0.690532 0.295608 0.292072
O O1 0.809109 0.599676 0.657229
O O2 0.924600 0.368641 0.709209
O O3 0.901394 0.324141 0.539436
O O4 0.542731 0.376782 0.889847
O O5 0.176501 0.285177 0.209880
O O6 0.196978 0.573673 0.158772
O O7 0.206421 0.369059 0.004148
O O8 0.672511 0.895097 0.720024
O O9 0.274109 0.246097 0.783546
O O10 0.318535 0.071800 0.906018
O O11 0.914087 0.193577 0.122421
O O12 0.550042 0.325268 0.289124
O O13 0.732019 0.286770 0.004999
O O14 0.146318 0.230178 0.688994
O O15 0.743337 0.469051 0.299698
O O16 0.444547 0.690414 0.541733
#
# Coordination Sequence:
#
# PCOD8047621 Si02
#       8
#     2   2   2   2   2   2   2   2
#     4  12  26  45  73 102 140 188 230 292 351 420
#     4  12  25  46  71 101 140 183 234 287 352 418
#     4  12  27  47  69 106 141 183 238 290 350 418
#     4  11  26  45  71 103 139 187 235 285 352 417
#     4  11  24  45  74  98 140 187 231 291 348 415
#     4  12  23  46  74  99 140 185 231 292 352 412
#     4  11  26  46  69 105 140 184 232 293 344 418
#     4  11  25  46  71 104 142 183 233 284 355 416
#
# _framework density 22.584154000000002
#
# number of rings (size 3 to 8) (size 9 to 14) (size 15 to 20)
#    0.000    0.500    5.000    2.250    5.250    2.000 
#    4.500    0.000    0.000    0.000    0.000    0.000 
#    0.000    0.000    0.000    0.000    0.000    0.000 
#
# Total GULP energy -198401.253805 kJ/mol
# GULP energy per Si atom -12400.078363 kJ/mol
# Density = 2.253275 g / cm^3
# Si number density = 22.584154 Si / 1000 Ang^3
#
#
#
# Elastic Constant Matrix: (Units=GPa)
#
#
# Indices 1 2 3 4 5 6 
#
# 1 92.0664 24.6497 21.2724 0.0000 7.6918 0.0000
# 2 24.6497 75.7144 51.6322 0.0000 -2.0419 0.0000
# 3 21.2724 51.6322 202.5147 0.0000 -4.0101 0.0000
# 4 0.0000 0.0000 0.0000 33.1635 0.0000 5.6410
# 5 7.6918 -2.0419 -4.0101 0.0000 40.1529 0.0000
# 6 0.0000 0.0000 0.0000 5.6410 0.0000 30.6440
#
#
#
# Elastic Compliance Matrix: (Units=1/GPa)
#
#
# Indices 1 2 3 4 5 6 
#
# 1 0.012173 -0.003783 -0.000365 0.000000 -0.002561 0.000000
# 2 -0.003783 0.017170 -0.003956 0.000000 0.001203 0.000000
# 3 -0.000365 -0.003956 0.005994 0.000000 0.000467 0.000000
# 4 0.000000 0.000000 0.000000 0.031128 0.000000 -0.005730
# 5 -0.002561 0.001203 0.000467 0.000000 0.025503 0.000000
# 6 0.000000 0.000000 0.000000 -0.005730 0.000000 0.033688
#
#
# Mechanical properties :
#
#
# Convention : Reuss Voigt Hill
#
# Bulk Modulus (GPa) = 52.27969 62.82270 57.55119
# Shear Modulus (GPa) = 33.72899 38.97483 36.35191
#
# Velocity S-wave (km/s) = 3.86875 4.15873 4.01636
# Velocity P-wave (km/s) = 6.56928 7.13706 6.85905
#
# Compressibility (1/GPa) = 0.01912789
#
# Stress axis : x y z
#
# Youngs Moduli (GPa) = 82.14976 58.24251 166.82926
#
# Poissons Ratio (x) = 0.22035 0.06086
# Poissons Ratio (y) = 0.31080 0.66002
# Poissons Ratio (z) = 0.02997 0.23042
#
# Static dielectric constant tensor:
#      x y z
#    x 4.293280 0.000000 -0.060490 
#    y 0.000000 3.445790 0.000000 
#    z -0.060490 0.000000 4.201300 
# 
# 
# High freq. dielectric constant tensor:
#      x y z
#    x 1.890770 0.000000 0.006160 
#    y 0.000000 1.884440 0.000000 
#    z 0.006160 0.000000 1.906590 
# 
# From -- ./inp_files/12549.got.cif
#   From: 2010.03.12/outbox.cif.g09.slc.cpg/sg4_7_cif.got.tgz:12549.got - 2010.03.31 09:31:35.
