data_PCOD8047326
_publ_section_title
;
Structure prediction by ZEFSAII (Michael W. Deem and Ramdas Pophale) SiO2 
 PCOD8047326
Probable space group: P 21
;
_chemical_formula_sum "Si O2"
_cell_formula_units_Z 16
_cell_length_a 8.936908
_cell_length_b 5.276059
_cell_length_c 14.237779
_cell_angle_alpha 90.000000
_cell_angle_beta 66.627189
_cell_angle_gamma 90.000000
_cell_volume 616.247095
_symmetry_space_group_name_H-M "P 21"
_symmetry_group_IT_number 4
_symmetry_cell_setting 'monoclinic'
loop_
_space_group_symop_operation_xyz
x,y,z
-x,1/2+y,-z
loop_
_atom_site_type_symbol
_atom_site_label
_atom_site_fract_x
_atom_site_fract_y
_atom_site_fract_z
Si Si1 0.509446 0.040760 0.939503
Si Si2 0.851327 0.462228 0.604428
Si Si3 0.113770 0.135807 0.606592
Si Si4 0.567931 0.183093 0.631287
Si Si5 0.120167 0.652066 0.797713
Si Si6 0.351950 0.515387 0.592847
Si Si7 0.277190 0.126177 0.830641
Si Si8 0.162954 0.339283 0.234384
O O1 0.358765 0.136319 0.912985
O O2 0.676298 0.968801 0.844919
O O3 0.549471 0.285096 0.993572
O O4 0.841232 0.466152 0.493516
O O5 0.728346 0.225337 0.656595
O O6 0.791087 0.705259 0.677952
O O7 0.035864 0.397170 0.584215
O O8 0.271356 0.230726 0.623627
O O9 0.982377 0.037924 0.713638
O O10 0.513500 0.474317 0.615534
O O11 0.604831 0.034289 0.526605
O O12 0.428884 0.050178 0.726100
O O13 0.224523 0.709869 0.673255
O O14 0.184769 0.392200 0.829950
O O15 0.926822 0.642442 0.817589
O O16 0.150803 0.891077 0.858609
#
# Coordination Sequence:
#
# PCOD8047326 Si02
#       8
#     2   2   2   2   2   2   2   2
#     4  12  31  55  85 118 150 195 269 340 410 472
#     4  12  24  38  64 105 151 197 264 296 373 444
#     4  12  23  42  63 105 152 206 257 312 365 468
#     4  11  23  37  64 105 150 208 249 305 357 449
#     4  11  24  46  75 113 153 204 247 311 377 480
#     4  11  22  39  62 104 157 201 260 289 368 449
#     4  11  26  49  78 110 153 198 257 314 396 451
#     4  12  27  46  77 108 156 203 253 327 396 453
#
# _framework density 25.963611
#
# number of rings (size 3 to 8) (size 9 to 14) (size 15 to 20)
#    0.000    0.500    2.500    6.000    8.750    0.000 
#    0.000    2.500    0.000    0.000    0.000    0.000 
#    0.000    0.000    0.000    0.000    0.000    0.000 
#
# Total GULP energy -198229.231460 kJ/mol
# GULP energy per Si atom -12389.326966 kJ/mol
# Density = 2.590452 g / cm^3
# Si number density = 25.963611 Si / 1000 Ang^3
#
#
#
# Elastic Constant Matrix: (Units=GPa)
#
#
# Indices 1 2 3 4 5 6 
#
# 1 80.8526 14.2465 21.5369 0.0000 10.8007 0.0000
# 2 14.2465 89.5751 14.6627 0.0000 3.0380 0.0000
# 3 21.5369 14.6627 75.8233 0.0000 5.7912 0.0000
# 4 0.0000 0.0000 0.0000 44.5752 0.0000 1.0595
# 5 10.8007 3.0380 5.7912 0.0000 28.4822 0.0000
# 6 0.0000 0.0000 0.0000 1.0595 0.0000 44.3728
#
#
#
# Elastic Compliance Matrix: (Units=1/GPa)
#
#
# Indices 1 2 3 4 5 6 
#
# 1 0.014142 -0.001544 -0.003374 0.000000 -0.004512 0.000000
# 2 -0.001544 0.011715 -0.001804 0.000000 -0.000297 0.000000
# 3 -0.003374 -0.001804 0.014610 0.000000 -0.001499 0.000000
# 4 0.000000 0.000000 0.000000 0.022447 0.000000 -0.000536
# 5 -0.004512 -0.000297 -0.001499 0.000000 0.037157 0.000000
# 6 0.000000 0.000000 0.000000 -0.000536 0.000000 0.022549
#
#
# Mechanical properties :
#
#
# Convention : Reuss Voigt Hill
#
# Bulk Modulus (GPa) = 37.00525 38.57147 37.78836
# Shear Modulus (GPa) = 34.46597 36.53969 35.50283
#
# Velocity S-wave (km/s) = 3.64740 3.75553 3.70186
# Velocity P-wave (km/s) = 5.65877 5.80461 5.73216
#
# Compressibility (1/GPa) = 0.02702319
#
# Stress axis : x y z
#
# Youngs Moduli (GPa) = 70.71340 85.36223 68.44551
#
# Poissons Ratio (x) = 0.13179 0.23091
# Poissons Ratio (y) = 0.10917 0.12349
# Poissons Ratio (z) = 0.23856 0.15401
#
# Static dielectric constant tensor:
#      x y z
#    x 5.132000 0.000000 0.142140 
#    y 0.000000 4.570130 0.000000 
#    z 0.142140 0.000000 4.493150 
# 
# 
# High freq. dielectric constant tensor:
#      x y z
#    x 2.069640 0.000000 0.009300 
#    y 0.000000 2.041450 0.000000 
#    z 0.009300 0.000000 2.006550 
# 
# From -- ./inp_files/13447.got.cif
#   From: 2010.03.12/outbox.cif.g09.slc.cpg/sg4_7_cif.got.tgz:13447.got - 2010.03.31 09:31:35.
