data_PCOD8047276
_publ_section_title
;
Structure prediction by ZEFSAII (Michael W. Deem and Ramdas Pophale) SiO2 
 PCOD8047276
Probable space group: P 21
;
_chemical_formula_sum "Si O2"
_cell_formula_units_Z 16
_cell_length_a 13.529805
_cell_length_b 10.654125
_cell_length_c 13.509811
_cell_angle_alpha 90.000000
_cell_angle_beta 20.925997
_cell_angle_gamma 90.000000
_cell_volume 695.542469
_symmetry_space_group_name_H-M "P 21"
_symmetry_group_IT_number 4
_symmetry_cell_setting 'monoclinic'
loop_
_space_group_symop_operation_xyz
x,y,z
-x,1/2+y,-z
loop_
_atom_site_type_symbol
_atom_site_label
_atom_site_fract_x
_atom_site_fract_y
_atom_site_fract_z
Si Si1 0.272328 0.400740 0.942488
Si Si2 0.529310 0.909795 0.585402
Si Si3 0.186514 0.554415 0.372365
Si Si4 0.752356 0.665578 0.901319
Si Si5 0.253680 0.630698 0.094318
Si Si6 0.743903 0.319491 0.350944
Si Si7 0.958350 0.561701 0.898966
Si Si8 0.273974 0.298170 0.399654
O O1 0.212038 0.306032 0.090256
O O2 0.525744 0.342315 0.643429
O O3 0.329944 0.538405 0.931815
O O4 0.997456 0.416298 0.131470
O O5 0.407434 0.826251 0.612216
O O6 0.541089 0.835713 0.677676
O O7 0.841063 0.945886 0.265100
O O8 0.337183 0.035166 0.772645
O O9 0.432947 0.632234 0.191619
O O10 0.214523 0.545502 0.228346
O O11 0.165690 0.415092 0.436394
O O12 0.913166 0.639524 0.648309
O O13 0.904142 0.567356 0.832568
O O14 0.982313 0.713120 0.325539
O O15 0.515575 0.720979 0.866497
O O16 0.893451 0.186399 0.204715
#
# Coordination Sequence:
#
# PCOD8047276 Si02
#       8
#     2   2   2   2   2   2   2   2
#     4  11  25  47  66 104 144 184 237 289 360 412
#     4  12  24  43  72 100 140 183 236 297 352 423
#     4  12  25  44  73 101 133 182 239 287 351 424
#     4  11  21  44  72  96 131 180 237 304 323 417
#     4  12  29  44  71 103 150 187 222 299 365 428
#     4  11  25  43  71 102 141 189 242 285 358 425
#     4  11  21  42  67 102 133 181 239 295 347 407
#     4  12  26  49  68 106 142 180 238 292 362 418
#
# _framework density 23.003627000000002
#
# number of rings (size 3 to 8) (size 9 to 14) (size 15 to 20)
#    0.000    0.500    2.500    6.750    3.500    3.000 
#    0.000    1.250    0.000    0.000    0.000    0.000 
#    0.000    0.000    0.000    0.000    0.000    0.000 
#
# Total GULP energy -198397.777846 kJ/mol
# GULP energy per Si atom -12399.861115 kJ/mol
# Density = 2.295127 g / cm^3
# Si number density = 23.003627 Si / 1000 Ang^3
#
#
#
# Elastic Constant Matrix: (Units=GPa)
#
#
# Indices 1 2 3 4 5 6 
#
# 1 91.6080 41.2556 9.6069 0.0000 -3.0800 0.0000
# 2 41.2556 100.0839 42.4825 0.0000 1.6875 0.0000
# 3 9.6069 42.4825 117.4583 0.0000 -6.1790 0.0000
# 4 0.0000 0.0000 0.0000 39.7164 0.0000 -5.8896
# 5 -3.0800 1.6875 -6.1790 0.0000 36.1950 0.0000
# 6 0.0000 0.0000 0.0000 -5.8896 0.0000 26.4704
#
#
#
# Elastic Compliance Matrix: (Units=1/GPa)
#
#
# Indices 1 2 3 4 5 6 
#
# 1 0.013615 -0.006148 0.001197 0.000000 0.001649 0.000000
# 2 -0.006148 0.014640 -0.004900 0.000000 -0.002042 0.000000
# 3 0.001197 -0.004900 0.010298 0.000000 0.002088 0.000000
# 4 0.000000 0.000000 0.000000 0.026038 0.000000 0.005793
# 5 0.001649 -0.002042 0.002088 0.000000 0.028220 0.000000
# 6 0.000000 0.000000 0.000000 0.005793 0.000000 0.039067
#
#
# Mechanical properties :
#
#
# Convention : Reuss Voigt Hill
#
# Bulk Modulus (GPa) = 53.04756 55.09336 54.07046
# Shear Modulus (GPa) = 31.67311 34.86337 33.26824
#
# Velocity S-wave (km/s) = 3.71465 3.89724 3.80704
# Velocity P-wave (km/s) = 6.44273 6.65231 6.54836
#
# Compressibility (1/GPa) = 0.01885101
#
# Stress axis : x y z
#
# Youngs Moduli (GPa) = 73.44973 68.30586 97.10880
#
# Poissons Ratio (x) = 0.41994 -0.11622
# Poissons Ratio (y) = 0.45157 0.47580
# Poissons Ratio (z) = -0.08791 0.33467
#
# Static dielectric constant tensor:
#      x y z
#    x 4.155310 0.000000 -0.200670 
#    y 0.000000 3.963510 0.000000 
#    z -0.200670 0.000000 4.327030 
# 
# 
# High freq. dielectric constant tensor:
#      x y z
#    x 1.909360 0.000000 -0.011900 
#    y 0.000000 1.899530 0.000000 
#    z -0.011900 0.000000 1.925690 
# 
# From -- ./inp_files/12247.got.cif
#   From: 2010.03.12/outbox.cif.g09.slc.cpg/sg4_7_cif.got.tgz:12247.got - 2010.03.31 09:31:35.
