data_PCOD8047497
_publ_section_title
;
Structure prediction by ZEFSAII (Michael W. Deem and Ramdas Pophale) SiO2 
 PCOD8047497
Probable space group: P 21
;
_chemical_formula_sum "Si O2"
_cell_formula_units_Z 16
_cell_length_a 9.472307
_cell_length_b 8.809474
_cell_length_c 8.636135
_cell_angle_alpha 90.000000
_cell_angle_beta 107.193855
_cell_angle_gamma 90.000000
_cell_volume 688.445431
_symmetry_space_group_name_H-M "P 21"
_symmetry_group_IT_number 4
_symmetry_cell_setting 'monoclinic'
loop_
_space_group_symop_operation_xyz
x,y,z
-x,1/2+y,-z
loop_
_atom_site_type_symbol
_atom_site_label
_atom_site_fract_x
_atom_site_fract_y
_atom_site_fract_z
Si Si1 0.562621 0.926130 0.202765
Si Si2 0.654637 0.220087 0.739846
Si Si3 0.450121 0.986699 0.854499
Si Si4 0.853182 0.580518 0.106620
Si Si5 0.868703 0.785017 0.383371
Si Si6 0.331137 0.721290 0.616647
Si Si7 0.942519 0.252076 0.024846
Si Si8 0.958099 0.114209 0.347560
O O1 0.410801 0.885105 0.241344
O O2 0.696437 0.823153 0.310213
O O3 0.587407 0.101258 0.247631
O O4 0.550459 0.898525 0.013316
O O5 0.634862 0.192477 0.551793
O O6 0.551869 0.107425 0.803454
O O7 0.823214 0.216165 0.851983
O O8 0.381112 0.884115 0.696743
O O9 0.321477 0.059465 0.921880
O O10 0.920270 0.649710 0.285968
O O11 0.935224 0.423942 0.085460
O O12 0.894872 0.707630 0.989214
O O13 0.892331 0.708104 0.561125
O O14 0.967589 0.934987 0.384483
O O15 0.157159 0.699622 0.578049
O O16 0.910858 0.136878 0.155244
#
# Coordination Sequence:
#
# PCOD8047497 Si02
#       8
#     2   2   2   2   2   2   2   2
#     4  11  23  46  71 109 143 197 250 305 382 452
#     4  12  24  46  74 107 147 191 254 313 377 458
#     4  12  24  47  78 105 151 201 248 312 386 454
#     4  12  25  47  70 108 143 200 250 312 380 450
#     4  11  24  43  73 103 148 195 246 309 380 453
#     4  11  25  43  72 108 149 193 249 312 374 452
#     4  12  26  47  72 108 147 199 257 312 380 462
#     4  11  23  45  70 104 150 198 246 311 381 449
#
# _framework density 23.240765
#
# number of rings (size 3 to 8) (size 9 to 14) (size 15 to 20)
#    0.000    0.500    3.750    5.250    0.000    1.000 
#    2.250    0.000    0.000    0.000    0.000    0.000 
#    0.000    0.000    0.000    0.000    0.000    0.000 
#
# Total GULP energy -198313.197778 kJ/mol
# GULP energy per Si atom -12394.574861 kJ/mol
# Density = 2.318787 g / cm^3
# Si number density = 23.240765 Si / 1000 Ang^3
#
#
#
# Elastic Constant Matrix: (Units=GPa)
#
#
# Indices 1 2 3 4 5 6 
#
# 1 103.3145 30.1703 43.5306 0.0000 -10.5710 0.0000
# 2 30.1703 89.4111 38.8102 0.0000 12.6091 0.0000
# 3 43.5306 38.8102 143.1476 0.0000 -0.7966 0.0000
# 4 0.0000 0.0000 0.0000 49.4287 0.0000 -2.3615
# 5 -10.5710 12.6091 -0.7966 0.0000 36.3286 0.0000
# 6 0.0000 0.0000 0.0000 -2.3615 0.0000 39.1487
#
#
#
# Elastic Compliance Matrix: (Units=1/GPa)
#
#
# Indices 1 2 3 4 5 6 
#
# 1 0.012404 -0.003672 -0.002749 0.000000 0.004823 0.000000
# 2 -0.003672 0.014535 -0.002858 0.000000 -0.006176 0.000000
# 3 -0.002749 -0.002858 0.008599 0.000000 0.000381 0.000000
# 4 0.000000 0.000000 0.000000 0.020290 0.000000 0.001224
# 5 0.004823 -0.006176 0.000381 0.000000 0.031082 0.000000
# 6 0.000000 0.000000 0.000000 0.001224 0.000000 0.025617
#
#
# Mechanical properties :
#
#
# Convention : Reuss Voigt Hill
#
# Bulk Modulus (GPa) = 58.90121 62.32171 60.61146
# Shear Modulus (GPa) = 36.56410 39.87199 38.21804
#
# Velocity S-wave (km/s) = 3.97076 4.14648 4.05957
# Velocity P-wave (km/s) = 6.81333 7.05679 6.93613
#
# Compressibility (1/GPa) = 0.01697758
#
# Stress axis : x y z
#
# Youngs Moduli (GPa) = 80.62227 68.79875 116.29282
#
# Poissons Ratio (x) = 0.25264 0.31974
# Poissons Ratio (y) = 0.29606 0.33242
# Poissons Ratio (z) = 0.22166 0.19666
#
# Static dielectric constant tensor:
#      x y z
#    x 4.176870 0.000000 -0.039380 
#    y 0.000000 4.291580 0.000000 
#    z -0.039380 0.000000 4.186780 
# 
# 
# High freq. dielectric constant tensor:
#      x y z
#    x 1.909100 0.000000 0.003080 
#    y 0.000000 1.929000 0.000000 
#    z 0.003080 0.000000 1.927710 
# 
# From -- ./inp_files/5515.got.cif
#   From: 2010.03.12/outbox.cif.g09.slc.cpg/sg4_3_cif.got.tgz:5515.got - 2010.03.31 09:31:35.
