data_PCOD8047711
_publ_section_title
;
Structure prediction by ZEFSAII (Michael W. Deem and Ramdas Pophale) SiO2 
 PCOD8047711
Probable space group: P 21
;
_chemical_formula_sum "Si O2"
_cell_formula_units_Z 14
_cell_length_a 23.519631
_cell_length_b 5.017504
_cell_length_c 22.992801
_cell_angle_alpha 90.000000
_cell_angle_beta 167.839093
_cell_angle_gamma 90.000000
_cell_volume 571.594142
_symmetry_space_group_name_H-M "P 21"
_symmetry_group_IT_number 4
_symmetry_cell_setting 'monoclinic'
loop_
_space_group_symop_operation_xyz
x,y,z
-x,1/2+y,-z
loop_
_atom_site_type_symbol
_atom_site_label
_atom_site_fract_x
_atom_site_fract_y
_atom_site_fract_z
Si Si1 0.999927 0.546390 0.805862
Si Si2 0.499825 0.046525 0.461135
Si Si3 0.999869 0.046480 0.882878
Si Si4 0.999698 0.546740 0.613376
Si Si5 0.236206 0.722833 0.520350
Si Si6 0.235920 0.870274 0.951756
Si Si7 0.499800 0.546612 0.037481
O O1 0.746508 0.465088 0.509277
O O2 0.094872 0.300145 0.940235
O O3 0.253026 0.627707 0.015696
O O4 0.905253 0.792701 0.750623
O O5 0.409075 0.296491 0.409108
O O6 0.749260 0.138645 0.671172
O O7 0.250003 0.954447 0.172046
O O8 0.861131 0.318404 0.513718
O O9 0.138333 0.775104 0.790891
O O10 0.246217 0.436055 0.821244
O O11 0.753064 0.657387 0.328142
O O12 0.999988 0.546731 0.256059
O O13 0.499959 0.546300 0.791403
O O14 0.603110 0.296524 0.103159
#
# Coordination Sequence:
#
# PCOD8047711 Si02
#       7
#     2   2   2   2   2   2   2
#     4  11  26  47  70 114 148 193 242 299 380 442
#     4  12  26  48  72 104 140 192 252 304 366 436
#     4  12  26  45  76 104 148 191 240 312 368 436
#     4  11  26  46  74 108 144 196 246 301 382 444
#     4  11  25  45  75 105 152 192 243 298 362 468
#     4  11  25  45  75 105 152 192 243 298 362 468
#     4  12  28  48  74 106 144 188 248 316 372 440
#
# _framework density 24.492901
#
# number of rings (size 3 to 8) (size 9 to 14) (size 15 to 20)
#    0.000    0.571    1.429    5.143    8.000    5.714 
#    0.000    0.000    0.000    0.000    0.000    0.000 
#    0.000    0.000    0.000    0.000    0.000    0.000 
#
# Total GULP energy -173583.113293 kJ/mol
# GULP energy per Si atom -12398.793807 kJ/mol
# Density = 2.443715 g / cm^3
# Si number density = 24.492901 Si / 1000 Ang^3
#
#
#
# Elastic Constant Matrix: (Units=GPa)
#
#
# Indices 1 2 3 4 5 6 
#
# 1 139.3828 65.2661 65.0600 0.0000 -5.7126 0.0000
# 2 65.2661 152.6002 47.7790 0.0000 -2.5811 0.0000
# 3 65.0600 47.7790 174.2099 0.0000 10.2656 0.0000
# 4 0.0000 0.0000 0.0000 46.4138 0.0000 1.7503
# 5 -5.7126 -2.5811 10.2656 0.0000 19.0997 0.0000
# 6 0.0000 0.0000 0.0000 1.7503 0.0000 33.4319
#
#
#
# Elastic Compliance Matrix: (Units=1/GPa)
#
#
# Indices 1 2 3 4 5 6 
#
# 1 0.010448 -0.003381 -0.003234 0.000000 0.004406 0.000000
# 2 -0.003381 0.008345 -0.001066 0.000000 0.000690 0.000000
# 3 -0.003234 -0.001066 0.007545 0.000000 -0.005167 0.000000
# 4 0.000000 0.000000 0.000000 0.021588 0.000000 -0.001130
# 5 0.004406 0.000690 -0.005167 0.000000 0.056545 0.000000
# 6 0.000000 0.000000 0.000000 -0.001130 0.000000 0.029971
#
#
# Mechanical properties :
#
#
# Convention : Reuss Voigt Hill
#
# Bulk Modulus (GPa) = 91.12655 91.37814 91.25234
# Shear Modulus (GPa) = 32.58105 38.99494 35.78799
#
# Velocity S-wave (km/s) = 3.65118 3.99443 3.82666
# Velocity P-wave (km/s) = 7.42030 7.65918 7.54068
#
# Compressibility (1/GPa) = 0.01097375
#
# Stress axis : x y z
#
# Youngs Moduli (GPa) = 95.71173 119.83414 132.53863
#
# Poissons Ratio (x) = 0.40521 0.42865
# Poissons Ratio (y) = 0.32364 0.14135
# Poissons Ratio (z) = 0.30955 0.12780
#
# Static dielectric constant tensor:
#      x y z
#    x 4.670780 0.000000 -0.055530 
#    y 0.000000 4.437150 0.000000 
#    z -0.055530 0.000000 4.270360 
# 
# 
# High freq. dielectric constant tensor:
#      x y z
#    x 1.992860 0.000000 -0.003740 
#    y 0.000000 1.982830 0.000000 
#    z -0.003740 0.000000 1.966240 
# 
# From -- ./inp_files/16213.got.cif
#   From: 2010.03.12/outbox.cif.g09.slc.cpg/sg4_9_cif.got.tgz:16213.got - 2010.03.31 09:31:35.
