data_PCOD8047954
_publ_section_title
;
Structure prediction by ZEFSAII (Michael W. Deem and Ramdas Pophale) SiO2 
 PCOD8047954
Probable space group: P 21
;
_chemical_formula_sum "Si O2"
_cell_formula_units_Z 16
_cell_length_a 9.005498
_cell_length_b 8.818246
_cell_length_c 11.292794
_cell_angle_alpha 90.000000
_cell_angle_beta 49.427121
_cell_angle_gamma 90.000000
_cell_volume 681.184021
_symmetry_space_group_name_H-M "P 21"
_symmetry_group_IT_number 4
_symmetry_cell_setting 'monoclinic'
loop_
_space_group_symop_operation_xyz
x,y,z
-x,1/2+y,-z
loop_
_atom_site_type_symbol
_atom_site_label
_atom_site_fract_x
_atom_site_fract_y
_atom_site_fract_z
Si Si1 0.204950 0.525210 0.358859
Si Si2 0.323844 0.405102 0.047174
Si Si3 0.748643 0.367573 0.911487
Si Si4 0.912308 0.743204 0.431649
Si Si5 0.259245 0.631725 0.892164
Si Si6 0.158233 0.155361 0.995922
Si Si7 0.560125 0.547830 0.548604
Si Si8 0.498273 0.201836 0.652210
O O1 0.228709 0.485670 0.208840
O O2 0.200177 0.374375 0.439418
O O3 0.377628 0.639819 0.302373
O O4 0.010257 0.626667 0.474132
O O5 0.560359 0.413594 0.930275
O O6 0.244546 0.467896 0.961488
O O7 0.232686 0.237940 0.078136
O O8 0.930242 0.322868 0.734919
O O9 0.675484 0.229089 0.028638
O O10 0.818251 0.482575 0.976764
O O11 0.766294 0.636239 0.433448
O O12 0.435364 0.637070 0.709405
O O13 0.066004 0.684343 0.923365
O O14 0.277819 0.200916 0.815246
O O15 0.569355 0.368297 0.571539
O O16 0.466345 0.577232 0.468834
#
# Coordination Sequence:
#
# PCOD8047954 Si02
#       8
#     2   2   2   2   2   2   2   2
#     4  12  27  49  75 115 152 208 263 327 405 473
#     4  12  25  51  77 112 150 206 261 331 394 472
#     4  12  26  48  77 110 154 201 264 329 394 470
#     4  12  28  47  75 114 156 207 261 325 400 479
#     4  12  27  47  77 113 151 205 262 324 399 470
#     4  12  27  47  79 111 155 200 268 327 391 470
#     4  12  29  49  79 108 165 208 262 327 397 480
#     4  12  27  52  75 115 157 209 263 328 398 474
#
# _framework density 23.488513999999999
#
# number of rings (size 3 to 8) (size 9 to 14) (size 15 to 20)
#    0.000    0.000    3.750    5.250    8.750    1.000 
#    0.000    0.000    0.000    0.000    0.000    0.000 
#    0.000    0.000    0.000    0.000    0.000    0.000 
#
# Total GULP energy -198359.644915 kJ/mol
# GULP energy per Si atom -12397.477807 kJ/mol
# Density = 2.343505 g / cm^3
# Si number density = 23.488514 Si / 1000 Ang^3
#
#
#
# Elastic Constant Matrix: (Units=GPa)
#
#
# Indices 1 2 3 4 5 6 
#
# 1 111.5440 34.6568 40.0584 0.0000 -1.5673 0.0000
# 2 34.6568 98.4037 47.2428 0.0000 -3.7164 0.0000
# 3 40.0584 47.2428 110.2843 0.0000 6.8531 0.0000
# 4 0.0000 0.0000 0.0000 38.0544 0.0000 4.7075
# 5 -1.5673 -3.7164 6.8531 0.0000 35.8465 0.0000
# 6 0.0000 0.0000 0.0000 4.7075 0.0000 53.6173
#
#
#
# Elastic Compliance Matrix: (Units=1/GPa)
#
#
# Indices 1 2 3 4 5 6 
#
# 1 0.010766 -0.002342 -0.002956 0.000000 0.000793 0.000000
# 2 -0.002342 0.013511 -0.005078 0.000000 0.002269 0.000000
# 3 -0.002956 -0.005078 0.012506 0.000000 -0.003047 0.000000
# 4 0.000000 0.000000 0.000000 0.026567 0.000000 -0.002332
# 5 0.000793 0.002269 -0.003047 0.000000 0.028749 0.000000
# 6 0.000000 0.000000 0.000000 -0.002332 0.000000 0.018855
#
#
# Mechanical properties :
#
#
# Convention : Reuss Voigt Hill
#
# Bulk Modulus (GPa) = 62.38580 62.68311 62.53445
# Shear Modulus (GPa) = 36.48322 38.72191 37.60256
#
# Velocity S-wave (km/s) = 3.94539 4.06463 4.00545
# Velocity P-wave (km/s) = 6.88277 6.98377 6.93345
#
# Compressibility (1/GPa) = 0.01602929
#
# Stress axis : x y z
#
# Youngs Moduli (GPa) = 92.88794 74.01560 79.96299
#
# Poissons Ratio (x) = 0.17337 0.23639
# Poissons Ratio (y) = 0.21757 0.40604
# Poissons Ratio (z) = 0.27460 0.37584
#
# Static dielectric constant tensor:
#      x y z
#    x 4.154320 0.000000 0.043200 
#    y 0.000000 4.457870 0.000000 
#    z 0.043200 0.000000 4.078020 
# 
# 
# High freq. dielectric constant tensor:
#      x y z
#    x 1.938550 0.000000 0.004560 
#    y 0.000000 1.950370 0.000000 
#    z 0.004560 0.000000 1.927290 
# 
# From -- ./inp_files/5604.got.cif
#   From: 2010.03.12/outbox.cif.g09.slc.cpg/sg4_3_cif.got.tgz:5604.got - 2010.03.31 09:31:35.
