data_PCOD8047795
_publ_section_title
;
Structure prediction by ZEFSAII (Michael W. Deem and Ramdas Pophale) SiO2 
 PCOD8047795
Probable space group: P 21
;
_chemical_formula_sum "Si O2"
_cell_formula_units_Z 16
_cell_length_a 12.107229
_cell_length_b 9.548173
_cell_length_c 8.189281
_cell_angle_alpha 90.000000
_cell_angle_beta 42.279677
_cell_angle_gamma 90.000000
_cell_volume 636.890241
_symmetry_space_group_name_H-M "P 21"
_symmetry_group_IT_number 4
_symmetry_cell_setting 'monoclinic'
loop_
_space_group_symop_operation_xyz
x,y,z
-x,1/2+y,-z
loop_
_atom_site_type_symbol
_atom_site_label
_atom_site_fract_x
_atom_site_fract_y
_atom_site_fract_z
Si Si1 0.857342 0.039060 0.994868
Si Si2 0.508474 0.893147 0.358159
Si Si3 0.381270 0.781095 0.156028
Si Si4 0.199661 0.025135 0.223216
Si Si5 0.718918 0.763505 0.643891
Si Si6 0.339313 0.112799 0.753067
Si Si7 0.845281 0.033833 0.636209
Si Si8 0.065859 0.270724 0.907252
O O1 0.667875 0.992194 0.206272
O O2 0.968564 0.917412 0.960801
O O3 0.901658 0.064775 0.758742
O O4 0.898303 0.191494 0.032963
O O5 0.455253 0.864025 0.230236
O O6 0.534967 0.741762 0.413978
O O7 0.368749 0.980056 0.604220
O O8 0.291291 0.634575 0.296811
O O9 0.233054 0.866114 0.236517
O O10 0.520090 0.756952 0.865004
O O11 0.214329 0.115205 0.371065
O O12 0.016349 0.037049 0.347256
O O13 0.342627 0.070693 0.940239
O O14 0.797147 0.799654 0.383777
O O15 0.771239 0.879214 0.718165
O O16 0.153329 0.163286 0.933246
#
# Coordination Sequence:
#
# PCOD8047795 Si02
#       8
#     2   2   2   2   2   2   2   2
#     4  11  26  50  75 113 153 197 253 308 381 449
#     4  11  26  49  74 112 148 202 248 320 377 459
#     4  12  27  46  82 108 146 202 256 317 382 446
#     4  12  26  49  74 113 152 198 258 312 379 457
#     4  12  24  49  73 110 151 194 258 306 381 448
#     4  11  27  49  71 108 157 195 254 311 381 453
#     4  12  27  49  78 110 151 197 256 315 377 456
#     4  11  27  47  75 108 158 203 243 319 374 462
#
# _framework density 25.122067999999999
#
# number of rings (size 3 to 8) (size 9 to 14) (size 15 to 20)
#    0.000    0.500    3.750    3.000    7.000    1.000 
#    0.000    0.000    0.000    0.000    0.000    0.000 
#    0.000    0.000    0.000    0.000    0.000    0.000 
#
# Total GULP energy -198309.452970 kJ/mol
# GULP energy per Si atom -12394.340811 kJ/mol
# Density = 2.506489 g / cm^3
# Si number density = 25.122068 Si / 1000 Ang^3
#
#
#
# Elastic Constant Matrix: (Units=GPa)
#
#
# Indices 1 2 3 4 5 6 
#
# 1 86.8927 28.9197 22.6634 0.0000 -7.0093 0.0000
# 2 28.9197 95.5644 33.4254 0.0000 -12.6752 0.0000
# 3 22.6634 33.4254 82.0290 0.0000 -10.0106 0.0000
# 4 0.0000 0.0000 0.0000 42.1837 0.0000 -6.9696
# 5 -7.0093 -12.6752 -10.0106 0.0000 41.9433 0.0000
# 6 0.0000 0.0000 0.0000 -6.9696 0.0000 53.2432
#
#
#
# Elastic Compliance Matrix: (Units=1/GPa)
#
#
# Indices 1 2 3 4 5 6 
#
# 1 0.013196 -0.003094 -0.002297 0.000000 0.000722 0.000000
# 2 -0.003094 0.013205 -0.004225 0.000000 0.002465 0.000000
# 3 -0.002297 -0.004225 0.014775 0.000000 0.001866 0.000000
# 4 0.000000 0.000000 0.000000 0.024230 0.000000 0.003172
# 5 0.000722 0.002465 0.001866 0.000000 0.025153 0.000000
# 6 0.000000 0.000000 0.000000 0.003172 0.000000 0.019197
#
#
# Mechanical properties :
#
#
# Convention : Reuss Voigt Hill
#
# Bulk Modulus (GPa) = 45.57213 48.27812 46.92513
# Shear Modulus (GPa) = 36.68330 39.43921 38.06125
#
# Velocity S-wave (km/s) = 3.82540 3.96650 3.89659
# Velocity P-wave (km/s) = 6.13932 6.34323 6.24211
#
# Compressibility (1/GPa) = 0.02194324
#
# Stress axis : x y z
#
# Youngs Moduli (GPa) = 75.78323 75.72706 67.68292
#
# Poissons Ratio (x) = 0.23431 0.15546
# Poissons Ratio (y) = 0.23448 0.28598
# Poissons Ratio (z) = 0.17406 0.31997
#
# Static dielectric constant tensor:
#      x y z
#    x 4.459920 0.000000 -0.113990 
#    y 0.000000 4.523120 0.000000 
#    z -0.113990 0.000000 4.376930 
# 
# 
# High freq. dielectric constant tensor:
#      x y z
#    x 2.000210 0.000000 -0.005500 
#    y 0.000000 2.011110 0.000000 
#    z -0.005500 0.000000 1.991670 
# 
# From -- ./inp_files/7947.got.cif
#   From: 2010.03.12/outbox.cif.g09.slc.cpg/sg4_4_cif.got.tgz:7947.got - 2010.03.31 09:31:35.
