data_PCOD8047751
_publ_section_title
;
Structure prediction by ZEFSAII (Michael W. Deem and Ramdas Pophale) SiO2 
 PCOD8047751
Probable space group: P 21
;
_chemical_formula_sum "Si O2"
_cell_formula_units_Z 16
_cell_length_a 18.467838
_cell_length_b 6.018361
_cell_length_c 6.716465
_cell_angle_alpha 90.000000
_cell_angle_beta 67.356245
_cell_angle_gamma 90.000000
_cell_volume 688.965452
_symmetry_space_group_name_H-M "P 21"
_symmetry_group_IT_number 4
_symmetry_cell_setting 'monoclinic'
loop_
_space_group_symop_operation_xyz
x,y,z
-x,1/2+y,-z
loop_
_atom_site_type_symbol
_atom_site_label
_atom_site_fract_x
_atom_site_fract_y
_atom_site_fract_z
Si Si1 0.246763 0.177450 0.405095
Si Si2 0.346365 0.780134 0.349358
Si Si3 0.252385 0.498565 0.737445
Si Si4 0.993570 0.511199 0.265058
Si Si5 0.109326 0.817511 0.945700
Si Si6 0.501414 0.399042 0.605836
Si Si7 0.650242 0.945687 0.983753
Si Si8 0.103686 0.148770 0.278995
O O1 0.232893 0.271227 0.642068
O O2 0.170251 0.233237 0.357874
O O3 0.266026 0.919468 0.410618
O O4 0.323560 0.275493 0.214559
O O5 0.325735 0.603194 0.541794
O O6 0.419938 0.923005 0.347570
O O7 0.365663 0.678169 0.112217
O O8 0.278660 0.458766 0.934857
O O9 0.174214 0.641222 0.820494
O O10 0.968439 0.546716 0.519741
O O11 0.027024 0.726975 0.119895
O O12 0.067636 0.345695 0.186165
O O13 0.915001 0.435264 0.233886
O O14 0.143028 0.980188 0.080285
O O15 0.494459 0.648889 0.509054
O O16 0.428262 0.363525 0.828093
#
# Coordination Sequence:
#
# PCOD8047751 Si02
#       8
#     2   2   2   2   2   2   2   2
#     4  11  27  44  75 105 143 192 243 308 368 447
#     4  11  26  47  74 110 151 194 247 299 374 441
#     4  11  25  48  71 106 145 186 246 302 365 448
#     4  12  26  42  66 102 138 185 239 300 370 442
#     4  12  26  43  71  97 139 187 240 300 371 439
#     4  12  28  48  82 115 161 206 254 316 376 449
#     4  11  26  47  74 110 151 195 245 301 373 443
#     4  12  26  45  67 101 142 185 240 306 369 441
#
# _framework density 23.223226
#
# number of rings (size 3 to 8) (size 9 to 14) (size 15 to 20)
#    0.000    0.500    3.750    3.000    8.750    7.000 
#    0.000    0.000    0.000    0.000    0.000    0.000 
#    0.000    0.000    0.000    0.000    0.000    0.000 
#
# Total GULP energy -198314.208042 kJ/mol
# GULP energy per Si atom -12394.638003 kJ/mol
# Density = 2.317037 g / cm^3
# Si number density = 23.223226 Si / 1000 Ang^3
#
#
#
# Elastic Constant Matrix: (Units=GPa)
#
#
# Indices 1 2 3 4 5 6 
#
# 1 95.6388 10.3900 18.1267 0.0000 15.2461 0.0000
# 2 10.3900 85.8321 31.8590 0.0000 8.1635 0.0000
# 3 18.1267 31.8590 106.8388 0.0000 7.4413 0.0000
# 4 0.0000 0.0000 0.0000 35.3808 0.0000 1.5613
# 5 15.2461 8.1635 7.4413 0.0000 46.0264 0.0000
# 6 0.0000 0.0000 0.0000 1.5613 0.0000 38.3991
#
#
#
# Elastic Compliance Matrix: (Units=1/GPa)
#
#
# Indices 1 2 3 4 5 6 
#
# 1 0.011346 -0.000474 -0.001545 0.000000 -0.003424 0.000000
# 2 -0.000474 0.013255 -0.003762 0.000000 -0.001586 0.000000
# 3 -0.001545 -0.003762 0.010783 0.000000 -0.000564 0.000000
# 4 0.000000 0.000000 0.000000 0.028315 0.000000 -0.001151
# 5 -0.003424 -0.001586 -0.000564 0.000000 0.023234 0.000000
# 6 0.000000 0.000000 0.000000 -0.001151 0.000000 0.026089
#
#
# Mechanical properties :
#
#
# Convention : Reuss Voigt Hill
#
# Bulk Modulus (GPa) = 41.97745 45.45125 43.71435
# Shear Modulus (GPa) = 37.72875 39.15684 38.44279
#
# Velocity S-wave (km/s) = 4.03502 4.11068 4.07303
# Velocity P-wave (km/s) = 6.31058 6.49185 6.40186
#
# Compressibility (1/GPa) = 0.02382231
#
# Stress axis : x y z
#
# Youngs Moduli (GPa) = 88.13457 75.44231 92.73774
#
# Poissons Ratio (x) = 0.03578 0.14329
# Poissons Ratio (y) = 0.04180 0.34886
# Poissons Ratio (z) = 0.13618 0.28379
#
# Static dielectric constant tensor:
#      x y z
#    x 3.971860 0.000000 0.045500 
#    y 0.000000 4.399250 0.000000 
#    z 0.045500 0.000000 4.299440 
# 
# 
# High freq. dielectric constant tensor:
#      x y z
#    x 1.924880 0.000000 -0.002780 
#    y 0.000000 1.917050 0.000000 
#    z -0.002780 0.000000 1.933720 
# 
# From -- ./inp_files/3941.got.cif
#   From: 2010.03.12/outbox.cif.g09.slc.cpg/sg4_2_cif.got.tgz:3941.got - 2010.03.31 09:31:35.
