data_PCOD8047859
_publ_section_title
;
Structure prediction by ZEFSAII (Michael W. Deem and Ramdas Pophale) SiO2 
 PCOD8047859
Probable space group: P 21
;
_chemical_formula_sum "Si O2"
_cell_formula_units_Z 12
_cell_length_a 9.077849
_cell_length_b 11.782429
_cell_length_c 4.915099
_cell_angle_alpha 90.000000
_cell_angle_beta 95.236664
_cell_angle_gamma 90.000000
_cell_volume 523.520392
_symmetry_space_group_name_H-M "P 21"
_symmetry_group_IT_number 4
_symmetry_cell_setting 'monoclinic'
loop_
_space_group_symop_operation_xyz
x,y,z
-x,1/2+y,-z
loop_
_atom_site_type_symbol
_atom_site_label
_atom_site_fract_x
_atom_site_fract_y
_atom_site_fract_z
Si Si1 0.717921 0.891060 0.704578
Si Si2 0.455486 0.183368 0.153626
Si Si3 0.442362 0.036008 0.646140
Si Si4 0.830509 0.386176 0.565624
Si Si5 0.129529 0.484544 0.789581
Si Si6 0.777274 0.240728 0.072270
O O1 0.674426 0.760078 0.738666
O O2 0.759743 0.922927 0.403669
O O3 0.576718 0.962143 0.784727
O O4 0.854970 0.918531 0.923733
O O5 0.511582 0.107717 0.412509
O O6 0.600039 0.251769 0.078563
O O7 0.385893 0.112204 0.890073
O O8 0.314956 0.961427 0.488948
O O9 0.863855 0.325688 0.286049
O O10 0.961661 0.472206 0.662173
O O11 0.811508 0.282808 0.774597
O O12 0.165914 0.614943 0.856267
#
# Coordination Sequence:
#
# PCOD8047859 Si02
#       6
#     2   2   2   2   2   2
#     4  12  24  44  72 102 139 185 242 289 350 426
#     4  12  25  42  76 108 137 185 242 293 353 420
#     4  12  24  44  71 108 136 184 241 293 346 424
#     4  12  28  45  73 103 146 186 237 298 357 431
#     4  12  27  47  70 104 145 187 235 298 359 430
#     4  12  24  46  74 101 141 193 233 293 373 417
#
# _framework density 22.921741999999998
#
# number of rings (size 3 to 8) (size 9 to 14) (size 15 to 20)
#    0.000    0.000    5.000    5.000    2.333    4.000 
#    0.000    0.000    0.000    0.000    0.000    0.000 
#    0.000    0.000    0.000    0.000    0.000    0.000 
#
# Total GULP energy -148827.669371 kJ/mol
# GULP energy per Si atom -12402.305781 kJ/mol
# Density = 2.286957 g / cm^3
# Si number density = 22.921742 Si / 1000 Ang^3
#
#
#
# Elastic Constant Matrix: (Units=GPa)
#
#
# Indices 1 2 3 4 5 6 
#
# 1 64.6996 27.5501 22.7502 0.0000 11.9058 0.0000
# 2 27.5501 84.7080 38.0521 0.0000 -0.2487 0.0000
# 3 22.7502 38.0521 118.6532 0.0000 4.8150 0.0000
# 4 0.0000 0.0000 0.0000 50.4721 0.0000 1.7589
# 5 11.9058 -0.2487 4.8150 0.0000 40.5945 0.0000
# 6 0.0000 0.0000 0.0000 1.7589 0.0000 24.6256
#
#
#
# Elastic Compliance Matrix: (Units=1/GPa)
#
#
# Indices 1 2 3 4 5 6 
#
# 1 0.019451 -0.005570 -0.001718 0.000000 -0.005535 0.000000
# 2 -0.005570 0.015403 -0.003961 0.000000 0.002198 0.000000
# 3 -0.001718 -0.003961 0.010057 0.000000 -0.000713 0.000000
# 4 0.000000 0.000000 0.000000 0.019862 0.000000 -0.001419
# 5 -0.005535 0.002198 -0.000713 0.000000 0.026355 0.000000
# 6 0.000000 0.000000 0.000000 -0.001419 0.000000 0.040710
#
#
# Mechanical properties :
#
#
# Convention : Reuss Voigt Hill
#
# Bulk Modulus (GPa) = 44.62130 49.41843 47.01986
# Shear Modulus (GPa) = 30.90108 35.11898 33.01003
#
# Velocity S-wave (km/s) = 3.67565 3.91848 3.79901
# Velocity P-wave (km/s) = 6.12559 6.48684 6.30880
#
# Compressibility (1/GPa) = 0.02241082
#
# Stress axis : x y z
#
# Youngs Moduli (GPa) = 51.41182 64.92380 99.43756
#
# Poissons Ratio (x) = 0.36165 0.17087
# Poissons Ratio (y) = 0.28639 0.39385
# Poissons Ratio (z) = 0.08835 0.25715
#
# Static dielectric constant tensor:
#      x y z
#    x 3.929950 0.000000 0.076270 
#    y 0.000000 4.214120 0.000000 
#    z 0.076270 0.000000 4.301290 
# 
# 
# High freq. dielectric constant tensor:
#      x y z
#    x 1.891570 0.000000 0.005240 
#    y 0.000000 1.911090 0.000000 
#    z 0.005240 0.000000 1.927270 
# 
# From -- ./inp_files/1158.got.cif
#   From: 2010.03.12/outbox.cif.g09.slc.cpg/sg4_1_cif.got.tgz:1158.got - 2010.03.31 09:31:35.
