data_PCOD8047718
_publ_section_title
;
Structure prediction by ZEFSAII (Michael W. Deem and Ramdas Pophale) SiO2 
 PCOD8047718
Probable space group: P 21
;
_chemical_formula_sum "Si O2"
_cell_formula_units_Z 14
_cell_length_a 8.754294
_cell_length_b 8.259590
_cell_length_c 9.738602
_cell_angle_alpha 90.000000
_cell_angle_beta 128.356160
_cell_angle_gamma 90.000000
_cell_volume 552.186301
_symmetry_space_group_name_H-M "P 21"
_symmetry_group_IT_number 4
_symmetry_cell_setting 'monoclinic'
loop_
_space_group_symop_operation_xyz
x,y,z
-x,1/2+y,-z
loop_
_atom_site_type_symbol
_atom_site_label
_atom_site_fract_x
_atom_site_fract_y
_atom_site_fract_z
Si Si1 0.586102 0.289280 0.446169
Si Si2 0.224510 0.738722 0.152251
Si Si3 0.523196 0.796571 0.094253
Si Si4 0.238106 0.079229 0.611432
Si Si5 0.695787 0.131862 0.244966
Si Si6 0.837529 0.883966 0.843450
Si Si7 0.033538 0.353892 0.378008
O O1 0.661736 0.265716 0.641849
O O2 0.655730 0.467414 0.439869
O O3 0.682410 0.149421 0.403509
O O4 0.351797 0.273860 0.296865
O O5 0.341265 0.828541 0.095783
O O6 0.224812 0.548583 0.117178
O O7 0.998514 0.796491 0.029404
O O8 0.624951 0.622679 0.183388
O O9 0.665584 0.950335 0.176592
O O10 0.455294 0.766289 0.899784
O O11 0.224425 0.263205 0.542254
O O12 0.041325 0.992047 0.558400
O O13 0.899447 0.192659 0.297598
O O14 0.937614 0.930836 0.754329
#
# Coordination Sequence:
#
# PCOD8047718 Si02
#       7
#     2   2   2   2   2   2   2
#     4  11  28  50  78 112 152 202 257 315 391 457
#     4  12  30  48  78 113 154 205 253 323 386 460
#     4  12  25  48  75 107 154 200 253 313 386 460
#     4  11  25  46  75 109 149 199 254 313 389 452
#     4  11  26  47  76 109 148 197 254 314 381 452
#     4  12  29  49  75 114 154 198 259 314 393 457
#     4  11  25  46  71 112 145 193 252 316 376 456
#
# _framework density 25.353763000000001
#
# number of rings (size 3 to 8) (size 9 to 14) (size 15 to 20)
#    0.000    0.571    2.857    3.429   12.000    0.000 
#    0.000    0.000    0.000    0.000    0.000    0.000 
#    0.000    0.000    0.000    0.000    0.000    0.000 
#
# Total GULP energy -173553.970841 kJ/mol
# GULP energy per Si atom -12396.712203 kJ/mol
# Density = 2.529606 g / cm^3
# Si number density = 25.353763 Si / 1000 Ang^3
#
#
#
# Elastic Constant Matrix: (Units=GPa)
#
#
# Indices 1 2 3 4 5 6 
#
# 1 68.4439 -10.9757 10.9946 0.0000 4.2913 0.0000
# 2 -10.9757 72.4197 -0.5556 0.0000 -2.6580 0.0000
# 3 10.9946 -0.5556 105.8763 0.0000 -0.0314 0.0000
# 4 0.0000 0.0000 0.0000 46.6305 0.0000 12.9093
# 5 4.2913 -2.6580 -0.0314 0.0000 35.8344 0.0000
# 6 0.0000 0.0000 0.0000 12.9093 0.0000 36.6214
#
#
#
# Elastic Compliance Matrix: (Units=1/GPa)
#
#
# Indices 1 2 3 4 5 6 
#
# 1 0.015330 0.002250 -0.001581 0.000000 -0.001670 0.000000
# 2 0.002250 0.014177 -0.000159 0.000000 0.000782 0.000000
# 3 -0.001581 -0.000159 0.009608 0.000000 0.000186 0.000000
# 4 0.000000 0.000000 0.000000 0.023764 0.000000 -0.008377
# 5 -0.001670 0.000782 0.000186 0.000000 0.028164 0.000000
# 6 0.000000 0.000000 0.000000 -0.008377 0.000000 0.030259
#
#
# Mechanical properties :
#
#
# Convention : Reuss Voigt Hill
#
# Bulk Modulus (GPa) = 24.91543 27.29627 26.10585
# Shear Modulus (GPa) = 37.40804 40.30239 38.85521
#
# Velocity S-wave (km/s) = 3.84532 3.99131 3.91899
# Velocity P-wave (km/s) = 5.43725 5.65953 5.54950
#
# Compressibility (1/GPa) = 0.04013577
#
# Stress axis : x y z
#
# Youngs Moduli (GPa) = 65.23184 70.53746 104.07624
#
# Poissons Ratio (x) = -0.15870 0.16450
# Poissons Ratio (y) = -0.14677 0.01655
# Poissons Ratio (z) = 0.10311 0.01122
#
# Static dielectric constant tensor:
#      x y z
#    x 4.458410 0.000000 0.309920 
#    y 0.000000 4.422340 0.000000 
#    z 0.309920 0.000000 4.987660 
# 
# 
# High freq. dielectric constant tensor:
#      x y z
#    x 2.005050 0.000000 0.015700 
#    y 0.000000 2.014020 0.000000 
#    z 0.015700 0.000000 2.031120 
# 
# From -- ./inp_files/5251.got.cif
#   From: 2010.03.12/outbox.cif.g09.slc.cpg/sg4_3_cif.got.tgz:5251.got - 2010.03.31 09:31:35.
