data_PCOD8047814
_publ_section_title
;
Structure prediction by ZEFSAII (Michael W. Deem and Ramdas Pophale) SiO2 
 PCOD8047814
Probable space group: P 21
;
_chemical_formula_sum "Si O2"
_cell_formula_units_Z 14
_cell_length_a 13.085900
_cell_length_b 4.854539
_cell_length_c 22.838450
_cell_angle_alpha 90.000000
_cell_angle_beta 24.216160
_cell_angle_gamma 90.000000
_cell_volume 595.104167
_symmetry_space_group_name_H-M "P 21"
_symmetry_group_IT_number 4
_symmetry_cell_setting 'monoclinic'
loop_
_space_group_symop_operation_xyz
x,y,z
-x,1/2+y,-z
loop_
_atom_site_type_symbol
_atom_site_label
_atom_site_fract_x
_atom_site_fract_y
_atom_site_fract_z
Si Si1 0.896502 0.705470 0.081838
Si Si2 0.386312 0.066968 0.217914
Si Si3 0.862516 0.953604 0.456298
Si Si4 0.153554 0.615794 0.716062
Si Si5 0.308902 0.924308 0.523681
Si Si6 0.390348 0.559732 0.297470
Si Si7 0.920593 0.123226 0.891196
O O1 0.642837 0.542442 0.202897
O O2 0.955121 0.776421 0.118268
O O3 0.112457 0.493406 0.948306
O O4 0.396627 0.375191 0.236568
O O5 0.151837 0.034987 0.296721
O O6 0.356402 0.865055 0.289372
O O7 0.633670 0.035302 0.048975
O O8 0.667040 0.190013 0.538260
O O9 0.820859 0.939389 0.548394
O O10 0.821189 0.681142 0.439768
O O11 0.431875 0.510877 0.583328
O O12 0.971589 0.345710 0.812167
O O13 0.138117 0.773536 0.662014
O O14 0.069290 0.838516 0.807434
#
# Coordination Sequence:
#
# PCOD8047814 Si02
#       7
#     2   2   2   2   2   2   2
#     4  12  21  37  60  99 140 175 220 276 330 400
#     4  12  25  44  65 101 147 189 228 272 334 429
#     4  12  26  44  71  99 139 186 237 281 336 408
#     4  12  25  45  75 100 131 172 228 297 361 404
#     4  12  25  48  71 103 129 172 237 300 346 403
#     4  12  22  42  66 100 143 190 231 277 337 406
#     4  12  24  42  68 106 139 182 221 279 356 408
#
# _framework density 23.525296999999998
#
# number of rings (size 3 to 8) (size 9 to 14) (size 15 to 20)
#    0.000    0.000    2.857    9.429    0.000    0.000 
#    0.000    2.857    0.000    1.714    0.000    0.000 
#    0.000    0.000    0.000    0.000    0.000    0.000 
#
# Total GULP energy -173578.496987 kJ/mol
# GULP energy per Si atom -12398.464070 kJ/mol
# Density = 2.347175 g / cm^3
# Si number density = 23.525297 Si / 1000 Ang^3
#
#
#
# Elastic Constant Matrix: (Units=GPa)
#
#
# Indices 1 2 3 4 5 6 
#
# 1 66.5308 35.2487 36.9865 0.0000 2.7671 0.0000
# 2 35.2487 146.3193 42.2126 0.0000 4.4690 0.0000
# 3 36.9865 42.2126 109.4251 0.0000 3.3174 0.0000
# 4 0.0000 0.0000 0.0000 32.5550 0.0000 15.3922
# 5 2.7671 4.4690 3.3174 0.0000 13.0714 0.0000
# 6 0.0000 0.0000 0.0000 15.3922 0.0000 47.5229
#
#
#
# Elastic Compliance Matrix: (Units=1/GPa)
#
#
# Indices 1 2 3 4 5 6 
#
# 1 0.019784 -0.003150 -0.005420 0.000000 -0.001736 0.000000
# 2 -0.003150 0.008238 -0.002064 0.000000 -0.001626 0.000000
# 3 -0.005420 -0.002064 0.011801 0.000000 -0.001142 0.000000
# 4 0.000000 0.000000 0.000000 0.036272 0.000000 -0.011748
# 5 -0.001736 -0.001626 -0.001142 0.000000 0.077716 0.000000
# 6 0.000000 0.000000 0.000000 -0.011748 0.000000 0.024848
#
#
# Mechanical properties :
#
#
# Convention : Reuss Voigt Hill
#
# Bulk Modulus (GPa) = 53.88688 61.24120 57.56404
# Shear Modulus (GPa) = 24.25861 32.48501 28.37181
#
# Velocity S-wave (km/s) = 3.21467 3.72002 3.47654
# Velocity P-wave (km/s) = 6.06090 6.67383 6.37473
#
# Compressibility (1/GPa) = 0.01855739
#
# Stress axis : x y z
#
# Youngs Moduli (GPa) = 50.54472 121.38461 84.73509
#
# Poissons Ratio (x) = 0.38231 0.45924
# Poissons Ratio (y) = 0.15919 0.17491
# Poissons Ratio (z) = 0.27394 0.25056
#
# Static dielectric constant tensor:
#      x y z
#    x 4.070030 0.000000 0.045080 
#    y 0.000000 4.365410 0.000000 
#    z 0.045080 0.000000 4.304860 
# 
# 
# High freq. dielectric constant tensor:
#      x y z
#    x 1.915310 0.000000 0.002970 
#    y 0.000000 1.951970 0.000000 
#    z 0.002970 0.000000 1.929410 
# 
# From -- ./inp_files/15652.got.cif
#   From: 2010.03.12/outbox.cif.g09.slc.cpg/sg4_8_cif.got.tgz:15652.got - 2010.03.31 09:31:35.
