data_PCOD8047436
_publ_section_title
;
Structure prediction by ZEFSAII (Michael W. Deem and Ramdas Pophale) SiO2 
 PCOD8047436
Probable space group: P 21
;
_chemical_formula_sum "Si O2"
_cell_formula_units_Z 14
_cell_length_a 9.320400
_cell_length_b 12.654963
_cell_length_c 4.917801
_cell_angle_alpha 90.000000
_cell_angle_beta 78.630628
_cell_angle_gamma 90.000000
_cell_volume 568.668746
_symmetry_space_group_name_H-M "P 21"
_symmetry_group_IT_number 4
_symmetry_cell_setting 'monoclinic'
loop_
_space_group_symop_operation_xyz
x,y,z
-x,1/2+y,-z
loop_
_atom_site_type_symbol
_atom_site_label
_atom_site_fract_x
_atom_site_fract_y
_atom_site_fract_z
Si Si1 0.892333 0.117220 0.711013
Si Si2 0.042269 0.308334 0.848634
Si Si3 0.770325 0.440486 0.080327
Si Si4 0.197268 0.384023 0.263833
Si Si5 0.383483 0.751469 0.153370
Si Si6 0.428044 0.249966 0.389302
Si Si7 0.201993 0.073619 0.417331
O O1 0.754722 0.188964 0.665665
O O2 0.970563 0.191094 0.909788
O O3 0.026737 0.094835 0.456719
O O4 0.821869 0.005891 0.821476
O O5 0.078321 0.343772 0.528135
O O6 0.933584 0.396596 0.004170
O O7 0.181455 0.313362 0.996647
O O8 0.657308 0.354493 0.010009
O O9 0.749567 0.544191 0.903062
O O10 0.752407 0.475939 0.400349
O O11 0.362097 0.362621 0.309153
O O12 0.484319 0.776600 0.371775
O O13 0.474984 0.690972 0.881778
O O14 0.285120 0.177218 0.497528
#
# Coordination Sequence:
#
# PCOD8047436 Si02
#       7
#     2   2   2   2   2   2   2
#     4  11  26  46  78 109 142 189 245 308 361 428
#     4  11  23  42  69 108 139 176 232 305 357 413
#     4  11  23  44  72 105 141 187 239 300 363 423
#     4  12  25  43  73 104 144 182 243 295 361 427
#     4  11  28  49  70 103 155 194 238 294 371 437
#     4  12  27  47  70 104 148 199 237 298 362 447
#     4  12  24  43  78 107 141 185 252 298 367 419
#
# _framework density 24.618904000000001
#
# number of rings (size 3 to 8) (size 9 to 14) (size 15 to 20)
#    0.000    0.571    4.286    2.571    2.000   10.286 
#    0.000    0.000    0.000    0.000    0.000    0.000 
#    0.000    0.000    0.000    0.000    0.000    0.000 
#
# Total GULP energy -173432.975404 kJ/mol
# GULP energy per Si atom -12388.069672 kJ/mol
# Density = 2.456287 g / cm^3
# Si number density = 24.618904 Si / 1000 Ang^3
#
#
#
# Elastic Constant Matrix: (Units=GPa)
#
#
# Indices 1 2 3 4 5 6 
#
# 1 126.6963 49.0120 22.3474 0.0000 9.1724 0.0000
# 2 49.0120 110.5420 22.3283 0.0000 7.4970 0.0000
# 3 22.3474 22.3283 92.3150 0.0000 18.0386 0.0000
# 4 0.0000 0.0000 0.0000 22.9663 0.0000 -5.8105
# 5 9.1724 7.4970 18.0386 0.0000 34.3189 0.0000
# 6 0.0000 0.0000 0.0000 -5.8105 0.0000 23.8471
#
#
#
# Elastic Compliance Matrix: (Units=1/GPa)
#
#
# Indices 1 2 3 4 5 6 
#
# 1 0.009728 -0.004001 -0.001170 0.000000 -0.001111 0.000000
# 2 -0.004001 0.011186 -0.001636 0.000000 -0.000514 0.000000
# 3 -0.001170 -0.001636 0.012683 0.000000 -0.005996 0.000000
# 4 0.000000 0.000000 0.000000 0.046403 0.000000 0.011306
# 5 -0.001111 -0.000514 -0.005996 0.000000 0.032699 0.000000
# 6 0.000000 0.000000 0.000000 0.011306 0.000000 0.044689
#
#
# Mechanical properties :
#
#
# Convention : Reuss Voigt Hill
#
# Bulk Modulus (GPa) = 50.04729 57.43651 53.74190
# Shear Modulus (GPa) = 28.14312 31.95082 30.04697
#
# Velocity S-wave (km/s) = 3.38472 3.60643 3.49733
# Velocity P-wave (km/s) = 5.97060 6.38143 6.17943
#
# Compressibility (1/GPa) = 0.01998110
#
# Stress axis : x y z
#
# Youngs Moduli (GPa) = 102.80046 89.39868 78.84437
#
# Poissons Ratio (x) = 0.35771 0.09224
# Poissons Ratio (y) = 0.41134 0.12903
# Poissons Ratio (z) = 0.12027 0.14630
#
# Static dielectric constant tensor:
#      x y z
#    x 4.710930 0.000000 -0.091760 
#    y 0.000000 4.457440 0.000000 
#    z -0.091760 0.000000 4.265540 
# 
# 
# High freq. dielectric constant tensor:
#      x y z
#    x 1.992210 0.000000 0.003170 
#    y 0.000000 1.976190 0.000000 
#    z 0.003170 0.000000 1.968020 
# 
# From -- ./inp_files/1192.got.cif
#   From: 2010.03.12/outbox.cif.g09.slc.cpg/sg4_1_cif.got.tgz:1192.got - 2010.03.31 09:31:35.
