data_PCOD8047188
_publ_section_title
;
Structure prediction by ZEFSAII (Michael W. Deem and Ramdas Pophale) SiO2 
 PCOD8047188
Probable space group: P 21
;
_chemical_formula_sum "Si O2"
_cell_formula_units_Z 8
_cell_length_a 5.602114
_cell_length_b 4.848949
_cell_length_c 12.482797
_cell_angle_alpha 90.000000
_cell_angle_beta 62.308582
_cell_angle_gamma 90.000000
_cell_volume 300.249300
_symmetry_space_group_name_H-M "P 21"
_symmetry_group_IT_number 4
_symmetry_cell_setting 'monoclinic'
loop_
_space_group_symop_operation_xyz
x,y,z
-x,1/2+y,-z
loop_
_atom_site_type_symbol
_atom_site_label
_atom_site_fract_x
_atom_site_fract_y
_atom_site_fract_z
Si Si1 0.289667 0.010950 0.857418
Si Si2 0.954308 0.508942 0.871165
Si Si3 0.772067 0.356804 0.689761
Si Si4 0.348577 0.179204 0.490685
O O1 0.061764 0.197588 0.849180
O O2 0.585824 0.097346 0.758748
O O3 0.216388 0.701001 0.837117
O O4 0.270609 0.053838 0.990309
O O5 0.822325 0.554921 0.782083
O O6 0.632083 0.550121 0.631012
O O7 0.042430 0.220700 0.588546
O O8 0.505987 0.470565 0.456248
#
# Coordination Sequence:
#
# PCOD8047188 Si02
#       4
#     2   2   2   2
#     4  10  25  48  75 112 151 188 241 305 366 439
#     4  10  25  48  75 112 151 188 241 305 366 439
#     4  12  28  50  80 106 148 202 246 298 374 440
#     4  12  30  52  74 110 150 194 254 310 360 430
#
# _framework density 26.644525000000002
#
# number of rings (size 3 to 8) (size 9 to 14) (size 15 to 20)
#    0.000    1.000    0.000    3.000    0.000   28.000 
#    0.000    5.000    0.000    0.000    0.000    0.000 
#    0.000    0.000    0.000    0.000    0.000    0.000 
#
# Total GULP energy -99271.119772 kJ/mol
# GULP energy per Si atom -12408.889972 kJ/mol
# Density = 2.658388 g / cm^3
# Si number density = 26.644525 Si / 1000 Ang^3
#
#
#
# Elastic Constant Matrix: (Units=GPa)
#
#
# Indices 1 2 3 4 5 6 
#
# 1 74.0611 -5.5724 34.5819 0.0000 7.1591 0.0000
# 2 -5.5724 73.9007 16.7371 0.0000 7.4363 0.0000
# 3 34.5819 16.7371 126.4462 0.0000 20.6363 0.0000
# 4 0.0000 0.0000 0.0000 43.5449 0.0000 -1.9213
# 5 7.1591 7.4363 20.6363 0.0000 43.5794 0.0000
# 6 0.0000 0.0000 0.0000 -1.9213 0.0000 40.8124
#
#
#
# Elastic Compliance Matrix: (Units=1/GPa)
#
#
# Indices 1 2 3 4 5 6 
#
# 1 0.015861 0.002303 -0.004501 0.000000 -0.000867 0.000000
# 2 0.002303 0.014392 -0.002246 0.000000 -0.001771 0.000000
# 3 -0.004501 -0.002246 0.010029 0.000000 -0.003626 0.000000
# 4 0.000000 0.000000 0.000000 0.023013 0.000000 0.001083
# 5 -0.000867 -0.001771 -0.003626 0.000000 0.025108 0.000000
# 6 0.000000 0.000000 0.000000 0.001083 0.000000 0.024553
#
#
# Mechanical properties :
#
#
# Convention : Reuss Voigt Hill
#
# Bulk Modulus (GPa) = 31.85393 40.65571 36.25482
# Shear Modulus (GPa) = 37.79023 40.83142 39.31082
#
# Velocity S-wave (km/s) = 3.77013 3.91890 3.84524
# Velocity P-wave (km/s) = 5.56174 5.98070 5.77502
#
# Compressibility (1/GPa) = 0.03139330
#
# Stress axis : x y z
#
# Youngs Moduli (GPa) = 63.04692 69.48252 99.71464
#
# Poissons Ratio (x) = -0.16000 0.44883
# Poissons Ratio (y) = -0.14518 0.22394
# Poissons Ratio (z) = 0.28379 0.15604
#
# Static dielectric constant tensor:
#      x y z
#    x 4.645860 0.000000 0.197070 
#    y 0.000000 4.826580 0.000000 
#    z 0.197070 0.000000 5.059460 
# 
# 
# High freq. dielectric constant tensor:
#      x y z
#    x 2.066420 0.000000 0.000320 
#    y 0.000000 2.075460 0.000000 
#    z 0.000320 0.000000 2.090540 
# 
# From -- ./inp_files/2321.got.cif
#   From: 2010.03.12/outbox.cif.g09.slc.cpg/sg4_2_cif.got.tgz:2321.got - 2010.03.31 09:31:35.
