data_PCOD8047489
_publ_section_title
;
Structure prediction by ZEFSAII (Michael W. Deem and Ramdas Pophale) SiO2 
 PCOD8047489
Probable space group: P 21
;
_chemical_formula_sum "Si O2"
_cell_formula_units_Z 14
_cell_length_a 8.673193
_cell_length_b 11.925560
_cell_length_c 8.737136
_cell_angle_alpha 90.000000
_cell_angle_beta 45.751742
_cell_angle_gamma 90.000000
_cell_volume 647.345123
_symmetry_space_group_name_H-M "P 21"
_symmetry_group_IT_number 4
_symmetry_cell_setting 'monoclinic'
loop_
_space_group_symop_operation_xyz
x,y,z
-x,1/2+y,-z
loop_
_atom_site_type_symbol
_atom_site_label
_atom_site_fract_x
_atom_site_fract_y
_atom_site_fract_z
Si Si1 0.302867 0.324200 0.171798
Si Si2 0.924870 0.404132 0.259551
Si Si3 0.802868 0.824199 0.171799
Si Si4 0.314511 0.073373 0.780118
Si Si5 0.424872 0.904133 0.259552
Si Si6 0.814508 0.573372 0.780118
Si Si7 0.249999 0.453829 0.500000
O O1 0.186724 0.204877 0.253319
O O2 0.352753 0.370171 0.304225
O O3 0.143819 0.417354 0.205573
O O4 0.521599 0.317093 0.917350
O O5 0.848111 0.518525 0.230773
O O6 0.749999 0.355582 0.499999
O O7 0.978400 0.317093 0.082650
O O8 0.686723 0.704878 0.253319
O O9 0.643821 0.917354 0.205574
O O10 0.852752 0.870169 0.304228
O O11 0.554602 0.030546 0.577001
O O12 0.250002 0.046523 0.999999
O O13 0.348113 0.018526 0.230773
O O14 0.054598 0.530545 0.577003
#
# Coordination Sequence:
#
# PCOD8047489 Si02
#       7
#     2   2   2   2   2   2   2
#     4  11  26  44  66 101 134 174 219 271 334 386
#     4  11  23  45  66  96 140 166 220 280 316 394
#     4  11  26  44  66 101 134 174 219 271 334 386
#     4  12  25  43  68  99 133 177 221 264 335 392
#     4  11  23  45  66  96 140 166 220 280 316 394
#     4  12  25  43  68  99 133 177 221 264 335 392
#     4  12  26  42  70 100 132 176 220 270 326 402
#
# _framework density 21.626795000000001
#
# number of rings (size 3 to 8) (size 9 to 14) (size 15 to 20)
#    0.000    0.571    8.571    0.000    4.000    0.000 
#    0.000    5.714    0.000    0.000    0.000    0.000 
#    0.000    0.000    0.000    0.000    0.000    0.000 
#
# Total GULP energy -173461.948012 kJ/mol
# GULP energy per Si atom -12390.139144 kJ/mol
# Density = 2.157757 g / cm^3
# Si number density = 21.626795 Si / 1000 Ang^3
#
#
#
# Elastic Constant Matrix: (Units=GPa)
#
#
# Indices 1 2 3 4 5 6 
#
# 1 85.7404 58.7352 26.6952 0.0000 2.9664 0.0000
# 2 58.7352 112.1971 58.2472 0.0000 6.1704 0.0000
# 3 26.6952 58.2472 168.5861 0.0000 17.0913 0.0000
# 4 0.0000 0.0000 0.0000 25.4179 0.0000 -1.5192
# 5 2.9664 6.1704 17.0913 0.0000 28.7725 0.0000
# 6 0.0000 0.0000 0.0000 -1.5192 0.0000 29.1044
#
#
#
# Elastic Compliance Matrix: (Units=1/GPa)
#
#
# Indices 1 2 3 4 5 6 
#
# 1 0.018219 -0.009797 0.000508 0.000000 -0.000079 0.000000
# 2 -0.009797 0.016130 -0.004015 0.000000 -0.000064 0.000000
# 3 0.000508 -0.004015 0.007615 0.000000 -0.003715 0.000000
# 4 0.000000 0.000000 0.000000 0.039465 0.000000 0.002060
# 5 -0.000079 -0.000064 -0.003715 0.000000 0.036984 0.000000
# 6 0.000000 0.000000 0.000000 0.002060 0.000000 0.034467
#
#
# Mechanical properties :
#
#
# Convention : Reuss Voigt Hill
#
# Bulk Modulus (GPa) = 65.12309 72.65321 68.88815
# Shear Modulus (GPa) = 27.08469 31.51537 29.30003
#
# Velocity S-wave (km/s) = 3.54272 3.82152 3.68476
# Velocity P-wave (km/s) = 6.84924 7.28965 7.07287
#
# Compressibility (1/GPa) = 0.01535554
#
# Stress axis : x y z
#
# Youngs Moduli (GPa) = 54.88778 61.99805 131.31882
#
# Poissons Ratio (x) = 0.60740 -0.06671
# Poissons Ratio (y) = 0.53774 0.52724
# Poissons Ratio (z) = -0.02788 0.24892
#
# Static dielectric constant tensor:
#      x y z
#    x 3.918330 0.000000 0.123870 
#    y 0.000000 3.537120 0.000000 
#    z 0.123870 0.000000 4.409430 
# 
# 
# High freq. dielectric constant tensor:
#      x y z
#    x 1.847070 0.000000 0.013490 
#    y 0.000000 1.816960 0.000000 
#    z 0.013490 0.000000 1.875420 
# 
# From -- ./inp_files/6337.got.cif
#   From: 2010.03.12/outbox.cif.g09.slc.cpg/sg4_4_cif.got.tgz:6337.got - 2010.03.31 09:31:35.
