data_PCOD8047186
_publ_section_title
;
Structure prediction by ZEFSAII (Michael W. Deem and Ramdas Pophale) SiO2 
 PCOD8047186
Probable space group: P 21
;
_chemical_formula_sum "Si O2"
_cell_formula_units_Z 16
_cell_length_a 8.332807
_cell_length_b 10.263696
_cell_length_c 10.847249
_cell_angle_alpha 90.000000
_cell_angle_beta 43.508117
_cell_angle_gamma 90.000000
_cell_volume 638.692390
_symmetry_space_group_name_H-M "P 21"
_symmetry_group_IT_number 4
_symmetry_cell_setting 'monoclinic'
loop_
_space_group_symop_operation_xyz
x,y,z
-x,1/2+y,-z
loop_
_atom_site_type_symbol
_atom_site_label
_atom_site_fract_x
_atom_site_fract_y
_atom_site_fract_z
Si Si1 0.827725 0.114660 0.417470
Si Si2 0.767661 0.489741 0.667713
Si Si3 0.247626 0.811303 0.967101
Si Si4 0.552789 0.799351 0.011108
Si Si5 0.037603 0.903050 0.681305
Si Si6 0.817630 0.673945 0.290835
Si Si7 0.576454 0.134030 0.323257
Si Si8 0.597632 0.589898 0.179299
O O1 0.728022 0.053262 0.342841
O O2 0.660115 0.066788 0.621510
O O3 0.094116 0.080887 0.309567
O O4 0.814518 0.269403 0.394946
O O5 0.660119 0.371975 0.804025
O O6 0.552467 0.547641 0.708305
O O7 0.964837 0.441414 0.461977
O O8 0.239776 0.728084 0.846473
O O9 0.248908 0.961853 0.929951
O O10 0.484103 0.774115 0.907608
O O11 0.036785 0.770707 0.176708
O O12 0.586888 0.659636 0.053835
O O13 0.782173 0.887059 0.880898
O O14 0.145227 0.020385 0.700976
O O15 0.620927 0.721175 0.496711
O O16 0.731219 0.684639 0.198761
#
# Coordination Sequence:
#
# PCOD8047186 Si02
#       8
#     2   2   2   2   2   2   2   2
#     4  11  24  48  79 109 147 210 251 320 389 451
#     4  11  25  48  74 107 151 197 247 325 380 453
#     4  12  27  46  76 106 153 198 249 319 383 465
#     4  12  28  45  71 109 150 198 251 310 388 459
#     4  11  24  46  77 103 156 192 253 318 385 454
#     4  10  26  48  75 109 148 198 251 321 384 452
#     4  10  25  48  73 111 147 192 263 309 383 458
#     4  11  27  49  71 114 150 195 265 310 382 472
#
# _framework density 25.051182000000001
#
# number of rings (size 3 to 8) (size 9 to 14) (size 15 to 20)
#    0.000    1.000    1.250    3.000   12.250    2.000 
#    2.250    0.000    0.000    0.000    0.000    0.000 
#    0.000    0.000    0.000    0.000    0.000    0.000 
#
# Total GULP energy -198317.061649 kJ/mol
# GULP energy per Si atom -12394.816353 kJ/mol
# Density = 2.499416 g / cm^3
# Si number density = 25.051182 Si / 1000 Ang^3
#
#
#
# Elastic Constant Matrix: (Units=GPa)
#
#
# Indices 1 2 3 4 5 6 
#
# 1 123.0968 12.3370 12.2881 0.0000 1.7936 0.0000
# 2 12.3370 74.5857 23.1236 0.0000 1.2441 0.0000
# 3 12.2881 23.1236 109.7466 0.0000 4.1961 0.0000
# 4 0.0000 0.0000 0.0000 31.8757 0.0000 1.1849
# 5 1.7936 1.2441 4.1961 0.0000 37.3276 0.0000
# 6 0.0000 0.0000 0.0000 1.1849 0.0000 29.1080
#
#
#
# Elastic Compliance Matrix: (Units=1/GPa)
#
#
# Indices 1 2 3 4 5 6 
#
# 1 0.008312 -0.001161 -0.000675 0.000000 -0.000285 0.000000
# 2 -0.001161 0.014507 -0.002923 0.000000 -0.000099 0.000000
# 3 -0.000675 -0.002923 0.009841 0.000000 -0.000976 0.000000
# 4 0.000000 0.000000 0.000000 0.031419 0.000000 -0.001279
# 5 -0.000285 -0.000099 -0.000976 0.000000 0.026917 0.000000
# 6 0.000000 0.000000 0.000000 -0.001279 0.000000 0.034407
#
#
# Mechanical properties :
#
#
# Convention : Reuss Voigt Hill
#
# Bulk Modulus (GPa) = 43.21174 44.76960 43.99067
# Shear Modulus (GPa) = 35.05476 36.97427 36.01451
#
# Velocity S-wave (km/s) = 3.74481 3.84598 3.79573
# Velocity P-wave (km/s) = 5.99875 6.13450 6.06700
#
# Compressibility (1/GPa) = 0.02314186
#
# Stress axis : x y z
#
# Youngs Moduli (GPa) = 120.31425 68.93122 101.61892
#
# Poissons Ratio (x) = 0.08001 0.06861
# Poissons Ratio (y) = 0.13965 0.29702
# Poissons Ratio (z) = 0.08123 0.20148
#
# Static dielectric constant tensor:
#      x y z
#    x 4.641110 0.000000 0.183340 
#    y 0.000000 4.136070 0.000000 
#    z 0.183340 0.000000 4.664640 
# 
# 
# High freq. dielectric constant tensor:
#      x y z
#    x 2.010190 0.000000 0.008940 
#    y 0.000000 1.972980 0.000000 
#    z 0.008940 0.000000 2.014750 
# 
# From -- ./inp_files/11011.got.cif
#   From: 2010.03.12/outbox.cif.g09.slc.cpg/sg4_6_cif.got.tgz:11011.got - 2010.03.31 09:31:35.
