data_PCOD8047994
_publ_section_title
;
Structure prediction by ZEFSAII (Michael W. Deem and Ramdas Pophale) SiO2 
 PCOD8047994
Probable space group: P 21
;
_chemical_formula_sum "Si O2"
_cell_formula_units_Z 14
_cell_length_a 9.018205
_cell_length_b 8.849223
_cell_length_c 11.096551
_cell_angle_alpha 90.000000
_cell_angle_beta 143.837834
_cell_angle_gamma 90.000000
_cell_volume 522.539066
_symmetry_space_group_name_H-M "P 21"
_symmetry_group_IT_number 4
_symmetry_cell_setting 'monoclinic'
loop_
_space_group_symop_operation_xyz
x,y,z
-x,1/2+y,-z
loop_
_atom_site_type_symbol
_atom_site_label
_atom_site_fract_x
_atom_site_fract_y
_atom_site_fract_z
Si Si1 0.122347 0.615660 0.498712
Si Si2 0.703880 0.796795 0.354153
Si Si3 0.484766 0.803915 0.857485
Si Si4 0.502944 0.321023 0.534030
Si Si5 0.186168 0.099136 0.217741
Si Si6 0.319735 0.626396 0.974263
Si Si7 0.993129 0.650646 0.153153
O O1 0.216967 0.466556 0.631287
O O2 0.335979 0.750929 0.637832
O O3 0.877232 0.674637 0.403884
O O4 0.064004 0.561388 0.322232
O O5 0.693860 0.778953 0.489996
O O6 0.423568 0.764219 0.122906
O O7 0.486248 0.982362 0.887740
O O8 0.319292 0.699728 0.841024
O O9 0.776029 0.764588 0.050332
O O10 0.326828 0.264430 0.306886
O O11 0.577497 0.497264 0.579639
O O12 0.767716 0.242366 0.733917
O O13 0.100857 0.053969 0.025235
O O14 0.956936 0.083867 0.160593
#
# Coordination Sequence:
#
# PCOD8047994 Si02
#       7
#     2   2   2   2   2   2   2
#     4  12  28  50  82 121 161 218 274 339 406 482
#     4  12  26  52  81 118 162 213 277 332 405 482
#     4  12  26  49  81 120 162 214 274 338 400 488
#     4  12  27  51  83 117 160 214 269 333 409 485
#     4  12  29  54  82 120 164 215 269 336 414 486
#     4  12  26  53  83 118 165 216 271 341 408 482
#     4  12  26  51  80 118 168 208 268 339 406 485
#
# _framework density 26.792256999999999
#
# number of rings (size 3 to 8) (size 9 to 14) (size 15 to 20)
#    0.000    0.000    4.286    5.143    0.000    5.714 
#   10.286    0.000    0.000    1.714    0.000    0.000 
#    0.000    0.000    0.000    0.000    0.000    0.000 
#
# Total GULP energy -173449.197138 kJ/mol
# GULP energy per Si atom -12389.228367 kJ/mol
# Density = 2.673128 g / cm^3
# Si number density = 26.792257 Si / 1000 Ang^3
#
#
#
# Elastic Constant Matrix: (Units=GPa)
#
#
# Indices 1 2 3 4 5 6 
#
# 1 160.3763 44.8542 36.9783 0.0000 14.3855 0.0000
# 2 44.8542 112.6139 52.8577 0.0000 -7.6923 0.0000
# 3 36.9783 52.8577 126.8547 0.0000 -6.4193 0.0000
# 4 0.0000 0.0000 0.0000 51.9815 0.0000 8.2840
# 5 14.3855 -7.6923 -6.4193 0.0000 19.5453 0.0000
# 6 0.0000 0.0000 0.0000 8.2840 0.0000 24.4861
#
#
#
# Elastic Compliance Matrix: (Units=1/GPa)
#
#
# Indices 1 2 3 4 5 6 
#
# 1 0.008121 -0.003065 -0.001478 0.000000 -0.007669 0.000000
# 2 -0.003065 0.012357 -0.003961 0.000000 0.005818 0.000000
# 3 -0.001478 -0.003961 0.010109 0.000000 0.002849 0.000000
# 4 0.000000 0.000000 0.000000 0.020334 0.000000 -0.006879
# 5 -0.007669 0.005818 0.002849 0.000000 0.060033 0.000000
# 6 0.000000 0.000000 0.000000 -0.006879 0.000000 0.043167
#
#
# Mechanical properties :
#
#
# Convention : Reuss Voigt Hill
#
# Bulk Modulus (GPa) = 73.64540 74.35837 74.00188
# Shear Modulus (GPa) = 28.46473 36.87956 32.67214
#
# Velocity S-wave (km/s) = 3.26302 3.71415 3.49587
# Velocity P-wave (km/s) = 6.46093 6.79758 6.63139
#
# Compressibility (1/GPa) = 0.01357858
#
# Stress axis : x y z
#
# Youngs Moduli (GPa) = 123.13402 80.92427 98.92402
#
# Poissons Ratio (x) = 0.24800 0.14626
# Poissons Ratio (y) = 0.37735 0.39186
# Poissons Ratio (z) = 0.18205 0.32056
#
# Static dielectric constant tensor:
#      x y z
#    x 4.952560 0.000000 -0.003200 
#    y 0.000000 4.623600 0.000000 
#    z -0.003200 0.000000 4.968190 
# 
# 
# High freq. dielectric constant tensor:
#      x y z
#    x 2.090340 0.000000 0.013530 
#    y 0.000000 2.060540 0.000000 
#    z 0.013530 0.000000 2.091450 
# 
# From -- ./inp_files/11097.got.cif
#   From: 2010.03.12/outbox.cif.g09.slc.cpg/sg4_6_cif.got.tgz:11097.got - 2010.03.31 09:31:35.
