data_PCOD8047132
_publ_section_title
;
Structure prediction by ZEFSAII (Michael W. Deem and Ramdas Pophale) SiO2 
 PCOD8047132
Probable space group: P 21
;
_chemical_formula_sum "Si O2"
_cell_formula_units_Z 12
_cell_length_a 6.121683
_cell_length_b 12.517244
_cell_length_c 6.744513
_cell_angle_alpha 90.000000
_cell_angle_beta 111.372632
_cell_angle_gamma 90.000000
_cell_volume 481.268135
_symmetry_space_group_name_H-M "P 21"
_symmetry_group_IT_number 4
_symmetry_cell_setting 'monoclinic'
loop_
_space_group_symop_operation_xyz
x,y,z
-x,1/2+y,-z
loop_
_atom_site_type_symbol
_atom_site_label
_atom_site_fract_x
_atom_site_fract_y
_atom_site_fract_z
Si Si1 0.082447 0.175010 0.939175
Si Si2 0.684836 0.120728 0.551527
Si Si3 0.171235 0.728776 0.785353
Si Si4 0.601967 0.861819 0.018836
Si Si5 0.899621 0.912843 0.500093
Si Si6 0.655859 0.535892 0.280129
O O1 0.219414 0.283352 0.033045
O O2 0.250335 0.086523 0.895603
O O3 0.876449 0.198658 0.713112
O O4 0.956570 0.144539 0.107107
O O5 0.671129 0.161668 0.320295
O O6 0.442077 0.125512 0.597263
O O7 0.763549 0.996551 0.596045
O O8 0.964121 0.800040 0.620700
O O9 0.350382 0.803203 0.969606
O O10 0.722038 0.895743 0.261867
O O11 0.558613 0.961545 0.860314
O O12 0.146862 0.971720 0.530958
#
# Coordination Sequence:
#
# PCOD8047132 Si02
#       6
#     2   2   2   2   2   2
#     4  11  24  46  74 105 146 189 243 294 356 427
#     4  11  24  47  73 107 145 188 242 295 360 424
#     4  11  25  48  72 106 145 189 241 297 360 427
#     4  11  24  46  75 106 142 196 238 294 361 430
#     4  10  24  47  70 109 143 190 238 301 354 432
#     4  10  25  48  70 107 149 188 240 297 361 424
#
# _framework density 24.934125999999999
#
# number of rings (size 3 to 8) (size 9 to 14) (size 15 to 20)
#    0.000    1.333    1.667    2.000    4.667    4.000 
#    9.000    0.000    0.000    0.000    0.000    0.000 
#    0.000    0.000    0.000    0.000    0.000    0.000 
#
# Total GULP energy -148674.064613 kJ/mol
# GULP energy per Si atom -12389.505384 kJ/mol
# Density = 2.487737 g / cm^3
# Si number density = 24.934126 Si / 1000 Ang^3
#
#
#
# Elastic Constant Matrix: (Units=GPa)
#
#
# Indices 1 2 3 4 5 6 
#
# 1 117.1331 51.7950 83.3041 0.0000 -12.4701 0.0000
# 2 51.7950 84.7832 53.2418 0.0000 -14.3182 0.0000
# 3 83.3041 53.2418 146.6753 0.0000 7.4712 0.0000
# 4 0.0000 0.0000 0.0000 36.9766 0.0000 5.7420
# 5 -12.4701 -14.3182 7.4712 0.0000 53.7156 0.0000
# 6 0.0000 0.0000 0.0000 5.7420 0.0000 39.9323
#
#
#
# Elastic Compliance Matrix: (Units=1/GPa)
#
#
# Indices 1 2 3 4 5 6 
#
# 1 0.016611 -0.004489 -0.007997 0.000000 0.003772 0.000000
# 2 -0.004489 0.017875 -0.004158 0.000000 0.004301 0.000000
# 3 -0.007997 -0.004158 0.013113 0.000000 -0.004789 0.000000
# 4 0.000000 0.000000 0.000000 0.027662 0.000000 -0.003978
# 5 0.003772 0.004301 -0.004789 0.000000 0.021305 0.000000
# 6 0.000000 0.000000 0.000000 -0.003978 0.000000 0.025614
#
#
# Mechanical properties :
#
#
# Convention : Reuss Voigt Hill
#
# Bulk Modulus (GPa) = 69.87680 80.58592 75.23136
# Shear Modulus (GPa) = 31.20369 36.80828 34.00598
#
# Velocity S-wave (km/s) = 3.54141 3.84633 3.69702
# Velocity P-wave (km/s) = 6.69384 7.21910 6.96143
#
# Compressibility (1/GPa) = 0.01431090
#
# Stress axis : x y z
#
# Youngs Moduli (GPa) = 60.20003 55.94555 76.26111
#
# Poissons Ratio (x) = 0.25114 0.60986
# Poissons Ratio (y) = 0.27024 0.31708
# Poissons Ratio (z) = 0.48142 0.23261
#
# Static dielectric constant tensor:
#      x y z
#    x 4.541110 0.000000 0.193290 
#    y 0.000000 4.469820 0.000000 
#    z 0.193290 0.000000 4.376700 
# 
# 
# High freq. dielectric constant tensor:
#      x y z
#    x 2.000190 0.000000 0.013170 
#    y 0.000000 1.979560 0.000000 
#    z 0.013170 0.000000 1.990370 
# 
# From -- ./inp_files/231.got.cif
#   From: 2010.03.12/outbox.cif.g09.slc.cpg/sg4_1_cif.got.tgz:231.got - 2010.03.31 09:31:35.
