data_PCOD8047046
_publ_section_title
;
Structure prediction by ZEFSAII (Michael W. Deem and Ramdas Pophale) SiO2 
 PCOD8047046
Probable space group: P 21
;
_chemical_formula_sum "Si O2"
_cell_formula_units_Z 16
_cell_length_a 5.925082
_cell_length_b 18.399219
_cell_length_c 8.822370
_cell_angle_alpha 90.000000
_cell_angle_beta 46.961225
_cell_angle_gamma 90.000000
_cell_volume 702.962608
_symmetry_space_group_name_H-M "P 21"
_symmetry_group_IT_number 4
_symmetry_cell_setting 'monoclinic'
loop_
_space_group_symop_operation_xyz
x,y,z
-x,1/2+y,-z
loop_
_atom_site_type_symbol
_atom_site_label
_atom_site_fract_x
_atom_site_fract_y
_atom_site_fract_z
Si Si1 0.085398 0.283270 0.415954
Si Si2 0.085121 0.229496 0.085039
Si Si3 0.053768 0.478311 0.847947
Si Si4 0.275603 0.864864 0.830298
Si Si5 0.059637 0.048486 0.423799
Si Si6 0.732273 0.111174 0.083873
Si Si7 0.254049 0.667655 0.257816
Si Si8 0.707695 0.418500 0.505052
O O1 0.106641 0.233627 0.256604
O O2 0.409396 0.321714 0.295053
O O3 0.995016 0.231617 0.597781
O O4 0.818511 0.342920 0.525043
O O5 0.008341 0.308315 0.050441
O O6 0.810832 0.174624 0.167058
O O7 0.405439 0.199475 0.872058
O O8 0.059773 0.540791 0.973330
O O9 0.363392 0.431673 0.719919
O O10 0.019321 0.514977 0.701703
O O11 0.777387 0.420925 0.006173
O O12 0.281965 0.915494 0.680306
O O13 0.373850 0.093897 0.269399
O O14 0.788207 0.102072 0.602999
O O15 0.075127 0.984008 0.539071
O O16 0.808408 0.137977 0.880863
#
# Coordination Sequence:
#
# PCOD8047046 Si02
#       8
#     2   2   2   2   2   2   2   2
#     4  11  25  44  67  98 132 171 220 270 325 390
#     4  11  25  43  66  96 130 172 217 268 325 388
#     4  11  24  44  67  96 133 172 216 270 328 388
#     4  11  24  44  67  96 133 172 216 270 328 388
#     4  11  25  44  67  98 132 171 220 270 325 390
#     4  11  25  43  66  96 130 172 217 268 325 388
#     4  12  24  42  66  94 128 170 216 268 324 386
#     4  10  24  42  66  98 132 172 218 268 326 392
#
# _framework density 22.760812999999999
#
# number of rings (size 3 to 8) (size 9 to 14) (size 15 to 20)
#    0.000    1.000    0.000    6.000    0.000   17.000 
#    0.000    0.000    0.000    0.000    0.000    0.000 
#    0.000    0.000    0.000    0.000    0.000    0.000 
#
# Total GULP energy -198466.106337 kJ/mol
# GULP energy per Si atom -12404.131646 kJ/mol
# Density = 2.270901 g / cm^3
# Si number density = 22.760813 Si / 1000 Ang^3
#
#
#
# Elastic Constant Matrix: (Units=GPa)
#
#
# Indices 1 2 3 4 5 6 
#
# 1 105.8105 43.7333 50.8455 0.0000 23.5209 0.0000
# 2 43.7333 122.5593 80.3224 0.0000 22.1590 0.0000
# 3 50.8455 80.3224 108.7761 0.0000 20.5002 0.0000
# 4 0.0000 0.0000 0.0000 63.1802 0.0000 2.9675
# 5 23.5209 22.1590 20.5002 0.0000 24.6697 0.0000
# 6 0.0000 0.0000 0.0000 2.9675 0.0000 45.0366
#
#
#
# Elastic Compliance Matrix: (Units=1/GPa)
#
#
# Indices 1 2 3 4 5 6 
#
# 1 0.013761 -0.000336 -0.004469 0.000000 -0.009105 0.000000
# 2 -0.000336 0.016434 -0.010976 0.000000 -0.005321 0.000000
# 3 -0.004469 -0.010976 0.019832 0.000000 -0.002361 0.000000
# 4 0.000000 0.000000 0.000000 0.015877 0.000000 -0.001046
# 5 -0.009105 -0.005321 -0.002361 0.000000 0.055958 0.000000
# 6 0.000000 0.000000 0.000000 -0.001046 0.000000 0.022273
#
#
# Mechanical properties :
#
#
# Convention : Reuss Voigt Hill
#
# Bulk Modulus (GPa) = 54.15015 76.32759 65.23887
# Shear Modulus (GPa) = 27.49513 37.39362 32.44438
#
# Velocity S-wave (km/s) = 3.47940 4.05766 3.77961
# Velocity P-wave (km/s) = 6.32331 7.45388 6.91175
#
# Compressibility (1/GPa) = 0.01846717
#
# Stress axis : x y z
#
# Youngs Moduli (GPa) = 72.66982 60.84802 50.42467
#
# Poissons Ratio (x) = 0.02042 0.22532
# Poissons Ratio (y) = 0.02438 0.55345
# Poissons Ratio (z) = 0.32473 0.66786
#
# Static dielectric constant tensor:
#      x y z
#    x 4.093850 0.000000 0.006680 
#    y 0.000000 4.479210 0.000000 
#    z 0.006680 0.000000 3.978730 
# 
# 
# High freq. dielectric constant tensor:
#      x y z
#    x 1.897010 0.000000 -0.000420 
#    y 0.000000 1.926620 0.000000 
#    z -0.000420 0.000000 1.893800 
# 
# From -- ./inp_files/465.got.cif
#   From: 2010.03.12/outbox.cif.g09.slc.cpg/sg4_1_cif.got.tgz:465.got - 2010.03.31 09:31:35.
