data_PCOD8047415
_publ_section_title
;
Structure prediction by ZEFSAII (Michael W. Deem and Ramdas Pophale) SiO2 
 PCOD8047415
Probable space group: P 21
;
_chemical_formula_sum "Si O2"
_cell_formula_units_Z 16
_cell_length_a 9.543761
_cell_length_b 16.004134
_cell_length_c 9.543905
_cell_angle_alpha 90.000000
_cell_angle_beta 150.349471
_cell_angle_gamma 90.000000
_cell_volume 721.152638
_symmetry_space_group_name_H-M "P 21"
_symmetry_group_IT_number 4
_symmetry_cell_setting 'monoclinic'
loop_
_space_group_symop_operation_xyz
x,y,z
-x,1/2+y,-z
loop_
_atom_site_type_symbol
_atom_site_label
_atom_site_fract_x
_atom_site_fract_y
_atom_site_fract_z
Si Si1 0.975113 0.265140 0.848625
Si Si2 0.878369 0.632931 0.601953
Si Si3 0.291974 0.352922 0.876539
Si Si4 0.624400 0.986574 0.579602
Si Si5 0.151410 0.888091 0.024825
Si Si6 0.601715 0.020337 0.878168
Si Si7 0.876435 0.300352 0.291988
Si Si8 0.579636 0.666639 0.624490
O O1 0.078281 0.311510 0.800141
O O2 0.011247 0.326529 0.011422
O O3 0.651413 0.238244 0.548855
O O4 0.162751 0.183387 0.045353
O O5 0.674701 0.576634 0.325565
O O6 0.020753 0.704889 0.633053
O O7 0.682926 0.672517 0.553403
O O8 0.117713 0.576640 0.882545
O O9 0.123413 0.352798 0.583055
O O10 0.367164 0.448398 0.979393
O O11 0.582961 0.300423 0.123471
O O12 0.451123 0.914960 0.348604
O O13 0.553199 0.980710 0.682778
O O14 0.548457 0.076602 0.451487
O O15 0.954587 0.969834 0.837336
O O16 0.200083 0.841909 0.921669
#
# Coordination Sequence:
#
# PCOD8047415 Si02
#       8
#     2   2   2   2   2   2   2   2
#     4  12  24  42  70 100 133 174 229 283 340 396
#     4  11  23  43  72 102 137 181 235 285 342 416
#     4  12  27  46  68 103 143 186 229 280 345 418
#     4  11  23  40  69 104 135 170 226 292 342 393
#     4  12  24  42  70 100 133 174 229 283 340 396
#     4  11  23  43  72 102 137 181 235 285 342 416
#     4  12  27  46  68 103 143 186 229 280 345 418
#     4  11  23  40  69 104 135 170 226 292 342 393
#
# _framework density 22.186705
#
# number of rings (size 3 to 8) (size 9 to 14) (size 15 to 20)
#    0.000    0.500    2.500    7.500    3.500    0.000 
#    0.000   12.500    0.000    0.000    0.000    0.000 
#    0.000    0.000    0.000    0.000    0.000    0.000 
#
# Total GULP energy -198512.924522 kJ/mol
# GULP energy per Si atom -12407.057783 kJ/mol
# Density = 2.213621 g / cm^3
# Si number density = 22.186705 Si / 1000 Ang^3
#
#
#
# Elastic Constant Matrix: (Units=GPa)
#
#
# Indices 1 2 3 4 5 6 
#
# 1 87.5059 50.2164 36.8913 0.0000 6.6861 0.0000
# 2 50.2164 106.4816 44.3832 0.0000 -1.7676 0.0000
# 3 36.8913 44.3832 132.0518 0.0000 5.9978 0.0000
# 4 0.0000 0.0000 0.0000 44.6137 0.0000 5.2106
# 5 6.6861 -1.7676 5.9978 0.0000 36.8930 0.0000
# 6 0.0000 0.0000 0.0000 5.2106 0.0000 26.6160
#
#
#
# Elastic Compliance Matrix: (Units=1/GPa)
#
#
# Indices 1 2 3 4 5 6 
#
# 1 0.016557 -0.006962 -0.002150 0.000000 -0.002985 0.000000
# 2 -0.006962 0.013895 -0.002834 0.000000 0.002388 0.000000
# 3 -0.002150 -0.002834 0.009182 0.000000 -0.001239 0.000000
# 4 0.000000 0.000000 0.000000 0.022939 0.000000 -0.004491
# 5 -0.002985 0.002388 -0.001239 0.000000 0.027962 0.000000
# 6 0.000000 0.000000 0.000000 -0.004491 0.000000 0.038451
#
#
# Mechanical properties :
#
#
# Convention : Reuss Voigt Hill
#
# Bulk Modulus (GPa) = 63.51885 65.44678 64.48282
# Shear Modulus (GPa) = 31.62031 34.59442 33.10737
#
# Velocity S-wave (km/s) = 3.77927 3.95301 3.86711
# Velocity P-wave (km/s) = 6.90907 7.09910 7.00473
#
# Compressibility (1/GPa) = 0.01574336
#
# Stress axis : x y z
#
# Youngs Moduli (GPa) = 60.39579 71.96698 108.90611
#
# Poissons Ratio (x) = 0.50102 0.23417
# Poissons Ratio (y) = 0.42046 0.30862
# Poissons Ratio (z) = 0.12986 0.20394
#
# Static dielectric constant tensor:
#      x y z
#    x 3.763660 0.000000 0.111750 
#    y 0.000000 4.061860 0.000000 
#    z 0.111750 0.000000 4.150770 
# 
# 
# High freq. dielectric constant tensor:
#      x y z
#    x 1.851530 0.000000 0.012940 
#    y 0.000000 1.877140 0.000000 
#    z 0.012940 0.000000 1.896330 
# 
# From -- ./inp_files/6919.got.cif
#   From: 2010.03.12/outbox.cif.g09.slc.cpg/sg4_4_cif.got.tgz:6919.got - 2010.03.31 09:31:35.
