data_PCOD8047353
_publ_section_title
;
Structure prediction by ZEFSAII (Michael W. Deem and Ramdas Pophale) SiO2 
 PCOD8047353
Probable space group: P 21
;
_chemical_formula_sum "Si O2"
_cell_formula_units_Z 16
_cell_length_a 16.691257
_cell_length_b 9.265093
_cell_length_c 15.870761
_cell_angle_alpha 90.000000
_cell_angle_beta 162.062144
_cell_angle_gamma 90.000000
_cell_volume 755.903819
_symmetry_space_group_name_H-M "P 21"
_symmetry_group_IT_number 4
_symmetry_cell_setting 'monoclinic'
loop_
_space_group_symop_operation_xyz
x,y,z
-x,1/2+y,-z
loop_
_atom_site_type_symbol
_atom_site_label
_atom_site_fract_x
_atom_site_fract_y
_atom_site_fract_z
Si Si1 0.749022 0.189590 0.479779
Si Si2 0.248075 0.992139 0.196867
Si Si3 0.764494 0.851355 0.299197
Si Si4 0.756651 0.248290 0.930160
Si Si5 0.245933 0.238598 0.072286
Si Si6 0.735935 0.189773 0.268669
Si Si7 0.745087 0.856281 0.478105
Si Si8 0.251397 0.495462 0.192830
O O1 0.486048 0.263143 0.249573
O O2 0.775525 0.207083 0.407238
O O3 0.759620 0.023157 0.518019
O O4 0.986742 0.274049 0.760685
O O5 0.236086 0.827382 0.153708
O O6 0.240794 0.075687 0.100792
O O7 0.508656 0.030445 0.507008
O O8 0.007837 0.030680 0.015463
O O9 0.726385 0.837268 0.360102
O O10 0.043031 0.783406 0.555632
O O11 0.750203 0.020152 0.256837
O O12 0.543137 0.756326 0.033275
O O13 0.508149 0.286008 0.736106
O O14 0.742496 0.081936 0.889006
O O15 0.007451 0.273792 0.238099
O O16 0.263933 0.330498 0.175783
#
# Coordination Sequence:
#
# PCOD8047353 Si02
#       8
#     2   2   2   2   2   2   2   2
#     4  11  22  43  68  91 125 174 216 253 307 396
#     4  12  22  42  66  86 126 168 218 252 324 388
#     4  11  24  45  70 103 136 175 225 272 331 399
#     4  12  23  42  65  92 126 166 217 259 320 377
#     4  12  23  42  65  92 126 166 217 259 320 377
#     4  11  24  45  70 103 136 175 225 272 331 399
#     4  11  22  43  68  91 125 174 216 253 307 396
#     4  12  26  40  58 100 126 160 204 282 322 366
#
# _framework density 21.166715
#
# number of rings (size 3 to 8) (size 9 to 14) (size 15 to 20)
#    0.000    0.500    2.500    6.750    0.000    4.000 
#   13.500    0.000    0.000    0.000    0.000    0.000 
#    0.000    0.000    0.000    0.000    0.000    0.000 
#
# Total GULP energy -198490.622862 kJ/mol
# GULP energy per Si atom -12405.663929 kJ/mol
# Density = 2.111854 g / cm^3
# Si number density = 21.166715 Si / 1000 Ang^3
#
#
#
# Elastic Constant Matrix: (Units=GPa)
#
#
# Indices 1 2 3 4 5 6 
#
# 1 92.2594 23.1857 33.8395 0.0000 12.5938 0.0000
# 2 23.1857 70.9101 20.5983 0.0000 -0.2758 0.0000
# 3 33.8395 20.5983 148.5649 0.0000 10.5564 0.0000
# 4 0.0000 0.0000 0.0000 29.6133 0.0000 -0.8641
# 5 12.5938 -0.2758 10.5564 0.0000 40.4832 0.0000
# 6 0.0000 0.0000 0.0000 -0.8641 0.0000 34.0674
#
#
#
# Elastic Compliance Matrix: (Units=1/GPa)
#
#
# Indices 1 2 3 4 5 6 
#
# 1 0.013044 -0.003634 -0.002218 0.000000 -0.003504 0.000000
# 2 -0.003634 0.015723 -0.001467 0.000000 0.001620 0.000000
# 3 -0.002218 -0.001467 0.007531 0.000000 -0.001284 0.000000
# 4 0.000000 0.000000 0.000000 0.033794 0.000000 0.000857
# 5 -0.003504 0.001620 -0.001284 0.000000 0.026138 0.000000
# 6 0.000000 0.000000 0.000000 0.000857 0.000000 0.029375
#
#
# Mechanical properties :
#
#
# Convention : Reuss Voigt Hill
#
# Bulk Modulus (GPa) = 46.17105 51.88681 49.02893
# Shear Modulus (GPa) = 33.90645 36.44017 35.17331
#
# Velocity S-wave (km/s) = 4.00669 4.15369 4.08085
# Velocity P-wave (km/s) = 6.57762 6.89716 6.73929
#
# Compressibility (1/GPa) = 0.02165859
#
# Stress axis : x y z
#
# Youngs Moduli (GPa) = 76.66155 63.60012 132.78467
#
# Poissons Ratio (x) = 0.23115 0.29455
# Poissons Ratio (y) = 0.27862 0.19484
# Poissons Ratio (z) = 0.17006 0.09332
#
# Static dielectric constant tensor:
#      x y z
#    x 3.769200 0.000000 0.038580 
#    y 0.000000 3.841140 0.000000 
#    z 0.038580 0.000000 3.873270 
# 
# 
# High freq. dielectric constant tensor:
#      x y z
#    x 1.840270 0.000000 0.002520 
#    y 0.000000 1.829440 0.000000 
#    z 0.002520 0.000000 1.848490 
# 
# From -- ./inp_files/9408.got.cif
#   From: 2010.03.12/outbox.cif.g09.slc.cpg/sg4_5_cif.got.tgz:9408.got - 2010.03.31 09:31:35.
