data_PCOD8047487
_publ_section_title
;
Structure prediction by ZEFSAII (Michael W. Deem and Ramdas Pophale) SiO2 
 PCOD8047487
Probable space group: P 21
;
_chemical_formula_sum "Si O2"
_cell_formula_units_Z 16
_cell_length_a 5.302137
_cell_length_b 6.815536
_cell_length_c 20.169235
_cell_angle_alpha 90.000000
_cell_angle_beta 110.739975
_cell_angle_gamma 90.000000
_cell_volume 681.621967
_symmetry_space_group_name_H-M "P 21"
_symmetry_group_IT_number 4
_symmetry_cell_setting 'monoclinic'
loop_
_space_group_symop_operation_xyz
x,y,z
-x,1/2+y,-z
loop_
_atom_site_type_symbol
_atom_site_label
_atom_site_fract_x
_atom_site_fract_y
_atom_site_fract_z
Si Si1 0.404542 0.687640 0.346264
Si Si2 0.737772 0.474653 0.567682
Si Si3 0.313844 0.044757 0.059839
Si Si4 0.260585 0.516107 0.678227
Si Si5 0.625804 0.305490 0.425616
Si Si6 0.985131 0.048903 0.789146
Si Si7 0.506204 0.804762 0.805643
Si Si8 0.166355 0.298165 0.924735
O O1 0.442867 0.795048 0.420731
O O2 0.526575 0.471051 0.366042
O O3 0.106418 0.654635 0.287336
O O4 0.565566 0.818715 0.307874
O O5 0.816374 0.406813 0.499960
O O6 0.613788 0.692875 0.557327
O O7 0.949133 0.458672 0.649041
O O8 0.573173 0.905650 0.080895
O O9 0.038872 0.938970 0.055771
O O10 0.371422 0.220300 0.115685
O O11 0.268358 0.127779 0.982427
O O12 0.236450 0.642376 0.606966
O O13 0.357567 0.635870 0.750169
O O14 0.753747 0.891392 0.786692
O O15 0.280314 0.961173 0.804541
O O16 0.001194 0.207159 0.848808
#
# Coordination Sequence:
#
# PCOD8047487 Si02
#       8
#     2   2   2   2   2   2   2   2
#     4  11  25  44  67  97 134 180 236 289 360 426
#     4  11  25  41  68  91 137 175 235 292 363 425
#     4  12  25  45  73 106 148 185 242 288 351 420
#     4  11  27  41  68  97 134 179 237 293 359 422
#     4  11  23  45  61 100 129 181 228 299 356 431
#     4  12  26  46  73 102 143 187 234 291 360 416
#     4  12  26  47  71 103 143 186 235 295 351 424
#     4  12  25  45  73 108 144 191 235 291 352 416
#
# _framework density 23.473423
#
# number of rings (size 3 to 8) (size 9 to 14) (size 15 to 20)
#    0.000    0.500    2.500    5.250    7.000    1.000 
#    0.000    0.000    0.000    0.000    0.000    0.000 
#    0.000    0.000    0.000    0.000    0.000    0.000 
#
# Total GULP energy -198287.725007 kJ/mol
# GULP energy per Si atom -12392.982813 kJ/mol
# Density = 2.342000 g / cm^3
# Si number density = 23.473423 Si / 1000 Ang^3
#
#
#
# Elastic Constant Matrix: (Units=GPa)
#
#
# Indices 1 2 3 4 5 6 
#
# 1 70.0221 8.3974 -0.7243 0.0000 4.1831 0.0000
# 2 8.3974 100.4279 30.5800 0.0000 -0.1230 0.0000
# 3 -0.7243 30.5800 109.5966 0.0000 8.5724 0.0000
# 4 0.0000 0.0000 0.0000 50.6906 0.0000 4.8632
# 5 4.1831 -0.1230 8.5724 0.0000 35.0671 0.0000
# 6 0.0000 0.0000 0.0000 4.8632 0.0000 34.7155
#
#
#
# Elastic Compliance Matrix: (Units=1/GPa)
#
#
# Indices 1 2 3 4 5 6 
#
# 1 0.014571 -0.001416 0.000640 0.000000 -0.001900 0.000000
# 2 -0.001416 0.011041 -0.003167 0.000000 0.000982 0.000000
# 3 0.000640 -0.003167 0.010214 0.000000 -0.002584 0.000000
# 4 0.000000 0.000000 0.000000 0.019996 0.000000 -0.002801
# 5 -0.001900 0.000982 -0.002584 0.000000 0.029379 0.000000
# 6 0.000000 0.000000 0.000000 -0.002801 0.000000 0.029198
#
#
# Mechanical properties :
#
#
# Convention : Reuss Voigt Hill
#
# Bulk Modulus (GPa) = 35.78904 39.61698 37.70301
# Shear Modulus (GPa) = 37.99433 40.21422 39.10428
#
# Velocity S-wave (km/s) = 4.02756 4.14355 4.08597
# Velocity P-wave (km/s) = 6.07520 6.30920 6.19331
#
# Compressibility (1/GPa) = 0.02794151
#
# Stress axis : x y z
#
# Youngs Moduli (GPa) = 68.62918 90.56925 97.90101
#
# Poissons Ratio (x) = 0.12820 -0.06264
# Poissons Ratio (y) = 0.09715 0.31005
# Poissons Ratio (z) = -0.04391 0.28683
#
# Static dielectric constant tensor:
#      x y z
#    x 4.084090 0.000000 0.030000 
#    y 0.000000 4.271830 0.000000 
#    z 0.030000 0.000000 4.269990 
# 
# 
# High freq. dielectric constant tensor:
#      x y z
#    x 1.919780 0.000000 0.003990 
#    y 0.000000 1.946260 0.000000 
#    z 0.003990 0.000000 1.949070 
# 
# From -- ./inp_files/3994.got.cif
#   From: 2010.03.12/outbox.cif.g09.slc.cpg/sg4_2_cif.got.tgz:3994.got - 2010.03.31 09:31:35.
