data_PCOD8047641
_publ_section_title
;
Structure prediction by ZEFSAII (Michael W. Deem and Ramdas Pophale) SiO2 
 PCOD8047641
Probable space group: P 21
;
_chemical_formula_sum "Si O2"
_cell_formula_units_Z 16
_cell_length_a 13.629605
_cell_length_b 8.929129
_cell_length_c 10.037925
_cell_angle_alpha 90.000000
_cell_angle_beta 32.793278
_cell_angle_gamma 90.000000
_cell_volume 661.641381
_symmetry_space_group_name_H-M "P 21"
_symmetry_group_IT_number 4
_symmetry_cell_setting 'monoclinic'
loop_
_space_group_symop_operation_xyz
x,y,z
-x,1/2+y,-z
loop_
_atom_site_type_symbol
_atom_site_label
_atom_site_fract_x
_atom_site_fract_y
_atom_site_fract_z
Si Si1 0.290909 0.174610 0.663282
Si Si2 0.503742 0.117782 0.928719
Si Si3 0.366138 0.904389 0.281996
Si Si4 0.122487 0.605334 0.892855
Si Si5 0.571529 0.345716 0.501549
Si Si6 0.022574 0.519304 0.295158
Si Si7 0.282773 0.411018 0.478084
Si Si8 0.864544 0.784766 0.615371
O O1 0.379530 0.297015 0.660510
O O2 0.339279 0.242467 0.460214
O O3 0.385198 0.017105 0.586819
O O4 0.074327 0.168577 0.923105
O O5 0.650493 0.250875 0.786001
O O6 0.546047 0.018577 0.747896
O O7 0.302466 0.183101 0.146600
O O8 0.514772 0.010952 0.044549
O O9 0.460075 0.839915 0.305814
O O10 0.180343 0.985776 0.526075
O O11 0.261705 0.742610 0.733256
O O12 0.166265 0.480713 0.731885
O O13 0.133482 0.538178 0.030892
O O14 0.079340 0.378668 0.319415
O O15 0.021788 0.670729 0.384853
O O16 0.173053 0.397514 0.464900
#
# Coordination Sequence:
#
# PCOD8047641 Si02
#       8
#     2   2   2   2   2   2   2   2
#     4  12  27  51  78 114 160 202 256 326 389 475
#     4  11  24  46  77 103 151 208 254 319 385 458
#     4  11  24  49  73 109 156 203 259 316 387 464
#     4  12  26  54  83 112 162 207 258 335 393 461
#     4  12  27  49  78 119 152 207 267 317 401 466
#     4  11  27  51  77 116 157 207 259 323 394 465
#     4  12  25  51  79 114 156 204 261 325 395 465
#     4  11  26  51  77 111 156 206 266 315 394 466
#
# _framework density 24.182286000000001
#
# number of rings (size 3 to 8) (size 9 to 14) (size 15 to 20)
#    0.000    0.500    5.000    2.250    1.750    2.000 
#   11.250    0.000    0.000    0.000    0.000    0.000 
#    0.000    0.000    0.000    0.000    0.000    0.000 
#
# Total GULP energy -198307.871061 kJ/mol
# GULP energy per Si atom -12394.241941 kJ/mol
# Density = 2.412725 g / cm^3
# Si number density = 24.182286 Si / 1000 Ang^3
#
#
#
# Elastic Constant Matrix: (Units=GPa)
#
#
# Indices 1 2 3 4 5 6 
#
# 1 113.4513 40.8376 49.0675 0.0000 13.8549 0.0000
# 2 40.8376 125.8156 64.0619 0.0000 13.9812 0.0000
# 3 49.0675 64.0619 134.2454 0.0000 33.5226 0.0000
# 4 0.0000 0.0000 0.0000 55.1961 0.0000 10.3506
# 5 13.8549 13.9812 33.5226 0.0000 32.2612 0.0000
# 6 0.0000 0.0000 0.0000 10.3506 0.0000 47.4721
#
#
#
# Elastic Compliance Matrix: (Units=1/GPa)
#
#
# Indices 1 2 3 4 5 6 
#
# 1 0.010850 -0.002004 -0.002786 0.000000 -0.000897 0.000000
# 2 -0.002004 0.010888 -0.004726 0.000000 0.001053 0.000000
# 3 -0.002786 -0.004726 0.013386 0.000000 -0.010664 0.000000
# 4 0.000000 0.000000 0.000000 0.018890 0.000000 -0.004119
# 5 -0.000897 0.001053 -0.010664 0.000000 0.042007 0.000000
# 6 0.000000 0.000000 0.000000 -0.004119 0.000000 0.021963
#
#
# Mechanical properties :
#
#
# Convention : Reuss Voigt Hill
#
# Bulk Modulus (GPa) = 62.14185 75.71624 68.92904
# Shear Modulus (GPa) = 35.11764 41.62224 38.36994
#
# Velocity S-wave (km/s) = 3.81492 4.15322 3.98766
# Velocity P-wave (km/s) = 6.71996 7.37412 7.05462
#
# Compressibility (1/GPa) = 0.01609222
#
# Stress axis : x y z
#
# Youngs Moduli (GPa) = 92.16696 91.84407 74.70684
#
# Poissons Ratio (x) = 0.18403 0.20811
# Poissons Ratio (y) = 0.18467 0.35309
# Poissons Ratio (z) = 0.25674 0.43409
#
# Static dielectric constant tensor:
#      x y z
#    x 4.155020 0.000000 0.208760 
#    y 0.000000 4.928750 0.000000 
#    z 0.208760 0.000000 4.429090 
# 
# 
# High freq. dielectric constant tensor:
#      x y z
#    x 1.940250 0.000000 0.018120 
#    y 0.000000 1.994020 0.000000 
#    z 0.018120 0.000000 1.964490 
# 
# From -- ./inp_files/7957.got.cif
#   From: 2010.03.12/outbox.cif.g09.slc.cpg/sg4_4_cif.got.tgz:7957.got - 2010.03.31 09:31:35.
