data_PCOD8047007
_publ_section_title
;
Structure prediction by ZEFSAII (Michael W. Deem and Ramdas Pophale) SiO2 
 PCOD8047007
Probable space group: P 21
;
_chemical_formula_sum "Si O2"
_cell_formula_units_Z 12
_cell_length_a 9.073430
_cell_length_b 5.002140
_cell_length_c 17.560152
_cell_angle_alpha 90.000000
_cell_angle_beta 143.246528
_cell_angle_gamma 90.000000
_cell_volume 476.900422
_symmetry_space_group_name_H-M "P 21"
_symmetry_group_IT_number 4
_symmetry_cell_setting 'monoclinic'
loop_
_space_group_symop_operation_xyz
x,y,z
-x,1/2+y,-z
loop_
_atom_site_type_symbol
_atom_site_label
_atom_site_fract_x
_atom_site_fract_y
_atom_site_fract_z
Si Si1 0.894031 0.135470 0.416046
Si Si2 0.254802 0.656852 0.331795
Si Si3 0.971219 0.373844 0.088734
Si Si4 0.796334 0.654615 0.593819
Si Si5 0.591154 0.026968 0.993168
Si Si6 0.385513 0.222124 0.143006
O O1 0.597376 0.144231 0.291016
O O2 0.016418 0.418273 0.486829
O O3 0.978741 0.065574 0.365948
O O4 0.547575 0.616749 0.441126
O O5 0.166791 0.456234 0.361995
O O6 0.112597 0.599656 0.195067
O O7 0.204833 0.960962 0.334027
O O8 0.877590 0.129177 0.104476
O O9 0.146690 0.303463 0.091885
O O10 0.709756 0.478044 0.947956
O O11 0.418028 0.262881 0.956283
O O12 0.511347 0.947232 0.873302
#
# Coordination Sequence:
#
# PCOD8047007 Si02
#       6
#     2   2   2   2   2   2
#     4  12  29  49  77 107 153 207 262 317 387 467
#     4  10  24  42  76 103 152 194 257 311 391 445
#     4  12  27  48  80 118 158 209 257 330 397 475
#     4  10  23  47  69 110 144 203 253 319 367 466
#     4  12  28  48  76 117 157 205 255 321 396 465
#     4  12  29  50  82 115 164 206 268 322 404 472
#
# _framework density 25.162483999999999
#
# number of rings (size 3 to 8) (size 9 to 14) (size 15 to 20)
#    0.000    0.667    3.333    2.000    7.000    5.333 
#    0.000    0.000    0.000    0.000    0.000    0.000 
#    0.000    0.000    0.000    0.000    0.000    0.000 
#
# Total GULP energy -148790.705061 kJ/mol
# GULP energy per Si atom -12399.225422 kJ/mol
# Density = 2.510521 g / cm^3
# Si number density = 25.162484 Si / 1000 Ang^3
#
#
#
# Elastic Constant Matrix: (Units=GPa)
#
#
# Indices 1 2 3 4 5 6 
#
# 1 130.5562 39.8998 16.3812 0.0000 -5.0186 0.0000
# 2 39.8998 111.6277 39.8600 0.0000 11.3823 0.0000
# 3 16.3812 39.8600 141.2601 0.0000 20.3844 0.0000
# 4 0.0000 0.0000 0.0000 38.6475 0.0000 1.2284
# 5 -5.0186 11.3823 20.3844 0.0000 23.3629 0.0000
# 6 0.0000 0.0000 0.0000 1.2284 0.0000 39.7827
#
#
#
# Elastic Compliance Matrix: (Units=1/GPa)
#
#
# Indices 1 2 3 4 5 6 
#
# 1 0.008937 -0.003374 -0.000685 0.000000 0.004161 0.000000
# 2 -0.003374 0.011392 -0.002194 0.000000 -0.004361 0.000000
# 3 -0.000685 -0.002194 0.008746 0.000000 -0.006709 0.000000
# 4 0.000000 0.000000 0.000000 0.025900 0.000000 -0.000800
# 5 0.004161 -0.004361 -0.006709 0.000000 0.051675 0.000000
# 6 0.000000 0.000000 0.000000 -0.000800 0.000000 0.025161
#
#
# Mechanical properties :
#
#
# Convention : Reuss Voigt Hill
#
# Bulk Modulus (GPa) = 60.35325 63.96956 62.16141
# Shear Modulus (GPa) = 33.36893 39.51215 36.44054
#
# Velocity S-wave (km/s) = 3.64557 3.96697 3.80966
# Velocity P-wave (km/s) = 6.46202 6.81618 6.64146
#
# Compressibility (1/GPa) = 0.01656912
#
# Stress axis : x y z
#
# Youngs Moduli (GPa) = 111.89998 87.77711 114.34076
#
# Poissons Ratio (x) = 0.29616 0.07829
# Poissons Ratio (y) = 0.37755 0.25088
# Poissons Ratio (z) = 0.07662 0.19259
#
# Static dielectric constant tensor:
#      x y z
#    x 4.525460 0.000000 0.067900 
#    y 0.000000 4.654240 0.000000 
#    z 0.067900 0.000000 4.365400 
# 
# 
# High freq. dielectric constant tensor:
#      x y z
#    x 2.011130 0.000000 -0.000220 
#    y 0.000000 2.010220 0.000000 
#    z -0.000220 0.000000 1.997120 
# 
# From -- ./inp_files/13624.got.cif
#   From: 2010.03.12/outbox.cif.g09.slc.cpg/sg4_7_cif.got.tgz:13624.got - 2010.03.31 09:31:35.
