data_PCOD8047652
_publ_section_title
;
Structure prediction by ZEFSAII (Michael W. Deem and Ramdas Pophale) SiO2 
 PCOD8047652
Probable space group: P 21
;
_chemical_formula_sum "Si O2"
_cell_formula_units_Z 16
_cell_length_a 9.007341
_cell_length_b 7.424927
_cell_length_c 10.059443
_cell_angle_alpha 90.000000
_cell_angle_beta 67.520516
_cell_angle_gamma 90.000000
_cell_volume 621.645013
_symmetry_space_group_name_H-M "P 21"
_symmetry_group_IT_number 4
_symmetry_cell_setting 'monoclinic'
loop_
_space_group_symop_operation_xyz
x,y,z
-x,1/2+y,-z
loop_
_atom_site_type_symbol
_atom_site_label
_atom_site_fract_x
_atom_site_fract_y
_atom_site_fract_z
Si Si1 0.497433 0.031000 0.351251
Si Si2 0.532392 0.174592 0.051470
Si Si3 0.888624 0.935943 0.582092
Si Si4 0.730248 0.754376 0.388141
Si Si5 0.196699 0.844030 0.368863
Si Si6 0.197687 0.923017 0.074775
Si Si7 0.970876 0.608020 0.087255
Si Si8 0.231779 0.366608 0.104359
O O1 0.529963 0.154974 0.212001
O O2 0.420238 0.141635 0.500536
O O3 0.661380 0.930848 0.336350
O O4 0.379481 0.874541 0.343707
O O5 0.350118 0.186547 0.045638
O O6 0.613366 0.371943 0.999530
O O7 0.642277 0.030771 0.939124
O O8 0.818873 0.131982 0.621212
O O9 0.839988 0.827277 0.468350
O O10 0.829544 0.823645 0.727488
O O11 0.082933 0.942564 0.515608
O O12 0.842275 0.636554 0.251077
O O13 0.146183 0.930479 0.245330
O O14 0.100122 0.764480 0.034328
O O15 0.133156 0.100507 0.015350
O O16 0.077195 0.421179 0.067363
#
# Coordination Sequence:
#
# PCOD8047652 Si02
#       8
#     2   2   2   2   2   2   2   2
#     4  12  28  47  73 108 146 197 248 306 389 441
#     4  11  25  45  73 106 146 191 244 307 380 446
#     4  12  23  48  78 103 151 192 257 306 364 456
#     4  12  27  52  72 110 149 197 251 309 374 448
#     4  12  25  49  73 110 145 198 252 310 372 449
#     4  11  26  48  71 110 148 193 251 305 380 442
#     4  11  26  50  75 107 150 196 252 307 373 447
#     4  11  24  47  73 108 147 194 247 306 370 449
#
# _framework density 25.738163
#
# number of rings (size 3 to 8) (size 9 to 14) (size 15 to 20)
#    0.000    0.500    5.000    3.000    5.250    3.000 
#    6.750    0.000    0.000    0.000    0.000    0.000 
#    0.000    0.000    0.000    0.000    0.000    0.000 
#
# Total GULP energy -198326.759502 kJ/mol
# GULP energy per Si atom -12395.422469 kJ/mol
# Density = 2.567958 g / cm^3
# Si number density = 25.738163 Si / 1000 Ang^3
#
#
#
# Elastic Constant Matrix: (Units=GPa)
#
#
# Indices 1 2 3 4 5 6 
#
# 1 101.6303 -8.4657 23.3563 0.0000 -1.8047 0.0000
# 2 -8.4657 45.1082 -13.9505 0.0000 -10.1820 0.0000
# 3 23.3563 -13.9505 85.2686 0.0000 -18.1319 0.0000
# 4 0.0000 0.0000 0.0000 33.5384 0.0000 -6.9232
# 5 -1.8047 -10.1820 -18.1319 0.0000 46.0498 0.0000
# 6 0.0000 0.0000 0.0000 -6.9232 0.0000 50.8503
#
#
#
# Elastic Compliance Matrix: (Units=1/GPa)
#
#
# Indices 1 2 3 4 5 6 
#
# 1 0.010565 0.000998 -0.002833 0.000000 -0.000481 0.000000
# 2 0.000998 0.025915 0.005668 0.000000 0.008001 0.000000
# 3 -0.002833 0.005668 0.014923 0.000000 0.007018 0.000000
# 4 0.000000 0.000000 0.000000 0.030679 0.000000 0.004177
# 5 -0.000481 0.008001 0.007018 0.000000 0.026229 0.000000
# 6 0.000000 0.000000 0.000000 0.004177 0.000000 0.020234
#
#
# Mechanical properties :
#
#
# Convention : Reuss Voigt Hill
#
# Bulk Modulus (GPa) = 16.92913 25.98749 21.45831
# Shear Modulus (GPa) = 35.56959 41.49215 38.53087
#
# Velocity S-wave (km/s) = 3.72153 4.01944 3.87335
# Velocity P-wave (km/s) = 5.00581 5.62672 5.32532
#
# Compressibility (1/GPa) = 0.05906978
#
# Stress axis : x y z
#
# Youngs Moduli (GPa) = 94.64998 38.58761 67.00950
#
# Poissons Ratio (x) = -0.03852 0.18983
# Poissons Ratio (y) = -0.09448 -0.37979
# Poissons Ratio (z) = 0.26813 -0.21871
#
# Static dielectric constant tensor:
#      x y z
#    x 5.161970 0.000000 -0.176800 
#    y 0.000000 5.066290 0.000000 
#    z -0.176800 0.000000 4.805570 
# 
# 
# High freq. dielectric constant tensor:
#      x y z
#    x 2.058720 0.000000 -0.008490 
#    y 0.000000 2.052420 0.000000 
#    z -0.008490 0.000000 2.025770 
# 
# From -- ./inp_files/5421.got.cif
#   From: 2010.03.12/outbox.cif.g09.slc.cpg/sg4_3_cif.got.tgz:5421.got - 2010.03.31 09:31:35.
