data_PCOD8047196
_publ_section_title
;
Structure prediction by ZEFSAII (Michael W. Deem and Ramdas Pophale) SiO2 
 PCOD8047196
Probable space group: P 21
;
_chemical_formula_sum "Si O2"
_cell_formula_units_Z 16
_cell_length_a 27.557014
_cell_length_b 5.978697
_cell_length_c 11.204633
_cell_angle_alpha 90.000000
_cell_angle_beta 156.898949
_cell_angle_gamma 90.000000
_cell_volume 724.293203
_symmetry_space_group_name_H-M "P 21"
_symmetry_group_IT_number 4
_symmetry_cell_setting 'monoclinic'
loop_
_space_group_symop_operation_xyz
x,y,z
-x,1/2+y,-z
loop_
_atom_site_type_symbol
_atom_site_label
_atom_site_fract_x
_atom_site_fract_y
_atom_site_fract_z
Si Si1 0.245909 0.467720 0.899942
Si Si2 0.169200 0.862006 0.868265
Si Si3 0.529976 0.026350 0.229165
Si Si4 0.372652 0.194174 0.372632
Si Si5 0.408163 0.420609 0.062223
Si Si6 0.044146 0.694339 0.044170
Si Si7 0.985337 0.682327 0.633053
Si Si8 0.662364 0.206116 0.310026
O O1 0.256207 0.711082 0.981072
O O2 0.106314 0.386466 0.603733
O O3 0.350640 0.317823 0.198757
O O4 0.275375 0.444090 0.826102
O O5 0.111507 0.727788 0.848243
O O6 0.069675 0.957888 0.549361
O O7 0.254579 0.038815 0.129081
O O8 0.620003 0.849513 0.494608
O O9 0.468763 0.177297 0.193730
O O10 0.625338 0.160600 0.362203
O O11 0.410125 0.930486 0.889925
O O12 0.502535 0.070604 0.654457
O O13 0.391106 0.501912 0.888521
O O14 0.191507 0.729607 0.380471
O O15 0.008577 0.444322 0.025729
O O16 0.002673 0.659002 0.813871
#
# Coordination Sequence:
#
# PCOD8047196 Si02
#       8
#     2   2   2   2   2   2   2   2
#     4  11  25  44  70 100 145 182 235 299 372 444
#     4  11  24  46  70 108 139 186 244 303 378 440
#     4  11  24  46  70 108 139 186 244 303 378 440
#     4  10  26  39  71 104 138 180 230 296 374 445
#     4  11  25  44  70 100 145 182 235 299 372 444
#     4  12  32  51  77 114 156 210 260 316 382 455
#     4  11  26  45  75 103 145 193 250 310 368 449
#     4  11  26  45  75 103 145 193 250 310 368 449
#
# _framework density 22.090502000000001
#
# number of rings (size 3 to 8) (size 9 to 14) (size 15 to 20)
#    0.000    1.000    2.500    1.500   14.000    3.000 
#    0.000    0.000    0.000    0.000    0.000    0.000 
#    0.000    0.000    0.000    0.000    0.000    0.000 
#
# Total GULP energy -198224.760286 kJ/mol
# GULP energy per Si atom -12389.047518 kJ/mol
# Density = 2.204022 g / cm^3
# Si number density = 22.090502 Si / 1000 Ang^3
#
#
#
# Elastic Constant Matrix: (Units=GPa)
#
#
# Indices 1 2 3 4 5 6 
#
# 1 136.6166 54.2181 32.1819 0.0000 9.3237 0.0000
# 2 54.2181 115.6218 25.2468 0.0000 8.1203 0.0000
# 3 32.1819 25.2468 91.4487 0.0000 3.2806 0.0000
# 4 0.0000 0.0000 0.0000 -10.0784 0.0000 11.0527
# 5 9.3237 8.1203 3.2806 0.0000 37.2583 0.0000
# 6 0.0000 0.0000 0.0000 11.0527 0.0000 29.3343
#
#
#
# Elastic Compliance Matrix: (Units=1/GPa)
#
#
# Indices 1 2 3 4 5 6 
#
# 1 0.009465 -0.003861 -0.002217 0.000000 -0.001332 0.000000
# 2 -0.003861 0.010899 -0.001605 0.000000 -0.001268 0.000000
# 3 -0.002217 -0.001605 0.012164 0.000000 -0.000166 0.000000
# 4 0.000000 0.000000 0.000000 -0.070210 0.000000 0.026454
# 5 -0.001332 -0.001268 -0.000166 0.000000 0.027464 0.000000
# 6 0.000000 0.000000 0.000000 0.026454 0.000000 0.024122
#
#
# Mechanical properties :
#
#
# Convention : Reuss Voigt Hill
#
# Bulk Modulus (GPa) = 58.26574 62.99785 60.63179
# Shear Modulus (GPa) = 142.89494 26.77218 84.83356
#
# Velocity S-wave (km/s) = 8.05150 3.48506 6.20372
# Velocity P-wave (km/s) = 10.62396 6.69135 8.87814
#
# Compressibility (1/GPa) = 0.01716275
#
# Stress axis : x y z
#
# Youngs Moduli (GPa) = 105.65067 91.75361 82.20725
#
# Poissons Ratio (x) = 0.35424 0.18227
# Poissons Ratio (y) = 0.40789 0.13192
# Poissons Ratio (z) = 0.23425 0.14724
#
# Static dielectric constant tensor:
#      x y z
#    x 3.897010 0.000000 -0.038340 
#    y 0.000000 4.646430 0.000000 
#    z -0.038340 0.000000 4.032820 
# 
# 
# High freq. dielectric constant tensor:
#      x y z
#    x 1.871180 0.000000 -0.002450 
#    y 0.000000 1.877110 0.000000 
#    z -0.002450 0.000000 1.879860 
# 
# From -- ./inp_files/10761.got.cif
#   From: 2010.03.12/outbox.cif.g09.slc.cpg/sg4_6_cif.got.tgz:10761.got - 2010.03.31 09:31:35.
