data_PCOD8047087
_publ_section_title
;
Structure prediction by ZEFSAII (Michael W. Deem and Ramdas Pophale) SiO2 
 PCOD8047087
Probable space group: P 21
;
_chemical_formula_sum "Si O2"
_cell_formula_units_Z 16
_cell_length_a 19.762522
_cell_length_b 5.975244
_cell_length_c 12.629694
_cell_angle_alpha 90.000000
_cell_angle_beta 29.483460
_cell_angle_gamma 90.000000
_cell_volume 734.020173
_symmetry_space_group_name_H-M "P 21"
_symmetry_group_IT_number 4
_symmetry_cell_setting 'monoclinic'
loop_
_space_group_symop_operation_xyz
x,y,z
-x,1/2+y,-z
loop_
_atom_site_type_symbol
_atom_site_label
_atom_site_fract_x
_atom_site_fract_y
_atom_site_fract_z
Si Si1 0.877517 0.611230 0.867450
Si Si2 0.666506 0.864673 0.038071
Si Si3 0.837017 0.118067 0.266948
Si Si4 0.341404 0.754861 0.811257
Si Si5 0.128917 0.357796 0.575666
Si Si6 0.571059 0.861217 0.928938
Si Si7 0.440989 0.604414 0.455042
Si Si8 0.005937 0.467610 0.146721
O O1 0.032491 0.519585 0.633834
O O2 0.885607 0.802378 0.945626
O O3 0.801190 0.702878 0.865134
O O4 0.783161 0.420085 0.048073
O O5 0.549951 0.799306 0.282499
O O6 0.710524 0.109455 0.017778
O O7 0.603115 0.857509 0.008880
O O8 0.882399 0.923171 0.285147
O O9 0.673354 0.111244 0.479933
O O10 0.877533 0.352051 0.264251
O O11 0.908355 0.102504 0.056369
O O12 0.373088 0.619974 0.662186
O O13 0.480677 0.870430 0.661117
O O14 0.284892 0.364951 0.327111
O O15 0.061177 0.113013 0.667126
O O16 0.500405 0.611221 0.998785
#
# Coordination Sequence:
#
# PCOD8047087 Si02
#       8
#     2   2   2   2   2   2   2   2
#     4  10  24  44  70 106 144 188 246 312 380 474
#     4  11  25  47  72 102 147 194 244 316 379 440
#     4  11  23  37  66 105 141 191 238 299 378 462
#     4  11  23  41  66 107 147 186 245 306 383 457
#     4  11  25  47  72 102 147 194 244 316 379 440
#     4  12  32  56  80 112 154 202 270 318 366 458
#     4  11  23  37  66 105 141 191 238 299 378 462
#     4  11  23  41  66 107 147 186 245 306 383 457
#
# _framework density 21.797768000000001
#
# number of rings (size 3 to 8) (size 9 to 14) (size 15 to 20)
#    0.000    1.000    2.500    3.000   14.000    0.000 
#    4.500    0.000    0.000    0.000    0.000    0.000 
#    0.000    0.000    0.000    0.000    0.000    0.000 
#
# Total GULP energy -198230.934897 kJ/mol
# GULP energy per Si atom -12389.433431 kJ/mol
# Density = 2.174816 g / cm^3
# Si number density = 21.797768 Si / 1000 Ang^3
#
#
#
# Elastic Constant Matrix: (Units=GPa)
#
#
# Indices 1 2 3 4 5 6 
#
# 1 136.4329 57.5469 45.7451 0.0000 -19.6060 0.0000
# 2 57.5469 127.7024 52.6683 0.0000 -8.7392 0.0000
# 3 45.7451 52.6683 115.7750 0.0000 -17.3505 0.0000
# 4 0.0000 0.0000 0.0000 31.9531 0.0000 -11.4716
# 5 -19.6060 -8.7392 -17.3505 0.0000 43.8986 0.0000
# 6 0.0000 0.0000 0.0000 -11.4716 0.0000 38.3614
#
#
#
# Elastic Compliance Matrix: (Units=1/GPa)
#
#
# Indices 1 2 3 4 5 6 
#
# 1 0.009843 -0.003461 -0.001870 0.000000 0.002968 0.000000
# 2 -0.003461 0.010858 -0.003699 0.000000 -0.000846 0.000000
# 3 -0.001870 -0.003699 0.011505 0.000000 0.002976 0.000000
# 4 0.000000 0.000000 0.000000 0.035060 0.000000 0.010484
# 5 0.002968 -0.000846 0.002976 0.000000 0.025113 0.000000
# 6 0.000000 0.000000 0.000000 0.010484 0.000000 0.029203
#
#
# Mechanical properties :
#
#
# Convention : Reuss Voigt Hill
#
# Bulk Modulus (GPa) = 70.69000 76.87011 73.78005
# Shear Modulus (GPa) = 34.63637 37.77262 36.20449
#
# Velocity S-wave (km/s) = 3.99053 4.16729 4.07987
# Velocity P-wave (km/s) = 7.33027 7.64832 7.49098
#
# Compressibility (1/GPa) = 0.01414627
#
# Stress axis : x y z
#
# Youngs Moduli (GPa) = 101.59476 92.09755 86.92027
#
# Poissons Ratio (x) = 0.31878 0.16252
# Poissons Ratio (y) = 0.35165 0.32149
# Poissons Ratio (z) = 0.18996 0.34064
#
# Static dielectric constant tensor:
#      x y z
#    x 4.035630 0.000000 -0.385520 
#    y 0.000000 4.577760 0.000000 
#    z -0.385520 0.000000 3.820070 
# 
# 
# High freq. dielectric constant tensor:
#      x y z
#    x 1.860460 0.000000 -0.028180 
#    y 0.000000 1.869680 0.000000 
#    z -0.028180 0.000000 1.844700 
# 
# From -- ./inp_files/12793.got.cif
#   From: 2010.03.12/outbox.cif.g09.slc.cpg/sg4_7_cif.got.tgz:12793.got - 2010.03.31 09:31:35.
