data_PCOD8047494
_publ_section_title
;
Structure prediction by ZEFSAII (Michael W. Deem and Ramdas Pophale) SiO2 
 PCOD8047494
Probable space group: P 21
;
_chemical_formula_sum "Si O2"
_cell_formula_units_Z 16
_cell_length_a 11.693070
_cell_length_b 10.021077
_cell_length_c 6.534615
_cell_angle_alpha 90.000000
_cell_angle_beta 64.992237
_cell_angle_gamma 90.000000
_cell_volume 693.922904
_symmetry_space_group_name_H-M "P 21"
_symmetry_group_IT_number 4
_symmetry_cell_setting 'monoclinic'
loop_
_space_group_symop_operation_xyz
x,y,z
-x,1/2+y,-z
loop_
_atom_site_type_symbol
_atom_site_label
_atom_site_fract_x
_atom_site_fract_y
_atom_site_fract_z
Si Si1 0.044737 0.769480 0.236763
Si Si2 0.677796 0.511867 0.523661
Si Si3 0.454270 0.825914 0.647323
Si Si4 0.631583 0.713309 0.233473
Si Si5 0.868194 0.864182 0.013957
Si Si6 0.505758 0.011655 0.958631
Si Si7 0.957540 0.492873 0.448923
Si Si8 0.717305 0.111798 0.070381
O O1 0.039941 0.917751 0.335969
O O2 0.952185 0.785653 0.114412
O O3 0.997961 0.649003 0.422859
O O4 0.187474 0.730902 0.066706
O O5 0.658052 0.421644 0.336900
O O6 0.661014 0.657884 0.440750
O O7 0.818410 0.480052 0.475170
O O8 0.588421 0.486362 0.783665
O O9 0.547517 0.836960 0.378961
O O10 0.396747 0.676375 0.712575
O O11 0.513898 0.876182 0.817098
O O12 0.759648 0.759852 0.025440
O O13 0.548574 0.628913 0.141113
O O14 0.795130 0.000290 0.141911
O O15 0.950981 0.905340 0.760167
O O16 0.648541 0.044848 0.924342
#
# Coordination Sequence:
#
# PCOD8047494 Si02
#       8
#     2   2   2   2   2   2   2   2
#     4  11  26  47  70 106 143 192 248 299 360 433
#     4  11  23  45  69 102 140 184 234 293 362 424
#     4  11  25  43  69 110 140 186 232 295 368 437
#     4  11  25  42  73 100 143 182 232 295 361 433
#     4  11  26  47  71 103 145 189 240 296 359 431
#     4  11  26  44  72 106 145 183 237 298 368 435
#     4  11  26  45  73 105 139 196 243 295 363 428
#     4  11  25  47  73 106 143 192 238 301 369 435
#
# _framework density 23.057316
#
# number of rings (size 3 to 8) (size 9 to 14) (size 15 to 20)
#    0.000    1.000    2.500    2.250    8.750    6.000 
#    0.000    0.000    0.000    0.000    0.000    0.000 
#    0.000    0.000    0.000    0.000    0.000    0.000 
#
# Total GULP energy -198256.927943 kJ/mol
# GULP energy per Si atom -12391.057996 kJ/mol
# Density = 2.300484 g / cm^3
# Si number density = 23.057316 Si / 1000 Ang^3
#
#
#
# Elastic Constant Matrix: (Units=GPa)
#
#
# Indices 1 2 3 4 5 6 
#
# 1 133.9821 31.6118 33.4917 0.0000 -8.7565 0.0000
# 2 31.6118 63.4759 13.4864 0.0000 2.2262 0.0000
# 3 33.4917 13.4864 62.1916 0.0000 -6.5488 0.0000
# 4 0.0000 0.0000 0.0000 42.2853 0.0000 10.2700
# 5 -8.7565 2.2262 -6.5488 0.0000 28.8065 0.0000
# 6 0.0000 0.0000 0.0000 10.2700 0.0000 35.1025
#
#
#
# Elastic Compliance Matrix: (Units=1/GPa)
#
#
# Indices 1 2 3 4 5 6 
#
# 1 0.009565 -0.003985 -0.004045 0.000000 0.002296 0.000000
# 2 -0.003985 0.018305 -0.002152 0.000000 -0.003115 0.000000
# 3 -0.004045 -0.002152 0.019069 0.000000 0.003272 0.000000
# 4 0.000000 0.000000 0.000000 0.025458 0.000000 -0.007448
# 5 0.002296 -0.003115 0.003272 0.000000 0.036397 0.000000
# 6 0.000000 0.000000 0.000000 -0.007448 0.000000 0.030667
#
#
# Mechanical properties :
#
#
# Convention : Reuss Voigt Hill
#
# Bulk Modulus (GPa) = 37.62811 46.31437 41.97124
# Shear Modulus (GPa) = 29.64161 33.30953 31.47557
#
# Velocity S-wave (km/s) = 3.58936 3.80497 3.69874
# Velocity P-wave (km/s) = 5.79076 6.27964 6.04015
#
# Compressibility (1/GPa) = 0.02657587
#
# Stress axis : x y z
#
# Youngs Moduli (GPa) = 104.54751 54.63052 52.44155
#
# Poissons Ratio (x) = 0.21768 0.21214
# Poissons Ratio (y) = 0.41658 0.11284
# Poissons Ratio (z) = 0.42291 0.11755
#
# Static dielectric constant tensor:
#      x y z
#    x 4.390960 0.000000 -0.114160 
#    y 0.000000 4.475030 0.000000 
#    z -0.114160 0.000000 3.955530 
# 
# 
# High freq. dielectric constant tensor:
#      x y z
#    x 1.927150 0.000000 -0.008820 
#    y 0.000000 1.921340 0.000000 
#    z -0.008820 0.000000 1.895760 
# 
# From -- ./inp_files/2823.got.cif
#   From: 2010.03.12/outbox.cif.g09.slc.cpg/sg4_2_cif.got.tgz:2823.got - 2010.03.31 09:31:35.
