data_PCOD8047701
_publ_section_title
;
Structure prediction by ZEFSAII (Michael W. Deem and Ramdas Pophale) SiO2 
 PCOD8047701
Probable space group: P 21
;
_chemical_formula_sum "Si O2"
_cell_formula_units_Z 16
_cell_length_a 15.145830
_cell_length_b 9.319708
_cell_length_c 5.275777
_cell_angle_alpha 90.000000
_cell_angle_beta 63.178433
_cell_angle_gamma 90.000000
_cell_volume 664.582927
_symmetry_space_group_name_H-M "P 21"
_symmetry_group_IT_number 4
_symmetry_cell_setting 'monoclinic'
loop_
_space_group_symop_operation_xyz
x,y,z
-x,1/2+y,-z
loop_
_atom_site_type_symbol
_atom_site_label
_atom_site_fract_x
_atom_site_fract_y
_atom_site_fract_z
Si Si1 0.453104 0.207640 0.674658
Si Si2 0.889030 0.523930 0.544446
Si Si3 0.576341 0.221538 0.011502
Si Si4 0.303530 0.448987 0.007012
Si Si5 0.821233 0.300625 0.246430
Si Si6 0.692626 0.456995 0.062377
Si Si7 0.987506 0.821476 0.300786
Si Si8 0.187980 0.485304 0.640310
O O1 0.497147 0.242941 0.341709
O O2 0.393812 0.342448 0.854973
O O3 0.381204 0.073105 0.725958
O O4 0.532196 0.176458 0.796026
O O5 0.847787 0.449433 0.347519
O O6 0.923436 0.686188 0.470501
O O7 0.980891 0.425628 0.511534
O O8 0.796380 0.531213 0.856764
O O9 0.637689 0.371639 0.903793
O O10 0.652521 0.103437 0.001744
O O11 0.237432 0.449812 0.842321
O O12 0.239983 0.404037 0.336621
O O13 0.718629 0.333451 0.234542
O O14 0.807867 0.156495 0.430309
O O15 0.912642 0.259585 0.947853
O O16 0.922867 0.921454 0.196305
#
# Coordination Sequence:
#
# PCOD8047701 Si02
#       8
#     2   2   2   2   2   2   2   2
#     4  12  27  45  74 105 145 182 247 299 366 433
#     4  11  25  45  74 102 151 188 248 299 360 436
#     4  12  25  47  73 103 142 191 237 302 364 441
#     4  12  26  46  71 107 140 192 235 298 363 421
#     4  11  25  44  72 101 146 193 244 295 358 433
#     4  11  26  45  70 108 139 193 237 304 369 427
#     4  11  26  44  71 110 141 201 241 297 357 427
#     4  12  26  46  73 102 150 188 243 290 355 434
#
# _framework density 24.07525
#
# number of rings (size 3 to 8) (size 9 to 14) (size 15 to 20)
#    0.000    0.500    1.250    6.000   10.500    1.000 
#    0.000    0.000    0.000    0.000    0.000    0.000 
#    0.000    0.000    0.000    0.000    0.000    0.000 
#
# Total GULP energy -198388.923527 kJ/mol
# GULP energy per Si atom -12399.307720 kJ/mol
# Density = 2.402045 g / cm^3
# Si number density = 24.075250 Si / 1000 Ang^3
#
#
#
# Elastic Constant Matrix: (Units=GPa)
#
#
# Indices 1 2 3 4 5 6 
#
# 1 123.8178 31.7501 38.6203 0.0000 11.2422 0.0000
# 2 31.7501 97.9780 11.0760 0.0000 2.1047 0.0000
# 3 38.6203 11.0760 75.5603 0.0000 11.2199 0.0000
# 4 0.0000 0.0000 0.0000 36.2126 0.0000 -8.7022
# 5 11.2422 2.1047 11.2199 0.0000 23.7033 0.0000
# 6 0.0000 0.0000 0.0000 -8.7022 0.0000 47.8499
#
#
#
# Elastic Compliance Matrix: (Units=1/GPa)
#
#
# Indices 1 2 3 4 5 6 
#
# 1 0.010449 -0.002817 -0.004549 0.000000 -0.002553 0.000000
# 2 -0.002817 0.011139 -0.000263 0.000000 0.000472 0.000000
# 3 -0.004549 -0.000263 0.016429 0.000000 -0.005596 0.000000
# 4 0.000000 0.000000 0.000000 0.028877 0.000000 0.005252
# 5 -0.002553 0.000472 -0.005596 0.000000 0.046006 0.000000
# 6 0.000000 0.000000 0.000000 0.005252 0.000000 0.021854
#
#
# Mechanical properties :
#
#
# Convention : Reuss Voigt Hill
#
# Bulk Modulus (GPa) = 43.93797 51.13876 47.53836
# Shear Modulus (GPa) = 31.72633 35.94714 33.83673
#
# Velocity S-wave (km/s) = 3.63409 3.86828 3.75301
# Velocity P-wave (km/s) = 5.99155 6.42174 6.21037
#
# Compressibility (1/GPa) = 0.02275936
#
# Stress axis : x y z
#
# Youngs Moduli (GPa) = 95.69944 89.77585 60.86821
#
# Poissons Ratio (x) = 0.25291 0.27688
# Poissons Ratio (y) = 0.26959 0.01600
# Poissons Ratio (z) = 0.43533 0.02360
#
# Static dielectric constant tensor:
#      x y z
#    x 4.611180 0.000000 -0.143720 
#    y 0.000000 4.496780 0.000000 
#    z -0.143720 0.000000 4.409360 
# 
# 
# High freq. dielectric constant tensor:
#      x y z
#    x 1.972990 0.000000 -0.011050 
#    y 0.000000 1.963060 0.000000 
#    z -0.011050 0.000000 1.953240 
# 
# From -- ./inp_files/3628.got.cif
#   From: 2010.03.12/outbox.cif.g09.slc.cpg/sg4_2_cif.got.tgz:3628.got - 2010.03.31 09:31:35.
