data_PCOD8047510
_publ_section_title
;
Structure prediction by ZEFSAII (Michael W. Deem and Ramdas Pophale) SiO2 
 PCOD8047510
Probable space group: P 21
;
_chemical_formula_sum "Si O2"
_cell_formula_units_Z 14
_cell_length_a 12.975183
_cell_length_b 9.998025
_cell_length_c 8.187818
_cell_angle_alpha 90.000000
_cell_angle_beta 33.680497
_cell_angle_gamma 90.000000
_cell_volume 589.040798
_symmetry_space_group_name_H-M "P 21"
_symmetry_group_IT_number 4
_symmetry_cell_setting 'monoclinic'
loop_
_space_group_symop_operation_xyz
x,y,z
-x,1/2+y,-z
loop_
_atom_site_type_symbol
_atom_site_label
_atom_site_fract_x
_atom_site_fract_y
_atom_site_fract_z
Si Si1 0.545699 0.802370 0.287861
Si Si2 0.855853 0.939732 0.076058
Si Si3 0.752041 0.618796 0.792395
Si Si4 0.142284 0.346089 0.570398
Si Si5 0.830886 0.114857 0.646464
Si Si6 0.257246 0.876540 0.417410
Si Si7 0.761838 0.211313 0.078976
O O1 0.731511 0.879889 0.094169
O O2 0.425887 0.893296 0.321893
O O3 0.427923 0.774980 0.606384
O O4 0.600677 0.663164 0.125960
O O5 0.799222 0.872757 0.321036
O O6 0.829376 0.099879 0.120790
O O7 0.070305 0.917721 0.754873
O O8 0.747865 0.716569 0.639842
O O9 0.707721 0.469529 0.787756
O O10 0.950370 0.631145 0.616102
O O11 0.208990 0.467550 0.368312
O O12 0.919238 0.325577 0.852406
O O13 0.756768 0.222503 0.615611
O O14 0.723352 0.137833 0.958141
#
# Coordination Sequence:
#
# PCOD8047510 Si02
#       7
#     2   2   2   2   2   2   2
#     4  12  28  45  72 117 145 192 247 308 358 437
#     4  12  25  47  73 106 149 194 243 304 363 434
#     4  11  24  47  75 110 145 194 246 296 369 437
#     4  11  24  44  78 103 143 200 240 297 373 434
#     4  11  23  45  77 102 143 193 243 297 369 439
#     4  12  25  49  76 105 150 194 242 301 368 435
#     4  11  25  45  73 111 145 189 251 301 366 432
#
# _framework density 23.767453
#
# number of rings (size 3 to 8) (size 9 to 14) (size 15 to 20)
#    0.000    0.571    5.714    3.429    0.000    8.000 
#    0.000    0.000    0.000    0.000    0.000    0.000 
#    0.000    0.000    0.000    0.000    0.000    0.000 
#
# Total GULP energy -173669.442439 kJ/mol
# GULP energy per Si atom -12404.960174 kJ/mol
# Density = 2.371336 g / cm^3
# Si number density = 23.767453 Si / 1000 Ang^3
#
#
#
# Elastic Constant Matrix: (Units=GPa)
#
#
# Indices 1 2 3 4 5 6 
#
# 1 126.2091 19.2017 17.3066 0.0000 -2.9662 0.0000
# 2 19.2017 95.8410 1.4185 0.0000 2.1709 0.0000
# 3 17.3066 1.4185 85.5724 0.0000 5.0107 0.0000
# 4 0.0000 0.0000 0.0000 26.1089 0.0000 9.4287
# 5 -2.9662 2.1709 5.0107 0.0000 29.8331 0.0000
# 6 0.0000 0.0000 0.0000 9.4287 0.0000 25.2362
#
#
#
# Elastic Compliance Matrix: (Units=1/GPa)
#
#
# Indices 1 2 3 4 5 6 
#
# 1 0.008452 -0.001696 -0.001755 0.000000 0.001258 0.000000
# 2 -0.001696 0.010793 0.000222 0.000000 -0.000991 0.000000
# 3 -0.001755 0.000222 0.012168 0.000000 -0.002234 0.000000
# 4 0.000000 0.000000 0.000000 0.044275 0.000000 -0.016542
# 5 0.001258 -0.000991 -0.002234 0.000000 0.034092 0.000000
# 6 0.000000 0.000000 0.000000 -0.016542 0.000000 0.045806
#
#
# Mechanical properties :
#
#
# Convention : Reuss Voigt Hill
#
# Bulk Modulus (GPa) = 40.07151 42.60846 41.33999
# Shear Modulus (GPa) = 29.34936 34.21535 31.78236
#
# Velocity S-wave (km/s) = 3.51786 3.79831 3.66077
# Velocity P-wave (km/s) = 5.77901 6.09937 5.94135
#
# Compressibility (1/GPa) = 0.02495538
#
# Stress axis : x y z
#
# Youngs Moduli (GPa) = 118.32118 92.65383 82.18223
#
# Poissons Ratio (x) = 0.15712 0.14422
# Poissons Ratio (y) = 0.20065 -0.01825
# Poissons Ratio (z) = 0.20764 -0.02058
#
# Static dielectric constant tensor:
#      x y z
#    x 4.169340 0.000000 0.116460 
#    y 0.000000 4.444630 0.000000 
#    z 0.116460 0.000000 4.255860 
# 
# 
# High freq. dielectric constant tensor:
#      x y z
#    x 1.938670 0.000000 0.007070 
#    y 0.000000 1.942700 0.000000 
#    z 0.007070 0.000000 1.945930 
# 
# From -- ./inp_files/9112.got.cif
#   From: 2010.03.12/outbox.cif.g09.slc.cpg/sg4_5_cif.got.tgz:9112.got - 2010.03.31 09:31:35.
