data_PCOD8047740
_publ_section_title
;
Structure prediction by ZEFSAII (Michael W. Deem and Ramdas Pophale) SiO2 
 PCOD8047740
Probable space group: P 21
;
_chemical_formula_sum "Si O2"
_cell_formula_units_Z 16
_cell_length_a 18.170992
_cell_length_b 9.624623
_cell_length_c 8.913855
_cell_angle_alpha 90.000000
_cell_angle_beta 28.612647
_cell_angle_gamma 90.000000
_cell_volume 746.551459
_symmetry_space_group_name_H-M "P 21"
_symmetry_group_IT_number 4
_symmetry_cell_setting 'monoclinic'
loop_
_space_group_symop_operation_xyz
x,y,z
-x,1/2+y,-z
loop_
_atom_site_type_symbol
_atom_site_label
_atom_site_fract_x
_atom_site_fract_y
_atom_site_fract_z
Si Si1 0.926918 0.176970 0.589981
Si Si2 0.351725 0.000818 0.314238
Si Si3 0.642634 0.165593 0.309432
Si Si4 0.476222 0.440967 0.696246
Si Si5 0.340820 0.518525 0.407011
Si Si6 0.844096 0.239900 0.416504
Si Si7 0.132046 0.374517 0.391937
Si Si8 0.149498 0.266497 0.683356
O O1 0.865390 0.259915 0.555442
O O2 0.082448 0.250501 0.368434
O O3 0.958132 0.015790 0.492316
O O4 0.804222 0.192143 0.941474
O O5 0.422574 0.007087 0.352955
O O6 0.263965 0.857099 0.456785
O O7 0.231922 0.122523 0.499332
O O8 0.481462 0.010956 0.955074
O O9 0.555172 0.310281 0.477514
O O10 0.679408 0.103500 0.405283
O O11 0.539114 0.058715 0.401564
O O12 0.314221 0.393961 0.054658
O O13 0.241461 0.593533 0.455376
O O14 0.272124 0.364590 0.548660
O O15 0.008395 0.238612 0.044223
O O16 0.087855 0.333693 0.640065
#
# Coordination Sequence:
#
# PCOD8047740 Si02
#       8
#     2   2   2   2   2   2   2   2
#     4  11  27  45  70  97 147 182 228 288 349 417
#     4  12  26  45  75 104 138 185 239 290 350 414
#     4  11  26  43  70 100 140 181 232 282 353 415
#     4  11  25  47  67 106 137 183 233 290 347 418
#     4  12  23  47  70  99 141 182 232 292 343 418
#     4  12  26  46  69 104 139 186 233 288 351 414
#     4  11  25  48  67 103 140 182 232 289 348 417
#     4  12  26  43  74 103 140 181 239 287 347 419
#
# _framework density 21.43188
#
# number of rings (size 3 to 8) (size 9 to 14) (size 15 to 20)
#    0.000    0.500    3.750    3.750    8.750    1.000 
#    0.000    0.000    0.000    0.000    0.000    0.000 
#    0.000    0.000    0.000    0.000    0.000    0.000 
#
# Total GULP energy -198534.058791 kJ/mol
# GULP energy per Si atom -12408.378674 kJ/mol
# Density = 2.138310 g / cm^3
# Si number density = 21.431880 Si / 1000 Ang^3
#
#
#
# Elastic Constant Matrix: (Units=GPa)
#
#
# Indices 1 2 3 4 5 6 
#
# 1 110.2660 13.5325 24.2019 0.0000 14.8766 0.0000
# 2 13.5325 102.5840 24.5740 0.0000 -13.0606 0.0000
# 3 24.2019 24.5740 115.3327 0.0000 4.8909 0.0000
# 4 0.0000 0.0000 0.0000 34.6456 0.0000 -0.8144
# 5 14.8766 -13.0606 4.8909 0.0000 39.7131 0.0000
# 6 0.0000 0.0000 0.0000 -0.8144 0.0000 45.2022
#
#
#
# Elastic Compliance Matrix: (Units=1/GPa)
#
#
# Indices 1 2 3 4 5 6 
#
# 1 0.010162 -0.001466 -0.001647 0.000000 -0.004086 0.000000
# 2 -0.001466 0.011044 -0.002235 0.000000 0.004457 0.000000
# 3 -0.001647 -0.002235 0.009547 0.000000 -0.001294 0.000000
# 4 0.000000 0.000000 0.000000 0.028876 0.000000 0.000520
# 5 -0.004086 0.004457 -0.001294 0.000000 0.028336 0.000000
# 6 0.000000 0.000000 0.000000 0.000520 0.000000 0.022132
#
#
# Mechanical properties :
#
#
# Convention : Reuss Voigt Hill
#
# Bulk Modulus (GPa) = 49.85522 50.31106 50.08314
# Shear Modulus (GPa) = 39.22243 41.63712 40.42977
#
# Velocity S-wave (km/s) = 4.28260 4.41246 4.34802
# Velocity P-wave (km/s) = 6.91136 7.03460 6.97325
#
# Compressibility (1/GPa) = 0.02005808
#
# Stress axis : x y z
#
# Youngs Moduli (GPa) = 98.40968 90.54530 104.74404
#
# Poissons Ratio (x) = 0.13276 0.17248
# Poissons Ratio (y) = 0.14429 0.23405
# Poissons Ratio (z) = 0.16205 0.20232
#
# Static dielectric constant tensor:
#      x y z
#    x 3.899650 0.000000 0.034730 
#    y 0.000000 4.046570 0.000000 
#    z 0.034730 0.000000 3.835020 
# 
# 
# High freq. dielectric constant tensor:
#      x y z
#    x 1.851980 0.000000 0.004260 
#    y 0.000000 1.856390 0.000000 
#    z 0.004260 0.000000 1.844820 
# 
# From -- ./inp_files/5423.got.cif
#   From: 2010.03.12/outbox.cif.g09.slc.cpg/sg4_3_cif.got.tgz:5423.got - 2010.03.31 09:31:35.
