data_PCOD8047031
_publ_section_title
;
Structure prediction by ZEFSAII (Michael W. Deem and Ramdas Pophale) SiO2 
 PCOD8047031
Probable space group: P 21
;
_chemical_formula_sum "Si O2"
_cell_formula_units_Z 14
_cell_length_a 6.605286
_cell_length_b 19.750702
_cell_length_c 6.991270
_cell_angle_alpha 90.000000
_cell_angle_beta 136.000456
_cell_angle_gamma 90.000000
_cell_volume 633.574853
_symmetry_space_group_name_H-M "P 21"
_symmetry_group_IT_number 4
_symmetry_cell_setting 'monoclinic'
loop_
_space_group_symop_operation_xyz
x,y,z
-x,1/2+y,-z
loop_
_atom_site_type_symbol
_atom_site_label
_atom_site_fract_x
_atom_site_fract_y
_atom_site_fract_z
Si Si1 0.526079 0.795260 0.334941
Si Si2 0.813325 0.231409 0.570413
Si Si3 0.859312 0.988792 0.949750
Si Si4 0.046529 0.093059 0.776885
Si Si5 0.935188 0.379198 0.199324
Si Si6 0.186987 0.985874 0.568968
Si Si7 0.563016 0.709678 0.023123
O O1 0.388637 0.780068 0.445492
O O2 0.856749 0.818265 0.592748
O O3 0.502301 0.723678 0.205265
O O4 0.352729 0.853011 0.103032
O O5 0.705850 0.238713 0.279086
O O6 0.793835 0.150542 0.604780
O O7 0.146856 0.255494 0.822900
O O8 0.018860 0.974088 0.257170
O O9 0.882593 0.925294 0.823661
O O10 0.521147 0.005134 0.754564
O O11 0.020523 0.052176 0.957113
O O12 0.023117 0.045037 0.575470
O O13 0.362493 0.131233 0.974225
O O14 0.826337 0.418050 0.313971
#
# Coordination Sequence:
#
# PCOD8047031 Si02
#       7
#     2   2   2   2   2   2   2
#     4  12  24  42  68  90 132 168 202 260 318 362
#     4  10  24  40  62  96 130 162 206 253 309 379
#     4  11  25  43  69  90 125 170 205 268 314 356
#     4   9  26  40  66  98 128 153 224 248 312 389
#     4  11  26  44  62  98 124 161 226 252 298 391
#     4  11  25  43  69  90 125 170 205 268 314 356
#     4  10  24  40  62  96 130 162 206 253 309 379
#
# _framework density 22.096837000000001
#
# number of rings (size 3 to 8) (size 9 to 14) (size 15 to 20)
#    0.857    0.571    0.000    3.429    6.000    9.143 
#    0.000    0.000    0.000    0.000    0.000    0.000 
#    0.000    0.000    0.000    0.000    0.000    0.000 
#
# Total GULP energy -173515.853665 kJ/mol
# GULP energy per Si atom -12393.989547 kJ/mol
# Density = 2.204654 g / cm^3
# Si number density = 22.096837 Si / 1000 Ang^3
#
#
#
# Elastic Constant Matrix: (Units=GPa)
#
#
# Indices 1 2 3 4 5 6 
#
# 1 67.2348 17.2650 19.3053 0.0000 -7.2787 0.0000
# 2 17.2650 54.8201 19.8194 0.0000 -3.7556 0.0000
# 3 19.3053 19.8194 125.1082 0.0000 -7.1073 0.0000
# 4 0.0000 0.0000 0.0000 26.2517 0.0000 3.1978
# 5 -7.2787 -3.7556 -7.1073 0.0000 40.3267 0.0000
# 6 0.0000 0.0000 0.0000 3.1978 0.0000 39.1912
#
#
#
# Elastic Compliance Matrix: (Units=1/GPa)
#
#
# Indices 1 2 3 4 5 6 
#
# 1 0.016778 -0.004495 -0.001746 0.000000 0.002302 0.000000
# 2 -0.004495 0.020619 -0.002535 0.000000 0.000662 0.000000
# 3 -0.001746 -0.002535 0.008720 0.000000 0.000986 0.000000
# 4 0.000000 0.000000 0.000000 0.038475 0.000000 -0.003139
# 5 0.002302 0.000662 0.000986 0.000000 0.025448 0.000000
# 6 0.000000 0.000000 0.000000 -0.003139 0.000000 0.025772
#
#
# Mechanical properties :
#
#
# Convention : Reuss Voigt Hill
#
# Bulk Modulus (GPa) = 35.00849 39.99361 37.50105
# Shear Modulus (GPa) = 30.69609 33.87216 32.28413
#
# Velocity S-wave (km/s) = 3.73119 3.91947 3.82649
# Velocity P-wave (km/s) = 5.86856 6.21462 6.04407
#
# Compressibility (1/GPa) = 0.02856450
#
# Stress axis : x y z
#
# Youngs Moduli (GPa) = 59.60151 48.49874 114.67714
#
# Poissons Ratio (x) = 0.21801 0.20024
# Poissons Ratio (y) = 0.26791 0.29073
# Poissons Ratio (z) = 0.10407 0.12295
#
# Static dielectric constant tensor:
#      x y z
#    x 3.966760 0.000000 -0.042770 
#    y 0.000000 3.920180 0.000000 
#    z -0.042770 0.000000 3.871310 
# 
# 
# High freq. dielectric constant tensor:
#      x y z
#    x 1.872680 0.000000 -0.005880 
#    y 0.000000 1.863780 0.000000 
#    z -0.005880 0.000000 1.873510 
# 
# From -- ./inp_files/563.got.cif
#   From: 2010.03.12/outbox.cif.g09.slc.cpg/sg4_1_cif.got.tgz:563.got - 2010.03.31 09:31:35.
