data_PCOD8047081
_publ_section_title
;
Structure prediction by ZEFSAII (Michael W. Deem and Ramdas Pophale) SiO2 
 PCOD8047081
Probable space group: P 21
;
_chemical_formula_sum "Si O2"
_cell_formula_units_Z 16
_cell_length_a 17.992572
_cell_length_b 8.432659
_cell_length_c 9.478063
_cell_angle_alpha 90.000000
_cell_angle_beta 30.874921
_cell_angle_gamma 90.000000
_cell_volume 737.963582
_symmetry_space_group_name_H-M "P 21"
_symmetry_group_IT_number 4
_symmetry_cell_setting 'monoclinic'
loop_
_space_group_symop_operation_xyz
x,y,z
-x,1/2+y,-z
loop_
_atom_site_type_symbol
_atom_site_label
_atom_site_fract_x
_atom_site_fract_y
_atom_site_fract_z
Si Si1 0.315650 0.665680 0.826664
Si Si2 0.327269 0.018842 0.337729
Si Si3 0.147787 0.807144 0.834031
Si Si4 0.925199 0.193849 0.579412
Si Si5 0.521660 0.460504 0.326504
Si Si6 0.602789 0.877959 0.756565
Si Si7 0.810155 0.540385 0.734070
Si Si8 0.896011 0.040086 0.326203
O O1 0.235837 0.738937 0.821878
O O2 0.424042 0.524086 0.612102
O O3 0.420502 0.788924 0.731165
O O4 0.197403 0.599688 0.130895
O O5 0.381047 0.191387 0.293426
O O6 0.247490 0.937656 0.597469
O O7 0.215929 0.035787 0.390062
O O8 0.461935 0.905672 0.081703
O O9 0.101142 0.664937 0.806685
O O10 0.005138 0.896296 0.120509
O O11 0.885161 0.377225 0.657380
O O12 0.936654 0.133858 0.401348
O O13 0.080426 0.179970 0.402885
O O14 0.417114 0.457291 0.362421
O O15 0.660304 0.570736 0.062512
O O16 0.739711 0.961556 0.604955
#
# Coordination Sequence:
#
# PCOD8047081 Si02
#       8
#     2   2   2   2   2   2   2   2
#     4  11  26  45  70 100 142 181 236 285 348 422
#     4  11  25  44  72 104 142 180 236 286 351 418
#     4  12  26  46  71 106 140 183 236 291 348 421
#     4  11  25  46  69 100 141 184 230 288 350 418
#     4  10  24  46  66 103 139 178 232 283 348 414
#     4  11  25  43  73 103 142 182 230 289 350 414
#     4  10  24  44  69 101 139 181 233 282 347 418
#     4  12  25  46  72 103 141 187 229 292 352 413
#
# _framework density 21.681287999999999
#
# number of rings (size 3 to 8) (size 9 to 14) (size 15 to 20)
#    0.000    1.000    2.500    3.000   12.250    1.000 
#    4.500    0.000    0.000    0.000    0.000    0.000 
#    0.000    0.000    0.000    0.000    0.000    0.000 
#
# Total GULP energy -198463.045278 kJ/mol
# GULP energy per Si atom -12403.940330 kJ/mol
# Density = 2.163194 g / cm^3
# Si number density = 21.681288 Si / 1000 Ang^3
#
#
#
# Elastic Constant Matrix: (Units=GPa)
#
#
# Indices 1 2 3 4 5 6 
#
# 1 71.9799 4.6469 41.5608 0.0000 -15.1023 0.0000
# 2 4.6469 50.8501 17.1169 0.0000 -12.7403 0.0000
# 3 41.5608 17.1169 88.4976 0.0000 -2.1178 0.0000
# 4 0.0000 0.0000 0.0000 45.3097 0.0000 -6.9063
# 5 -15.1023 -12.7403 -2.1178 0.0000 34.4759 0.0000
# 6 0.0000 0.0000 0.0000 -6.9063 0.0000 31.9557
#
#
#
# Elastic Compliance Matrix: (Units=1/GPa)
#
#
# Indices 1 2 3 4 5 6 
#
# 1 0.022209 0.004349 -0.011016 0.000000 0.010659 0.000000
# 2 0.004349 0.024041 -0.006444 0.000000 0.010394 0.000000
# 3 -0.011016 -0.006444 0.017573 0.000000 -0.006127 0.000000
# 4 0.000000 0.000000 0.000000 0.022822 0.000000 0.004932
# 5 0.010659 0.010394 -0.006127 0.000000 0.037140 0.000000
# 6 0.000000 0.000000 0.000000 0.004932 0.000000 0.032359
#
#
# Mechanical properties :
#
#
# Convention : Reuss Voigt Hill
#
# Bulk Modulus (GPa) = 26.59428 37.55298 32.07363
# Shear Modulus (GPa) = 25.65422 32.21512 28.93467
#
# Velocity S-wave (km/s) = 3.44356 3.85885 3.65711
# Velocity P-wave (km/s) = 5.30127 6.10020 5.71471
#
# Compressibility (1/GPa) = 0.03760207
#
# Stress axis : x y z
#
# Youngs Moduli (GPa) = 45.02660 41.59497 56.90577
#
# Poissons Ratio (x) = -0.18091 0.62688
# Poissons Ratio (y) = -0.19583 0.36669
# Poissons Ratio (z) = 0.49602 0.26803
#
# Static dielectric constant tensor:
#      x y z
#    x 4.001970 0.000000 -0.034150 
#    y 0.000000 3.807600 0.000000 
#    z -0.034150 0.000000 4.181460 
# 
# 
# High freq. dielectric constant tensor:
#      x y z
#    x 1.864570 0.000000 -0.005240 
#    y 0.000000 1.846950 0.000000 
#    z -0.005240 0.000000 1.865090 
# 
# From -- ./inp_files/5415.got.cif
#   From: 2010.03.12/outbox.cif.g09.slc.cpg/sg4_3_cif.got.tgz:5415.got - 2010.03.31 09:31:35.
