data_PCOD8047044
_publ_section_title
;
Structure prediction by ZEFSAII (Michael W. Deem and Ramdas Pophale) SiO2 
 PCOD8047044
Probable space group: P 21
;
_chemical_formula_sum "Si O2"
_cell_formula_units_Z 16
_cell_length_a 9.136583
_cell_length_b 11.659932
_cell_length_c 9.145708
_cell_angle_alpha 90.000000
_cell_angle_beta 55.023402
_cell_angle_gamma 90.000000
_cell_volume 798.336203
_symmetry_space_group_name_H-M "P 21"
_symmetry_group_IT_number 4
_symmetry_cell_setting 'monoclinic'
loop_
_space_group_symop_operation_xyz
x,y,z
-x,1/2+y,-z
loop_
_atom_site_type_symbol
_atom_site_label
_atom_site_fract_x
_atom_site_fract_y
_atom_site_fract_z
Si Si1 0.674569 0.243570 0.328563
Si Si2 0.877320 0.466328 0.236178
Si Si3 0.239326 0.208379 0.312251
Si Si4 0.171732 0.430268 0.824163
Si Si5 0.896561 0.086981 0.399010
Si Si6 0.810870 0.965035 0.740902
Si Si7 0.384297 0.586171 0.882321
Si Si8 0.262119 0.207759 0.623358
O O1 0.719308 0.376854 0.302308
O O2 0.777074 0.188879 0.405484
O O3 0.723082 0.189692 0.140130
O O4 0.468102 0.225632 0.474010
O O5 0.778524 0.586636 0.281077
O O6 0.981550 0.451844 0.330451
O O7 0.026056 0.451876 0.029485
O O8 0.273405 0.336648 0.227147
O O9 0.414542 0.127577 0.204329
O O10 0.166731 0.221383 0.520036
O O11 0.093072 0.138783 0.305611
O O12 0.097577 0.484261 0.718786
O O13 0.361402 0.482519 0.775450
O O14 0.193915 0.296351 0.783033
O O15 0.804890 0.035828 0.595359
O O16 0.701495 0.044845 0.916892
#
# Coordination Sequence:
#
# PCOD8047044 Si02
#       8
#     2   2   2   2   2   2   2   2
#     4  10  24  42  65  95 130 169 221 265 322 392
#     4  11  24  41  68  95 132 173 217 270 329 385
#     4  11  22  43  66  96 132 170 215 270 331 386
#     4  10  24  42  65  95 130 169 221 265 322 392
#     4  11  22  42  64  93 126 168 214 269 320 392
#     4  11  22  43  66  96 132 170 215 270 331 386
#     4   9  24  44  64  91 136 164 212 271 320 380
#     4  11  24  41  68  95 132 173 217 270 329 385
#
# _framework density 20.041682000000002
#
# number of rings (size 3 to 8) (size 9 to 14) (size 15 to 20)
#    0.000    1.500    3.750    0.000   10.500    0.000 
#   11.250    0.000    0.000    0.000    0.000    0.000 
#    0.000    0.000    0.000    0.000    0.000    0.000 
#
# Total GULP energy -198313.407125 kJ/mol
# GULP energy per Si atom -12394.587945 kJ/mol
# Density = 1.999607 g / cm^3
# Si number density = 20.041682 Si / 1000 Ang^3
#
#
#
# Elastic Constant Matrix: (Units=GPa)
#
#
# Indices 1 2 3 4 5 6 
#
# 1 150.8015 68.4460 13.9390 0.0000 -20.8401 0.0000
# 2 68.4460 178.6684 51.7584 0.0000 -7.2533 0.0000
# 3 13.9390 51.7584 103.2503 0.0000 30.2295 0.0000
# 4 0.0000 0.0000 0.0000 35.4489 0.0000 -4.8094
# 5 -20.8401 -7.2533 30.2295 0.0000 50.4946 0.0000
# 6 0.0000 0.0000 0.0000 -4.8094 0.0000 27.3942
#
#
#
# Elastic Compliance Matrix: (Units=1/GPa)
#
#
# Indices 1 2 3 4 5 6 
#
# 1 0.008504 -0.002905 -0.000724 0.000000 0.003526 0.000000
# 2 -0.002905 0.008101 -0.004436 0.000000 0.002621 0.000000
# 3 -0.000724 -0.004436 0.014891 0.000000 -0.009851 0.000000
# 4 0.000000 0.000000 0.000000 0.028898 0.000000 0.005073
# 5 0.003526 0.002621 -0.009851 0.000000 0.027533 0.000000
# 6 0.000000 0.000000 0.000000 0.005073 0.000000 0.037395
#
#
# Mechanical properties :
#
#
# Convention : Reuss Voigt Hill
#
# Bulk Modulus (GPa) = 65.08052 77.88967 71.48510
# Shear Modulus (GPa) = 34.11238 42.57266 38.34252
#
# Velocity S-wave (km/s) = 4.13009 4.61391 4.37869
# Velocity P-wave (km/s) = 7.43550 8.20563 7.83004
#
# Compressibility (1/GPa) = 0.01536558
#
# Stress axis : x y z
#
# Youngs Moduli (GPa) = 117.59316 123.43737 67.15502
#
# Poissons Ratio (x) = 0.35856 0.04864
# Poissons Ratio (y) = 0.34158 0.29791
# Poissons Ratio (z) = 0.08517 0.54759
#
# Static dielectric constant tensor:
#      x y z
#    x 4.035510 0.000000 0.279520 
#    y 0.000000 3.660160 0.000000 
#    z 0.279520 0.000000 3.560760 
# 
# 
# High freq. dielectric constant tensor:
#      x y z
#    x 1.791570 0.000000 0.013560 
#    y 0.000000 1.795600 0.000000 
#    z 0.013560 0.000000 1.769090 
# 
# From -- ./inp_files/6201.got.cif
#   From: 2010.03.12/outbox.cif.g09.slc.cpg/sg4_4_cif.got.tgz:6201.got - 2010.03.31 09:31:35.
