data_PCOD8047956
_publ_section_title
;
Structure prediction by ZEFSAII (Michael W. Deem and Ramdas Pophale) SiO2 
 PCOD8047956
Probable space group: P 21
;
_chemical_formula_sum "Si O2"
_cell_formula_units_Z 16
_cell_length_a 12.070611
_cell_length_b 8.842340
_cell_length_c 6.219199
_cell_angle_alpha 90.000000
_cell_angle_beta 89.900100
_cell_angle_gamma 90.000000
_cell_volume 663.789315
_symmetry_space_group_name_H-M "P 21"
_symmetry_group_IT_number 4
_symmetry_cell_setting 'monoclinic'
loop_
_space_group_symop_operation_xyz
x,y,z
-x,1/2+y,-z
loop_
_atom_site_type_symbol
_atom_site_label
_atom_site_fract_x
_atom_site_fract_y
_atom_site_fract_z
Si Si1 0.183643 0.069850 0.814623
Si Si2 0.888198 0.022677 0.488144
Si Si3 0.650999 0.693849 0.505663
Si Si4 0.499559 0.948728 0.336908
Si Si5 0.803755 0.799815 0.853599
Si Si6 0.904576 0.367017 0.553450
Si Si7 0.289163 0.848584 0.115699
Si Si8 0.292159 0.549838 0.865060
O O1 0.250564 0.185944 0.665928
O O2 0.104647 0.956706 0.677713
O O3 0.124810 0.177522 0.000015
O O4 0.276162 0.965092 0.923088
O O5 0.931612 0.189383 0.548240
O O6 0.776346 0.052495 0.357613
O O7 0.872483 0.909028 0.693171
O O8 0.985100 0.944063 0.343442
O O9 0.580202 0.844001 0.473433
O O10 0.570878 0.549530 0.497999
O O11 0.711323 0.699682 0.734531
O O12 0.415568 0.848976 0.195044
O O13 0.577066 0.057433 0.190631
O O14 0.732219 0.895759 0.017513
O O15 0.794474 0.394360 0.691270
O O16 0.258560 0.684099 0.025278
#
# Coordination Sequence:
#
# PCOD8047956 Si02
#       8
#     2   2   2   2   2   2   2   2
#     4  12  25  52  75 107 154 202 260 316 388 464
#     4  12  29  53  79 113 158 206 262 336 393 465
#     4  12  28  46  72 108 152 208 242 328 378 474
#     4  12  28  44  78 110 160 198 254 318 394 468
#     4  12  25  52  75 107 154 202 260 316 388 464
#     4  12  29  53  79 113 158 206 262 336 393 465
#     4  12  28  50  76 115 156 202 259 314 393 473
#     4  12  28  50  76 115 156 202 259 314 393 473
#
# _framework density 24.104032
#
# number of rings (size 3 to 8) (size 9 to 14) (size 15 to 20)
#    0.000    0.000    7.500    0.000   14.000    1.000 
#    0.000    0.000    0.000    0.000    0.000    0.000 
#    0.000    0.000    0.000    0.000    0.000    0.000 
#
# Total GULP energy -198318.773362 kJ/mol
# GULP energy per Si atom -12394.923335 kJ/mol
# Density = 2.404917 g / cm^3
# Si number density = 24.104032 Si / 1000 Ang^3
#
#
#
# Elastic Constant Matrix: (Units=GPa)
#
#
# Indices 1 2 3 4 5 6 
#
# 1 102.4613 20.7997 5.5125 0.0000 -2.0504 0.0000
# 2 20.7997 120.9530 26.4287 0.0000 0.2627 0.0000
# 3 5.5125 26.4287 64.6661 0.0000 -1.2413 0.0000
# 4 0.0000 0.0000 0.0000 57.4215 0.0000 -0.9179
# 5 -2.0504 0.2627 -1.2413 0.0000 17.5927 0.0000
# 6 0.0000 0.0000 0.0000 -0.9179 0.0000 47.0370
#
#
#
# Elastic Compliance Matrix: (Units=1/GPa)
#
#
# Indices 1 2 3 4 5 6 
#
# 1 0.010140 -0.001716 -0.000140 0.000000 0.001197 0.000000
# 2 -0.001716 0.009371 -0.003695 0.000000 -0.000601 0.000000
# 3 -0.000140 -0.003695 0.017010 0.000000 0.001239 0.000000
# 4 0.000000 0.000000 0.000000 0.017421 0.000000 0.000340
# 5 0.001197 -0.000601 0.001239 0.000000 0.057078 0.000000
# 6 0.000000 0.000000 0.000000 0.000340 0.000000 0.021266
#
#
# Mechanical properties :
#
#
# Convention : Reuss Voigt Hill
#
# Bulk Modulus (GPa) = 39.34105 43.72913 41.53509
# Shear Modulus (GPa) = 32.92481 40.09953 36.51217
#
# Velocity S-wave (km/s) = 3.69988 4.08315 3.89623
# Velocity P-wave (km/s) = 5.88294 6.35694 6.12453
#
# Compressibility (1/GPa) = 0.02541874
#
# Stress axis : x y z
#
# Youngs Moduli (GPa) = 98.62357 106.70703 58.78878
#
# Poissons Ratio (x) = 0.18307 0.00824
# Poissons Ratio (y) = 0.16920 0.21724
# Poissons Ratio (z) = 0.01383 0.39432
#
# Static dielectric constant tensor:
#      x y z
#    x 4.184690 0.000000 0.088520 
#    y 0.000000 4.606230 0.000000 
#    z 0.088520 0.000000 4.372630 
# 
# 
# High freq. dielectric constant tensor:
#      x y z
#    x 1.947700 0.000000 0.003570 
#    y 0.000000 1.985240 0.000000 
#    z 0.003570 0.000000 1.951760 
# 
# From -- ./inp_files/2581.got.cif
#   From: 2010.03.12/outbox.cif.g09.slc.cpg/sg4_2_cif.got.tgz:2581.got - 2010.03.31 09:31:35.
