data_PCOD8047459
_publ_section_title
;
Structure prediction by ZEFSAII (Michael W. Deem and Ramdas Pophale) SiO2 
 PCOD8047459
Probable space group: P 21
;
_chemical_formula_sum "Si O2"
_cell_formula_units_Z 16
_cell_length_a 6.613914
_cell_length_b 14.918284
_cell_length_c 9.508297
_cell_angle_alpha 90.000000
_cell_angle_beta 50.256222
_cell_angle_gamma 90.000000
_cell_volume 721.367177
_symmetry_space_group_name_H-M "P 21"
_symmetry_group_IT_number 4
_symmetry_cell_setting 'monoclinic'
loop_
_space_group_symop_operation_xyz
x,y,z
-x,1/2+y,-z
loop_
_atom_site_type_symbol
_atom_site_label
_atom_site_fract_x
_atom_site_fract_y
_atom_site_fract_z
Si Si1 0.362955 0.504650 0.133600
Si Si2 0.605419 0.415138 0.774151
Si Si3 0.752807 0.517778 0.439528
Si Si4 0.302498 0.198139 0.408326
Si Si5 0.357219 0.175657 0.060863
Si Si6 0.129676 0.297836 0.948539
Si Si7 0.603663 0.384768 0.262323
Si Si8 0.888178 0.269548 0.776761
O O1 0.427948 0.426637 0.215905
O O2 0.060183 0.534983 0.270960
O O3 0.409157 0.473750 0.954214
O O4 0.566810 0.586713 0.060473
O O5 0.746074 0.466993 0.588771
O O6 0.419930 0.336880 0.796936
O O7 0.846482 0.374631 0.758717
O O8 0.608371 0.614253 0.530530
O O9 0.603519 0.456834 0.390033
O O10 0.277144 0.162814 0.259284
O O11 0.484112 0.286328 0.352383
O O12 0.004710 0.221873 0.586900
O O13 0.125757 0.224518 0.076289
O O14 0.608711 0.237877 0.954518
O O15 0.082485 0.251803 0.819726
O O16 0.904816 0.371326 0.080738
#
# Coordination Sequence:
#
# PCOD8047459 Si02
#       8
#     2   2   2   2   2   2   2   2
#     4  12  24  48  70 100 143 184 238 299 358 425
#     4  11  23  43  72 100 135 185 233 285 364 417
#     4  12  27  46  73 104 143 191 239 305 348 426
#     4  12  25  48  71 104 146 187 243 298 355 431
#     4  11  25  44  70 102 137 186 233 287 362 422
#     4  11  23  44  72  99 139 189 225 294 359 426
#     4  12  26  47  72 105 146 189 242 297 360 429
#     4  11  23  44  70 100 139 183 229 289 350 426
#
# _framework density 22.180105000000001
#
# number of rings (size 3 to 8) (size 9 to 14) (size 15 to 20)
#    0.000    0.500    6.250    2.250    3.500    0.000 
#    4.500    0.000    0.000    0.000    0.000    0.000 
#    0.000    0.000    0.000    0.000    0.000    0.000 
#
# Total GULP energy -198289.992908 kJ/mol
# GULP energy per Si atom -12393.124557 kJ/mol
# Density = 2.212962 g / cm^3
# Si number density = 22.180105 Si / 1000 Ang^3
#
#
#
# Elastic Constant Matrix: (Units=GPa)
#
#
# Indices 1 2 3 4 5 6 
#
# 1 72.0070 11.3891 13.6806 0.0000 12.6099 0.0000
# 2 11.3891 92.5771 14.1081 0.0000 14.4145 0.0000
# 3 13.6806 14.1081 113.2982 0.0000 17.0957 0.0000
# 4 0.0000 0.0000 0.0000 45.2866 0.0000 -1.7470
# 5 12.6099 14.4145 17.0957 0.0000 21.3059 0.0000
# 6 0.0000 0.0000 0.0000 -1.7470 0.0000 30.1452
#
#
#
# Elastic Compliance Matrix: (Units=1/GPa)
#
#
# Indices 1 2 3 4 5 6 
#
# 1 0.015546 -0.000520 -0.000543 0.000000 -0.008414 0.000000
# 2 -0.000520 0.012101 -0.000290 0.000000 -0.007646 0.000000
# 3 -0.000543 -0.000290 0.010069 0.000000 -0.007562 0.000000
# 4 0.000000 0.000000 0.000000 0.022131 0.000000 0.001283
# 5 -0.008414 -0.007646 -0.007562 0.000000 0.063156 0.000000
# 6 0.000000 0.000000 0.000000 0.001283 0.000000 0.033247
#
#
# Mechanical properties :
#
#
# Convention : Reuss Voigt Hill
#
# Bulk Modulus (GPa) = 28.56334 39.58198 34.07266
# Shear Modulus (GPa) = 29.30398 35.26118 32.28258
#
# Velocity S-wave (km/s) = 3.63875 3.99151 3.81921
# Velocity P-wave (km/s) = 5.52810 6.25519 5.90285
#
# Compressibility (1/GPa) = 0.03500991
#
# Stress axis : x y z
#
# Youngs Moduli (GPa) = 64.32390 82.64113 99.31530
#
# Poissons Ratio (x) = 0.04295 0.05392
# Poissons Ratio (y) = 0.03343 0.02883
# Poissons Ratio (z) = 0.03492 0.02399
#
# Static dielectric constant tensor:
#      x y z
#    x 3.856190 0.000000 0.063580 
#    y 0.000000 4.311840 0.000000 
#    z 0.063580 0.000000 4.147930 
# 
# 
# High freq. dielectric constant tensor:
#      x y z
#    x 1.851460 0.000000 0.003790 
#    y 0.000000 1.881690 0.000000 
#    z 0.003790 0.000000 1.888980 
# 
# From -- ./inp_files/1829.got.cif
#   From: 2010.03.12/outbox.cif.g09.slc.cpg/sg4_1_cif.got.tgz:1829.got - 2010.03.31 09:31:35.
