data_PCOD8047230
_publ_section_title
;
Structure prediction by ZEFSAII (Michael W. Deem and Ramdas Pophale) SiO2 
 PCOD8047230
Probable space group: P 21
;
_chemical_formula_sum "Si O2"
_cell_formula_units_Z 14
_cell_length_a 6.679793
_cell_length_b 6.679775
_cell_length_c 19.429275
_cell_angle_alpha 90.000000
_cell_angle_beta 133.440525
_cell_angle_gamma 90.000000
_cell_volume 629.464151
_symmetry_space_group_name_H-M "P 21"
_symmetry_group_IT_number 4
_symmetry_cell_setting 'monoclinic'
loop_
_space_group_symop_operation_xyz
x,y,z
-x,1/2+y,-z
loop_
_atom_site_type_symbol
_atom_site_label
_atom_site_fract_x
_atom_site_fract_y
_atom_site_fract_z
Si Si1 0.358154 0.183390 0.902459
Si Si2 0.362262 0.300170 0.056131
Si Si3 0.671699 0.103407 0.402459
Si Si4 0.438137 0.496934 0.402459
Si Si5 0.751682 0.416950 0.902459
Si Si6 0.750000 0.300170 0.750000
Si Si7 0.862263 0.800170 0.556131
O O1 0.615177 0.300170 0.932589
O O2 0.077163 0.294812 0.813394
O O3 0.380880 0.954537 0.879560
O O4 0.382252 0.172527 0.990489
O O5 0.362639 0.145804 0.120440
O O6 0.079704 0.427813 0.990489
O O7 0.615178 0.300170 0.432589
O O8 0.382147 0.000545 0.313394
O O9 0.858621 0.951444 0.490489
O O10 0.854754 0.171930 0.379560
O O11 0.163487 0.428411 0.379560
O O12 0.371430 0.599795 0.313394
O O13 0.603335 0.648896 0.490489
O O14 0.676414 0.305528 0.813394
#
# Coordination Sequence:
#
# PCOD8047230 Si02
#       7
#     2   2   2   2   2   2   2
#     4  11  23  43  67 100 134 176 226 279 329 403
#     4  11  22  40  72  99 128 178 232 271 326 396
#     4  11  23  43  67 100 134 176 226 279 329 403
#     4  11  23  43  67 100 134 176 226 279 329 403
#     4  11  23  43  67 100 134 176 226 279 329 403
#     4  10  28  42  60 104 144 176 216 276 352 398
#     4  11  22  40  72  99 128 178 232 271 326 396
#
# _framework density 22.241139
#
# number of rings (size 3 to 8) (size 9 to 14) (size 15 to 20)
#    0.000    1.143    5.714    0.000    0.000    5.714 
#    0.000    0.000    0.000    0.000    0.000    0.000 
#    0.000    0.000    0.000    0.000    0.000    0.000 
#
# Total GULP energy -173536.856758 kJ/mol
# GULP energy per Si atom -12395.489768 kJ/mol
# Density = 2.219052 g / cm^3
# Si number density = 22.241139 Si / 1000 Ang^3
#
#
#
# Elastic Constant Matrix: (Units=GPa)
#
#
# Indices 1 2 3 4 5 6 
#
# 1 137.3915 65.5918 36.1314 0.0000 3.8516 0.0000
# 2 65.5918 137.7972 35.9867 0.0000 1.5469 0.0000
# 3 36.1314 35.9867 72.1655 0.0000 -0.4436 0.0000
# 4 0.0000 0.0000 0.0000 13.8845 0.0000 2.1676
# 5 3.8516 1.5469 -0.4436 0.0000 13.9968 0.0000
# 6 0.0000 0.0000 0.0000 2.1676 0.0000 55.3686
#
#
#
# Elastic Compliance Matrix: (Units=1/GPa)
#
#
# Indices 1 2 3 4 5 6 
#
# 1 0.010040 -0.003949 -0.003072 0.000000 -0.002424 0.000000
# 2 -0.003949 0.009913 -0.002966 0.000000 -0.000103 0.000000
# 3 -0.003072 -0.002966 0.016885 0.000000 0.001708 0.000000
# 4 0.000000 0.000000 0.000000 0.072466 0.000000 -0.002837
# 5 -0.002424 -0.000103 0.001708 0.000000 0.072177 0.000000
# 6 0.000000 0.000000 0.000000 -0.002837 0.000000 0.018172
#
#
# Mechanical properties :
#
#
# Convention : Reuss Voigt Hill
#
# Bulk Modulus (GPa) = 59.30652 69.19709 64.25181
# Shear Modulus (GPa) = 22.19765 30.62627 26.41196
#
# Velocity S-wave (km/s) = 3.16261 3.71483 3.44979
# Velocity P-wave (km/s) = 6.32924 7.04129 6.69474
#
# Compressibility (1/GPa) = 0.01686155
#
# Stress axis : x y z
#
# Youngs Moduli (GPa) = 99.60334 100.87901 59.22440
#
# Poissons Ratio (x) = 0.39842 0.18194
# Poissons Ratio (y) = 0.39338 0.17569
# Poissons Ratio (z) = 0.30599 0.29925
#
# Static dielectric constant tensor:
#      x y z
#    x 4.206200 0.000000 0.034460 
#    y 0.000000 4.208010 0.000000 
#    z 0.034460 0.000000 3.546580 
# 
# 
# High freq. dielectric constant tensor:
#      x y z
#    x 1.890920 0.000000 0.003090 
#    y 0.000000 1.891080 0.000000 
#    z 0.003090 0.000000 1.831830 
# 
# From -- ./inp_files/3904.got.cif
#   From: 2010.03.12/outbox.cif.g09.slc.cpg/sg4_2_cif.got.tgz:3904.got - 2010.03.31 09:31:35.
