data_PCOD8047772
_publ_section_title
;
Structure prediction by ZEFSAII (Michael W. Deem and Ramdas Pophale) SiO2 
 PCOD8047772
Probable space group: P 21
;
_chemical_formula_sum "Si O2"
_cell_formula_units_Z 14
_cell_length_a 14.147817
_cell_length_b 5.510378
_cell_length_c 19.650828
_cell_angle_alpha 90.000000
_cell_angle_beta 19.433819
_cell_angle_gamma 90.000000
_cell_volume 509.715375
_symmetry_space_group_name_H-M "P 21"
_symmetry_group_IT_number 4
_symmetry_cell_setting 'monoclinic'
loop_
_space_group_symop_operation_xyz
x,y,z
-x,1/2+y,-z
loop_
_atom_site_type_symbol
_atom_site_label
_atom_site_fract_x
_atom_site_fract_y
_atom_site_fract_z
Si Si1 0.291083 0.174070 0.729542
Si Si2 0.429099 0.417468 0.085212
Si Si3 0.682486 0.672403 0.033754
Si Si4 0.795692 0.488651 0.359276
Si Si5 0.128058 0.927671 0.386281
Si Si6 0.905655 0.672849 0.422131
Si Si7 0.675692 0.357954 0.169731
O O1 0.511736 0.392377 0.589696
O O2 0.293370 0.124426 0.648055
O O3 0.396617 0.956182 0.705564
O O4 0.973189 0.223426 0.969820
O O5 0.505846 0.152956 0.006354
O O6 0.586856 0.450681 0.050129
O O7 0.082038 0.435453 0.330203
O O8 0.461036 0.894183 0.176012
O O9 0.687592 0.576032 0.107259
O O10 0.991864 0.768926 0.802858
O O11 0.928277 0.675759 0.324261
O O12 0.956266 0.692447 0.531261
O O13 0.066837 0.910061 0.345481
O O14 0.581239 0.669891 0.670656
#
# Coordination Sequence:
#
# PCOD8047772 Si02
#       7
#     2   2   2   2   2   2   2
#     4  12  28  48  72 106 152 192 280 310 396 442
#     4  11  26  49  76 123 158 205 258 319 384 497
#     4  11  26  45  80 110 158 201 258 311 406 454
#     4  12  26  48  74 110 146 212 248 340 374 474
#     4  11  26  49  76 123 158 205 258 319 384 497
#     4  11  26  45  80 110 158 201 258 311 406 454
#     4  12  26  48  74 110 146 212 248 340 374 474
#
# _framework density 27.466305999999999
#
# number of rings (size 3 to 8) (size 9 to 14) (size 15 to 20)
#    0.000    0.571    2.857    3.429    8.000    4.571 
#    0.000    0.000    0.000    0.000    0.000    0.000 
#    0.000    0.000    0.000    0.000    0.000    0.000 
#
# Total GULP energy -173489.088946 kJ/mol
# GULP energy per Si atom -12392.077782 kJ/mol
# Density = 2.740379 g / cm^3
# Si number density = 27.466306 Si / 1000 Ang^3
#
#
#
# Elastic Constant Matrix: (Units=GPa)
#
#
# Indices 1 2 3 4 5 6 
#
# 1 119.2123 33.5081 38.7117 0.0000 -11.0673 0.0000
# 2 33.5081 121.1683 38.5423 0.0000 6.6280 0.0000
# 3 38.7117 38.5423 102.1745 0.0000 -12.4698 0.0000
# 4 0.0000 0.0000 0.0000 52.3556 0.0000 28.9102
# 5 -11.0673 6.6280 -12.4698 0.0000 33.8672 0.0000
# 6 0.0000 0.0000 0.0000 28.9102 0.0000 28.6924
#
#
#
# Elastic Compliance Matrix: (Units=1/GPa)
#
#
# Indices 1 2 3 4 5 6 
#
# 1 0.010106 -0.002080 -0.002714 0.000000 0.002710 0.000000
# 2 -0.002080 0.010169 -0.003533 0.000000 -0.003970 0.000000
# 3 -0.002714 -0.003533 0.012694 0.000000 0.004479 0.000000
# 4 0.000000 0.000000 0.000000 0.043055 0.000000 -0.043382
# 5 0.002710 -0.003970 0.004479 0.000000 0.032839 0.000000
# 6 0.000000 0.000000 0.000000 -0.043382 0.000000 0.078564
#
#
# Mechanical properties :
#
#
# Convention : Reuss Voigt Hill
#
# Bulk Modulus (GPa) = 61.28406 62.67546 61.97976
# Shear Modulus (GPa) = 23.86429 38.43590 31.15010
#
# Velocity S-wave (km/s) = 2.95084 3.74489 3.37132
# Velocity P-wave (km/s) = 5.82845 6.44729 6.14566
#
# Compressibility (1/GPa) = 0.01631746
#
# Stress axis : x y z
#
# Youngs Moduli (GPa) = 98.95342 98.33837 78.77483
#
# Poissons Ratio (x) = 0.20452 0.21376
# Poissons Ratio (y) = 0.20580 0.27827
# Poissons Ratio (z) = 0.26851 0.34738
#
# Static dielectric constant tensor:
#      x y z
#    x 5.499100 0.000000 -0.087470 
#    y 0.000000 4.730190 0.000000 
#    z -0.087470 0.000000 5.419010 
# 
# 
# High freq. dielectric constant tensor:
#      x y z
#    x 2.133360 0.000000 -0.002880 
#    y 0.000000 2.086550 0.000000 
#    z -0.002880 0.000000 2.130690 
# 
# From -- ./inp_files/15784.got.cif
#   From: 2010.03.12/outbox.cif.g09.slc.cpg/sg4_8_cif.got.tgz:15784.got - 2010.03.31 09:31:35.
