data_PCOD8047062
_publ_section_title
;
Structure prediction by ZEFSAII (Michael W. Deem and Ramdas Pophale) SiO2 
 PCOD8047062
Probable space group: P 21
;
_chemical_formula_sum "Si O2"
_cell_formula_units_Z 14
_cell_length_a 10.606994
_cell_length_b 11.491129
_cell_length_c 10.912444
_cell_angle_alpha 90.000000
_cell_angle_beta 154.025351
_cell_angle_gamma 90.000000
_cell_volume 582.538738
_symmetry_space_group_name_H-M "P 21"
_symmetry_group_IT_number 4
_symmetry_cell_setting 'monoclinic'
loop_
_space_group_symop_operation_xyz
x,y,z
-x,1/2+y,-z
loop_
_atom_site_type_symbol
_atom_site_label
_atom_site_fract_x
_atom_site_fract_y
_atom_site_fract_z
Si Si1 0.851114 0.041080 0.323443
Si Si2 0.617074 0.901758 0.330857
Si Si3 0.910385 0.055011 0.017942
Si Si4 0.171333 0.728627 0.509420
Si Si5 0.014112 0.024202 0.832347
Si Si6 0.692545 0.640768 0.441767
Si Si7 0.289076 0.380821 0.989794
O O1 0.763248 0.166630 0.303296
O O2 0.170417 0.058832 0.544931
O O3 0.846443 0.947923 0.430312
O O4 0.632203 0.998300 0.022713
O O5 0.586967 0.763512 0.294015
O O6 0.764014 0.928755 0.591212
O O7 0.319362 0.972503 0.052855
O O8 0.043898 0.056438 0.000105
O O9 0.570889 0.078957 0.721529
O O10 0.923840 0.923279 0.086368
O O11 0.071805 0.150935 0.242871
O O12 0.092703 0.638777 0.332805
O O13 0.451330 0.807159 0.726565
O O14 0.894229 0.811173 0.272668
#
# Coordination Sequence:
#
# PCOD8047062 Si02
#       7
#     2   2   2   2   2   2   2
#     4  10  24  43  66 100 137 170 224 281 335 409
#     4  11  24  43  71 100 134 180 226 281 345 405
#     4  11  25  44  65  98 138 177 230 284 334 406
#     4  11  24  42  66  96 131 176 220 273 337 397
#     4  11  25  45  66  98 136 176 231 284 333 404
#     4  11  24  42  68  99 133 179 226 280 345 404
#     4  11  24  41  66  95 131 176 219 273 337 397
#
# _framework density 24.032734999999999
#
# number of rings (size 3 to 8) (size 9 to 14) (size 15 to 20)
#    0.000    1.143    0.000    6.000    0.000   17.143 
#    0.000    0.000    0.000    0.000    0.000    0.000 
#    0.000    0.000    0.000    0.000    0.000    0.000 
#
# Total GULP energy -173433.540748 kJ/mol
# GULP energy per Si atom -12388.110053 kJ/mol
# Density = 2.397804 g / cm^3
# Si number density = 24.032735 Si / 1000 Ang^3
#
#
#
# Elastic Constant Matrix: (Units=GPa)
#
#
# Indices 1 2 3 4 5 6 
#
# 1 119.0208 48.1336 39.3410 0.0000 -4.9234 0.0000
# 2 48.1336 125.5370 56.0539 0.0000 2.9877 0.0000
# 3 39.3410 56.0539 130.3550 0.0000 5.9100 0.0000
# 4 0.0000 0.0000 0.0000 48.1903 0.0000 1.5666
# 5 -4.9234 2.9877 5.9100 0.0000 30.2329 0.0000
# 6 0.0000 0.0000 0.0000 1.5666 0.0000 18.7607
#
#
#
# Elastic Compliance Matrix: (Units=1/GPa)
#
#
# Indices 1 2 3 4 5 6 
#
# 1 0.010419 -0.003217 -0.001869 0.000000 0.002380 0.000000
# 2 -0.003217 0.010853 -0.003656 0.000000 -0.000882 0.000000
# 3 -0.001869 -0.003656 0.009893 0.000000 -0.001877 0.000000
# 4 0.000000 0.000000 0.000000 0.020808 0.000000 -0.001738
# 5 0.002380 -0.000882 -0.001877 0.000000 0.033918 0.000000
# 6 0.000000 0.000000 0.000000 -0.001738 0.000000 0.053448
#
#
# Mechanical properties :
#
#
# Convention : Reuss Voigt Hill
#
# Bulk Modulus (GPa) = 73.09670 73.55218 73.32444
# Shear Modulus (GPa) = 30.98234 34.86239 32.92237
#
# Velocity S-wave (km/s) = 3.59440 3.81283 3.70523
# Velocity P-wave (km/s) = 6.90708 7.07496 6.99152
#
# Compressibility (1/GPa) = 0.01368051
#
# Stress axis : x y z
#
# Youngs Moduli (GPa) = 95.97721 92.14358 101.08579
#
# Poissons Ratio (x) = 0.29643 0.18893
# Poissons Ratio (y) = 0.30876 0.36956
# Poissons Ratio (z) = 0.17939 0.33686
#
# Static dielectric constant tensor:
#      x y z
#    x 4.184590 0.000000 -0.205780 
#    y 0.000000 4.773210 0.000000 
#    z -0.205780 0.000000 4.350260 
# 
# 
# High freq. dielectric constant tensor:
#      x y z
#    x 1.936250 0.000000 -0.007330 
#    y 0.000000 1.961130 0.000000 
#    z -0.007330 0.000000 1.961430 
# 
# From -- ./inp_files/12220.got.cif
#   From: 2010.03.12/outbox.cif.g09.slc.cpg/sg4_7_cif.got.tgz:12220.got - 2010.03.31 09:31:35.
