data_PCOD8047837
_publ_section_title
;
Structure prediction by ZEFSAII (Michael W. Deem and Ramdas Pophale) SiO2 
 PCOD8047837
Probable space group: P 21
;
_chemical_formula_sum "Si O2"
_cell_formula_units_Z 16
_cell_length_a 8.289036
_cell_length_b 8.915088
_cell_length_c 11.975187
_cell_angle_alpha 90.000000
_cell_angle_beta 54.109273
_cell_angle_gamma 90.000000
_cell_volume 716.919148
_symmetry_space_group_name_H-M "P 21"
_symmetry_group_IT_number 4
_symmetry_cell_setting 'monoclinic'
loop_
_space_group_symop_operation_xyz
x,y,z
-x,1/2+y,-z
loop_
_atom_site_type_symbol
_atom_site_label
_atom_site_fract_x
_atom_site_fract_y
_atom_site_fract_z
Si Si1 0.535910 0.772280 0.340522
Si Si2 0.205855 0.397437 0.480358
Si Si3 0.680537 0.492926 0.405916
Si Si4 0.150746 0.481864 0.754828
Si Si5 0.426836 0.729944 0.138140
Si Si6 0.643994 0.280948 0.243668
Si Si7 0.052307 0.632840 0.372097
Si Si8 0.690969 0.446959 0.993942
O O1 0.533115 0.611586 0.403431
O O2 0.445182 0.899306 0.455587
O O3 0.764835 0.825589 0.228007
O O4 0.421840 0.775872 0.270173
O O5 0.192565 0.478378 0.605550
O O6 0.412879 0.305737 0.376624
O O7 0.177379 0.527878 0.403020
O O8 0.021581 0.283643 0.536301
O O9 0.773905 0.388101 0.271494
O O10 0.857380 0.566465 0.398622
O O11 0.273385 0.614308 0.768504
O O12 0.916815 0.485609 0.872106
O O13 0.203840 0.666107 0.208361
O O14 0.441566 0.873304 0.051232
O O15 0.599193 0.610074 0.050865
O O16 0.674034 0.332918 0.104421
#
# Coordination Sequence:
#
# PCOD8047837 Si02
#       8
#     2   2   2   2   2   2   2   2
#     4  12  24  47  74 109 147 194 247 321 368 445
#     4  12  25  47  75 113 144 194 241 316 374 435
#     4  12  23  43  77 108 147 190 245 312 381 431
#     4  12  28  47  76 109 147 193 258 301 375 455
#     4  12  28  50  71 106 156 199 249 307 372 450
#     4  12  28  47  76 110 147 193 253 308 379 442
#     4  12  25  43  72 109 151 184 245 307 378 438
#     4  12  29  52  73 108 153 205 248 302 379 450
#
# _framework density 22.317720000000001
#
# number of rings (size 3 to 8) (size 9 to 14) (size 15 to 20)
#    0.000    0.000    6.250    2.250    7.000    3.000 
#    0.000    0.000    0.000    0.000    0.000    0.000 
#    0.000    0.000    0.000    0.000    0.000    0.000 
#
# Total GULP energy -198316.997005 kJ/mol
# GULP energy per Si atom -12394.812313 kJ/mol
# Density = 2.226692 g / cm^3
# Si number density = 22.317720 Si / 1000 Ang^3
#
#
#
# Elastic Constant Matrix: (Units=GPa)
#
#
# Indices 1 2 3 4 5 6 
#
# 1 87.6939 31.0947 51.8936 0.0000 14.1396 0.0000
# 2 31.0947 104.4369 41.5962 0.0000 9.8044 0.0000
# 3 51.8936 41.5962 117.6389 0.0000 -0.6524 0.0000
# 4 0.0000 0.0000 0.0000 26.2543 0.0000 2.6587
# 5 14.1396 9.8044 -0.6524 0.0000 43.5273 0.0000
# 6 0.0000 0.0000 0.0000 2.6587 0.0000 42.5503
#
#
#
# Elastic Compliance Matrix: (Units=1/GPa)
#
#
# Indices 1 2 3 4 5 6 
#
# 1 0.016948 -0.001826 -0.006859 0.000000 -0.005197 0.000000
# 2 -0.001826 0.011636 -0.003321 0.000000 -0.002078 0.000000
# 3 -0.006859 -0.003321 0.012718 0.000000 0.003167 0.000000
# 4 0.000000 0.000000 0.000000 0.038332 0.000000 -0.002395
# 5 -0.005197 -0.002078 0.003167 0.000000 0.025178 0.000000
# 6 0.000000 0.000000 0.000000 -0.002395 0.000000 0.023651
#
#
# Mechanical properties :
#
#
# Convention : Reuss Voigt Hill
#
# Bulk Modulus (GPa) = 57.83522 62.10431 59.96977
# Shear Modulus (GPa) = 31.59797 34.81206 33.20502
#
# Velocity S-wave (km/s) = 3.76683 3.95376 3.86143
# Velocity P-wave (km/s) = 6.69995 6.98074 6.84179
#
# Compressibility (1/GPa) = 0.01729050
#
# Stress axis : x y z
#
# Youngs Moduli (GPa) = 59.00490 85.93687 78.62844
#
# Poissons Ratio (x) = 0.15693 0.53933
# Poissons Ratio (y) = 0.10775 0.26109
# Poissons Ratio (z) = 0.40473 0.28536
#
# Static dielectric constant tensor:
#      x y z
#    x 4.387100 0.000000 -0.073960 
#    y 0.000000 4.393660 0.000000 
#    z -0.073960 0.000000 4.127680 
# 
# 
# High freq. dielectric constant tensor:
#      x y z
#    x 1.894870 0.000000 -0.003330 
#    y 0.000000 1.892850 0.000000 
#    z -0.003330 0.000000 1.876780 
# 
# From -- ./inp_files/11025.got.cif
#   From: 2010.03.12/outbox.cif.g09.slc.cpg/sg4_6_cif.got.tgz:11025.got - 2010.03.31 09:31:35.
