data_PCOD8047444
_publ_section_title
;
Structure prediction by ZEFSAII (Michael W. Deem and Ramdas Pophale) SiO2 
 PCOD8047444
Probable space group: P 21
;
_chemical_formula_sum "Si O2"
_cell_formula_units_Z 12
_cell_length_a 16.552543
_cell_length_b 4.948924
_cell_length_c 9.328323
_cell_angle_alpha 90.000000
_cell_angle_beta 40.683093
_cell_angle_gamma 90.000000
_cell_volume 498.130560
_symmetry_space_group_name_H-M "P 21"
_symmetry_group_IT_number 4
_symmetry_cell_setting 'monoclinic'
loop_
_space_group_symop_operation_xyz
x,y,z
-x,1/2+y,-z
loop_
_atom_site_type_symbol
_atom_site_label
_atom_site_fract_x
_atom_site_fract_y
_atom_site_fract_z
Si Si1 0.678176 0.356390 0.524155
Si Si2 0.395489 0.363530 0.211239
Si Si3 0.661794 0.486060 0.939441
Si Si4 0.481373 0.074860 0.599566
Si Si5 0.058524 0.918606 0.499561
Si Si6 0.049268 0.922776 0.856278
O O1 0.669124 0.662397 0.589661
O O2 0.583712 0.282121 0.526267
O O3 0.816272 0.307985 0.284270
O O4 0.649959 0.164233 0.697356
O O5 0.349749 0.287007 0.113421
O O6 0.544589 0.320372 0.029401
O O7 0.795351 0.357356 0.725463
O O8 0.639194 0.523765 0.139885
O O9 0.447831 0.285644 0.516958
O O10 0.029720 0.931629 0.709060
O O11 0.975111 0.697430 0.532890
O O12 0.958446 0.718323 0.061389
#
# Coordination Sequence:
#
# PCOD8047444 Si02
#       6
#     2   2   2   2   2   2
#     4  11  24  45  72 102 141 181 246 304 366 442
#     4  11  23  42  76 109 126 177 244 320 352 417
#     4  11  25  45  76 104 144 185 250 297 379 437
#     4  11  25  42  65 105 147 183 225 300 386 445
#     4  12  30  50  75 110 156 206 254 314 379 459
#     4  12  27  50  76 106 146 204 265 311 372 448
#
# _framework density 24.090070000000001
#
# number of rings (size 3 to 8) (size 9 to 14) (size 15 to 20)
#    0.000    0.667    1.667    6.000    2.333    9.333 
#    0.000    0.000    0.000    0.000    0.000    0.000 
#    0.000    0.000    0.000    0.000    0.000    0.000 
#
# Total GULP energy -148689.839045 kJ/mol
# GULP energy per Si atom -12390.819920 kJ/mol
# Density = 2.403524 g / cm^3
# Si number density = 24.090070 Si / 1000 Ang^3
#
#
#
# Elastic Constant Matrix: (Units=GPa)
#
#
# Indices 1 2 3 4 5 6 
#
# 1 68.2376 14.6914 44.7900 0.0000 -3.1033 0.0000
# 2 14.6914 70.9587 25.8163 0.0000 11.8592 0.0000
# 3 44.7900 25.8163 137.9489 0.0000 11.7798 0.0000
# 4 0.0000 0.0000 0.0000 31.7030 0.0000 3.9992
# 5 -3.1033 11.8592 11.7798 0.0000 50.2448 0.0000
# 6 0.0000 0.0000 0.0000 3.9992 0.0000 43.3540
#
#
#
# Elastic Compliance Matrix: (Units=1/GPa)
#
#
# Indices 1 2 3 4 5 6 
#
# 1 0.019303 -0.002304 -0.006107 0.000000 0.003168 0.000000
# 2 -0.002304 0.015843 -0.001924 0.000000 -0.003431 0.000000
# 3 -0.006107 -0.001924 0.009781 0.000000 -0.002216 0.000000
# 4 0.000000 0.000000 0.000000 0.031914 0.000000 -0.002944
# 5 0.003168 -0.003431 -0.002216 0.000000 0.021428 0.000000
# 6 0.000000 0.000000 0.000000 -0.002944 0.000000 0.023337
#
#
# Mechanical properties :
#
#
# Convention : Reuss Voigt Hill
#
# Bulk Modulus (GPa) = 41.22388 49.74895 45.48642
# Shear Modulus (GPa) = 33.25306 37.85020 35.55163
#
# Velocity S-wave (km/s) = 3.71936 3.96813 3.84576
# Velocity P-wave (km/s) = 5.96610 6.45684 6.21632
#
# Compressibility (1/GPa) = 0.02425778
#
# Stress axis : x y z
#
# Youngs Moduli (GPa) = 51.80483 63.11908 102.23773
#
# Poissons Ratio (x) = 0.14544 0.62434
# Poissons Ratio (y) = 0.11937 0.19669
# Poissons Ratio (z) = 0.31636 0.12143
#
# Static dielectric constant tensor:
#      x y z
#    x 4.505600 0.000000 0.192330 
#    y 0.000000 4.522900 0.000000 
#    z 0.192330 0.000000 4.450740 
# 
# 
# High freq. dielectric constant tensor:
#      x y z
#    x 1.947680 0.000000 0.014660 
#    y 0.000000 1.974440 0.000000 
#    z 0.014660 0.000000 1.968870 
# 
# From -- ./inp_files/9332.got.cif
#   From: 2010.03.12/outbox.cif.g09.slc.cpg/sg4_5_cif.got.tgz:9332.got - 2010.03.31 09:31:35.
