data_PCOD8047541
_publ_section_title
;
Structure prediction by ZEFSAII (Michael W. Deem and Ramdas Pophale) SiO2 
 PCOD8047541
Probable space group: P 21
;
_chemical_formula_sum "Si O2"
_cell_formula_units_Z 14
_cell_length_a 11.567914
_cell_length_b 7.450758
_cell_length_c 5.817738
_cell_angle_alpha 90.000000
_cell_angle_beta 86.626308
_cell_angle_gamma 90.000000
_cell_volume 500.560254
_symmetry_space_group_name_H-M "P 21"
_symmetry_group_IT_number 4
_symmetry_cell_setting 'monoclinic'
loop_
_space_group_symop_operation_xyz
x,y,z
-x,1/2+y,-z
loop_
_atom_site_type_symbol
_atom_site_label
_atom_site_fract_x
_atom_site_fract_y
_atom_site_fract_z
Si Si1 0.361097 0.587870 0.091871
Si Si2 0.888648 0.454254 0.754705
Si Si3 0.770074 0.844323 0.203667
Si Si4 0.466974 0.832983 0.733240
Si Si5 0.664866 0.567090 0.563999
Si Si6 0.019487 0.313762 0.148984
Si Si7 0.137203 0.596709 0.427765
O O1 0.340635 0.424062 0.915340
O O2 0.392018 0.773837 0.962054
O O3 0.468607 0.522552 0.234026
O O4 0.246662 0.619580 0.248497
O O5 0.758357 0.532074 0.755024
O O6 0.907234 0.306183 0.544834
O O7 0.909331 0.352018 0.996951
O O8 0.985564 0.617206 0.715950
O O9 0.731067 0.678438 0.361449
O O10 0.868179 0.773876 0.020807
O O11 0.821839 0.009290 0.342054
O O12 0.557596 0.675792 0.675744
O O13 0.380459 0.875552 0.530215
O O14 0.038699 0.480164 0.314452
#
# Coordination Sequence:
#
# PCOD8047541 Si02
#       7
#     2   2   2   2   2   2   2
#     4  11  25  43  70 102 140 196 243 302 366 440
#     4  12  25  47  76 109 148 196 240 314 366 455
#     4  11  23  48  71 107 148 190 245 314 365 454
#     4  12  26  44  71 107 149 197 252 307 369 439
#     4  12  26  44  74 107 151 195 251 308 369 442
#     4  11  25  47  75 109 145 191 244 302 385 441
#     4  11  24  47  71 105 151 183 247 305 364 449
#
# _framework density 27.968662999999999
#
# number of rings (size 3 to 8) (size 9 to 14) (size 15 to 20)
#    0.000    0.571    4.286    3.429    6.000    1.143 
#    0.000    0.000    0.000    0.000    0.000    0.000 
#    0.000    0.000    0.000    0.000    0.000    0.000 
#
# Total GULP energy -173679.841744 kJ/mol
# GULP energy per Si atom -12405.702982 kJ/mol
# Density = 2.790500 g / cm^3
# Si number density = 27.968663 Si / 1000 Ang^3
#
#
#
# Elastic Constant Matrix: (Units=GPa)
#
#
# Indices 1 2 3 4 5 6 
#
# 1 128.5612 49.8706 34.4144 0.0000 17.2522 0.0000
# 2 49.8706 158.4611 27.4827 0.0000 6.4265 0.0000
# 3 34.4144 27.4827 56.1378 0.0000 24.5713 0.0000
# 4 0.0000 0.0000 0.0000 68.1793 0.0000 15.2323
# 5 17.2522 6.4265 24.5713 0.0000 53.2848 0.0000
# 6 0.0000 0.0000 0.0000 15.2323 0.0000 47.5031
#
#
#
# Elastic Compliance Matrix: (Units=1/GPa)
#
#
# Indices 1 2 3 4 5 6 
#
# 1 0.010034 -0.002317 -0.004657 0.000000 -0.000822 0.000000
# 2 -0.002317 0.007466 -0.002718 0.000000 0.001103 0.000000
# 3 -0.004657 -0.002718 0.026555 0.000000 -0.010410 0.000000
# 4 0.000000 0.000000 0.000000 0.015799 0.000000 -0.005066
# 5 -0.000822 0.001103 -0.010410 0.000000 0.023700 0.000000
# 6 0.000000 0.000000 0.000000 -0.005066 0.000000 0.022676
#
#
# Mechanical properties :
#
#
# Convention : Reuss Voigt Hill
#
# Bulk Modulus (GPa) = 40.53173 62.96618 51.74895
# Shear Modulus (GPa) = 37.35835 49.21958 43.28896
#
# Velocity S-wave (km/s) = 3.65872 4.19956 3.93843
# Velocity P-wave (km/s) = 5.68960 6.78801 6.26293
#
# Compressibility (1/GPa) = 0.02467203
#
# Stress axis : x y z
#
# Youngs Moduli (GPa) = 99.65988 133.93220 37.65733
#
# Poissons Ratio (x) = 0.31030 0.17539
# Poissons Ratio (y) = 0.23090 0.10234
# Poissons Ratio (z) = 0.46416 0.36398
#
# Static dielectric constant tensor:
#      x y z
#    x 5.240920 0.000000 0.116540 
#    y 0.000000 5.449170 0.000000 
#    z 0.116540 0.000000 5.230440 
# 
# 
# High freq. dielectric constant tensor:
#      x y z
#    x 2.148230 0.000000 0.000520 
#    y 0.000000 2.147730 0.000000 
#    z 0.000520 0.000000 2.136940 
# 
# From -- ./inp_files/2493.got.cif
#   From: 2010.03.12/outbox.cif.g09.slc.cpg/sg4_2_cif.got.tgz:2493.got - 2010.03.31 09:31:35.
