data_PCOD8047520
_publ_section_title
;
Structure prediction by ZEFSAII (Michael W. Deem and Ramdas Pophale) SiO2 
 PCOD8047520
Probable space group: P 21
;
_chemical_formula_sum "Si O2"
_cell_formula_units_Z 16
_cell_length_a 5.422434
_cell_length_b 10.143974
_cell_length_c 12.016352
_cell_angle_alpha 90.000000
_cell_angle_beta 103.509151
_cell_angle_gamma 90.000000
_cell_volume 642.672773
_symmetry_space_group_name_H-M "P 21"
_symmetry_group_IT_number 4
_symmetry_cell_setting 'monoclinic'
loop_
_space_group_symop_operation_xyz
x,y,z
-x,1/2+y,-z
loop_
_atom_site_type_symbol
_atom_site_label
_atom_site_fract_x
_atom_site_fract_y
_atom_site_fract_z
Si Si1 0.757608 0.529490 0.987071
Si Si2 0.031009 0.153454 0.192765
Si Si3 0.544558 0.890902 0.418035
Si Si4 0.781486 0.145121 0.385005
Si Si5 0.405172 0.362040 0.323604
Si Si6 0.823267 0.093785 0.812765
Si Si7 0.988257 0.244651 0.626175
Si Si8 0.603619 0.247070 0.981781
O O1 0.566198 0.406027 0.983199
O O2 0.011142 0.503846 0.085552
O O3 0.815354 0.543778 0.861537
O O4 0.654992 0.670003 0.020668
O O5 0.194126 0.280541 0.237398
O O6 0.940043 0.086593 0.298434
O O7 0.795018 0.200431 0.095849
O O8 0.660600 0.873831 0.553368
O O9 0.258484 0.838300 0.382692
O O10 0.743914 0.820358 0.355276
O O11 0.546368 0.046543 0.387000
O O12 0.675949 0.289462 0.338803
O O13 0.957633 0.155966 0.512158
O O14 0.403363 0.505710 0.265186
O O15 0.003520 0.149951 0.734347
O O16 0.699281 0.213463 0.867989
#
# Coordination Sequence:
#
# PCOD8047520 Si02
#       8
#     2   2   2   2   2   2   2   2
#     4  11  27  48  74 108 147 197 257 317 386 459
#     4  11  24  46  71 101 146 190 257 303 386 450
#     4  11  26  46  74 111 161 193 261 305 384 454
#     4  11  25  44  75 108 146 201 245 320 374 466
#     4  11  23  46  72 106 145 201 244 305 382 460
#     4  11  26  47  75 102 150 194 252 310 388 457
#     4  11  26  47  72 117 150 200 251 315 381 458
#     4  11  27  46  75 107 143 196 253 323 377 456
#
# _framework density 24.896031000000001
#
# number of rings (size 3 to 8) (size 9 to 14) (size 15 to 20)
#    0.000    1.000    3.750    0.750    8.750    2.000 
#    0.000    0.000    0.000    0.000    0.000    0.000 
#    0.000    0.000    0.000    0.000    0.000    0.000 
#
# Total GULP energy -198397.646931 kJ/mol
# GULP energy per Si atom -12399.852933 kJ/mol
# Density = 2.483937 g / cm^3
# Si number density = 24.896031 Si / 1000 Ang^3
#
#
#
# Elastic Constant Matrix: (Units=GPa)
#
#
# Indices 1 2 3 4 5 6 
#
# 1 77.8288 18.5373 22.2998 0.0000 -22.0861 0.0000
# 2 18.5373 115.4907 27.9519 0.0000 -17.5872 0.0000
# 3 22.2998 27.9519 120.6497 0.0000 -31.2635 0.0000
# 4 0.0000 0.0000 0.0000 26.8116 0.0000 1.4033
# 5 -22.0861 -17.5872 -31.2635 0.0000 37.7148 0.0000
# 6 0.0000 0.0000 0.0000 1.4033 0.0000 36.5734
#
#
#
# Elastic Compliance Matrix: (Units=1/GPa)
#
#
# Indices 1 2 3 4 5 6 
#
# 1 0.015584 -0.001135 -0.000496 0.000000 0.008186 0.000000
# 2 -0.001135 0.009570 -0.001303 0.000000 0.002718 0.000000
# 3 -0.000496 -0.001303 0.010761 0.000000 0.008022 0.000000
# 4 0.000000 0.000000 0.000000 0.037372 0.000000 -0.001434
# 5 0.008186 0.002718 0.008022 0.000000 0.039225 0.000000
# 6 0.000000 0.000000 0.000000 -0.001434 0.000000 0.027397
#
#
# Mechanical properties :
#
#
# Convention : Reuss Voigt Hill
#
# Bulk Modulus (GPa) = 33.28196 50.17192 41.72694
# Shear Modulus (GPa) = 32.09367 36.56531 34.32949
#
# Velocity S-wave (km/s) = 3.59431 3.83655 3.71740
# Velocity P-wave (km/s) = 5.53379 6.31045 5.93484
#
# Compressibility (1/GPa) = 0.03004631
#
# Stress axis : x y z
#
# Youngs Moduli (GPa) = 64.16797 104.49168 92.93035
#
# Poissons Ratio (x) = 0.11857 0.04614
# Poissons Ratio (y) = 0.07281 0.12110
# Poissons Ratio (z) = 0.03186 0.13617
#
# Static dielectric constant tensor:
#      x y z
#    x 4.163720 0.000000 -0.178900 
#    y 0.000000 4.350160 0.000000 
#    z -0.178900 0.000000 4.751270 
# 
# 
# High freq. dielectric constant tensor:
#      x y z
#    x 1.973450 0.000000 -0.004900 
#    y 0.000000 1.982710 0.000000 
#    z -0.004900 0.000000 2.014260 
# 
# From -- ./inp_files/2572.got.cif
#   From: 2010.03.12/outbox.cif.g09.slc.cpg/sg4_2_cif.got.tgz:2572.got - 2010.03.31 09:31:35.
