data_PCOD8047836
_publ_section_title
;
Structure prediction by ZEFSAII (Michael W. Deem and Ramdas Pophale) SiO2 
 PCOD8047836
Probable space group: P 21
;
_chemical_formula_sum "Si O2"
_cell_formula_units_Z 14
_cell_length_a 28.502106
_cell_length_b 4.925448
_cell_length_c 8.439280
_cell_angle_alpha 90.000000
_cell_angle_beta 147.788192
_cell_angle_gamma 90.000000
_cell_volume 631.533754
_symmetry_space_group_name_H-M "P 21"
_symmetry_group_IT_number 4
_symmetry_cell_setting 'monoclinic'
loop_
_space_group_symop_operation_xyz
x,y,z
-x,1/2+y,-z
loop_
_atom_site_type_symbol
_atom_site_label
_atom_site_fract_x
_atom_site_fract_y
_atom_site_fract_z
Si Si1 0.761752 0.788580 0.302890
Si Si2 0.501421 0.398614 0.613887
Si Si3 0.688777 0.292804 0.258206
Si Si4 0.319106 0.471001 0.250800
Si Si5 0.048999 0.049489 0.575555
Si Si6 0.748506 0.478626 0.770038
Si Si7 0.044395 0.161230 0.193267
O O1 0.724172 0.486776 0.220057
O O2 0.866154 0.784539 0.620749
O O3 0.720682 0.987807 0.316645
O O4 0.739645 0.886225 0.064850
O O5 0.527911 0.669806 0.594955
O O6 0.422154 0.460788 0.506644
O O7 0.582839 0.297711 0.952708
O O8 0.726514 0.387748 0.531600
O O9 0.294808 0.776557 0.227013
O O10 0.294693 0.273364 0.326346
O O11 0.047022 0.145987 0.389533
O O12 0.010745 0.283089 0.578998
O O13 0.147067 0.982750 0.911442
O O14 0.967830 0.364699 0.918305
#
# Coordination Sequence:
#
# PCOD8047836 Si02
#       7
#     2   2   2   2   2   2   2
#     4  12  25  46  72 101 139 186 230 287 343 415
#     4  12  23  43  72 108 137 180 238 287 343 403
#     4  12  26  45  72 106 141 182 234 286 344 415
#     4  12  24  46  73  98 143 186 225 286 347 419
#     4  12  28  48  70 100 143 185 229 293 355 416
#     4  12  28  46  68 105 142 186 227 283 361 415
#     4  12  28  46  71 106 137 181 241 292 343 413
#
# _framework density 22.168251000000001
#
# number of rings (size 3 to 8) (size 9 to 14) (size 15 to 20)
#    0.000    0.000    4.286    5.143    8.000    1.143 
#    0.000    0.000    0.000    0.000    0.000    0.000 
#    0.000    0.000    0.000    0.000    0.000    0.000 
#
# Total GULP energy -173738.733492 kJ/mol
# GULP energy per Si atom -12409.909535 kJ/mol
# Density = 2.211780 g / cm^3
# Si number density = 22.168251 Si / 1000 Ang^3
#
#
#
# Elastic Constant Matrix: (Units=GPa)
#
#
# Indices 1 2 3 4 5 6 
#
# 1 84.5083 27.3077 52.8956 0.0000 21.4343 0.0000
# 2 27.3077 89.7782 23.6791 0.0000 17.8987 0.0000
# 3 52.8956 23.6791 125.6932 0.0000 15.5919 0.0000
# 4 0.0000 0.0000 0.0000 32.1454 0.0000 4.8772
# 5 21.4343 17.8987 15.5919 0.0000 46.7797 0.0000
# 6 0.0000 0.0000 0.0000 4.8772 0.0000 50.0381
#
#
#
# Elastic Compliance Matrix: (Units=1/GPa)
#
#
# Indices 1 2 3 4 5 6 
#
# 1 0.018048 -0.002782 -0.006444 0.000000 -0.005057 0.000000
# 2 -0.002782 0.012878 -0.000837 0.000000 -0.003374 0.000000
# 3 -0.006444 -0.000837 0.010869 0.000000 -0.000350 0.000000
# 4 0.000000 0.000000 0.000000 0.031576 0.000000 -0.003078
# 5 -0.005057 -0.003374 -0.000350 0.000000 0.025102 0.000000
# 6 0.000000 0.000000 0.000000 -0.003078 0.000000 0.020285
#
#
# Mechanical properties :
#
#
# Convention : Reuss Voigt Hill
#
# Bulk Modulus (GPa) = 46.14700 56.41604 51.28152
# Shear Modulus (GPa) = 34.22196 38.86581 36.54388
#
# Velocity S-wave (km/s) = 3.93330 4.19169 4.06455
# Velocity P-wave (km/s) = 6.44125 6.99509 6.72388
#
# Compressibility (1/GPa) = 0.02166988
#
# Stress axis : x y z
#
# Youngs Moduli (GPa) = 55.40746 77.65147 92.00761
#
# Poissons Ratio (x) = 0.21601 0.59288
# Poissons Ratio (y) = 0.15413 0.07700
# Poissons Ratio (z) = 0.35703 0.06498
#
# Static dielectric constant tensor:
#      x y z
#    x 4.005940 0.000000 0.163390 
#    y 0.000000 4.541160 0.000000 
#    z 0.163390 0.000000 4.017320 
# 
# 
# High freq. dielectric constant tensor:
#      x y z
#    x 1.876140 0.000000 0.008510 
#    y 0.000000 1.893250 0.000000 
#    z 0.008510 0.000000 1.881020 
# 
# From -- ./inp_files/10185.got.cif
#   From: 2010.03.12/outbox.cif.g09.slc.cpg/sg4_6_cif.got.tgz:10185.got - 2010.03.31 09:31:35.
