data_PCOD8047612
_publ_section_title
;
Structure prediction by ZEFSAII (Michael W. Deem and Ramdas Pophale) SiO2 
 PCOD8047612
Probable space group: P 21
;
_chemical_formula_sum "Si O2"
_cell_formula_units_Z 16
_cell_length_a 9.443333
_cell_length_b 5.260393
_cell_length_c 21.051935
_cell_angle_alpha 90.000000
_cell_angle_beta 139.964943
_cell_angle_gamma 90.000000
_cell_volume 672.697011
_symmetry_space_group_name_H-M "P 21"
_symmetry_group_IT_number 4
_symmetry_cell_setting 'monoclinic'
loop_
_space_group_symop_operation_xyz
x,y,z
-x,1/2+y,-z
loop_
_atom_site_type_symbol
_atom_site_label
_atom_site_fract_x
_atom_site_fract_y
_atom_site_fract_z
Si Si1 0.894267 0.619380 0.809607
Si Si2 0.626355 0.037828 0.062402
Si Si3 0.520422 0.273272 0.666361
Si Si4 0.669182 0.889104 0.619829
Si Si5 0.248821 0.160868 0.684712
Si Si6 0.113231 0.318452 0.061957
Si Si7 0.401382 0.670635 0.803633
Si Si8 0.757714 0.089731 0.519809
O O1 0.712430 0.417390 0.771174
O O2 0.819029 0.704211 0.713611
O O3 0.885180 0.839939 0.860307
O O4 0.137534 0.501220 0.890074
O O5 0.667748 0.106617 0.149087
O O6 0.499129 0.269915 0.984979
O O7 0.391060 0.087305 0.670476
O O8 0.329854 0.452552 0.573018
O O9 0.647624 0.147804 0.651432
O O10 0.418987 0.801999 0.521179
O O11 0.788196 0.914601 0.592921
O O12 0.346123 0.426435 0.742375
O O13 0.992159 0.209472 0.581778
O O14 0.267059 0.922181 0.737793
O O15 0.343041 0.236464 0.110895
O O16 0.057361 0.595735 0.015688
#
# Coordination Sequence:
#
# PCOD8047612 Si02
#       8
#     2   2   2   2   2   2   2   2
#     4  11  26  45  73 104 140 192 235 305 362 431
#     4  12  27  47  74 109 145 187 243 305 373 436
#     4  11  26  45  71 102 147 190 249 292 363 438
#     4  11  24  45  71 103 145 190 251 290 363 435
#     4  12  28  45  74 104 151 190 241 300 359 432
#     4  12  25  45  74 101 139 185 238 298 360 433
#     4  12  26  48  69 108 144 188 243 295 366 436
#     4  11  26  44  72 107 143 198 242 303 356 429
#
# _framework density 23.784853999999999
#
# number of rings (size 3 to 8) (size 9 to 14) (size 15 to 20)
#    0.000    0.500    2.500    4.500   10.500    0.000 
#    0.000    0.000    0.000    0.000    0.000    0.000 
#    0.000    0.000    0.000    0.000    0.000    0.000 
#
# Total GULP energy -198410.249999 kJ/mol
# GULP energy per Si atom -12400.640625 kJ/mol
# Density = 2.373072 g / cm^3
# Si number density = 23.784854 Si / 1000 Ang^3
#
#
#
# Elastic Constant Matrix: (Units=GPa)
#
#
# Indices 1 2 3 4 5 6 
#
# 1 105.5497 -3.2501 37.2690 0.0000 11.2984 0.0000
# 2 -3.2501 89.1207 29.1505 0.0000 10.1038 0.0000
# 3 37.2690 29.1505 104.5962 0.0000 17.1760 0.0000
# 4 0.0000 0.0000 0.0000 21.0093 0.0000 0.3646
# 5 11.2984 10.1038 17.1760 0.0000 40.4399 0.0000
# 6 0.0000 0.0000 0.0000 0.3646 0.0000 31.5773
#
#
#
# Elastic Compliance Matrix: (Units=1/GPa)
#
#
# Indices 1 2 3 4 5 6 
#
# 1 0.011238 0.002012 -0.004264 0.000000 -0.001831 0.000000
# 2 0.002012 0.012822 -0.003947 0.000000 -0.002089 0.000000
# 3 -0.004264 -0.003947 0.012709 0.000000 -0.003220 0.000000
# 4 0.000000 0.000000 0.000000 0.047607 0.000000 -0.000550
# 5 -0.001831 -0.002089 -0.003220 0.000000 0.027129 0.000000
# 6 0.000000 0.000000 0.000000 -0.000550 0.000000 0.031675
#
#
# Mechanical properties :
#
#
# Convention : Reuss Voigt Hill
#
# Bulk Modulus (GPa) = 41.03389 47.28949 44.16169
# Shear Modulus (GPa) = 30.54318 34.34512 32.44415
#
# Velocity S-wave (km/s) = 3.58738 3.80411 3.69734
# Velocity P-wave (km/s) = 5.86930 6.26262 6.06914
#
# Compressibility (1/GPa) = 0.02437010
#
# Stress axis : x y z
#
# Youngs Moduli (GPa) = 88.98460 77.99012 78.68490
#
# Poissons Ratio (x) = -0.15694 0.33554
# Poissons Ratio (y) = -0.17906 0.31060
# Poissons Ratio (z) = 0.37946 0.30786
#
# Static dielectric constant tensor:
#      x y z
#    x 4.305400 0.000000 -0.073290 
#    y 0.000000 4.210940 0.000000 
#    z -0.073290 0.000000 4.491290 
# 
# 
# High freq. dielectric constant tensor:
#      x y z
#    x 1.953060 0.000000 -0.000190 
#    y 0.000000 1.933940 0.000000 
#    z -0.000190 0.000000 1.958740 
# 
# From -- ./inp_files/7303.got.cif
#   From: 2010.03.12/outbox.cif.g09.slc.cpg/sg4_4_cif.got.tgz:7303.got - 2010.03.31 09:31:35.
