data_PCOD8047238
_publ_section_title
;
Structure prediction by ZEFSAII (Michael W. Deem and Ramdas Pophale) SiO2 
 PCOD8047238
Probable space group: P 21
;
_chemical_formula_sum "Si O2"
_cell_formula_units_Z 16
_cell_length_a 9.118408
_cell_length_b 11.665010
_cell_length_c 9.091686
_cell_angle_alpha 90.000000
_cell_angle_beta 48.589409
_cell_angle_gamma 90.000000
_cell_volume 725.276074
_symmetry_space_group_name_H-M "P 21"
_symmetry_group_IT_number 4
_symmetry_cell_setting 'monoclinic'
loop_
_space_group_symop_operation_xyz
x,y,z
-x,1/2+y,-z
loop_
_atom_site_type_symbol
_atom_site_label
_atom_site_fract_x
_atom_site_fract_y
_atom_site_fract_z
Si Si1 0.754207 0.095210 0.532029
Si Si2 0.324589 0.998746 0.168627
Si Si3 0.284930 0.580095 0.128887
Si Si4 0.367040 0.796846 0.598566
Si Si5 0.866380 0.721650 0.644414
Si Si6 0.787601 0.309591 0.975062
Si Si7 0.206501 0.343937 0.607238
Si Si8 0.927983 0.431487 0.384347
O O1 0.626227 0.068586 0.761919
O O2 0.662381 0.179453 0.472478
O O3 0.931428 0.153576 0.503710
O O4 0.820578 0.977429 0.413975
O O5 0.286584 0.929510 0.043462
O O6 0.184328 0.946517 0.386898
O O7 0.281206 0.135067 0.176202
O O8 0.554993 0.999718 0.062476
O O9 0.293139 0.711581 0.077262
O O10 0.060108 0.539271 0.249701
O O11 0.594442 0.828412 0.433827
O O12 0.237268 0.902430 0.625190
O O13 0.305133 0.781628 0.806888
O O14 0.785880 0.761065 0.539493
O O15 0.908377 0.832382 0.715154
O O16 0.023518 0.309702 0.830925
#
# Coordination Sequence:
#
# PCOD8047238 Si02
#       8
#     2   2   2   2   2   2   2   2
#     4  11  22  47  68 101 143 190 237 303 357 422
#     4  12  24  41  77 104 133 187 250 297 350 433
#     4  12  24  42  76 102 137 184 250 296 352 427
#     4  11  29  43  66 104 151 186 233 289 377 425
#     4  11  19  44  74  97 136 184 238 298 355 413
#     4  12  24  44  66 107 140 186 237 296 354 434
#     4  12  22  45  73  97 146 187 236 303 364 419
#     4  11  24  48  66 102 140 186 237 304 355 427
#
# _framework density 22.060566000000001
#
# number of rings (size 3 to 8) (size 9 to 14) (size 15 to 20)
#    0.000    0.500    6.250    2.250    1.750    5.000 
#    4.500    0.000    0.000    0.000    0.000    0.000 
#    0.000    0.000    0.000    0.000    0.000    0.000 
#
# Total GULP energy -198289.504368 kJ/mol
# GULP energy per Si atom -12393.094023 kJ/mol
# Density = 2.201036 g / cm^3
# Si number density = 22.060566 Si / 1000 Ang^3
#
#
#
# Elastic Constant Matrix: (Units=GPa)
#
#
# Indices 1 2 3 4 5 6 
#
# 1 105.9106 37.9304 40.7776 0.0000 -22.0196 0.0000
# 2 37.9304 112.4416 32.9564 0.0000 -1.9573 0.0000
# 3 40.7776 32.9564 77.8603 0.0000 -16.0778 0.0000
# 4 0.0000 0.0000 0.0000 25.5504 0.0000 0.9845
# 5 -22.0196 -1.9573 -16.0778 0.0000 29.1936 0.0000
# 6 0.0000 0.0000 0.0000 0.9845 0.0000 31.4620
#
#
#
# Elastic Compliance Matrix: (Units=1/GPa)
#
#
# Indices 1 2 3 4 5 6 
#
# 1 0.013912 -0.003310 -0.004247 0.000000 0.007932 0.000000
# 2 -0.003310 0.011035 -0.003724 0.000000 -0.003808 0.000000
# 3 -0.004247 -0.003724 0.017975 0.000000 0.006447 0.000000
# 4 0.000000 0.000000 0.000000 0.039186 0.000000 -0.001226
# 5 0.007932 -0.003808 0.006447 0.000000 0.043532 0.000000
# 6 0.000000 0.000000 0.000000 -0.001226 0.000000 0.031823
#
#
# Mechanical properties :
#
#
# Convention : Reuss Voigt Hill
#
# Bulk Modulus (GPa) = 49.11398 57.72682 53.42040
# Shear Modulus (GPa) = 26.76510 29.54439 28.15475
#
# Velocity S-wave (km/s) = 3.48696 3.66353 3.57634
# Velocity P-wave (km/s) = 6.20672 6.64225 6.42818
#
# Compressibility (1/GPa) = 0.02036080
#
# Stress axis : x y z
#
# Youngs Moduli (GPa) = 71.88201 90.61901 55.63269
#
# Poissons Ratio (x) = 0.29995 0.23627
# Poissons Ratio (y) = 0.23793 0.20715
# Poissons Ratio (z) = 0.30528 0.33743
#
# Static dielectric constant tensor:
#      x y z
#    x 3.970640 0.000000 -0.252560 
#    y 0.000000 4.374970 0.000000 
#    z -0.252560 0.000000 3.971790 
# 
# 
# High freq. dielectric constant tensor:
#      x y z
#    x 1.857710 0.000000 -0.021670 
#    y 0.000000 1.883930 0.000000 
#    z -0.021670 0.000000 1.863430 
# 
# From -- ./inp_files/6383.got.cif
#   From: 2010.03.12/outbox.cif.g09.slc.cpg/sg4_4_cif.got.tgz:6383.got - 2010.03.31 09:31:35.
