data_PCOD8047997
_publ_section_title
;
Structure prediction by ZEFSAII (Michael W. Deem and Ramdas Pophale) SiO2 
 PCOD8047997
Probable space group: P 21
;
_chemical_formula_sum "Si O2"
_cell_formula_units_Z 16
_cell_length_a 13.074164
_cell_length_b 10.468289
_cell_length_c 13.176320
_cell_angle_alpha 90.000000
_cell_angle_beta 20.880845
_cell_angle_gamma 90.000000
_cell_volume 642.765748
_symmetry_space_group_name_H-M "P 21"
_symmetry_group_IT_number 4
_symmetry_cell_setting 'monoclinic'
loop_
_space_group_symop_operation_xyz
x,y,z
-x,1/2+y,-z
loop_
_atom_site_type_symbol
_atom_site_label
_atom_site_fract_x
_atom_site_fract_y
_atom_site_fract_z
Si Si1 0.940089 0.538190 0.478962
Si Si2 0.250733 0.841357 0.502841
Si Si3 0.471686 0.999933 0.974218
Si Si4 0.236066 0.162920 0.012503
Si Si5 0.753174 0.269890 0.915696
Si Si6 0.194933 0.519040 0.738211
Si Si7 0.760748 0.540095 0.312537
Si Si8 0.285927 0.286689 0.522719
O O1 0.189833 0.487402 0.321278
O O2 0.089367 0.641670 0.269143
O O3 0.752773 0.436286 0.589529
O O4 0.688561 0.584121 0.789796
O O5 0.501221 0.737743 0.281134
O O6 0.288705 0.918548 0.570854
O O7 0.949504 0.770739 0.760521
O O8 0.392742 0.060418 0.939055
O O9 0.376217 0.850728 0.057751
O O10 0.015945 0.099196 0.137549
O O11 0.017544 0.352398 0.713997
O O12 0.530946 0.246497 0.214722
O O13 0.478116 0.592192 0.515056
O O14 0.357815 0.396074 0.537511
O O15 0.012093 0.488463 0.007469
O O16 0.847906 0.661868 0.299027
#
# Coordination Sequence:
#
# PCOD8047997 Si02
#       8
#     2   2   2   2   2   2   2   2
#     4  12  28  48  77 112 149 204 254 314 387 457
#     4  12  28  49  74 109 156 197 250 318 385 459
#     4  12  28  48  76 111 151 201 259 313 388 458
#     4  12  28  49  74 109 156 197 250 318 385 459
#     4  12  26  50  77 104 151 202 260 319 375 455
#     4  12  28  48  77 112 149 204 254 314 387 457
#     4  12  28  48  76 111 151 201 259 313 388 458
#     4  12  26  50  77 104 151 202 260 319 375 455
#
# _framework density 24.892427000000001
#
# number of rings (size 3 to 8) (size 9 to 14) (size 15 to 20)
#    0.000    0.000    2.500    6.000   14.000    0.000 
#    0.000    0.000    0.000    0.000    0.000    0.000 
#    0.000    0.000    0.000    0.000    0.000    0.000 
#
# Total GULP energy -198230.008646 kJ/mol
# GULP energy per Si atom -12389.375540 kJ/mol
# Density = 2.483577 g / cm^3
# Si number density = 24.892427 Si / 1000 Ang^3
#
#
#
# Elastic Constant Matrix: (Units=GPa)
#
#
# Indices 1 2 3 4 5 6 
#
# 1 101.6190 12.8589 15.6009 0.0000 1.1020 0.0000
# 2 12.8589 78.7062 8.4407 0.0000 17.1443 0.0000
# 3 15.6009 8.4407 117.2038 0.0000 13.9908 0.0000
# 4 0.0000 0.0000 0.0000 55.6583 0.0000 -18.9292
# 5 1.1020 17.1443 13.9908 0.0000 44.4958 0.0000
# 6 0.0000 0.0000 0.0000 -18.9292 0.0000 25.3703
#
#
#
# Elastic Compliance Matrix: (Units=1/GPa)
#
#
# Indices 1 2 3 4 5 6 
#
# 1 0.010254 -0.001712 -0.001340 0.000000 0.000827 0.000000
# 2 -0.001712 0.014171 -0.000152 0.000000 -0.005370 0.000000
# 3 -0.001340 -0.000152 0.009050 0.000000 -0.002754 0.000000
# 4 0.000000 0.000000 0.000000 0.024076 0.000000 0.017964
# 5 0.000827 -0.005370 -0.002754 0.000000 0.025389 0.000000
# 6 0.000000 0.000000 0.000000 0.017964 0.000000 0.052819
#
#
# Mechanical properties :
#
#
# Convention : Reuss Voigt Hill
#
# Bulk Modulus (GPa) = 36.94402 41.25888 39.10145
# Shear Modulus (GPa) = 33.07108 42.48011 37.77559
#
# Velocity S-wave (km/s) = 3.64890 4.13552 3.89981
# Velocity P-wave (km/s) = 5.71194 6.27807 6.00169
#
# Compressibility (1/GPa) = 0.02706798
#
# Stress axis : x y z
#
# Youngs Moduli (GPa) = 97.52212 70.56594 110.49433
#
# Poissons Ratio (x) = 0.12079 0.14810
# Poissons Ratio (y) = 0.16693 0.01676
# Poissons Ratio (z) = 0.13071 0.01070
#
# Static dielectric constant tensor:
#      x y z
#    x 4.697120 0.000000 -0.062150 
#    y 0.000000 4.580630 0.000000 
#    z -0.062150 0.000000 4.368540 
# 
# 
# High freq. dielectric constant tensor:
#      x y z
#    x 2.012360 0.000000 -0.010210 
#    y 0.000000 1.986920 0.000000 
#    z -0.010210 0.000000 2.006550 
# 
# From -- ./inp_files/12264.got.cif
#   From: 2010.03.12/outbox.cif.g09.slc.cpg/sg4_7_cif.got.tgz:12264.got - 2010.03.31 09:31:35.
