data_PCOD8047937
_publ_section_title
;
Structure prediction by ZEFSAII (Michael W. Deem and Ramdas Pophale) SiO2 
 PCOD8047937
Probable space group: P 21
;
_chemical_formula_sum "Si O2"
_cell_formula_units_Z 16
_cell_length_a 5.540923
_cell_length_b 14.659851
_cell_length_c 9.068318
_cell_angle_alpha 90.000000
_cell_angle_beta 120.474417
_cell_angle_gamma 90.000000
_cell_volume 634.852695
_symmetry_space_group_name_H-M "P 21"
_symmetry_group_IT_number 4
_symmetry_cell_setting 'monoclinic'
loop_
_space_group_symop_operation_xyz
x,y,z
-x,1/2+y,-z
loop_
_atom_site_type_symbol
_atom_site_label
_atom_site_fract_x
_atom_site_fract_y
_atom_site_fract_z
Si Si1 0.637195 0.030850 0.974149
Si Si2 0.416155 0.224698 0.834259
Si Si3 0.211458 0.071601 0.263914
Si Si4 0.971846 0.658873 0.522117
Si Si5 0.477392 0.228580 0.185931
Si Si6 0.525048 0.417482 0.814477
Si Si7 0.050000 0.461871 0.479221
Si Si8 0.391262 0.412103 0.296917
O O1 0.876717 0.070501 0.152290
O O2 0.427769 0.970164 0.013314
O O3 0.514859 0.120245 0.855559
O O4 0.759784 0.967143 0.882419
O O5 0.149886 0.225408 0.641932
O O6 0.616264 0.310038 0.845115
O O7 0.368799 0.252258 0.989073
O O8 0.270230 0.116798 0.442752
O O9 0.340653 0.131214 0.174496
O O10 0.319717 0.968117 0.273983
O O11 0.115438 0.570736 0.490792
O O12 0.188288 0.719862 0.684961
O O13 0.362132 0.304856 0.259547
O O14 0.192678 0.420866 0.671006
O O15 0.718557 0.442499 0.389437
O O16 0.210614 0.423615 0.387003
#
# Coordination Sequence:
#
# PCOD8047937 Si02
#       8
#     2   2   2   2   2   2   2   2
#     4  12  26  47  74 110 156 214 259 332 400 475
#     4  12  26  50  75 114 154 210 276 329 401 496
#     4  12  25  48  75 109 160 219 254 343 407 472
#     4  12  26  50  81 110 163 208 274 328 417 474
#     4  12  27  50  76 112 159 207 261 343 399 482
#     4  12  26  49  76 109 160 209 270 330 411 472
#     4  12  26  52  79 113 158 211 263 334 398 480
#     4  12  30  48  82 113 160 208 267 329 401 477
#
# _framework density 25.202697000000001
#
# number of rings (size 3 to 8) (size 9 to 14) (size 15 to 20)
#    0.000    0.000    7.500    1.500    7.000    1.000 
#    0.000    0.000    0.000    0.000    0.000    0.000 
#    0.000    0.000    0.000    0.000    0.000    0.000 
#
# Total GULP energy -198212.323531 kJ/mol
# GULP energy per Si atom -12388.270221 kJ/mol
# Density = 2.514533 g / cm^3
# Si number density = 25.202697 Si / 1000 Ang^3
#
#
#
# Elastic Constant Matrix: (Units=GPa)
#
#
# Indices 1 2 3 4 5 6 
#
# 1 91.9086 22.3327 34.3358 0.0000 -20.4057 0.0000
# 2 22.3327 153.5076 29.1538 0.0000 -16.8423 0.0000
# 3 34.3358 29.1538 119.9917 0.0000 -15.6678 0.0000
# 4 0.0000 0.0000 0.0000 30.1115 0.0000 -2.9286
# 5 -20.4057 -16.8423 -15.6678 0.0000 31.2574 0.0000
# 6 0.0000 0.0000 0.0000 -2.9286 0.0000 33.8277
#
#
#
# Elastic Compliance Matrix: (Units=1/GPa)
#
#
# Indices 1 2 3 4 5 6 
#
# 1 0.013686 -0.000670 -0.002818 0.000000 0.007161 0.000000
# 2 -0.000670 0.007145 -0.001176 0.000000 0.002823 0.000000
# 3 -0.002818 -0.001176 0.009741 0.000000 0.002409 0.000000
# 4 0.000000 0.000000 0.000000 0.033492 0.000000 0.002900
# 5 0.007161 0.002823 0.002409 0.000000 0.039396 0.000000
# 6 0.000000 0.000000 0.000000 0.002900 0.000000 0.029813
#
#
# Mechanical properties :
#
#
# Convention : Reuss Voigt Hill
#
# Bulk Modulus (GPa) = 47.07405 59.67250 53.37328
# Shear Modulus (GPa) = 33.40434 37.67836 35.54135
#
# Velocity S-wave (km/s) = 3.64459 3.87073 3.75936
# Velocity P-wave (km/s) = 6.03568 6.61099 6.32988
#
# Compressibility (1/GPa) = 0.02124313
#
# Stress axis : x y z
#
# Youngs Moduli (GPa) = 73.06744 139.96138 102.66318
#
# Poissons Ratio (x) = 0.09380 0.28935
# Poissons Ratio (y) = 0.04897 0.12069
# Poissons Ratio (z) = 0.20594 0.16453
#
# Static dielectric constant tensor:
#      x y z
#    x 4.095180 0.000000 0.006920 
#    y 0.000000 4.838100 0.000000 
#    z 0.006920 0.000000 4.906620 
# 
# 
# High freq. dielectric constant tensor:
#      x y z
#    x 1.971210 0.000000 -0.011140 
#    y 0.000000 2.027900 0.000000 
#    z -0.011140 0.000000 2.018500 
# 
# From -- ./inp_files/4806.got.cif
#   From: 2010.03.12/outbox.cif.g09.slc.cpg/sg4_3_cif.got.tgz:4806.got - 2010.03.31 09:31:35.
