data_PCOD8047634
_publ_section_title
;
Structure prediction by ZEFSAII (Michael W. Deem and Ramdas Pophale) SiO2 
 PCOD8047634
Probable space group: P 21
;
_chemical_formula_sum "Si O2"
_cell_formula_units_Z 16
_cell_length_a 18.936330
_cell_length_b 6.844050
_cell_length_c 5.275636
_cell_angle_alpha 90.000000
_cell_angle_beta 95.313421
_cell_angle_gamma 90.000000
_cell_volume 680.790741
_symmetry_space_group_name_H-M "P 21"
_symmetry_group_IT_number 4
_symmetry_cell_setting 'monoclinic'
loop_
_space_group_symop_operation_xyz
x,y,z
-x,1/2+y,-z
loop_
_atom_site_type_symbol
_atom_site_label
_atom_site_fract_x
_atom_site_fract_y
_atom_site_fract_z
Si Si1 0.431993 0.430190 0.206650
Si Si2 0.059717 0.970305 0.753141
Si Si3 0.923905 0.717468 0.743444
Si Si4 0.431865 0.183915 0.708536
Si Si5 0.297979 0.642589 0.283841
Si Si6 0.211560 0.354084 0.512044
Si Si7 0.708341 0.470915 0.355799
Si Si8 0.187048 0.681620 0.867532
O O1 0.415316 0.283413 0.432397
O O2 0.500220 0.550382 0.313808
O O3 0.365156 0.576295 0.139093
O O4 0.447589 0.332274 0.942182
O O5 0.077849 0.061250 0.486629
O O6 0.115350 0.802394 0.844303
O O7 0.060350 0.127152 0.977761
O O8 0.982089 0.880619 0.705199
O O9 0.846802 0.820557 0.729070
O O10 0.365160 0.053408 0.778199
O O11 0.285749 0.466199 0.480816
O O12 0.311152 0.862372 0.386453
O O13 0.216699 0.630483 0.153053
O O14 0.233265 0.139252 0.610784
O O15 0.172313 0.480130 0.716002
O O16 0.743200 0.302720 0.199125
#
# Coordination Sequence:
#
# PCOD8047634 Si02
#       8
#     2   2   2   2   2   2   2   2
#     4  12  27  47  71 107 142 194 236 297 355 424
#     4  12  27  47  71 107 142 194 236 297 355 424
#     4  12  27  46  74 101 150 186 242 293 360 420
#     4  12  27  46  74 101 150 186 242 293 360 420
#     4  11  26  42  75 104 145 184 242 290 355 424
#     4  11  24  46  71 107 142 188 234 296 354 423
#     4  11  24  46  71 107 142 188 234 296 354 423
#     4  11  26  42  75 104 145 184 242 290 355 424
#
# _framework density 23.502082000000001
#
# number of rings (size 3 to 8) (size 9 to 14) (size 15 to 20)
#    0.000    0.500    2.500    4.500   10.500    2.000 
#    0.000    0.000    0.000    0.000    0.000    0.000 
#    0.000    0.000    0.000    0.000    0.000    0.000 
#
# Total GULP energy -198319.473295 kJ/mol
# GULP energy per Si atom -12394.967081 kJ/mol
# Density = 2.344859 g / cm^3
# Si number density = 23.502082 Si / 1000 Ang^3
#
#
#
# Elastic Constant Matrix: (Units=GPa)
#
#
# Indices 1 2 3 4 5 6 
#
# 1 113.0507 34.0603 -3.3882 0.0000 16.7216 0.0000
# 2 34.0603 106.0856 11.5120 0.0000 2.5505 0.0000
# 3 -3.3882 11.5120 70.1834 0.0000 2.5782 0.0000
# 4 0.0000 0.0000 0.0000 30.0829 0.0000 6.3312
# 5 16.7216 2.5505 2.5782 0.0000 36.7823 0.0000
# 6 0.0000 0.0000 0.0000 6.3312 0.0000 52.9946
#
#
#
# Elastic Compliance Matrix: (Units=1/GPa)
#
#
# Indices 1 2 3 4 5 6 
#
# 1 0.010607 -0.003428 0.001246 0.000000 -0.004672 0.000000
# 2 -0.003428 0.010717 -0.001958 0.000000 0.000953 0.000000
# 3 0.001246 -0.001958 0.014683 0.000000 -0.001460 0.000000
# 4 0.000000 0.000000 0.000000 0.034099 0.000000 -0.004074
# 5 -0.004672 0.000953 -0.001460 0.000000 0.029347 0.000000
# 6 0.000000 0.000000 0.000000 -0.004074 0.000000 0.019357
#
#
# Mechanical properties :
#
#
# Convention : Reuss Voigt Hill
#
# Bulk Modulus (GPa) = 36.06787 41.52088 38.79437
# Shear Modulus (GPa) = 36.67504 40.44766 38.56135
#
# Velocity S-wave (km/s) = 3.95460 4.15302 4.05503
# Velocity P-wave (km/s) = 6.01929 6.37982 6.20217
#
# Compressibility (1/GPa) = 0.02772551
#
# Stress axis : x y z
#
# Youngs Moduli (GPa) = 94.27886 93.31245 68.10413
#
# Poissons Ratio (x) = 0.31991 -0.08486
# Poissons Ratio (y) = 0.32322 0.13337
# Poissons Ratio (z) = -0.11747 0.18274
#
# Static dielectric constant tensor:
#      x y z
#    x 4.228780 0.000000 0.044440 
#    y 0.000000 4.332280 0.000000 
#    z 0.044440 0.000000 4.114600 
# 
# 
# High freq. dielectric constant tensor:
#      x y z
#    x 1.946450 0.000000 0.007590 
#    y 0.000000 1.947820 0.000000 
#    z 0.007590 0.000000 1.923030 
# 
# From -- ./inp_files/3992.got.cif
#   From: 2010.03.12/outbox.cif.g09.slc.cpg/sg4_2_cif.got.tgz:3992.got - 2010.03.31 09:31:35.
