data_PCOD8047051
_publ_section_title
;
Structure prediction by ZEFSAII (Michael W. Deem and Ramdas Pophale) SiO2 
 PCOD8047051
Probable space group: P 21
;
_chemical_formula_sum "Si O2"
_cell_formula_units_Z 16
_cell_length_a 10.670716
_cell_length_b 11.105379
_cell_length_c 9.221751
_cell_angle_alpha 90.000000
_cell_angle_beta 135.526883
_cell_angle_gamma 90.000000
_cell_volume 765.587234
_symmetry_space_group_name_H-M "P 21"
_symmetry_group_IT_number 4
_symmetry_cell_setting 'monoclinic'
loop_
_space_group_symop_operation_xyz
x,y,z
-x,1/2+y,-z
loop_
_atom_site_type_symbol
_atom_site_label
_atom_site_fract_x
_atom_site_fract_y
_atom_site_fract_z
Si Si1 0.614980 0.727160 0.243723
Si Si2 0.270759 0.858637 0.868776
Si Si3 0.784714 0.104307 0.707296
Si Si4 0.128252 0.150935 0.128043
Si Si5 0.672007 0.629742 0.992803
Si Si6 0.647889 0.282218 0.379978
Si Si7 0.582588 0.530517 0.452291
Si Si8 0.121465 0.356275 0.341005
O O1 0.614805 0.603257 0.331727
O O2 0.731808 0.829274 0.416090
O O3 0.410345 0.767352 0.056526
O O4 0.710125 0.707077 0.167857
O O5 0.261450 0.839598 0.687547
O O6 0.076475 0.825908 0.768112
O O7 0.336987 0.990648 0.968958
O O8 0.789444 0.221469 0.606598
O O9 0.586390 0.080503 0.600720
O O10 0.863326 0.995476 0.679394
O O11 0.915685 0.123553 0.953966
O O12 0.174251 0.157106 0.995806
O O13 0.242230 0.045732 0.300602
O O14 0.167116 0.277761 0.236787
O O15 0.486099 0.673841 0.769708
O O16 0.552268 0.390793 0.388870
#
# Coordination Sequence:
#
# PCOD8047051 Si02
#       8
#     2   2   2   2   2   2   2   2
#     4  10  24  42  69  93 131 174 221 269 334 389
#     4  11  23  44  71  95 136 171 224 275 330 395
#     4  12  25  40  70  97 132 177 223 267 338 395
#     4  11  25  42  68  98 135 173 221 273 331 392
#     4  11  21  46  67  98 133 174 216 281 327 391
#     4  11  25  43  71 101 132 179 223 272 338 390
#     4  11  24  46  65  98 135 172 221 273 328 395
#     4  11  25  43  65 100 130 178 217 274 334 391
#
# _framework density 20.898990999999999
#
# number of rings (size 3 to 8) (size 9 to 14) (size 15 to 20)
#    0.000    1.000    3.750    2.250    5.250    0.000 
#    0.000    0.000    0.000    0.000    0.000    0.000 
#    0.000    0.000    0.000    0.000    0.000    0.000 
#
# Total GULP energy -198430.163871 kJ/mol
# GULP energy per Si atom -12401.885242 kJ/mol
# Density = 2.085142 g / cm^3
# Si number density = 20.898991 Si / 1000 Ang^3
#
#
#
# Elastic Constant Matrix: (Units=GPa)
#
#
# Indices 1 2 3 4 5 6 
#
# 1 95.8871 36.0194 47.6959 0.0000 -11.2336 0.0000
# 2 36.0194 85.8450 35.2038 0.0000 -6.9649 0.0000
# 3 47.6959 35.2038 137.4910 0.0000 -1.2412 0.0000
# 4 0.0000 0.0000 0.0000 29.6234 0.0000 -2.0807
# 5 -11.2336 -6.9649 -1.2412 0.0000 31.5970 0.0000
# 6 0.0000 0.0000 0.0000 -2.0807 0.0000 29.6980
#
#
#
# Elastic Compliance Matrix: (Units=1/GPa)
#
#
# Indices 1 2 3 4 5 6 
#
# 1 0.014389 -0.004108 -0.003903 0.000000 0.004057 0.000000
# 2 -0.004108 0.014429 -0.002255 0.000000 0.001632 0.000000
# 3 -0.003903 -0.002255 0.009191 0.000000 -0.001524 0.000000
# 4 0.000000 0.000000 0.000000 0.033924 0.000000 0.002377
# 5 0.004057 0.001632 -0.001524 0.000000 0.033391 0.000000
# 6 0.000000 0.000000 0.000000 0.002377 0.000000 0.033839
#
#
# Mechanical properties :
#
#
# Convention : Reuss Voigt Hill
#
# Bulk Modulus (GPa) = 57.21556 61.89568 59.55562
# Shear Modulus (GPa) = 30.20790 31.53727 30.87258
#
# Velocity S-wave (km/s) = 3.80600 3.88884 3.84764
# Velocity P-wave (km/s) = 6.83745 7.06010 6.94967
#
# Compressibility (1/GPa) = 0.01747776
#
# Stress axis : x y z
#
# Youngs Moduli (GPa) = 69.49931 69.30261 108.80429
#
# Poissons Ratio (x) = 0.28466 0.42468
# Poissons Ratio (y) = 0.28547 0.24535
# Poissons Ratio (z) = 0.27126 0.15627
#
# Static dielectric constant tensor:
#      x y z
#    x 3.748180 0.000000 -0.115720 
#    y 0.000000 3.708970 0.000000 
#    z -0.115720 0.000000 3.957190 
# 
# 
# High freq. dielectric constant tensor:
#      x y z
#    x 1.817900 0.000000 -0.007340 
#    y 0.000000 1.819150 0.000000 
#    z -0.007340 0.000000 1.831490 
# 
# From -- ./inp_files/6462.got.cif
#   From: 2010.03.12/outbox.cif.g09.slc.cpg/sg4_4_cif.got.tgz:6462.got - 2010.03.31 09:31:35.
