data_PCOD8047158
_publ_section_title
;
Structure prediction by ZEFSAII (Michael W. Deem and Ramdas Pophale) SiO2 
 PCOD8047158
Probable space group: P 21
;
_chemical_formula_sum "Si O2"
_cell_formula_units_Z 14
_cell_length_a 13.708095
_cell_length_b 7.898103
_cell_length_c 5.644111
_cell_angle_alpha 90.000000
_cell_angle_beta 93.352091
_cell_angle_gamma 90.000000
_cell_volume 610.030797
_symmetry_space_group_name_H-M "P 21"
_symmetry_group_IT_number 4
_symmetry_cell_setting 'monoclinic'
loop_
_space_group_symop_operation_xyz
x,y,z
-x,1/2+y,-z
loop_
_atom_site_type_symbol
_atom_site_label
_atom_site_fract_x
_atom_site_fract_y
_atom_site_fract_z
Si Si1 0.981775 0.358100 0.754029
Si Si2 0.751491 0.546893 0.238002
Si Si3 0.212614 0.733483 0.088521
Si Si4 0.424013 0.730629 0.247916
Si Si5 0.899424 0.689248 0.607825
Si Si6 0.455145 0.909483 0.738800
Si Si7 0.185062 0.361060 0.011698
O O1 0.888549 0.237603 0.783870
O O2 0.956312 0.556388 0.783238
O O3 0.020809 0.310175 0.499714
O O4 0.071466 0.320376 0.939978
O O5 0.836678 0.559519 0.440955
O O6 0.644062 0.513696 0.323663
O O7 0.786325 0.389868 0.087183
O O8 0.743437 0.728249 0.105006
O O9 0.307237 0.744205 0.271742
O O10 0.218267 0.551193 0.955861
O O11 0.453784 0.535485 0.230059
O O12 0.472511 0.800539 0.499566
O O13 0.451465 0.814279 0.994604
O O14 0.817241 0.812343 0.711516
#
# Coordination Sequence:
#
# PCOD8047158 Si02
#       7
#     2   2   2   2   2   2   2
#     4  11  23  38  63  95 140 180 236 288 348 418
#     4  10  25  44  67  96 141 183 233 296 357 421
#     4  11  24  44  69  99 143 179 242 289 356 425
#     4  11  26  48  76 111 142 191 237 303 370 433
#     4  11  23  40  64  96 133 189 230 293 350 417
#     4  11  25  48  77 108 146 187 236 303 368 438
#     4  11  24  42  64 101 133 193 232 292 349 428
#
# _framework density 22.949660000000002
#
# number of rings (size 3 to 8) (size 9 to 14) (size 15 to 20)
#    0.000    1.143    1.429    3.429   10.000    1.143 
#   10.286    0.000    0.000    0.000    0.000    0.000 
#    0.000    0.000    0.000    0.000    0.000    0.000 
#
# Total GULP energy -173462.270829 kJ/mol
# GULP energy per Si atom -12390.162202 kJ/mol
# Density = 2.289743 g / cm^3
# Si number density = 22.949660 Si / 1000 Ang^3
#
#
#
# Elastic Constant Matrix: (Units=GPa)
#
#
# Indices 1 2 3 4 5 6 
#
# 1 43.7394 -11.1264 7.3839 0.0000 11.6596 0.0000
# 2 -11.1264 115.3595 21.4870 0.0000 8.7716 0.0000
# 3 7.3839 21.4870 92.0631 0.0000 -1.5156 0.0000
# 4 0.0000 0.0000 0.0000 34.3994 0.0000 4.6754
# 5 11.6596 8.7716 -1.5156 0.0000 20.1057 0.0000
# 6 0.0000 0.0000 0.0000 4.6754 0.0000 34.2026
#
#
#
# Elastic Compliance Matrix: (Units=1/GPa)
#
#
# Indices 1 2 3 4 5 6 
#
# 1 0.030198 0.005176 -0.003961 0.000000 -0.020069 0.000000
# 2 0.005176 0.010304 -0.002947 0.000000 -0.007719 0.000000
# 3 -0.003961 -0.002947 0.011941 0.000000 0.004483 0.000000
# 4 0.000000 0.000000 0.000000 0.029621 0.000000 -0.004049
# 5 -0.020069 -0.007719 0.004483 0.000000 0.065081 0.000000
# 6 0.000000 0.000000 0.000000 -0.004049 0.000000 0.029791
#
#
# Mechanical properties :
#
#
# Convention : Reuss Voigt Hill
#
# Bulk Modulus (GPa) = 20.41638 31.85010 26.13324
# Shear Modulus (GPa) = 25.41620 33.30271 29.35946
#
# Velocity S-wave (km/s) = 3.33149 3.81349 3.58061
# Velocity P-wave (km/s) = 4.86969 5.77050 5.33913
#
# Compressibility (1/GPa) = 0.04898029
#
# Stress axis : x y z
#
# Youngs Moduli (GPa) = 33.11494 97.05288 83.74232
#
# Poissons Ratio (x) = -0.50237 0.33166
# Poissons Ratio (y) = -0.17141 0.24679
# Poissons Ratio (z) = 0.13115 0.28602
#
# Static dielectric constant tensor:
#      x y z
#    x 4.188200 0.000000 -0.035660 
#    y 0.000000 4.151770 0.000000 
#    z -0.035660 0.000000 4.178260 
# 
# 
# High freq. dielectric constant tensor:
#      x y z
#    x 1.905240 0.000000 0.000900 
#    y 0.000000 1.918370 0.000000 
#    z 0.000900 0.000000 1.899930 
# 
# From -- ./inp_files/2653.got.cif
#   From: 2010.03.12/outbox.cif.g09.slc.cpg/sg4_2_cif.got.tgz:2653.got - 2010.03.31 09:31:35.
