data_PCOD8047502
_publ_section_title
;
Structure prediction by ZEFSAII (Michael W. Deem and Ramdas Pophale) SiO2 
 PCOD8047502
Probable space group: P 21
;
_chemical_formula_sum "Si O2"
_cell_formula_units_Z 14
_cell_length_a 15.144414
_cell_length_b 7.622918
_cell_length_c 6.812083
_cell_angle_alpha 90.000000
_cell_angle_beta 133.990734
_cell_angle_gamma 90.000000
_cell_volume 565.790377
_symmetry_space_group_name_H-M "P 21"
_symmetry_group_IT_number 4
_symmetry_cell_setting 'monoclinic'
loop_
_space_group_symop_operation_xyz
x,y,z
-x,1/2+y,-z
loop_
_atom_site_type_symbol
_atom_site_label
_atom_site_fract_x
_atom_site_fract_y
_atom_site_fract_z
Si Si1 0.690282 0.916970 0.835181
Si Si2 0.500376 0.905643 0.868797
Si Si3 0.724688 0.186962 0.555740
Si Si4 0.120261 0.025818 0.315732
Si Si5 0.080721 0.227375 0.610763
Si Si6 0.657036 0.731567 0.408876
Si Si7 0.937068 0.028235 0.696567
O O1 0.575176 0.961810 0.792659
O O2 0.636960 0.770655 0.605476
O O3 0.731666 0.093656 0.782011
O O4 0.797480 0.825113 0.125356
O O5 0.417241 0.729296 0.714289
O O6 0.406086 0.058245 0.771009
O O7 0.596923 0.890820 0.195280
O O8 0.805451 0.363461 0.662747
O O9 0.789622 0.053221 0.499570
O O10 0.100424 0.039685 0.523287
O O11 0.197051 0.207045 0.396980
O O12 0.993565 0.035444 0.002079
O O13 0.022122 0.354673 0.356010
O O14 0.989870 0.194910 0.653482
#
# Coordination Sequence:
#
# PCOD8047502 Si02
#       7
#     2   2   2   2   2   2   2
#     4  12  25  47  72 109 146 197 259 321 380 455
#     4  11  25  46  73 106 149 198 262 310 391 455
#     4  11  27  46  76 108 150 204 252 321 384 458
#     4  11  24  49  70 105 152 197 252 316 385 459
#     4  12  27  45  77 108 156 202 253 321 383 459
#     4  11  23  45  72 103 148 200 246 322 381 451
#     4  12  27  46  74 111 153 200 258 315 388 463
#
# _framework density 24.744146000000001
#
# number of rings (size 3 to 8) (size 9 to 14) (size 15 to 20)
#    0.000    0.571    2.857    4.286    8.000    0.000 
#    0.000    0.000    0.000    0.000    0.000    0.000 
#    0.000    0.000    0.000    0.000    0.000    0.000 
#
# Total GULP energy -173496.383066 kJ/mol
# GULP energy per Si atom -12392.598790 kJ/mol
# Density = 2.468783 g / cm^3
# Si number density = 24.744146 Si / 1000 Ang^3
#
#
#
# Elastic Constant Matrix: (Units=GPa)
#
#
# Indices 1 2 3 4 5 6 
#
# 1 121.2729 -11.3353 24.3497 0.0000 2.3379 0.0000
# 2 -11.3353 64.4101 16.4083 0.0000 4.7289 0.0000
# 3 24.3497 16.4083 132.2602 0.0000 -0.0284 0.0000
# 4 0.0000 0.0000 0.0000 43.0634 0.0000 -8.7130
# 5 2.3379 4.7289 -0.0284 0.0000 32.9966 0.0000
# 6 0.0000 0.0000 0.0000 -8.7130 0.0000 42.8283
#
#
#
# Elastic Compliance Matrix: (Units=1/GPa)
#
#
# Indices 1 2 3 4 5 6 
#
# 1 0.008840 0.002105 -0.001889 0.000000 -0.000930 0.000000
# 2 0.002105 0.016710 -0.002461 0.000000 -0.002546 0.000000
# 3 -0.001889 -0.002461 0.008214 0.000000 0.000494 0.000000
# 4 0.000000 0.000000 0.000000 0.024218 0.000000 0.004927
# 5 -0.000930 -0.002546 0.000494 0.000000 0.030737 0.000000
# 6 0.000000 0.000000 0.000000 0.004927 0.000000 0.024351
#
#
# Mechanical properties :
#
#
# Convention : Reuss Voigt Hill
#
# Bulk Modulus (GPa) = 34.16002 41.86540 38.01271
# Shear Modulus (GPa) = 39.27158 43.01237 41.14197
#
# Velocity S-wave (km/s) = 3.98817 4.17380 4.08204
# Velocity P-wave (km/s) = 5.91968 6.33904 6.13295
#
# Compressibility (1/GPa) = 0.02927399
#
# Stress axis : x y z
#
# Youngs Moduli (GPa) = 113.12484 59.84490 121.74295
#
# Poissons Ratio (x) = -0.12598 0.22995
# Poissons Ratio (y) = -0.23814 0.29963
# Poissons Ratio (z) = 0.21367 0.14729
#
# Static dielectric constant tensor:
#      x y z
#    x 4.646630 0.000000 0.042340 
#    y 0.000000 4.690630 0.000000 
#    z 0.042340 0.000000 4.418290 
# 
# 
# High freq. dielectric constant tensor:
#      x y z
#    x 1.994450 0.000000 0.005560 
#    y 0.000000 2.001880 0.000000 
#    z 0.005560 0.000000 1.982390 
# 
# From -- ./inp_files/2397.got.cif
#   From: 2010.03.12/outbox.cif.g09.slc.cpg/sg4_2_cif.got.tgz:2397.got - 2010.03.31 09:31:35.
