data_PCOD8047165
_publ_section_title
;
Structure prediction by ZEFSAII (Michael W. Deem and Ramdas Pophale) SiO2 
 PCOD8047165
Probable space group: P 21
;
_chemical_formula_sum "Si O2"
_cell_formula_units_Z 16
_cell_length_a 6.449295
_cell_length_b 17.586252
_cell_length_c 6.290759
_cell_angle_alpha 90.000000
_cell_angle_beta 106.741118
_cell_angle_gamma 90.000000
_cell_volume 683.250546
_symmetry_space_group_name_H-M "P 21"
_symmetry_group_IT_number 4
_symmetry_cell_setting 'monoclinic'
loop_
_space_group_symop_operation_xyz
x,y,z
-x,1/2+y,-z
loop_
_atom_site_type_symbol
_atom_site_label
_atom_site_fract_x
_atom_site_fract_y
_atom_site_fract_z
Si Si1 0.829460 0.019110 0.611253
Si Si2 0.624260 0.675156 0.830563
Si Si3 0.967311 0.582297 0.724461
Si Si4 0.888851 0.799262 0.142183
Si Si5 0.888019 0.441557 0.970594
Si Si6 0.653097 0.130368 0.885517
Si Si7 0.450072 0.392648 0.699318
Si Si8 0.675131 0.258893 0.565954
O O1 0.661282 0.061287 0.718919
O O2 0.938480 0.081913 0.487130
O O3 0.693093 0.957863 0.444434
O O4 0.029482 0.979339 0.788437
O O5 0.731660 0.622254 0.678482
O O6 0.416601 0.718726 0.671903
O O7 0.804006 0.732629 0.967718
O O8 0.541225 0.621551 0.000119
O O9 0.953325 0.494158 0.789959
O O10 0.120347 0.630468 0.924151
O O11 0.691053 0.836146 0.204615
O O12 0.063693 0.767643 0.366671
O O13 0.002409 0.859640 0.020950
O O14 0.628704 0.431788 0.904627
O O15 0.618038 0.210680 0.759782
O O16 0.567665 0.342479 0.552470
#
# Coordination Sequence:
#
# PCOD8047165 Si02
#       8
#     2   2   2   2   2   2   2   2
#     4  11  25  49  72 105 151 193 238 306 359 430
#     4  12  26  45  75 106 145 198 238 303 366 428
#     4  11  25  47  70 108 149 188 246 296 358 437
#     4  11  23  49  72 107 148 182 246 304 355 432
#     4  10  25  45  71 107 143 186 242 300 357 433
#     4  11  25  47  69 108 148 188 247 299 356 434
#     4  11  24  47  75 106 141 193 242 295 370 428
#     4  11  25  45  74 107 141 192 243 295 367 430
#
# _framework density 23.417473000000001
#
# number of rings (size 3 to 8) (size 9 to 14) (size 15 to 20)
#    0.000    1.000    3.750    1.500    3.500    5.000 
#    2.250    0.000    0.000    0.000    0.000    0.000 
#    0.000    0.000    0.000    0.000    0.000    0.000 
#
# Total GULP energy -198440.203700 kJ/mol
# GULP energy per Si atom -12402.512731 kJ/mol
# Density = 2.336417 g / cm^3
# Si number density = 23.417473 Si / 1000 Ang^3
#
#
#
# Elastic Constant Matrix: (Units=GPa)
#
#
# Indices 1 2 3 4 5 6 
#
# 1 110.4214 56.7628 68.4736 0.0000 8.0488 0.0000
# 2 56.7628 107.6837 50.3315 0.0000 3.2596 0.0000
# 3 68.4736 50.3315 101.6347 0.0000 2.2010 0.0000
# 4 0.0000 0.0000 0.0000 32.3760 0.0000 7.4452
# 5 8.0488 3.2596 2.2010 0.0000 37.3210 0.0000
# 6 0.0000 0.0000 0.0000 7.4452 0.0000 44.0831
#
#
#
# Elastic Compliance Matrix: (Units=1/GPa)
#
#
# Indices 1 2 3 4 5 6 
#
# 1 0.017537 -0.004769 -0.009393 0.000000 -0.002812 0.000000
# 2 -0.004769 0.013399 -0.003424 0.000000 0.000060 0.000000
# 3 -0.009393 -0.003424 0.017835 0.000000 0.001273 0.000000
# 4 0.000000 0.000000 0.000000 0.032135 0.000000 -0.005427
# 5 -0.002812 0.000060 0.001273 0.000000 0.027321 0.000000
# 6 0.000000 0.000000 0.000000 -0.005427 0.000000 0.023601
#
#
# Mechanical properties :
#
#
# Convention : Reuss Voigt Hill
#
# Bulk Modulus (GPa) = 73.52690 74.54171 74.03430
# Shear Modulus (GPa) = 29.14913 32.36748 30.75831
#
# Velocity S-wave (km/s) = 3.53194 3.72182 3.62812
# Velocity P-wave (km/s) = 6.93537 7.09718 7.01674
#
# Compressibility (1/GPa) = 0.01360046
#
# Stress axis : x y z
#
# Youngs Moduli (GPa) = 57.02168 74.63398 56.06955
#
# Poissons Ratio (x) = 0.35594 0.52664
# Poissons Ratio (y) = 0.27194 0.19196
# Poissons Ratio (z) = 0.53558 0.25551
#
# Static dielectric constant tensor:
#      x y z
#    x 4.313470 0.000000 0.170000 
#    y 0.000000 4.340890 0.000000 
#    z 0.170000 0.000000 4.073670 
# 
# 
# High freq. dielectric constant tensor:
#      x y z
#    x 1.933150 0.000000 0.013920 
#    y 0.000000 1.938240 0.000000 
#    z 0.013920 0.000000 1.913570 
# 
# From -- ./inp_files/481.got.cif
#   From: 2010.03.12/outbox.cif.g09.slc.cpg/sg4_1_cif.got.tgz:481.got - 2010.03.31 09:31:35.
