data_PCOD8047815
_publ_section_title
;
Structure prediction by ZEFSAII (Michael W. Deem and Ramdas Pophale) SiO2 
 PCOD8047815
Probable space group: P 21
;
_chemical_formula_sum "Si O2"
_cell_formula_units_Z 16
_cell_length_a 12.074185
_cell_length_b 6.600693
_cell_length_c 12.373917
_cell_angle_alpha 90.000000
_cell_angle_beta 134.378684
_cell_angle_gamma 90.000000
_cell_volume 704.852671
_symmetry_space_group_name_H-M "P 21"
_symmetry_group_IT_number 4
_symmetry_cell_setting 'monoclinic'
loop_
_space_group_symop_operation_xyz
x,y,z
-x,1/2+y,-z
loop_
_atom_site_type_symbol
_atom_site_label
_atom_site_fract_x
_atom_site_fract_y
_atom_site_fract_z
Si Si1 0.211202 0.599380 0.966195
Si Si2 0.952371 0.459108 0.648086
Si Si3 0.401523 0.635806 0.286922
Si Si4 0.365752 0.796592 0.498220
Si Si5 0.734058 0.436320 0.157305
Si Si6 0.560196 0.772770 0.941865
Si Si7 0.611551 0.959180 0.323289
Si Si8 0.118327 0.210807 0.589257
O O1 0.184356 0.808255 0.881566
O O2 0.062816 0.467569 0.829306
O O3 0.232287 0.628330 0.110241
O O4 0.374552 0.485550 0.055161
O O5 0.778626 0.440788 0.573128
O O6 0.963730 0.664149 0.582107
O O7 0.000182 0.274511 0.602661
O O8 0.373554 0.759270 0.376541
O O9 0.477109 0.413938 0.358748
O O10 0.517091 0.760201 0.289065
O O11 0.335493 0.579400 0.533502
O O12 0.575628 0.316038 0.067084
O O13 0.822607 0.484445 0.330817
O O14 0.703709 0.666062 0.098620
O O15 0.498196 0.620653 0.809490
O O16 0.753016 0.886552 0.342849
#
# Coordination Sequence:
#
# PCOD8047815 Si02
#       8
#     2   2   2   2   2   2   2   2
#     4  12  25  43  66 103 147 182 231 292 355 426
#     4  12  26  45  67 107 149 187 229 284 367 440
#     4  12  25  48  74 103 131 186 250 301 344 408
#     4  12  26  48  76 101 137 185 248 298 350 419
#     4  12  22  38  64 101 145 188 236 282 343 425
#     4  12  21  37  64 103 142 182 233 286 349 420
#     4  12  23  43  75 103 136 184 242 299 349 416
#     4  12  24  44  68 107 147 192 233 282 363 442
#
# _framework density 22.699778999999999
#
# number of rings (size 3 to 8) (size 9 to 14) (size 15 to 20)
#    0.000    0.000    7.500    4.500    0.000    0.000 
#    0.000    5.000    0.000    0.000    0.000    0.000 
#    0.000    0.000    0.000    0.000    0.000    0.000 
#
# Total GULP energy -198308.872874 kJ/mol
# GULP energy per Si atom -12394.304555 kJ/mol
# Density = 2.264811 g / cm^3
# Si number density = 22.699779 Si / 1000 Ang^3
#
#
#
# Elastic Constant Matrix: (Units=GPa)
#
#
# Indices 1 2 3 4 5 6 
#
# 1 65.2497 16.1946 22.5861 0.0000 -6.3210 0.0000
# 2 16.1946 91.3289 32.6760 0.0000 -12.3178 0.0000
# 3 22.5861 32.6760 148.9071 0.0000 -9.5096 0.0000
# 4 0.0000 0.0000 0.0000 42.0984 0.0000 -15.5939
# 5 -6.3210 -12.3178 -9.5096 0.0000 21.7397 0.0000
# 6 0.0000 0.0000 0.0000 -15.5939 0.0000 23.5468
#
#
#
# Elastic Compliance Matrix: (Units=1/GPa)
#
#
# Indices 1 2 3 4 5 6 
#
# 1 0.016750 -0.001877 -0.001940 0.000000 0.002958 0.000000
# 2 -0.001877 0.012836 -0.002163 0.000000 0.005781 0.000000
# 3 -0.001940 -0.002163 0.007582 0.000000 0.001527 0.000000
# 4 0.000000 0.000000 0.000000 0.031475 0.000000 0.020844
# 5 0.002958 0.005781 0.001527 0.000000 0.050802 0.000000
# 6 0.000000 0.000000 0.000000 0.020844 0.000000 0.056273
#
#
# Mechanical properties :
#
#
# Convention : Reuss Voigt Hill
#
# Bulk Modulus (GPa) = 39.66977 49.82213 44.74595
# Shear Modulus (GPa) = 25.49984 33.07890 29.28937
#
# Velocity S-wave (km/s) = 3.35528 3.82152 3.59596
# Velocity P-wave (km/s) = 5.70301 6.43956 6.08244
#
# Compressibility (1/GPa) = 0.02520811
#
# Stress axis : x y z
#
# Youngs Moduli (GPa) = 59.70277 77.90719 131.89234
#
# Poissons Ratio (x) = 0.14624 0.25584
# Poissons Ratio (y) = 0.11207 0.28525
# Poissons Ratio (z) = 0.11581 0.16849
#
# Static dielectric constant tensor:
#      x y z
#    x 3.669660 0.000000 -0.131740 
#    y 0.000000 4.542020 0.000000 
#    z -0.131740 0.000000 4.473120 
# 
# 
# High freq. dielectric constant tensor:
#      x y z
#    x 1.854410 0.000000 -0.006400 
#    y 0.000000 1.907280 0.000000 
#    z -0.006400 0.000000 1.914540 
# 
# From -- ./inp_files/11662.got.cif
#   From: 2010.03.12/outbox.cif.g09.slc.cpg/sg4_6_cif.got.tgz:11662.got - 2010.03.31 09:31:35.
