data_PCOD8047927
_publ_section_title
;
Structure prediction by ZEFSAII (Michael W. Deem and Ramdas Pophale) SiO2 
 PCOD8047927
Probable space group: P 21
;
_chemical_formula_sum "Si O2"
_cell_formula_units_Z 14
_cell_length_a 6.028441
_cell_length_b 9.028120
_cell_length_c 13.941543
_cell_angle_alpha 90.000000
_cell_angle_beta 129.770787
_cell_angle_gamma 90.000000
_cell_volume 583.202119
_symmetry_space_group_name_H-M "P 21"
_symmetry_group_IT_number 4
_symmetry_cell_setting 'monoclinic'
loop_
_space_group_symop_operation_xyz
x,y,z
-x,1/2+y,-z
loop_
_atom_site_type_symbol
_atom_site_label
_atom_site_fract_x
_atom_site_fract_y
_atom_site_fract_z
Si Si1 0.735251 0.152300 0.603240
Si Si2 0.608174 0.996862 0.154870
Si Si3 0.857930 0.337022 0.451699
Si Si4 0.647927 0.512580 0.233757
Si Si5 0.699207 0.293816 0.797624
Si Si6 0.652095 0.797492 0.993652
Si Si7 0.891914 0.582044 0.586226
O O1 0.736554 0.244324 0.505981
O O2 0.715187 0.267843 0.687251
O O3 0.451092 0.049890 0.510027
O O4 0.013905 0.047292 0.693474
O O5 0.446213 0.950903 0.209543
O O6 0.463763 0.133403 0.058963
O O7 0.610058 0.846893 0.092449
O O8 0.938029 0.050519 0.267757
O O9 0.606512 0.406170 0.315136
O O10 0.037363 0.473219 0.546977
O O11 0.067790 0.248878 0.438859
O O12 0.487282 0.664015 0.208001
O O13 0.509424 0.425496 0.108292
O O14 0.009395 0.293362 0.934657
#
# Coordination Sequence:
#
# PCOD8047927 Si02
#       7
#     2   2   2   2   2   2   2
#     4  12  26  47  80 108 153 198 247 315 390 442
#     4  12  27  49  75 112 150 195 261 313 366 462
#     4  12  25  47  71 111 157 190 248 308 375 455
#     4  12  26  52  74 110 152 197 257 315 367 461
#     4  12  25  51  76 105 148 200 253 313 382 434
#     4  12  27  50  76 106 150 206 252 311 380 437
#     4  12  26  46  76 112 150 200 248 311 382 451
#
# _framework density 24.005402
#
# number of rings (size 3 to 8) (size 9 to 14) (size 15 to 20)
#    0.000    0.000    4.286    6.000    2.000    2.286 
#   10.286    0.000    0.000    0.000    0.000    0.000 
#    0.000    0.000    0.000    0.000    0.000    0.000 
#
# Total GULP energy -173490.991615 kJ/mol
# GULP energy per Si atom -12392.213687 kJ/mol
# Density = 2.395076 g / cm^3
# Si number density = 24.005402 Si / 1000 Ang^3
#
#
#
# Elastic Constant Matrix: (Units=GPa)
#
#
# Indices 1 2 3 4 5 6 
#
# 1 103.7676 48.6844 77.8115 0.0000 9.6190 0.0000
# 2 48.6844 89.3883 52.1821 0.0000 4.6444 0.0000
# 3 77.8115 52.1821 169.6398 0.0000 22.2800 0.0000
# 4 0.0000 0.0000 0.0000 50.7510 0.0000 -11.8168
# 5 9.6190 4.6444 22.2800 0.0000 43.7662 0.0000
# 6 0.0000 0.0000 0.0000 -11.8168 0.0000 26.7547
#
#
#
# Elastic Compliance Matrix: (Units=1/GPa)
#
#
# Indices 1 2 3 4 5 6 
#
# 1 0.016744 -0.005652 -0.005934 0.000000 -0.000060 0.000000
# 2 -0.005652 0.015566 -0.002295 0.000000 0.000759 0.000000
# 3 -0.005934 -0.002295 0.009773 0.000000 -0.003427 0.000000
# 4 0.000000 0.000000 0.000000 0.021963 0.000000 0.009700
# 5 -0.000060 0.000759 -0.003427 0.000000 0.024526 0.000000
# 6 0.000000 0.000000 0.000000 0.009700 0.000000 0.041661
#
#
# Mechanical properties :
#
#
# Convention : Reuss Voigt Hill
#
# Bulk Modulus (GPa) = 69.83180 80.01683 74.92432
# Shear Modulus (GPa) = 30.71863 36.52892 33.62377
#
# Velocity S-wave (km/s) = 3.58111 3.90512 3.74662
# Velocity P-wave (km/s) = 6.80090 7.33066 7.07074
#
# Compressibility (1/GPa) = 0.01432012
#
# Stress axis : x y z
#
# Youngs Moduli (GPa) = 59.72389 64.24224 102.32622
#
# Poissons Ratio (x) = 0.36312 0.60716
# Poissons Ratio (y) = 0.33758 0.23486
# Poissons Ratio (z) = 0.35438 0.14745
#
# Static dielectric constant tensor:
#      x y z
#    x 4.222220 0.000000 -0.049650 
#    y 0.000000 4.593880 0.000000 
#    z -0.049650 0.000000 4.631470 
# 
# 
# High freq. dielectric constant tensor:
#      x y z
#    x 1.936140 0.000000 -0.005020 
#    y 0.000000 1.966730 0.000000 
#    z -0.005020 0.000000 1.972940 
# 
# From -- ./inp_files/2375.got.cif
#   From: 2010.03.12/outbox.cif.g09.slc.cpg/sg4_2_cif.got.tgz:2375.got - 2010.03.31 09:31:35.
