data_PCOD8047083
_publ_section_title
;
Structure prediction by ZEFSAII (Michael W. Deem and Ramdas Pophale) SiO2 
 PCOD8047083
Probable space group: P 21
;
_chemical_formula_sum "Si O2"
_cell_formula_units_Z 16
_cell_length_a 11.895601
_cell_length_b 9.103062
_cell_length_c 8.168895
_cell_angle_alpha 90.000000
_cell_angle_beta 48.279136
_cell_angle_gamma 90.000000
_cell_volume 660.247011
_symmetry_space_group_name_H-M "P 21"
_symmetry_group_IT_number 4
_symmetry_cell_setting 'monoclinic'
loop_
_space_group_symop_operation_xyz
x,y,z
-x,1/2+y,-z
loop_
_atom_site_type_symbol
_atom_site_label
_atom_site_fract_x
_atom_site_fract_y
_atom_site_fract_z
Si Si1 0.886359 0.410800 0.597366
Si Si2 0.787573 0.645415 0.446329
Si Si3 0.227834 0.412471 0.343883
Si Si4 0.737959 0.850989 0.054157
Si Si5 0.768518 0.193917 0.471195
Si Si6 0.748041 0.498902 0.053584
Si Si7 0.435277 0.924089 0.490630
Si Si8 0.990465 0.315952 0.008545
O O1 0.880296 0.524117 0.454305
O O2 0.852415 0.252619 0.553209
O O3 0.047078 0.413043 0.527101
O O4 0.760264 0.442990 0.856514
O O5 0.711947 0.758616 0.645376
O O6 0.649785 0.573817 0.480751
O O7 0.905613 0.729042 0.217701
O O8 0.287010 0.534710 0.414843
O O9 0.286644 0.422914 0.100907
O O10 0.732663 0.674338 0.063364
O O11 0.614006 0.927229 0.291938
O O12 0.901528 0.897267 0.963809
O O13 0.621731 0.286935 0.562962
O O14 0.883580 0.198482 0.206713
O O15 0.602787 0.418949 0.278200
O O16 0.892601 0.445892 0.021285
#
# Coordination Sequence:
#
# PCOD8047083 Si02
#       8
#     2   2   2   2   2   2   2   2
#     4  11  21  41  72 108 140 184 243 313 366 427
#     4  11  23  41  72 103 143 190 242 300 373 431
#     4  12  23  39  71 109 141 189 243 313 364 425
#     4  12  25  48  71 106 151 194 244 299 374 453
#     4  10  24  44  69 111 144 184 251 302 366 431
#     4  11  23  47  75 104 144 190 247 311 362 431
#     4  10  26  49  68 101 150 198 236 295 368 451
#     4  11  23  43  76 108 143 191 246 315 361 433
#
# _framework density 24.233353999999999
#
# number of rings (size 3 to 8) (size 9 to 14) (size 15 to 20)
#    0.000    1.000    5.000    1.500    0.000    1.000 
#    4.500    0.000    0.000    0.000    0.000    0.000 
#    0.000    0.000    0.000    0.000    0.000    0.000 
#
# Total GULP energy -198363.285492 kJ/mol
# GULP energy per Si atom -12397.705343 kJ/mol
# Density = 2.417820 g / cm^3
# Si number density = 24.233354 Si / 1000 Ang^3
#
#
#
# Elastic Constant Matrix: (Units=GPa)
#
#
# Indices 1 2 3 4 5 6 
#
# 1 36.6848 10.2332 17.6960 0.0000 1.9795 0.0000
# 2 10.2332 71.7556 16.7474 0.0000 -8.8561 0.0000
# 3 17.6960 16.7474 141.1474 0.0000 5.0353 0.0000
# 4 0.0000 0.0000 0.0000 37.1715 0.0000 8.1229
# 5 1.9795 -8.8561 5.0353 0.0000 34.1410 0.0000
# 6 0.0000 0.0000 0.0000 8.1229 0.0000 26.9350
#
#
#
# Elastic Compliance Matrix: (Units=1/GPa)
#
#
# Indices 1 2 3 4 5 6 
#
# 1 0.029999 -0.003802 -0.003230 0.000000 -0.002249 0.000000
# 2 -0.003802 0.015377 -0.001506 0.000000 0.004431 0.000000
# 3 -0.003230 -0.001506 0.007716 0.000000 -0.001341 0.000000
# 4 0.000000 0.000000 0.000000 0.028800 0.000000 -0.008685
# 5 -0.002249 0.004431 -0.001341 0.000000 0.030768 0.000000
# 6 0.000000 0.000000 0.000000 -0.008685 0.000000 0.039746
#
#
# Mechanical properties :
#
#
# Convention : Reuss Voigt Hill
#
# Bulk Modulus (GPa) = 27.76478 37.66013 32.71245
# Shear Modulus (GPa) = 27.55018 33.31026 30.43022
#
# Velocity S-wave (km/s) = 3.37541 3.71153 3.54745
# Velocity P-wave (km/s) = 5.16462 5.82595 5.50522
#
# Compressibility (1/GPa) = 0.03601685
#
# Stress axis : x y z
#
# Youngs Moduli (GPa) = 33.33430 65.03306 129.59681
#
# Poissons Ratio (x) = 0.24726 0.41856
# Poissons Ratio (y) = 0.12674 0.19516
# Poissons Ratio (z) = 0.10766 0.09793
#
# Static dielectric constant tensor:
#      x y z
#    x 4.373600 0.000000 0.323820 
#    y 0.000000 4.409120 0.000000 
#    z 0.323820 0.000000 4.618400 
# 
# 
# High freq. dielectric constant tensor:
#      x y z
#    x 1.948360 0.000000 0.022170 
#    y 0.000000 1.959250 0.000000 
#    z 0.022170 0.000000 1.972500 
# 
# From -- ./inp_files/9141.got.cif
#   From: 2010.03.12/outbox.cif.g09.slc.cpg/sg4_5_cif.got.tgz:9141.got - 2010.03.31 09:31:35.
