data_PCOD8047105
_publ_section_title
;
Structure prediction by ZEFSAII (Michael W. Deem and Ramdas Pophale) SiO2 
 PCOD8047105
Probable space group: P 21
;
_chemical_formula_sum "Si O2"
_cell_formula_units_Z 16
_cell_length_a 12.497657
_cell_length_b 7.775573
_cell_length_c 9.789215
_cell_angle_alpha 90.000000
_cell_angle_beta 134.944374
_cell_angle_gamma 90.000000
_cell_volume 673.310058
_symmetry_space_group_name_H-M "P 21"
_symmetry_group_IT_number 4
_symmetry_cell_setting 'monoclinic'
loop_
_space_group_symop_operation_xyz
x,y,z
-x,1/2+y,-z
loop_
_atom_site_type_symbol
_atom_site_label
_atom_site_fract_x
_atom_site_fract_y
_atom_site_fract_z
Si Si1 0.674120 0.277350 0.074126
Si Si2 0.876440 0.783118 0.218465
Si Si3 0.954386 0.424802 0.890468
Si Si4 0.550293 0.647747 0.905202
Si Si5 0.016969 0.907651 0.603191
Si Si6 0.688538 0.236426 0.782983
Si Si7 0.562480 0.999269 0.451795
Si Si8 0.852738 0.794656 0.715191
O O1 0.553029 0.181095 0.056978
O O2 0.827846 0.309339 0.297395
O O3 0.606233 0.456468 0.968835
O O4 0.707354 0.180135 0.959575
O O5 0.947953 0.599084 0.316826
O O6 0.967938 0.862824 0.177172
O O7 0.903216 0.908581 0.372124
O O8 0.695906 0.774174 0.027291
O O9 0.849317 0.273466 0.857542
O O10 0.863852 0.603085 0.789427
O O11 0.086533 0.439293 0.123386
O O12 0.448210 0.649852 0.674630
O O13 0.945987 0.797074 0.660373
O O14 0.600456 0.414429 0.683943
O O15 0.601898 0.082143 0.631809
O O16 0.681668 0.847752 0.523443
#
# Coordination Sequence:
#
# PCOD8047105 Si02
#       8
#     2   2   2   2   2   2   2   2
#     4  10  24  45  69  98 144 185 239 296 357 430
#     4  11  26  46  74 105 148 190 246 303 363 437
#     4  12  26  47  73 107 147 193 240 309 369 432
#     4  10  26  47  69 103 143 193 237 297 359 429
#     4  11  24  45  69 106 139 191 245 299 363 431
#     4  11  24  46  68 105 144 192 238 304 366 434
#     4  11  26  45  72 105 146 192 243 302 361 449
#     4  12  26  45  74 105 145 190 248 302 370 438
#
# _framework density 23.763197000000002
#
# number of rings (size 3 to 8) (size 9 to 14) (size 15 to 20)
#    0.000    1.000    1.250    3.750   12.250    2.000 
#    2.250    0.000    0.000    0.000    0.000    0.000 
#    0.000    0.000    0.000    0.000    0.000    0.000 
#
# Total GULP energy -198398.749423 kJ/mol
# GULP energy per Si atom -12399.921839 kJ/mol
# Density = 2.370911 g / cm^3
# Si number density = 23.763197 Si / 1000 Ang^3
#
#
#
# Elastic Constant Matrix: (Units=GPa)
#
#
# Indices 1 2 3 4 5 6 
#
# 1 110.1982 38.4865 50.1321 0.0000 -13.2033 0.0000
# 2 38.4865 51.0419 22.7558 0.0000 1.7314 0.0000
# 3 50.1321 22.7558 127.5105 0.0000 -2.5018 0.0000
# 4 0.0000 0.0000 0.0000 35.6948 0.0000 0.6390
# 5 -13.2033 1.7314 -2.5018 0.0000 31.9336 0.0000
# 6 0.0000 0.0000 0.0000 0.6390 0.0000 29.9158
#
#
#
# Elastic Compliance Matrix: (Units=1/GPa)
#
#
# Indices 1 2 3 4 5 6 
#
# 1 0.015128 -0.009811 -0.004070 0.000000 0.006468 0.000000
# 2 -0.009811 0.027716 -0.001200 0.000000 -0.005653 0.000000
# 3 -0.004070 -0.001200 0.009640 0.000000 -0.000862 0.000000
# 4 0.000000 0.000000 0.000000 0.028026 0.000000 -0.000599
# 5 0.006468 -0.005653 -0.000862 0.000000 0.034228 0.000000
# 6 0.000000 0.000000 0.000000 -0.000599 0.000000 0.033440
#
#
# Mechanical properties :
#
#
# Convention : Reuss Voigt Hill
#
# Bulk Modulus (GPa) = 44.79916 56.83326 50.81621
# Shear Modulus (GPa) = 26.91354 31.33391 29.12373
#
# Velocity S-wave (km/s) = 3.36902 3.63518 3.50463
# Velocity P-wave (km/s) = 5.83327 6.44886 6.14877
#
# Compressibility (1/GPa) = 0.02232185
#
# Stress axis : x y z
#
# Youngs Moduli (GPa) = 66.10473 36.07977 103.73740
#
# Poissons Ratio (x) = 0.35399 0.42218
# Poissons Ratio (y) = 0.64858 0.12446
# Poissons Ratio (z) = 0.26902 0.04329
#
# Static dielectric constant tensor:
#      x y z
#    x 4.852510 0.000000 -0.067980 
#    y 0.000000 4.097010 0.000000 
#    z -0.067980 0.000000 4.816100 
# 
# 
# High freq. dielectric constant tensor:
#      x y z
#    x 1.948220 0.000000 0.003100 
#    y 0.000000 1.938100 0.000000 
#    z 0.003100 0.000000 1.954010 
# 
# From -- ./inp_files/8069.got.cif
#   From: 2010.03.12/outbox.cif.g09.slc.cpg/sg4_5_cif.got.tgz:8069.got - 2010.03.31 09:31:35.
