data_PCOD8047865
_publ_section_title
;
Structure prediction by ZEFSAII (Michael W. Deem and Ramdas Pophale) SiO2 
 PCOD8047865
Probable space group: P 21
;
_chemical_formula_sum "Si O2"
_cell_formula_units_Z 16
_cell_length_a 6.812124
_cell_length_b 6.814129
_cell_length_c 15.925007
_cell_angle_alpha 90.000000
_cell_angle_beta 101.556208
_cell_angle_gamma 90.000000
_cell_volume 724.233044
_symmetry_space_group_name_H-M "P 21"
_symmetry_group_IT_number 4
_symmetry_cell_setting 'monoclinic'
loop_
_space_group_symop_operation_xyz
x,y,z
-x,1/2+y,-z
loop_
_atom_site_type_symbol
_atom_site_label
_atom_site_fract_x
_atom_site_fract_y
_atom_site_fract_z
Si Si1 0.744355 0.556150 0.720263
Si Si2 0.448164 0.702917 0.396064
Si Si3 0.439299 0.889724 0.730624
Si Si4 0.787572 0.962481 0.493526
Si Si5 0.743286 0.215168 0.002335
Si Si6 0.016126 0.382805 0.885303
Si Si7 0.653933 0.571596 0.107158
Si Si8 0.944096 0.230133 0.372825
O O1 0.641650 0.363777 0.674132
O O2 0.581129 0.698911 0.748596
O O3 0.912400 0.499316 0.801544
O O4 0.851200 0.672590 0.655018
O O5 0.510909 0.516005 0.346863
O O6 0.630989 0.787165 0.466038
O O7 0.289305 0.632671 0.451301
O O8 0.460749 0.015045 0.817086
O O9 0.207658 0.825901 0.706250
O O10 0.994532 0.881408 0.548901
O O11 0.832337 0.046910 0.405331
O O12 0.842490 0.280485 0.923866
O O13 0.510361 0.165155 0.968607
O O14 0.755811 0.383974 0.073006
O O15 0.860953 0.027050 0.044804
O O16 0.169230 0.225598 0.858893
#
# Coordination Sequence:
#
# PCOD8047865 Si02
#       8
#     2   2   2   2   2   2   2   2
#     4  12  28  48  72 108 149 188 238 298 361 429
#     4  12  25  48  72 105 148 192 240 301 362 416
#     4  12  28  48  72 108 149 188 238 298 361 429
#     4  12  24  44  74 104 142 192 244 298 358 422
#     4  12  26  48  72 108 146 186 246 290 350 428
#     4  12  28  46  76 106 145 192 236 295 357 428
#     4  12  28  46  76 106 145 192 236 295 357 428
#     4  12  25  46  72 107 142 188 246 293 354 432
#
# _framework density 22.092337000000001
#
# number of rings (size 3 to 8) (size 9 to 14) (size 15 to 20)
#    0.000    0.000    5.000    4.500    7.000    4.000 
#    0.000    0.000    0.000    0.000    0.000    0.000 
#    0.000    0.000    0.000    0.000    0.000    0.000 
#
# Total GULP energy -198543.022790 kJ/mol
# GULP energy per Si atom -12408.938924 kJ/mol
# Density = 2.204205 g / cm^3
# Si number density = 22.092337 Si / 1000 Ang^3
#
#
#
# Elastic Constant Matrix: (Units=GPa)
#
#
# Indices 1 2 3 4 5 6 
#
# 1 94.7956 34.8721 23.1041 0.0000 6.5895 0.0000
# 2 34.8721 98.1277 25.5916 0.0000 6.0575 0.0000
# 3 23.1041 25.5916 89.7801 0.0000 4.5602 0.0000
# 4 0.0000 0.0000 0.0000 43.1342 0.0000 0.6064
# 5 6.5895 6.0575 4.5602 0.0000 39.3106 0.0000
# 6 0.0000 0.0000 0.0000 0.6064 0.0000 41.5731
#
#
#
# Elastic Compliance Matrix: (Units=1/GPa)
#
#
# Indices 1 2 3 4 5 6 
#
# 1 0.012556 -0.003843 -0.002071 0.000000 -0.001272 0.000000
# 2 -0.003843 0.012256 -0.002456 0.000000 -0.000959 0.000000
# 3 -0.002071 -0.002456 0.012408 0.000000 -0.000714 0.000000
# 4 0.000000 0.000000 0.000000 0.023188 0.000000 -0.000338
# 5 -0.001272 -0.000959 -0.000714 0.000000 0.025882 0.000000
# 6 0.000000 0.000000 0.000000 -0.000338 0.000000 0.024059
#
#
# Mechanical properties :
#
#
# Convention : Reuss Voigt Hill
#
# Bulk Modulus (GPa) = 48.82951 49.98211 49.40581
# Shear Modulus (GPa) = 37.33666 38.07928 37.70797
#
# Velocity S-wave (km/s) = 4.11545 4.15618 4.13587
# Velocity P-wave (km/s) = 6.68828 6.76055 6.72451
#
# Compressibility (1/GPa) = 0.02047942
#
# Stress axis : x y z
#
# Youngs Moduli (GPa) = 79.64266 81.59016 80.59602
#
# Poissons Ratio (x) = 0.31359 0.16691
# Poissons Ratio (y) = 0.30610 0.19793
# Poissons Ratio (z) = 0.16494 0.20037
#
# Static dielectric constant tensor:
#      x y z
#    x 3.979480 0.000000 0.026180 
#    y 0.000000 4.107150 0.000000 
#    z 0.026180 0.000000 3.880350 
# 
# 
# High freq. dielectric constant tensor:
#      x y z
#    x 1.881130 0.000000 0.003460 
#    y 0.000000 1.882740 0.000000 
#    z 0.003460 0.000000 1.876170 
# 
# From -- ./inp_files/3360.got.cif
#   From: 2010.03.12/outbox.cif.g09.slc.cpg/sg4_2_cif.got.tgz:3360.got - 2010.03.31 09:31:35.
