data_PCOD8047329
_publ_section_title
;
Structure prediction by ZEFSAII (Michael W. Deem and Ramdas Pophale) SiO2 
 PCOD8047329
Probable space group: P 21
;
_chemical_formula_sum "Si O2"
_cell_formula_units_Z 16
_cell_length_a 12.119890
_cell_length_b 5.101337
_cell_length_c 14.079759
_cell_angle_alpha 90.000000
_cell_angle_beta 127.908304
_cell_angle_gamma 90.000000
_cell_volume 686.834640
_symmetry_space_group_name_H-M "P 21"
_symmetry_group_IT_number 4
_symmetry_cell_setting 'monoclinic'
loop_
_space_group_symop_operation_xyz
x,y,z
-x,1/2+y,-z
loop_
_atom_site_type_symbol
_atom_site_label
_atom_site_fract_x
_atom_site_fract_y
_atom_site_fract_z
Si Si1 0.427206 0.688990 0.001810
Si Si2 0.530319 0.138791 0.755670
Si Si3 0.687123 0.646234 0.783229
Si Si4 0.005161 0.712794 0.622454
Si Si5 0.936603 0.716903 0.796395
Si Si6 0.796534 0.851077 0.193404
Si Si7 0.227113 0.080867 0.642210
Si Si8 0.097562 0.189874 0.931931
O O1 0.273100 0.618683 0.881492
O O2 0.534553 0.482374 0.009457
O O3 0.419784 0.647339 0.109823
O O4 0.570411 0.418139 0.729655
O O5 0.369099 0.038441 0.658195
O O6 0.612141 0.923143 0.739944
O O7 0.777485 0.626664 0.733772
O O8 0.798758 0.648344 0.927007
O O9 0.952512 0.821127 0.696336
O O10 0.878071 0.735483 0.482252
O O11 0.053377 0.416835 0.676055
O O12 0.141853 0.842734 0.645197
O O13 0.039128 0.482970 0.883962
O O14 0.976347 0.972253 0.880835
O O15 0.706076 0.741331 0.233269
O O16 0.814473 0.636898 0.119109
#
# Coordination Sequence:
#
# PCOD8047329 Si02
#       8
#     2   2   2   2   2   2   2   2
#     4  12  24  39  62  96 139 181 213 262 334 419
#     4  12  27  41  67  99 142 183 217 269 344 415
#     4  12  25  45  64 100 140 181 224 272 333 412
#     4  11  25  43  70  97 126 176 229 291 329 388
#     4  11  24  44  70  98 133 177 234 279 331 389
#     4  11  23  37  65  97 133 165 216 274 337 392
#     4  12  24  44  67  99 134 174 225 283 338 401
#     4  11  22  39  69 102 131 177 222 282 334 392
#
# _framework density 23.295272000000001
#
# number of rings (size 3 to 8) (size 9 to 14) (size 15 to 20)
#    0.000    0.500    5.000    3.750    3.500    0.000 
#    0.000    1.250    0.000    0.000    0.000    0.000 
#    0.000    0.000    0.000    0.000    0.000    0.000 
#
# Total GULP energy -198215.031585 kJ/mol
# GULP energy per Si atom -12388.439474 kJ/mol
# Density = 2.324225 g / cm^3
# Si number density = 23.295272 Si / 1000 Ang^3
#
#
#
# Elastic Constant Matrix: (Units=GPa)
#
#
# Indices 1 2 3 4 5 6 
#
# 1 133.0425 21.0459 26.7510 0.0000 12.0314 0.0000
# 2 21.0459 78.0085 9.8370 0.0000 -1.6904 0.0000
# 3 26.7510 9.8370 61.4909 0.0000 6.1827 0.0000
# 4 0.0000 0.0000 0.0000 27.8018 0.0000 8.7020
# 5 12.0314 -1.6904 6.1827 0.0000 24.2162 0.0000
# 6 0.0000 0.0000 0.0000 8.7020 0.0000 42.2856
#
#
#
# Elastic Compliance Matrix: (Units=1/GPa)
#
#
# Indices 1 2 3 4 5 6 
#
# 1 0.008808 -0.002063 -0.003128 0.000000 -0.003722 0.000000
# 2 -0.002063 0.013618 -0.001519 0.000000 0.002363 0.000000
# 3 -0.003128 -0.001519 0.018188 0.000000 -0.003196 0.000000
# 4 0.000000 0.000000 0.000000 0.038445 0.000000 -0.007912
# 5 -0.003722 0.002363 -0.003196 0.000000 0.044124 0.000000
# 6 0.000000 0.000000 0.000000 -0.007912 0.000000 0.025277
#
#
# Mechanical properties :
#
#
# Convention : Reuss Voigt Hill
#
# Bulk Modulus (GPa) = 36.77067 43.08997 39.93032
# Shear Modulus (GPa) = 29.24931 33.18792 31.21861
#
# Velocity S-wave (km/s) = 3.54727 3.77857 3.66475
# Velocity P-wave (km/s) = 5.70933 6.12978 5.92329
#
# Compressibility (1/GPa) = 0.02719559
#
# Stress axis : x y z
#
# Youngs Moduli (GPa) = 113.53153 73.43046 54.98267
#
# Poissons Ratio (x) = 0.15146 0.17197
# Poissons Ratio (y) = 0.23417 0.08351
# Poissons Ratio (z) = 0.35510 0.11153
#
# Static dielectric constant tensor:
#      x y z
#    x 4.565180 0.000000 -0.016010 
#    y 0.000000 4.121980 0.000000 
#    z -0.016010 0.000000 4.069430 
# 
# 
# High freq. dielectric constant tensor:
#      x y z
#    x 1.934460 0.000000 0.003800 
#    y 0.000000 1.918610 0.000000 
#    z 0.003800 0.000000 1.902510 
# 
# From -- ./inp_files/11494.got.cif
#   From: 2010.03.12/outbox.cif.g09.slc.cpg/sg4_6_cif.got.tgz:11494.got - 2010.03.31 09:31:35.
