data_PCOD8047559
_publ_section_title
;
Structure prediction by ZEFSAII (Michael W. Deem and Ramdas Pophale) SiO2 
 PCOD8047559
Probable space group: P 21
;
_chemical_formula_sum "Si O2"
_cell_formula_units_Z 10
_cell_length_a 9.146323
_cell_length_b 8.168671
_cell_length_c 7.651421
_cell_angle_alpha 90.000000
_cell_angle_beta 63.871849
_cell_angle_gamma 90.000000
_cell_volume 513.245454
_symmetry_space_group_name_H-M "P 21"
_symmetry_group_IT_number 4
_symmetry_cell_setting 'monoclinic'
loop_
_space_group_symop_operation_xyz
x,y,z
-x,1/2+y,-z
loop_
_atom_site_type_symbol
_atom_site_label
_atom_site_fract_x
_atom_site_fract_y
_atom_site_fract_z
Si Si1 0.340390 0.468950 0.245778
Si Si2 0.927198 0.538110 0.762974
Si Si3 0.042427 0.692595 0.370890
Si Si4 0.777485 0.850342 0.328892
Si Si5 0.632452 0.714910 0.069556
O O1 0.167983 0.545089 0.273850
O O2 0.330324 0.393812 0.444589
O O3 0.394214 0.329945 0.082815
O O4 0.471597 0.611668 0.181524
O O5 0.871212 0.371458 0.690520
O O6 0.787146 0.595815 0.967035
O O7 0.962524 0.681648 0.605379
O O8 0.096350 0.500490 0.778290
O O9 0.890543 0.690022 0.313010
O O10 0.659418 0.823577 0.228392
#
# Coordination Sequence:
#
# PCOD8047559 Si02
#       5
#     2   2   2   2   2
#     4  11  24  42  60  97 124 167 197 263 316 356
#     4   9  18  38  64  91 119 166 204 254 298 367
#     4   9  18  40  64  88 126 157 208 248 311 359
#     4   9  23  39  61  91 122 163 207 245 306 365
#     4  12  23  41  65  91 129 159 212 252 313 365
#
# _framework density 19.483854000000001
#
# number of rings (size 3 to 8) (size 9 to 14) (size 15 to 20)
#    1.200    0.800    2.000    1.200    2.800    1.600 
#    3.600    2.000    0.000    0.000    0.000    0.000 
#    0.000    0.000    0.000    0.000    0.000    0.000 
#
# Total GULP energy -123911.301805 kJ/mol
# GULP energy per Si atom -12391.130180 kJ/mol
# Density = 1.943951 g / cm^3
# Si number density = 19.483854 Si / 1000 Ang^3
#
#
#
# Elastic Constant Matrix: (Units=GPa)
#
#
# Indices 1 2 3 4 5 6 
#
# 1 62.9946 10.4579 32.2992 0.0000 -5.1566 0.0000
# 2 10.4579 65.3596 31.3453 0.0000 2.1788 0.0000
# 3 32.2992 31.3453 92.2831 0.0000 -2.6240 0.0000
# 4 0.0000 0.0000 0.0000 31.0792 0.0000 -7.3717
# 5 -5.1566 2.1788 -2.6240 0.0000 22.4150 0.0000
# 6 0.0000 0.0000 0.0000 -7.3717 0.0000 32.8359
#
#
#
# Elastic Compliance Matrix: (Units=1/GPa)
#
#
# Indices 1 2 3 4 5 6 
#
# 1 0.019652 -0.000025 -0.006764 0.000000 0.003732 0.000000
# 2 -0.000025 0.018419 -0.006320 0.000000 -0.002536 0.000000
# 3 -0.006764 -0.006320 0.015374 0.000000 0.000858 0.000000
# 4 0.000000 0.000000 0.000000 0.033986 0.000000 0.007630
# 5 0.003732 -0.002536 0.000858 0.000000 0.045818 0.000000
# 6 0.000000 0.000000 0.000000 0.007630 0.000000 0.032167
#
#
# Mechanical properties :
#
#
# Convention : Reuss Voigt Hill
#
# Bulk Modulus (GPa) = 36.72567 40.98246 38.85407
# Shear Modulus (GPa) = 24.91156 27.03504 25.97330
#
# Velocity S-wave (km/s) = 3.57960 3.72904 3.65508
# Velocity P-wave (km/s) = 5.99791 6.29450 6.14799
#
# Compressibility (1/GPa) = 0.02722891
#
# Stress axis : x y z
#
# Youngs Moduli (GPa) = 50.88572 54.29074 65.04298
#
# Poissons Ratio (x) = 0.00136 0.43992
# Poissons Ratio (y) = 0.00128 0.41105
# Poissons Ratio (z) = 0.34417 0.34310
#
# Static dielectric constant tensor:
#      x y z
#    x 3.355900 0.000000 -0.191910 
#    y 0.000000 3.435830 0.000000 
#    z -0.191910 0.000000 3.414790 
# 
# 
# High freq. dielectric constant tensor:
#      x y z
#    x 1.742430 0.000000 -0.015950 
#    y 0.000000 1.753990 0.000000 
#    z -0.015950 0.000000 1.756080 
# 
# From -- ./inp_files/940.got.cif
#   From: 2010.03.12/outbox.cif.g09.slc.cpg/sg4_1_cif.got.tgz:940.got - 2010.03.31 09:31:35.
