data_PCOD8047362
_publ_section_title
;
Structure prediction by ZEFSAII (Michael W. Deem and Ramdas Pophale) SiO2 
 PCOD8047362
Probable space group: P 21
;
_chemical_formula_sum "Si O2"
_cell_formula_units_Z 14
_cell_length_a 27.686713
_cell_length_b 5.153367
_cell_length_c 21.748385
_cell_angle_alpha 90.000000
_cell_angle_beta 10.619481
_cell_angle_gamma 90.000000
_cell_volume 571.848197
_symmetry_space_group_name_H-M "P 21"
_symmetry_group_IT_number 4
_symmetry_cell_setting 'monoclinic'
loop_
_space_group_symop_operation_xyz
x,y,z
-x,1/2+y,-z
loop_
_atom_site_type_symbol
_atom_site_label
_atom_site_fract_x
_atom_site_fract_y
_atom_site_fract_z
Si Si1 0.186878 0.179050 0.357210
Si Si2 0.925123 0.041230 0.130909
Si Si3 0.662835 0.602496 0.281406
Si Si4 0.864089 0.681584 0.767940
Si Si5 0.392814 0.666260 0.271184
Si Si6 0.323515 0.014473 0.872355
Si Si7 0.123872 0.162791 0.574090
O O1 0.263894 0.169053 0.332327
O O2 0.008654 0.425135 0.563241
O O3 0.452384 0.187269 0.986705
O O4 0.024156 0.924742 0.542820
O O5 0.621340 0.972204 0.520964
O O6 0.938296 0.311355 0.077873
O O7 0.066431 0.065480 0.020191
O O8 0.491791 0.341165 0.495862
O O9 0.711341 0.660606 0.148930
O O10 0.575985 0.696256 0.100643
O O11 0.836735 0.685799 0.876594
O O12 0.246588 0.394278 0.460917
O O13 0.176494 0.894925 0.543330
O O14 0.188160 0.727114 0.040456
#
# Coordination Sequence:
#
# PCOD8047362 Si02
#       7
#     2   2   2   2   2   2   2
#     4  11  22  44  67  95 140 187 234 290 346 424
#     4  12  25  48  75 106 137 189 234 287 357 427
#     4  12  25  48  76 105 139 186 236 288 354 429
#     4  11  25  42  68 101 140 184 229 299 358 398
#     4  12  23  43  68 102 133 190 243 278 349 427
#     4  11  27  48  70 105 154 174 242 295 354 424
#     4  11  25  41  66 100 139 182 230 297 354 399
#
# _framework density 24.482023999999999
#
# number of rings (size 3 to 8) (size 9 to 14) (size 15 to 20)
#    0.000    0.571    2.857    5.143    2.000    6.857 
#    2.571    0.000    0.000    0.000    0.000    0.000 
#    0.000    0.000    0.000    0.000    0.000    0.000 
#
# Total GULP energy -173683.056041 kJ/mol
# GULP energy per Si atom -12405.932574 kJ/mol
# Density = 2.442630 g / cm^3
# Si number density = 24.482024 Si / 1000 Ang^3
#
#
#
# Elastic Constant Matrix: (Units=GPa)
#
#
# Indices 1 2 3 4 5 6 
#
# 1 75.4819 34.3539 13.8255 0.0000 -8.8417 0.0000
# 2 34.3539 140.9043 41.2958 0.0000 -20.3125 0.0000
# 3 13.8255 41.2958 122.9372 0.0000 -18.5292 0.0000
# 4 0.0000 0.0000 0.0000 283.4964 0.0000-1838.3419
# 5 -8.8417 -20.3125 -18.5292 0.0000 41.4935 0.0000
# 6 0.0000 0.0000 0.0000-1838.3419 0.000013785.5555
#
#
#
# Elastic Compliance Matrix: (Units=1/GPa)
#
#
# Indices 1 2 3 4 5 6 
#
# 1 0.015002 -0.003354 -0.000350 0.000000 0.001399 0.000000
# 2 -0.003354 0.008953 -0.002227 0.000000 0.002674 0.000000
# 3 -0.000350 -0.002227 0.009377 0.000000 0.003023 0.000000
# 4 0.000000 0.000000 0.000000 0.026077 0.000000 0.003477
# 5 0.001399 0.002674 0.003023 0.000000 0.027057 0.000000
# 6 0.000000 0.000000 0.000000 0.003477 0.000000 0.000536
#
#
# Mechanical properties :
#
#
# Convention : Reuss Voigt Hill
#
# Bulk Modulus (GPa) = 46.57378 57.58597 52.07987
# Shear Modulus (GPa) = 47.16060 2838.76562 1442.96311
#
# Velocity S-wave (km/s) = 4.39377 34.08882 24.30384
# Velocity P-wave (km/s) = 6.69367 39.66069 28.44095
#
# Compressibility (1/GPa) = 0.02147131
#
# Stress axis : x y z
#
# Youngs Moduli (GPa) = 66.65575 111.69680 106.64046
#
# Poissons Ratio (x) = 0.37458 0.03731
# Poissons Ratio (y) = 0.22353 0.23751
# Poissons Ratio (z) = 0.02332 0.24878
#
# Static dielectric constant tensor:
#      x y z
#    x 4.068540 0.000000 -0.959970 
#    y 0.000000 4.517510 0.000000 
#    z -0.959970 0.000000 1.841780 
# 
# 
# High freq. dielectric constant tensor:
#      x y z
#    x 1.976100 0.000000 -0.010880 
#    y 0.000000 1.980760 0.000000 
#    z -0.010880 0.000000 1.979490 
# 
# From -- ./inp_files/16253.got.cif
#   From: 2010.03.12/outbox.cif.g09.slc.cpg/sg4_9_cif.got.tgz:16253.got - 2010.03.31 09:31:35.
