data_PCOD8047473
_publ_section_title
;
Structure prediction by ZEFSAII (Michael W. Deem and Ramdas Pophale) SiO2 
 PCOD8047473
Probable space group: P 21
;
_chemical_formula_sum "Si O2"
_cell_formula_units_Z 16
_cell_length_a 12.517537
_cell_length_b 8.947372
_cell_length_c 8.021387
_cell_angle_alpha 90.000000
_cell_angle_beta 50.147544
_cell_angle_gamma 90.000000
_cell_volume 689.689768
_symmetry_space_group_name_H-M "P 21"
_symmetry_group_IT_number 4
_symmetry_cell_setting 'monoclinic'
loop_
_space_group_symop_operation_xyz
x,y,z
-x,1/2+y,-z
loop_
_atom_site_type_symbol
_atom_site_label
_atom_site_fract_x
_atom_site_fract_y
_atom_site_fract_z
Si Si1 0.410358 0.241200 0.935879
Si Si2 0.809587 0.917251 0.682561
Si Si3 0.812830 0.547550 0.226768
Si Si4 0.690413 0.866974 0.301736
Si Si5 0.910359 0.043025 0.243403
Si Si6 0.087409 0.858138 0.589788
Si Si7 0.412591 0.926087 0.764607
Si Si8 0.312830 0.736675 0.147572
O O1 0.375292 0.350486 0.815563
O O2 0.566142 0.271485 0.840134
O O3 0.395278 0.068840 0.901948
O O4 0.300798 0.280426 0.193663
O O5 0.875292 0.933739 0.433853
O O6 0.928830 0.883145 0.697602
O O7 0.724649 0.063650 0.819795
O O8 0.775350 0.720574 0.269093
O O9 0.860580 0.503485 0.363835
O O10 0.679611 0.448950 0.307991
O O11 0.933857 0.512740 0.972420
O O12 0.800799 0.003798 0.204740
O O13 0.571170 0.901081 0.555262
O O14 0.895279 0.215385 0.307495
O O15 0.179611 0.835274 0.332787
O O16 0.360581 0.780740 0.915004
#
# Coordination Sequence:
#
# PCOD8047473 Si02
#       8
#     2   2   2   2   2   2   2   2
#     4  11  23  44  67  97 132 172 223 281 338 401
#     4  11  25  43  68  98 134 178 224 279 339 399
#     4  11  24  42  67  96 132 177 224 277 336 401
#     4  11  25  43  68  98 134 178 224 279 339 399
#     4  11  23  44  67  97 132 172 223 281 338 401
#     4  11  24  43  64  97 134 175 225 279 335 401
#     4  11  24  43  64  97 134 175 225 279 335 401
#     4  11  24  42  67  96 132 177 224 277 336 401
#
# _framework density 23.198837000000001
#
# number of rings (size 3 to 8) (size 9 to 14) (size 15 to 20)
#    0.000    1.000    0.000    7.500    0.000   12.000 
#    0.000    0.000    0.000    0.000    0.000    0.000 
#    0.000    0.000    0.000    0.000    0.000    0.000 
#
# Total GULP energy -198472.122803 kJ/mol
# GULP energy per Si atom -12404.507675 kJ/mol
# Density = 2.314604 g / cm^3
# Si number density = 23.198837 Si / 1000 Ang^3
#
#
#
# Elastic Constant Matrix: (Units=GPa)
#
#
# Indices 1 2 3 4 5 6 
#
# 1 113.0179 48.6320 18.0355 0.0000 -27.3582 0.0000
# 2 48.6320 69.4738 47.6526 0.0000 -10.6613 0.0000
# 3 18.0355 47.6526 107.9103 0.0000 -28.2472 0.0000
# 4 0.0000 0.0000 0.0000 44.6690 0.0000 -3.2144
# 5 -27.3582 -10.6613 -28.2472 0.0000 36.5522 0.0000
# 6 0.0000 0.0000 0.0000 -3.2144 0.0000 44.9640
#
#
#
# Elastic Compliance Matrix: (Units=1/GPa)
#
#
# Indices 1 2 3 4 5 6 
#
# 1 0.017924 -0.015608 0.007793 0.000000 0.014886 0.000000
# 2 -0.015608 0.034288 -0.016262 0.000000 -0.014249 0.000000
# 3 0.007793 -0.016262 0.019344 0.000000 0.016039 0.000000
# 4 0.000000 0.000000 0.000000 0.022503 0.000000 0.001609
# 5 0.014886 -0.014249 0.016039 0.000000 0.046738 0.000000
# 6 0.000000 0.000000 0.000000 0.001609 0.000000 0.022355
#
#
# Mechanical properties :
#
#
# Convention : Reuss Voigt Hill
#
# Bulk Modulus (GPa) = 42.73240 57.67135 50.20188
# Shear Modulus (GPa) = 22.81992 36.97582 29.89787
#
# Velocity S-wave (km/s) = 3.13975 3.99666 3.59383
# Velocity P-wave (km/s) = 5.62175 6.79788 6.23760
#
# Compressibility (1/GPa) = 0.02340144
#
# Stress axis : x y z
#
# Youngs Moduli (GPa) = 55.79072 29.16503 51.69504
#
# Poissons Ratio (x) = 0.45521 -0.40288
# Poissons Ratio (y) = 0.87079 0.84069
# Poissons Ratio (z) = -0.43479 0.47429
#
# Static dielectric constant tensor:
#      x y z
#    x 4.258360 0.000000 -0.160010 
#    y 0.000000 4.065410 0.000000 
#    z -0.160010 0.000000 4.243660 
# 
# 
# High freq. dielectric constant tensor:
#      x y z
#    x 1.926460 0.000000 -0.012650 
#    y 0.000000 1.912580 0.000000 
#    z -0.012650 0.000000 1.925300 
# 
# From -- ./inp_files/5746.got.cif
#   From: 2010.03.12/outbox.cif.g09.slc.cpg/sg4_3_cif.got.tgz:5746.got - 2010.03.31 09:31:35.
