data_PCOD8047685
_publ_section_title
;
Structure prediction by ZEFSAII (Michael W. Deem and Ramdas Pophale) SiO2 
 PCOD8047685
Probable space group: P 21
;
_chemical_formula_sum "Si O2"
_cell_formula_units_Z 14
_cell_length_a 8.347026
_cell_length_b 9.158107
_cell_length_c 13.198261
_cell_angle_alpha 90.000000
_cell_angle_beta 148.184367
_cell_angle_gamma 90.000000
_cell_volume 531.887071
_symmetry_space_group_name_H-M "P 21"
_symmetry_group_IT_number 4
_symmetry_cell_setting 'monoclinic'
loop_
_space_group_symop_operation_xyz
x,y,z
-x,1/2+y,-z
loop_
_atom_site_type_symbol
_atom_site_label
_atom_site_fract_x
_atom_site_fract_y
_atom_site_fract_z
Si Si1 0.817125 0.875000 0.961396
Si Si2 0.804404 0.892370 0.493775
Si Si3 0.641672 0.164963 0.514194
Si Si4 0.044684 0.410728 0.650563
Si Si5 0.312652 0.653735 0.233633
Si Si6 0.586776 0.318148 0.076800
Si Si7 0.980991 0.611061 0.779250
O O1 0.566442 0.788745 0.895129
O O2 0.666560 0.987548 0.798817
O O3 0.043621 0.752243 0.034149
O O4 0.007775 0.978404 0.137324
O O5 0.906634 0.949125 0.439083
O O6 0.629799 0.738963 0.387021
O O7 0.091127 0.890951 0.723838
O O8 0.589098 0.011782 0.429218
O O9 0.791445 0.148899 0.705185
O O10 0.291535 0.223869 0.336982
O O11 0.852586 0.262648 0.556687
O O12 0.861214 0.541945 0.606853
O O13 0.366059 0.407864 0.884482
O O14 0.684070 0.178525 0.060095
#
# Coordination Sequence:
#
# PCOD8047685 Si02
#       7
#     2   2   2   2   2   2   2
#     4  11  27  49  81 120 163 215 271 340 413 485
#     4  12  28  46  79 114 152 215 259 334 412 483
#     4  12  25  49  78 110 158 207 270 337 403 485
#     4  11  28  49  74 114 159 202 270 330 404 484
#     4  12  26  53  77 124 162 211 279 334 415 493
#     4  11  26  46  78 114 158 208 264 335 396 484
#     4  11  24  50  75 110 154 204 271 330 397 478
#
# _framework density 26.321379
#
# number of rings (size 3 to 8) (size 9 to 14) (size 15 to 20)
#    0.000    0.571    5.714    0.857   10.000    4.571 
#    0.000    0.000    0.000    0.000    0.000    0.000 
#    0.000    0.000    0.000    0.000    0.000    0.000 
#
# Total GULP energy -173465.471485 kJ/mol
# GULP energy per Si atom -12390.390820 kJ/mol
# Density = 2.626147 g / cm^3
# Si number density = 26.321379 Si / 1000 Ang^3
#
#
#
# Elastic Constant Matrix: (Units=GPa)
#
#
# Indices 1 2 3 4 5 6 
#
# 1 79.9415 12.0737 33.4326 0.0000 8.0033 0.0000
# 2 12.0737 46.3263 23.6330 0.0000 9.4433 0.0000
# 3 33.4326 23.6330 95.8915 0.0000 18.0499 0.0000
# 4 0.0000 0.0000 0.0000 42.2853 0.0000 -4.7119
# 5 8.0033 9.4433 18.0499 0.0000 44.1884 0.0000
# 6 0.0000 0.0000 0.0000 -4.7119 0.0000 39.5689
#
#
#
# Elastic Compliance Matrix: (Units=1/GPa)
#
#
# Indices 1 2 3 4 5 6 
#
# 1 0.014731 -0.001339 -0.004721 0.000000 -0.000454 0.000000
# 2 -0.001339 0.025190 -0.005172 0.000000 -0.003028 0.000000
# 3 -0.004721 -0.005172 0.014061 0.000000 -0.003783 0.000000
# 4 0.000000 0.000000 0.000000 0.023967 0.000000 0.002854
# 5 -0.000454 -0.003028 -0.003783 0.000000 0.024905 0.000000
# 6 0.000000 0.000000 0.000000 0.002854 0.000000 0.025612
#
#
# Mechanical properties :
#
#
# Convention : Reuss Voigt Hill
#
# Bulk Modulus (GPa) = 31.72501 40.04863 35.88682
# Shear Modulus (GPa) = 30.97216 35.40987 33.19102
#
# Velocity S-wave (km/s) = 3.43402 3.67180 3.55490
# Velocity P-wave (km/s) = 5.27280 5.76406 5.52389
#
# Compressibility (1/GPa) = 0.03152087
#
# Stress axis : x y z
#
# Youngs Moduli (GPa) = 67.88416 39.69757 71.11846
#
# Poissons Ratio (x) = 0.05314 0.33573
# Poissons Ratio (y) = 0.09087 0.36780
# Poissons Ratio (z) = 0.32046 0.20530
#
# Static dielectric constant tensor:
#      x y z
#    x 4.895890 0.000000 -0.055660 
#    y 0.000000 4.797170 0.000000 
#    z -0.055660 0.000000 4.709430 
# 
# 
# High freq. dielectric constant tensor:
#      x y z
#    x 2.065360 0.000000 0.004530 
#    y 0.000000 2.040570 0.000000 
#    z 0.004530 0.000000 2.064660 
# 
# From -- ./inp_files/13708.got.cif
#   From: 2010.03.12/outbox.cif.g09.slc.cpg/sg4_7_cif.got.tgz:13708.got - 2010.03.31 09:31:35.
