data_PCOD8047340
_publ_section_title
;
Structure prediction by ZEFSAII (Michael W. Deem and Ramdas Pophale) SiO2 
 PCOD8047340
Probable space group: P 21
;
_chemical_formula_sum "Si O2"
_cell_formula_units_Z 12
_cell_length_a 16.156780
_cell_length_b 4.952457
_cell_length_c 9.456003
_cell_angle_alpha 90.000000
_cell_angle_beta 41.734090
_cell_angle_gamma 90.000000
_cell_volume 503.668778
_symmetry_space_group_name_H-M "P 21"
_symmetry_group_IT_number 4
_symmetry_cell_setting 'monoclinic'
loop_
_space_group_symop_operation_xyz
x,y,z
-x,1/2+y,-z
loop_
_atom_site_type_symbol
_atom_site_label
_atom_site_fract_x
_atom_site_fract_y
_atom_site_fract_z
Si Si1 0.711536 0.982640 0.976503
Si Si2 0.540762 0.702084 0.026419
Si Si3 0.701143 0.614991 0.250094
Si Si4 0.044011 0.803094 0.357886
Si Si5 0.501828 0.857228 0.667556
Si Si6 0.955001 0.339959 0.972173
O O1 0.812197 0.213734 0.822393
O O2 0.685184 0.796575 0.871161
O O3 0.753802 0.800895 0.055600
O O4 0.574213 0.111266 0.166743
O O5 0.481995 0.608807 0.249269
O O6 0.546221 0.444554 0.917157
O O7 0.645397 0.794010 0.447428
O O8 0.581127 0.437554 0.361764
O O9 0.810834 0.423026 0.162102
O O10 0.963262 0.591789 0.553716
O O11 0.999096 0.822294 0.250917
O O12 0.035813 0.552271 0.960432
#
# Coordination Sequence:
#
# PCOD8047340 Si02
#       6
#     2   2   2   2   2   2
#     4  11  23  45  77 102 146 195 246 315 364 449
#     4  11  24  44  66 103 153 191 231 299 379 439
#     4  11  23  43  78 114 145 192 252 303 380 461
#     4  12  27  50  81 108 142 208 271 303 366 469
#     4  11  22  41  78 113 140 194 249 302 374 451
#     4  12  27  51  78 116 162 198 247 334 389 431
#
# _framework density 23.825182000000002
#
# number of rings (size 3 to 8) (size 9 to 14) (size 15 to 20)
#    0.000    0.667    5.000    3.000    2.333    0.000 
#    3.000    3.333    3.667    0.000    0.000    0.000 
#    0.000    0.000    0.000    0.000    0.000    0.000 
#
# Total GULP energy -148736.794899 kJ/mol
# GULP energy per Si atom -12394.732908 kJ/mol
# Density = 2.377095 g / cm^3
# Si number density = 23.825182 Si / 1000 Ang^3
#
#
#
# Elastic Constant Matrix: (Units=GPa)
#
#
# Indices 1 2 3 4 5 6 
#
# 1 114.7408 44.3444 53.3638 0.0000 26.7842 0.0000
# 2 44.3444 97.5100 15.3544 0.0000 14.6756 0.0000
# 3 53.3638 15.3544 93.3587 0.0000 6.0598 0.0000
# 4 0.0000 0.0000 0.0000 40.8043 0.0000 3.3222
# 5 26.7842 14.6756 6.0598 0.0000 33.1905 0.0000
# 6 0.0000 0.0000 0.0000 3.3222 0.0000 55.7788
#
#
#
# Elastic Compliance Matrix: (Units=1/GPa)
#
#
# Indices 1 2 3 4 5 6 
#
# 1 0.016618 -0.004810 -0.008071 0.000000 -0.009810 0.000000
# 2 -0.004810 0.012593 0.000797 0.000000 -0.001832 0.000000
# 3 -0.008071 0.000797 0.014971 0.000000 0.003427 0.000000
# 4 0.000000 0.000000 0.000000 0.024627 0.000000 -0.001467
# 5 -0.009810 -0.001832 0.003427 0.000000 0.038230 0.000000
# 6 0.000000 0.000000 0.000000 -0.001467 0.000000 0.018015
#
#
# Mechanical properties :
#
#
# Convention : Reuss Voigt Hill
#
# Bulk Modulus (GPa) = 49.96359 59.08161 54.52260
# Shear Modulus (GPa) = 32.07334 38.79119 35.43226
#
# Velocity S-wave (km/s) = 3.67303 4.03942 3.86058
# Velocity P-wave (km/s) = 6.24537 6.82698 6.54264
#
# Compressibility (1/GPa) = 0.02001457
#
# Stress axis : x y z
#
# Youngs Moduli (GPa) = 60.17643 79.40929 66.79520
#
# Poissons Ratio (x) = 0.38195 0.53910
# Poissons Ratio (y) = 0.28944 -0.05325
# Poissons Ratio (z) = 0.48568 -0.06330
#
# Static dielectric constant tensor:
#      x y z
#    x 4.431710 0.000000 0.354700 
#    y 0.000000 4.730080 0.000000 
#    z 0.354700 0.000000 4.166310 
# 
# 
# High freq. dielectric constant tensor:
#      x y z
#    x 1.942010 0.000000 0.015170 
#    y 0.000000 1.975220 0.000000 
#    z 0.015170 0.000000 1.920060 
# 
# From -- ./inp_files/9445.got.cif
#   From: 2010.03.12/outbox.cif.g09.slc.cpg/sg4_5_cif.got.tgz:9445.got - 2010.03.31 09:31:35.
