data_PCOD8047014
_publ_section_title
;
Structure prediction by ZEFSAII (Michael W. Deem and Ramdas Pophale) SiO2 
 PCOD8047014
Probable space group: P 21
;
_chemical_formula_sum "Si O2"
_cell_formula_units_Z 12
_cell_length_a 5.216903
_cell_length_b 17.439399
_cell_length_c 5.353632
_cell_angle_alpha 90.000000
_cell_angle_beta 84.221550
_cell_angle_gamma 90.000000
_cell_volume 484.596599
_symmetry_space_group_name_H-M "P 21"
_symmetry_group_IT_number 4
_symmetry_cell_setting 'monoclinic'
loop_
_space_group_symop_operation_xyz
x,y,z
-x,1/2+y,-z
loop_
_atom_site_type_symbol
_atom_site_label
_atom_site_fract_x
_atom_site_fract_y
_atom_site_fract_z
Si Si1 0.473158 0.177530 0.963869
Si Si2 0.827405 0.911085 0.625153
Si Si3 0.029579 0.616167 0.814958
Si Si4 0.584175 0.063329 0.569895
Si Si5 0.387579 0.349311 0.874210
Si Si6 0.240945 0.974765 0.258914
O O1 0.401093 0.118474 0.748681
O O2 0.496828 0.263766 0.864851
O O3 0.755927 0.152622 0.026944
O O4 0.226421 0.169576 0.172605
O O5 0.725203 0.866141 0.388459
O O6 0.114287 0.937515 0.521869
O O7 0.653793 0.985260 0.706522
O O8 0.819877 0.859601 0.877997
O O9 0.157362 0.611549 0.526961
O O10 0.962087 0.525114 0.887641
O O11 0.443573 0.040144 0.325358
O O12 0.626129 0.406686 0.908852
#
# Coordination Sequence:
#
# PCOD8047014 Si02
#       6
#     2   2   2   2   2   2
#     4  12  28  43  76 107 156 189 251 310 387 434
#     4  10  25  44  74 103 147 195 254 302 372 450
#     4  11  25  46  70 108 141 195 249 309 364 450
#     4  10  24  45  73 106 138 198 250 310 362 450
#     4  11  27  47  69 113 152 202 242 317 380 448
#     4  10  23  47  78 105 148 197 264 300 375 446
#
# _framework density 24.762868000000001
#
# number of rings (size 3 to 8) (size 9 to 14) (size 15 to 20)
#    0.000    1.333    1.667    1.000   14.000    4.000 
#    0.000    0.000    0.000    0.000    0.000    0.000 
#    0.000    0.000    0.000    0.000    0.000    0.000 
#
# Total GULP energy -148671.265345 kJ/mol
# GULP energy per Si atom -12389.272112 kJ/mol
# Density = 2.470651 g / cm^3
# Si number density = 24.762868 Si / 1000 Ang^3
#
#
#
# Elastic Constant Matrix: (Units=GPa)
#
#
# Indices 1 2 3 4 5 6 
#
# 1 102.2791 22.9073 13.6968 0.0000 -11.7986 0.0000
# 2 22.9073 96.2511 37.9512 0.0000 -4.0485 0.0000
# 3 13.6968 37.9512 92.8614 0.0000 -8.1671 0.0000
# 4 0.0000 0.0000 0.0000 38.5040 0.0000 -1.9145
# 5 -11.7986 -4.0485 -8.1671 0.0000 28.1523 0.0000
# 6 0.0000 0.0000 0.0000 -1.9145 0.0000 28.7558
#
#
#
# Elastic Compliance Matrix: (Units=1/GPa)
#
#
# Indices 1 2 3 4 5 6 
#
# 1 0.010802 -0.002280 -0.000300 0.000000 0.004112 0.000000
# 2 -0.002280 0.012869 -0.004971 0.000000 -0.000547 0.000000
# 3 -0.000300 -0.004971 0.013105 0.000000 0.002961 0.000000
# 4 0.000000 0.000000 0.000000 0.026058 0.000000 0.001735
# 5 0.004112 -0.000547 0.002961 0.000000 0.038025 0.000000
# 6 0.000000 0.000000 0.000000 0.001735 0.000000 0.034891
#
#
# Mechanical properties :
#
#
# Convention : Reuss Voigt Hill
#
# Bulk Modulus (GPa) = 46.13665 48.94471 47.54068
# Shear Modulus (GPa) = 31.63016 33.53819 32.58417
#
# Velocity S-wave (km/s) = 3.57784 3.68417 3.63140
# Velocity P-wave (km/s) = 5.97827 6.15677 6.06818
#
# Compressibility (1/GPa) = 0.02167474
#
# Stress axis : x y z
#
# Youngs Moduli (GPa) = 92.57292 77.70495 76.30600
#
# Poissons Ratio (x) = 0.17714 0.02289
# Poissons Ratio (y) = 0.21103 0.37934
# Poissons Ratio (z) = 0.02777 0.38630
#
# Static dielectric constant tensor:
#      x y z
#    x 4.510910 0.000000 -0.328300 
#    y 0.000000 4.424620 0.000000 
#    z -0.328300 0.000000 4.217920 
# 
# 
# High freq. dielectric constant tensor:
#      x y z
#    x 1.986620 0.000000 -0.023170 
#    y 0.000000 1.978630 0.000000 
#    z -0.023170 0.000000 1.971310 
# 
# From -- ./inp_files/327.got.cif
#   From: 2010.03.12/outbox.cif.g09.slc.cpg/sg4_1_cif.got.tgz:327.got - 2010.03.31 09:31:35.
