data_PCOD8047723
_publ_section_title
;
Structure prediction by ZEFSAII (Michael W. Deem and Ramdas Pophale) SiO2 
 PCOD8047723
Probable space group: P 21
;
_chemical_formula_sum "Si O2"
_cell_formula_units_Z 16
_cell_length_a 11.533486
_cell_length_b 7.974721
_cell_length_c 16.672947
_cell_angle_alpha 90.000000
_cell_angle_beta 22.379631
_cell_angle_gamma 90.000000
_cell_volume 583.873644
_symmetry_space_group_name_H-M "P 21"
_symmetry_group_IT_number 4
_symmetry_cell_setting 'monoclinic'
loop_
_space_group_symop_operation_xyz
x,y,z
-x,1/2+y,-z
loop_
_atom_site_type_symbol
_atom_site_label
_atom_site_fract_x
_atom_site_fract_y
_atom_site_fract_z
Si Si1 0.190455 0.332760 0.733874
Si Si2 0.232879 0.122608 0.164977
Si Si3 0.558822 0.296392 0.347132
Si Si4 0.435349 0.662524 0.377043
Si Si5 0.332783 0.846183 0.232016
Si Si6 0.858165 0.683814 0.965969
Si Si7 0.755505 0.645435 0.600756
Si Si8 0.403244 0.824040 0.956891
O O1 0.447680 0.268872 0.508785
O O2 0.310260 0.276450 0.743351
O O3 0.094019 0.529006 0.800138
O O4 0.889192 0.233160 0.896314
O O5 0.509614 0.248264 0.011347
O O6 0.909511 0.221039 0.381039
O O7 0.226613 0.977112 0.234244
O O8 0.312991 0.021662 0.029072
O O9 0.426575 0.474211 0.411042
O O10 0.428579 0.164569 0.365253
O O11 0.927141 0.303139 0.117082
O O12 0.540579 0.649229 0.216665
O O13 0.699965 0.784390 0.989288
O O14 0.114947 0.683418 0.362614
O O15 0.304503 0.952476 0.334052
O O16 0.664173 0.788132 0.725207
#
# Coordination Sequence:
#
# PCOD8047723 Si02
#       8
#     2   2   2   2   2   2   2   2
#     4  12  28  49  76 108 155 203 258 324 387 468
#     4  11  26  48  73 112 160 200 257 325 386 479
#     4  12  27  49  73 114 153 200 261 321 391 461
#     4  12  25  52  72 113 153 198 265 317 393 467
#     4  11  26  48  76 115 150 204 263 318 398 463
#     4  12  28  48  79 110 150 207 254 329 390 468
#     4  11  25  48  76 113 157 202 262 328 388 474
#     4  11  25  46  73 113 146 206 250 318 397 454
#
# _framework density 27.403186999999999
#
# number of rings (size 3 to 8) (size 9 to 14) (size 15 to 20)
#    0.000    0.500    2.500    4.500   10.500    1.000 
#    2.250    0.000    0.000    0.000    0.000    0.000 
#    0.000    0.000    0.000    0.000    0.000    0.000 
#
# Total GULP energy -198219.131431 kJ/mol
# GULP energy per Si atom -12388.695714 kJ/mol
# Density = 2.734082 g / cm^3
# Si number density = 27.403187 Si / 1000 Ang^3
#
#
#
# Elastic Constant Matrix: (Units=GPa)
#
#
# Indices 1 2 3 4 5 6 
#
# 1 127.9280 11.7615 42.9341 0.0000 -28.4649 0.0000
# 2 11.7615 73.0265 25.0826 0.0000 -18.6739 0.0000
# 3 42.9341 25.0826 150.9653 0.0000 -21.7626 0.0000
# 4 0.0000 0.0000 0.0000 46.4701 0.0000 -4.7423
# 5 -28.4649 -18.6739 -21.7626 0.0000 66.6334 0.0000
# 6 0.0000 0.0000 0.0000 -4.7423 0.0000 28.9459
#
#
#
# Elastic Compliance Matrix: (Units=1/GPa)
#
#
# Indices 1 2 3 4 5 6 
#
# 1 0.009268 0.000093 -0.002179 0.000000 0.003273 0.000000
# 2 0.000093 0.015318 -0.002043 0.000000 0.003665 0.000000
# 3 -0.002179 -0.002043 0.007731 0.000000 0.001021 0.000000
# 4 0.000000 0.000000 0.000000 0.021885 0.000000 0.003585
# 5 0.003273 0.003665 0.001021 0.000000 0.017767 0.000000
# 6 0.000000 0.000000 0.000000 0.003585 0.000000 0.035135
#
#
# Mechanical properties :
#
#
# Convention : Reuss Voigt Hill
#
# Bulk Modulus (GPa) = 41.56745 56.83069 49.19907
# Shear Modulus (GPa) = 40.52495 46.55267 43.53881
#
# Velocity S-wave (km/s) = 3.84974 4.12613 3.99033
# Velocity P-wave (km/s) = 5.91291 6.59421 6.26283
#
# Compressibility (1/GPa) = 0.02405728
#
# Stress axis : x y z
#
# Youngs Moduli (GPa) = 107.89639 65.28410 129.35741
#
# Poissons Ratio (x) = -0.00607 0.28192
# Poissons Ratio (y) = -0.01003 0.26429
# Poissons Ratio (z) = 0.23515 0.13338
#
# Static dielectric constant tensor:
#      x y z
#    x 6.938850 0.000000 0.464610 
#    y 0.000000 4.899810 0.000000 
#    z 0.464610 0.000000 5.261580 
# 
# 
# High freq. dielectric constant tensor:
#      x y z
#    x 2.145920 0.000000 -0.006720 
#    y 0.000000 2.096460 0.000000 
#    z -0.006720 0.000000 2.110580 
# 
# From -- ./inp_files/15149.got.cif
#   From: 2010.03.12/outbox.cif.g09.slc.cpg/sg4_8_cif.got.tgz:15149.got - 2010.03.31 09:31:35.
