data_PCOD8047364
_publ_section_title
;
Structure prediction by ZEFSAII (Michael W. Deem and Ramdas Pophale) SiO2 
 PCOD8047364
Probable space group: P 21
;
_chemical_formula_sum "Si O2"
_cell_formula_units_Z 16
_cell_length_a 6.774275
_cell_length_b 10.301184
_cell_length_c 14.772979
_cell_angle_alpha 90.000000
_cell_angle_beta 46.630187
_cell_angle_gamma 90.000000
_cell_volume 749.401513
_symmetry_space_group_name_H-M "P 21"
_symmetry_group_IT_number 4
_symmetry_cell_setting 'monoclinic'
loop_
_space_group_symop_operation_xyz
x,y,z
-x,1/2+y,-z
loop_
_atom_site_type_symbol
_atom_site_label
_atom_site_fract_x
_atom_site_fract_y
_atom_site_fract_z
Si Si1 0.814800 0.913210 0.660112
Si Si2 0.258740 0.224662 0.147323
Si Si3 0.236227 0.315631 0.950776
Si Si4 0.299228 0.702656 0.308927
Si Si5 0.309009 0.274685 0.480810
Si Si6 0.418173 0.864805 0.432005
Si Si7 0.278764 0.590911 0.720018
Si Si8 0.786251 0.116551 0.059389
O O1 0.783793 0.830316 0.761034
O O2 0.666289 0.845551 0.623119
O O3 0.127479 0.935379 0.533871
O O4 0.667478 0.050784 0.722849
O O5 0.541717 0.148130 0.068078
O O6 0.017922 0.118214 0.228788
O O7 0.253659 0.294382 0.052550
O O8 0.530313 0.290565 0.814502
O O9 0.132281 0.464209 0.971265
O O10 0.038667 0.213132 0.961189
O O11 0.378235 0.729860 0.389516
O O12 0.990717 0.745303 0.390881
O O13 0.456283 0.360531 0.508810
O O14 0.487809 0.145473 0.418802
O O15 0.641759 0.939894 0.300235
O O16 0.307726 0.651778 0.810022
#
# Coordination Sequence:
#
# PCOD8047364 Si02
#       8
#     2   2   2   2   2   2   2   2
#     4  11  24  41  67 103 140 177 222 279 338 407
#     4  11  26  43  75  97 137 182 226 280 344 401
#     4  11  28  48  71 101 133 186 232 281 345 399
#     4  11  26  43  65 103 140 175 226 279 338 408
#     4  11  24  40  68 100 139 176 216 280 337 403
#     4  11  24  42  66 102 139 177 222 273 343 405
#     4  11  22  44  68 101 133 178 222 271 343 399
#     4  11  26  49  70  97 141 179 234 289 330 408
#
# _framework density 21.350372
#
# number of rings (size 3 to 8) (size 9 to 14) (size 15 to 20)
#    0.000    1.000    5.000    0.000    7.000    2.000 
#    0.000    0.000    0.000    0.000    0.000    0.000 
#    0.000    0.000    0.000    0.000    0.000    0.000 
#
# Total GULP energy -198365.880989 kJ/mol
# GULP energy per Si atom -12397.867562 kJ/mol
# Density = 2.130178 g / cm^3
# Si number density = 21.350372 Si / 1000 Ang^3
#
#
#
# Elastic Constant Matrix: (Units=GPa)
#
#
# Indices 1 2 3 4 5 6 
#
# 1 134.9507 39.1297 38.2052 0.0000 -5.1781 0.0000
# 2 39.1297 117.5314 28.6964 0.0000 -16.6642 0.0000
# 3 38.2052 28.6964 87.1653 0.0000 -5.4007 0.0000
# 4 0.0000 0.0000 0.0000 35.5751 0.0000 -3.3020
# 5 -5.1781 -16.6642 -5.4007 0.0000 31.3736 0.0000
# 6 0.0000 0.0000 0.0000 -3.3020 0.0000 31.7159
#
#
#
# Elastic Compliance Matrix: (Units=1/GPa)
#
#
# Indices 1 2 3 4 5 6 
#
# 1 0.008956 -0.002236 -0.003205 0.000000 -0.000261 0.000000
# 2 -0.002236 0.010465 -0.002167 0.000000 0.004816 0.000000
# 3 -0.003205 -0.002167 0.013632 0.000000 0.000667 0.000000
# 4 0.000000 0.000000 0.000000 0.028384 0.000000 0.002955
# 5 -0.000261 0.004816 0.000667 0.000000 0.034504 0.000000
# 6 0.000000 0.000000 0.000000 0.002955 0.000000 0.031838
#
#
# Mechanical properties :
#
#
# Convention : Reuss Voigt Hill
#
# Bulk Modulus (GPa) = 56.06568 61.30111 58.68340
# Shear Modulus (GPa) = 33.57061 35.30734 34.43897
#
# Velocity S-wave (km/s) = 3.96961 4.07100 4.02062
# Velocity P-wave (km/s) = 6.87948 7.13244 7.00710
#
# Compressibility (1/GPa) = 0.01783622
#
# Stress axis : x y z
#
# Youngs Moduli (GPa) = 111.65771 95.55915 73.35647
#
# Poissons Ratio (x) = 0.21368 0.23514
# Poissons Ratio (y) = 0.24968 0.15894
# Poissons Ratio (z) = 0.35792 0.20704
#
# Static dielectric constant tensor:
#      x y z
#    x 3.881890 0.000000 -0.089360 
#    y 0.000000 3.792420 0.000000 
#    z -0.089360 0.000000 3.847710 
# 
# 
# High freq. dielectric constant tensor:
#      x y z
#    x 1.843790 0.000000 -0.001970 
#    y 0.000000 1.834480 0.000000 
#    z -0.001970 0.000000 1.842350 
# 
# From -- ./inp_files/2734.got.cif
#   From: 2010.03.12/outbox.cif.g09.slc.cpg/sg4_2_cif.got.tgz:2734.got - 2010.03.31 09:31:35.
