data_PCOD8047437
_publ_section_title
;
Structure prediction by ZEFSAII (Michael W. Deem and Ramdas Pophale) SiO2 
 PCOD8047437
Probable space group: P 21
;
_chemical_formula_sum "Si O2"
_cell_formula_units_Z 16
_cell_length_a 19.272890
_cell_length_b 8.489030
_cell_length_c 9.603480
_cell_angle_alpha 90.000000
_cell_angle_beta 151.289764
_cell_angle_gamma 90.000000
_cell_volume 754.776970
_symmetry_space_group_name_H-M "P 21"
_symmetry_group_IT_number 4
_symmetry_cell_setting 'monoclinic'
loop_
_space_group_symop_operation_xyz
x,y,z
-x,1/2+y,-z
loop_
_atom_site_type_symbol
_atom_site_label
_atom_site_fract_x
_atom_site_fract_y
_atom_site_fract_z
Si Si1 0.569478 0.772480 0.745705
Si Si2 0.575594 0.629433 0.229238
Si Si3 0.132374 0.139333 0.654173
Si Si4 0.625506 0.274768 0.329229
Si Si5 0.588734 0.132537 0.789463
Si Si6 0.913850 0.141208 0.774729
Si Si7 0.855349 0.778890 0.626829
Si Si8 0.112550 0.771188 0.577556
O O1 0.482597 0.751821 0.734580
O O2 0.459622 0.723272 0.432524
O O3 0.621079 0.950789 0.812544
O O4 0.711049 0.663420 0.999391
O O5 0.633066 0.455805 0.293271
O O6 0.545356 0.645746 0.339879
O O7 0.688079 0.759406 0.373251
O O8 0.425666 0.664043 0.887505
O O9 0.119307 0.237046 0.489011
O O10 0.009736 0.196699 0.542118
O O11 0.109098 0.957611 0.583228
O O12 0.785630 0.212654 0.644890
O O13 0.732345 0.208488 0.103106
O O14 0.920729 0.229694 0.640112
O O15 0.900437 0.957129 0.726803
O O16 0.058657 0.165951 0.117156
#
# Coordination Sequence:
#
# PCOD8047437 Si02
#       8
#     2   2   2   2   2   2   2   2
#     4  11  25  44  68  99 135 175 222 272 329 394
#     4  11  23  42  69  98 132 173 221 273 330 392
#     4  12  26  46  70  97 135 177 221 274 333 397
#     4  11  23  42  69  98 132 173 221 273 330 392
#     4  11  25  44  68  99 135 175 222 272 329 394
#     4  12  26  45  69  99 135 176 224 274 331 395
#     4  12  26  45  69  99 135 176 224 274 331 395
#     4  12  26  46  70  97 135 177 221 274 333 397
#
# _framework density 21.198315000000001
#
# number of rings (size 3 to 8) (size 9 to 14) (size 15 to 20)
#    0.000    0.500    2.500    6.000    3.500    3.000 
#    0.000    0.000    0.000    0.000    0.000    0.000 
#    0.000    0.000    0.000    0.000    0.000    0.000 
#
# Total GULP energy -198517.664960 kJ/mol
# GULP energy per Si atom -12407.354060 kJ/mol
# Density = 2.115007 g / cm^3
# Si number density = 21.198315 Si / 1000 Ang^3
#
#
#
# Elastic Constant Matrix: (Units=GPa)
#
#
# Indices 1 2 3 4 5 6 
#
# 1 66.8054 31.2160 31.8889 0.0000 17.2232 0.0000
# 2 31.2160 87.2039 -6.5836 0.0000 9.0207 0.0000
# 3 31.8889 -6.5836 85.0771 0.0000 -4.5049 0.0000
# 4 0.0000 0.0000 0.0000 38.2188 0.0000 -1.0896
# 5 17.2232 9.0207 -4.5049 0.0000 33.3875 0.0000
# 6 0.0000 0.0000 0.0000 -1.0896 0.0000 27.7171
#
#
#
# Elastic Compliance Matrix: (Units=1/GPa)
#
#
# Indices 1 2 3 4 5 6 
#
# 1 0.029169 -0.009928 -0.012445 0.000000 -0.014044 0.000000
# 2 -0.009928 0.015224 0.004989 0.000000 0.001682 0.000000
# 3 -0.012445 0.004989 0.017196 0.000000 0.007392 0.000000
# 4 0.000000 0.000000 0.000000 0.026195 0.000000 0.001030
# 5 -0.014044 0.001682 0.007392 0.000000 0.037739 0.000000
# 6 0.000000 0.000000 0.000000 0.001030 0.000000 0.036119
#
#
# Mechanical properties :
#
#
# Convention : Reuss Voigt Hill
#
# Bulk Modulus (GPa) = 37.28646 39.12542 38.20594
# Shear Modulus (GPa) = 24.34828 32.03568 28.19198
#
# Velocity S-wave (km/s) = 3.39277 3.89168 3.65076
# Velocity P-wave (km/s) = 5.74242 6.22017 5.98606
#
# Compressibility (1/GPa) = 0.02681939
#
# Stress axis : x y z
#
# Youngs Moduli (GPa) = 34.28239 65.68526 58.15190
#
# Poissons Ratio (x) = 0.65216 0.72372
# Poissons Ratio (y) = 0.34037 -0.29010
# Poissons Ratio (z) = 0.42666 -0.32768
#
# Static dielectric constant tensor:
#      x y z
#    x 3.912520 0.000000 -0.019380 
#    y 0.000000 3.975030 0.000000 
#    z -0.019380 0.000000 3.936890 
# 
# 
# High freq. dielectric constant tensor:
#      x y z
#    x 1.840810 0.000000 0.002780 
#    y 0.000000 1.848540 0.000000 
#    z 0.002780 0.000000 1.840660 
# 
# From -- ./inp_files/5595.got.cif
#   From: 2010.03.12/outbox.cif.g09.slc.cpg/sg4_3_cif.got.tgz:5595.got - 2010.03.31 09:31:35.
