data_PCOD8047892
_publ_section_title
;
Structure prediction by ZEFSAII (Michael W. Deem and Ramdas Pophale) SiO2 
 PCOD8047892
Probable space group: P 21
;
_chemical_formula_sum "Si O2"
_cell_formula_units_Z 14
_cell_length_a 7.870070
_cell_length_b 4.749846
_cell_length_c 17.796251
_cell_angle_alpha 90.000000
_cell_angle_beta 44.766917
_cell_angle_gamma 90.000000
_cell_volume 468.487172
_symmetry_space_group_name_H-M "P 21"
_symmetry_group_IT_number 4
_symmetry_cell_setting 'monoclinic'
loop_
_space_group_symop_operation_xyz
x,y,z
-x,1/2+y,-z
loop_
_atom_site_type_symbol
_atom_site_label
_atom_site_fract_x
_atom_site_fract_y
_atom_site_fract_z
Si Si1 0.898278 0.789460 0.567226
Si Si2 0.475094 0.664316 0.107472
Si Si3 0.361796 0.196554 0.570540
Si Si4 0.483997 0.826152 0.320935
Si Si5 0.087900 0.030052 0.282881
Si Si6 0.356591 0.831676 0.812834
Si Si7 0.894222 0.856248 0.868447
O O1 0.718284 0.550280 0.587635
O O2 0.892425 0.777247 0.660356
O O3 0.135277 0.607812 0.459267
O O4 0.599070 0.403129 0.113482
O O5 0.223386 0.605263 0.143029
O O6 0.367401 0.914412 0.194189
O O7 0.673364 0.736657 0.984874
O O8 0.410599 0.871121 0.535512
O O9 0.345276 0.239520 0.664393
O O10 0.101563 0.302157 0.622748
O O11 0.639179 0.001910 0.209338
O O12 0.432102 0.517185 0.296554
O O13 0.003531 0.145867 0.228147
O O14 0.100510 0.953795 0.862205
#
# Coordination Sequence:
#
# PCOD8047892 Si02
#       7
#     2   2   2   2   2   2   2
#     4  12  26  45  75 113 154 210 272 334 412 488
#     4  12  28  51  83 120 161 218 279 340 419 500
#     4  12  26  45  75 113 154 210 272 334 412 488
#     4  12  24  49  72 111 153 204 266 327 410 492
#     4  12  26  51  78 111 169 212 267 358 404 484
#     4  12  28  50  82 112 166 208 265 341 416 488
#     4  12  28  51  83 120 161 218 279 340 419 500
#
# _framework density 29.883420999999998
#
# number of rings (size 3 to 8) (size 9 to 14) (size 15 to 20)
#    0.000    0.000    4.286    5.143    4.000    2.286 
#    0.000    0.000    0.000    0.000    0.000    0.000 
#    0.000    0.000    0.000    0.000    0.000    0.000 
#
# Total GULP energy -173496.037164 kJ/mol
# GULP energy per Si atom -12392.574083 kJ/mol
# Density = 2.981540 g / cm^3
# Si number density = 29.883421 Si / 1000 Ang^3
#
#
#
# Elastic Constant Matrix: (Units=GPa)
#
#
# Indices 1 2 3 4 5 6 
#
# 1 133.5730 7.8748 2.9415 0.0000 11.4023 0.0000
# 2 7.8748 143.1195 12.6568 0.0000 15.0459 0.0000
# 3 2.9415 12.6568 110.8005 0.0000 2.7722 0.0000
# 4 0.0000 0.0000 0.0000 29.7150 0.0000 3.8810
# 5 11.4023 15.0459 2.7722 0.0000 37.1255 0.0000
# 6 0.0000 0.0000 0.0000 3.8810 0.0000 43.6626
#
#
#
# Elastic Compliance Matrix: (Units=1/GPa)
#
#
# Indices 1 2 3 4 5 6 
#
# 1 0.007694 -0.000172 -0.000127 0.000000 -0.002284 0.000000
# 2 -0.000172 0.007367 -0.000765 0.000000 -0.002876 0.000000
# 3 -0.000127 -0.000765 0.009124 0.000000 -0.000332 0.000000
# 4 0.000000 0.000000 0.000000 0.034048 0.000000 -0.003026
# 5 -0.002284 -0.002876 -0.000332 0.000000 0.028827 0.000000
# 6 0.000000 0.000000 0.000000 -0.003026 0.000000 0.023172
#
#
# Mechanical properties :
#
#
# Convention : Reuss Voigt Hill
#
# Bulk Modulus (GPa) = 45.33820 48.27104 46.80462
# Shear Modulus (GPa) = 41.76623 46.36861 44.06742
#
# Velocity S-wave (km/s) = 3.74256 3.94337 3.84428
# Velocity P-wave (km/s) = 5.82068 6.07633 5.94988
#
# Compressibility (1/GPa) = 0.02205645
#
# Stress axis : x y z
#
# Youngs Moduli (GPa) = 129.96366 135.74818 109.59730
#
# Poissons Ratio (x) = 0.02335 0.01397
# Poissons Ratio (y) = 0.02235 0.08384
# Poissons Ratio (z) = 0.01657 0.10384
#
# Static dielectric constant tensor:
#      x y z
#    x 5.595730 0.000000 -0.202430 
#    y 0.000000 5.651210 0.000000 
#    z -0.202430 0.000000 5.721900 
# 
# 
# High freq. dielectric constant tensor:
#      x y z
#    x 2.228410 0.000000 -0.007500 
#    y 0.000000 2.235000 0.000000 
#    z -0.007500 0.000000 2.240580 
# 
# From -- ./inp_files/9455.got.cif
#   From: 2010.03.12/outbox.cif.g09.slc.cpg/sg4_5_cif.got.tgz:9455.got - 2010.03.31 09:31:35.
