data_PCOD8047663
_publ_section_title
;
Structure prediction by ZEFSAII (Michael W. Deem and Ramdas Pophale) SiO2 
 PCOD8047663
Probable space group: P 21
;
_chemical_formula_sum "Si O2"
_cell_formula_units_Z 16
_cell_length_a 9.774882
_cell_length_b 9.541130
_cell_length_c 13.830849
_cell_angle_alpha 90.000000
_cell_angle_beta 30.324833
_cell_angle_gamma 90.000000
_cell_volume 651.279014
_symmetry_space_group_name_H-M "P 21"
_symmetry_group_IT_number 4
_symmetry_cell_setting 'monoclinic'
loop_
_space_group_symop_operation_xyz
x,y,z
-x,1/2+y,-z
loop_
_atom_site_type_symbol
_atom_site_label
_atom_site_fract_x
_atom_site_fract_y
_atom_site_fract_z
Si Si1 0.231571 0.096350 0.455048
Si Si2 0.385578 0.653270 0.153456
Si Si3 0.854033 0.046469 0.390735
Si Si4 0.447100 0.818376 0.615780
Si Si5 0.384303 0.822043 0.437369
Si Si6 0.142462 0.023884 0.021381
Si Si7 0.051946 0.284581 0.973837
Si Si8 0.605043 0.476141 0.847963
O O1 0.428568 0.202442 0.389241
O O2 0.374898 0.048463 0.268579
O O3 0.929282 0.154984 0.623738
O O4 0.205298 0.961126 0.541051
O O5 0.499925 0.813966 0.087066
O O6 0.554008 0.559899 0.128084
O O7 0.425405 0.580481 0.024223
O O8 0.811919 0.193987 0.471624
O O9 0.924514 0.069892 0.235058
O O10 0.093598 0.960333 0.293273
O O11 0.573309 0.965044 0.571767
O O12 0.512404 0.788030 0.464296
O O13 0.122426 0.832380 0.826351
O O14 0.639696 0.839903 0.208920
O O15 0.065492 0.114092 0.971127
O O16 0.106561 0.857237 0.020562
#
# Coordination Sequence:
#
# PCOD8047663 Si02
#       8
#     2   2   2   2   2   2   2   2
#     4  12  29  46  79 116 147 201 264 309 383 468
#     4  11  28  51  76 112 160 204 249 331 381 455
#     4  11  24  48  70 104 156 198 245 312 388 446
#     4  12  25  47  74 108 150 197 252 318 381 452
#     4  12  26  46  73 109 155 192 249 325 380 452
#     4  11  25  46  72 110 148 199 255 313 385 453
#     4  12  25  45  75 108 144 199 258 307 379 458
#     4  11  28  49  77 113 150 202 260 309 387 460
#
# _framework density 24.567043999999999
#
# number of rings (size 3 to 8) (size 9 to 14) (size 15 to 20)
#    0.000    0.500    3.750    3.000    8.750    4.000 
#    0.000    0.000    0.000    0.000    0.000    0.000 
#    0.000    0.000    0.000    0.000    0.000    0.000 
#
# Total GULP energy -198288.900754 kJ/mol
# GULP energy per Si atom -12393.056297 kJ/mol
# Density = 2.451113 g / cm^3
# Si number density = 24.567044 Si / 1000 Ang^3
#
#
#
# Elastic Constant Matrix: (Units=GPa)
#
#
# Indices 1 2 3 4 5 6 
#
# 1 87.3377 45.2970 30.4833 0.0000 18.9625 0.0000
# 2 45.2970 128.7787 35.0269 0.0000 17.1009 0.0000
# 3 30.4833 35.0269 103.8258 0.0000 -2.1136 0.0000
# 4 0.0000 0.0000 0.0000 36.7063 0.0000 3.0579
# 5 18.9625 17.1009 -2.1136 0.0000 28.6106 0.0000
# 6 0.0000 0.0000 0.0000 3.0579 0.0000 48.4064
#
#
#
# Elastic Compliance Matrix: (Units=1/GPa)
#
#
# Indices 1 2 3 4 5 6 
#
# 1 0.016652 -0.003587 -0.003866 0.000000 -0.009178 0.000000
# 2 -0.003587 0.010220 -0.002474 0.000000 -0.003914 0.000000
# 3 -0.003866 -0.002474 0.011701 0.000000 0.004905 0.000000
# 4 0.000000 0.000000 0.000000 0.027387 0.000000 -0.001730
# 5 -0.009178 -0.003914 0.004905 0.000000 0.043737 0.000000
# 6 0.000000 0.000000 0.000000 -0.001730 0.000000 0.020768
#
#
# Mechanical properties :
#
#
# Convention : Reuss Voigt Hill
#
# Bulk Modulus (GPa) = 53.42210 60.17293 56.79751
# Shear Modulus (GPa) = 31.93685 36.68700 34.31193
#
# Velocity S-wave (km/s) = 3.60945 3.86857 3.74125
# Velocity P-wave (km/s) = 6.25807 6.67091 6.46778
#
# Compressibility (1/GPa) = 0.01871885
#
# Stress axis : x y z
#
# Youngs Moduli (GPa) = 60.05194 97.85050 85.46206
#
# Poissons Ratio (x) = 0.35099 0.33038
# Poissons Ratio (y) = 0.21541 0.21145
# Poissons Ratio (z) = 0.23215 0.24211
#
# Static dielectric constant tensor:
#      x y z
#    x 4.221130 0.000000 0.067410 
#    y 0.000000 4.538330 0.000000 
#    z 0.067410 0.000000 4.540230 
# 
# 
# High freq. dielectric constant tensor:
#      x y z
#    x 1.962670 0.000000 -0.000640 
#    y 0.000000 1.985010 0.000000 
#    z -0.000640 0.000000 1.986280 
# 
# From -- ./inp_files/13943.got.cif
#   From: 2010.03.12/outbox.cif.g09.slc.cpg/sg4_7_cif.got.tgz:13943.got - 2010.03.31 09:31:35.
