data_PCOD8047805
_publ_section_title
;
Structure prediction by ZEFSAII (Michael W. Deem and Ramdas Pophale) SiO2 
 PCOD8047805
Probable space group: P 21
;
_chemical_formula_sum "Si O2"
_cell_formula_units_Z 16
_cell_length_a 5.496447
_cell_length_b 4.797984
_cell_length_c 26.135358
_cell_angle_alpha 90.000000
_cell_angle_beta 117.981983
_cell_angle_gamma 90.000000
_cell_volume 608.662866
_symmetry_space_group_name_H-M "P 21"
_symmetry_group_IT_number 4
_symmetry_cell_setting 'monoclinic'
loop_
_space_group_symop_operation_xyz
x,y,z
-x,1/2+y,-z
loop_
_atom_site_type_symbol
_atom_site_label
_atom_site_fract_x
_atom_site_fract_y
_atom_site_fract_z
Si Si1 0.409217 0.484590 0.119883
Si Si2 0.838585 0.471641 0.244653
Si Si3 0.548834 0.155410 0.036496
Si Si4 0.769841 0.609085 0.666348
Si Si5 0.642814 0.281827 0.742990
Si Si6 0.684927 0.104461 0.589251
Si Si7 0.879443 0.494254 0.869181
Si Si8 0.867865 0.843565 0.509129
O O1 0.710501 0.444486 0.175079
O O2 0.388511 0.337122 0.062946
O O3 0.201633 0.318022 0.136211
O O4 0.305629 0.805258 0.109690
O O5 0.626764 0.631213 0.261398
O O6 0.920123 0.178650 0.279902
O O7 0.143067 0.598961 0.269046
O O8 0.802329 0.977151 0.084099
O O9 0.636405 0.400973 0.004704
O O10 0.566650 0.517485 0.693362
O O11 0.824077 0.369906 0.629591
O O12 0.619450 0.871775 0.625318
O O13 0.827896 0.407089 0.806486
O O14 0.417416 0.192997 0.531449
O O15 0.892354 0.966226 0.568719
O O16 0.097092 0.602007 0.526528
#
# Coordination Sequence:
#
# PCOD8047805 Si02
#       8
#     2   2   2   2   2   2   2   2
#     4  11  27  47  79 107 149 207 261 318 394 485
#     4  11  28  51  82 116 162 213 263 324 400 489
#     4  12  27  46  77 109 156 195 264 338 408 466
#     4  12  26  50  76 120 164 206 258 338 406 476
#     4  11  28  51  82 116 162 213 263 324 400 489
#     4  12  27  52  81 113 166 203 268 332 396 468
#     4  11  27  47  79 107 149 207 261 318 394 485
#     4  12  26  52  82 112 152 216 272 322 388 472
#
# _framework density 26.287133999999998
#
# number of rings (size 3 to 8) (size 9 to 14) (size 15 to 20)
#    0.000    0.500    1.250    5.250   15.750    3.000 
#    9.000    0.000    0.000    0.000    0.000    0.000 
#    0.000    0.000    0.000    0.000    0.000    0.000 
#
# Total GULP energy -198313.459198 kJ/mol
# GULP energy per Si atom -12394.591200 kJ/mol
# Density = 2.622730 g / cm^3
# Si number density = 26.287134 Si / 1000 Ang^3
#
#
#
# Elastic Constant Matrix: (Units=GPa)
#
#
# Indices 1 2 3 4 5 6 
#
# 1 86.8386 18.1954 13.3109 0.0000 -14.8110 0.0000
# 2 18.1954 127.4386 35.3659 0.0000 -13.1821 0.0000
# 3 13.3109 35.3659 95.3721 0.0000 -20.7375 0.0000
# 4 0.0000 0.0000 0.0000 63.3380 0.0000 1.4473
# 5 -14.8110 -13.1821 -20.7375 0.0000 21.9329 0.0000
# 6 0.0000 0.0000 0.0000 1.4473 0.0000 36.7306
#
#
#
# Elastic Compliance Matrix: (Units=1/GPa)
#
#
# Indices 1 2 3 4 5 6 
#
# 1 0.013153 -0.001110 0.000456 0.000000 0.008646 0.000000
# 2 -0.001110 0.008975 -0.002723 0.000000 0.002070 0.000000
# 3 0.000456 -0.002723 0.014026 0.000000 0.011933 0.000000
# 4 0.000000 0.000000 0.000000 0.015803 0.000000 -0.000623
# 5 0.008646 0.002070 0.011933 0.000000 0.063958 0.000000
# 6 0.000000 0.000000 0.000000 -0.000623 0.000000 0.027250
#
#
# Mechanical properties :
#
#
# Convention : Reuss Voigt Hill
#
# Bulk Modulus (GPa) = 34.01437 49.26595 41.64016
# Shear Modulus (GPa) = 31.30482 40.58544 35.94513
#
# Velocity S-wave (km/s) = 3.45466 3.93355 3.70185
# Velocity P-wave (km/s) = 5.37406 6.27794 5.84350
#
# Compressibility (1/GPa) = 0.02939933
#
# Stress axis : x y z
#
# Youngs Moduli (GPa) = 76.02851 111.41748 71.29577
#
# Poissons Ratio (x) = 0.12369 -0.03250
# Poissons Ratio (y) = 0.08440 0.19415
# Poissons Ratio (z) = -0.03466 0.30341
#
# Static dielectric constant tensor:
#      x y z
#    x 4.376160 0.000000 -0.165080 
#    y 0.000000 5.225570 0.000000 
#    z -0.165080 0.000000 5.005360 
# 
# 
# High freq. dielectric constant tensor:
#      x y z
#    x 2.026010 0.000000 -0.015660 
#    y 0.000000 2.079680 0.000000 
#    z -0.015660 0.000000 2.066190 
# 
# From -- ./inp_files/16285.got.cif
#   From: 2010.03.12/outbox.cif.g09.slc.cpg/sg4_9_cif.got.tgz:16285.got - 2010.03.31 09:31:35.
