data_PCOD8047608
_publ_section_title
;
Structure prediction by ZEFSAII (Michael W. Deem and Ramdas Pophale) SiO2 
 PCOD8047608
Probable space group: P 21
;
_chemical_formula_sum "Si O2"
_cell_formula_units_Z 14
_cell_length_a 17.243551
_cell_length_b 8.192696
_cell_length_c 6.508136
_cell_angle_alpha 90.000000
_cell_angle_beta 43.650441
_cell_angle_gamma 90.000000
_cell_volume 634.630391
_symmetry_space_group_name_H-M "P 21"
_symmetry_group_IT_number 4
_symmetry_cell_setting 'monoclinic'
loop_
_space_group_symop_operation_xyz
x,y,z
-x,1/2+y,-z
loop_
_atom_site_type_symbol
_atom_site_label
_atom_site_fract_x
_atom_site_fract_y
_atom_site_fract_z
Si Si1 0.787484 0.236600 0.981032
Si Si2 0.721827 0.810802 0.686759
Si Si3 0.017267 0.717473 0.692229
Si Si4 0.197079 0.110848 0.108686
Si Si5 0.394213 0.240236 0.485500
Si Si6 0.412640 0.522764 0.733587
Si Si7 0.094375 0.518374 0.910139
O O1 0.858755 0.200036 0.639286
O O2 0.776376 0.429831 0.017720
O O3 0.661087 0.172397 0.207358
O O4 0.844454 0.155856 0.071322
O O5 0.775003 0.655678 0.707184
O O6 0.623640 0.746614 0.724440
O O7 0.816609 0.904856 0.377710
O O8 0.661627 0.931185 0.957431
O O9 0.013298 0.610423 0.905779
O O10 0.932730 0.649106 0.683152
O O11 0.986920 0.906052 0.795344
O O12 0.271188 0.226883 0.822099
O O13 0.447040 0.406830 0.476540
O O14 0.472868 0.087594 0.386638
#
# Coordination Sequence:
#
# PCOD8047608 Si02
#       7
#     2   2   2   2   2   2   2
#     4  12  25  43  67 101 140 183 235 293 349 429
#     4  11  24  47  68 100 141 182 233 294 352 420
#     4  12  26  41  71 101 140 188 233 289 351 426
#     4  11  26  42  68 102 138 182 237 285 358 417
#     4  11  24  47  71  99 140 182 229 297 348 426
#     4  11  24  45  70 100 135 183 233 290 356 416
#     4  12  25  45  69 103 144 186 236 290 358 414
#
# _framework density 22.060085000000001
#
# number of rings (size 3 to 8) (size 9 to 14) (size 15 to 20)
#    0.000    0.571    4.286    3.429    6.000    4.571 
#    2.571    0.000    0.000    0.000    0.000    0.000 
#    0.000    0.000    0.000    0.000    0.000    0.000 
#
# Total GULP energy -173645.180657 kJ/mol
# GULP energy per Si atom -12403.227190 kJ/mol
# Density = 2.200988 g / cm^3
# Si number density = 22.060085 Si / 1000 Ang^3
#
#
#
# Elastic Constant Matrix: (Units=GPa)
#
#
# Indices 1 2 3 4 5 6 
#
# 1 154.1985 59.9673 13.8423 0.0000 18.2214 0.0000
# 2 59.9673 125.8266 10.5261 0.0000 16.5487 0.0000
# 3 13.8423 10.5261 49.4729 0.0000 6.1359 0.0000
# 4 0.0000 0.0000 0.0000 31.2508 0.0000 0.6940
# 5 18.2214 16.5487 6.1359 0.0000 33.7972 0.0000
# 6 0.0000 0.0000 0.0000 0.6940 0.0000 53.2770
#
#
#
# Elastic Compliance Matrix: (Units=1/GPa)
#
#
# Indices 1 2 3 4 5 6 
#
# 1 0.008255 -0.003499 -0.001254 0.000000 -0.002510 0.000000
# 2 -0.003499 0.010063 -0.000803 0.000000 -0.002895 0.000000
# 3 -0.001254 -0.000803 0.021077 0.000000 -0.002757 0.000000
# 4 0.000000 0.000000 0.000000 0.032008 0.000000 -0.000417
# 5 -0.002510 -0.002895 -0.002757 0.000000 0.032859 0.000000
# 6 0.000000 0.000000 0.000000 -0.000417 0.000000 0.018775
#
#
# Mechanical properties :
#
#
# Convention : Reuss Voigt Hill
#
# Bulk Modulus (GPa) = 35.35753 55.35217 45.35485
# Shear Modulus (GPa) = 34.82428 40.00915 37.41672
#
# Velocity S-wave (km/s) = 3.97748 4.26331 4.12287
# Velocity P-wave (km/s) = 6.09561 7.02712 6.57788
#
# Compressibility (1/GPa) = 0.02828252
#
# Stress axis : x y z
#
# Youngs Moduli (GPa) = 121.13645 99.37300 47.44566
#
# Poissons Ratio (x) = 0.34774 0.05950
# Poissons Ratio (y) = 0.42390 0.03810
# Poissons Ratio (z) = 0.15190 0.07979
#
# Static dielectric constant tensor:
#      x y z
#    x 4.193590 0.000000 0.080330 
#    y 0.000000 4.007910 0.000000 
#    z 0.080330 0.000000 3.843730 
# 
# 
# High freq. dielectric constant tensor:
#      x y z
#    x 1.879190 0.000000 0.001710 
#    y 0.000000 1.876030 0.000000 
#    z 0.001710 0.000000 1.861550 
# 
# From -- ./inp_files/2363.got.cif
#   From: 2010.03.12/outbox.cif.g09.slc.cpg/sg4_2_cif.got.tgz:2363.got - 2010.03.31 09:31:35.
