data_PCOD8047610
_publ_section_title
;
Structure prediction by ZEFSAII (Michael W. Deem and Ramdas Pophale) SiO2 
 PCOD8047610
Probable space group: P 21
;
_chemical_formula_sum "Si O2"
_cell_formula_units_Z 14
_cell_length_a 20.032706
_cell_length_b 6.585063
_cell_length_c 6.719571
_cell_angle_alpha 90.000000
_cell_angle_beta 46.396245
_cell_angle_gamma 90.000000
_cell_volume 641.882652
_symmetry_space_group_name_H-M "P 21"
_symmetry_group_IT_number 4
_symmetry_cell_setting 'monoclinic'
loop_
_space_group_symop_operation_xyz
x,y,z
-x,1/2+y,-z
loop_
_atom_site_type_symbol
_atom_site_label
_atom_site_fract_x
_atom_site_fract_y
_atom_site_fract_z
Si Si1 0.126243 0.875000 0.813992
Si Si2 0.994771 0.195885 0.263028
Si Si3 0.394489 0.861964 0.878113
Si Si4 0.700252 0.650343 0.634169
Si Si5 0.287831 0.467833 0.059744
Si Si6 0.116467 0.547646 0.150085
Si Si7 0.406469 0.200420 0.544907
O O1 0.094589 0.759728 0.680039
O O2 0.208970 0.021300 0.588925
O O3 0.159055 0.714935 0.913718
O O4 0.038658 0.997234 0.075471
O O5 0.071181 0.371634 0.111150
O O6 0.962015 0.149897 0.553485
O O7 0.488928 0.746052 0.731084
O O8 0.398396 0.976395 0.657650
O O9 0.310480 0.703072 0.050829
O O10 0.376295 0.021427 0.090773
O O11 0.727929 0.851758 0.699739
O O12 0.657450 0.718275 0.515192
O O13 0.195558 0.447088 0.121068
O O14 0.373559 0.370214 0.767193
#
# Coordination Sequence:
#
# PCOD8047610 Si02
#       7
#     2   2   2   2   2   2   2
#     4  12  26  47  66 103 140 179 229 283 343 403
#     4  12  26  42  72 100 135 182 232 276 339 409
#     4  11  24  45  70 102 139 181 227 276 340 409
#     4  11  28  42  71 105 138 175 232 285 336 409
#     4  11  26  45  71 102 137 179 225 281 342 411
#     4  12  26  45  70  98 140 180 225 282 342 407
#     4  11  24  46  70 102 141 180 226 279 340 404
#
# _framework density 21.810842000000001
#
# number of rings (size 3 to 8) (size 9 to 14) (size 15 to 20)
#    0.000    0.571    4.286    2.571    6.000    6.857 
#    0.000    0.000    0.000    0.000    0.000    0.000 
#    0.000    0.000    0.000    0.000    0.000    0.000 
#
# Total GULP energy -173728.842308 kJ/mol
# GULP energy per Si atom -12409.203022 kJ/mol
# Density = 2.176120 g / cm^3
# Si number density = 21.810842 Si / 1000 Ang^3
#
#
#
# Elastic Constant Matrix: (Units=GPa)
#
#
# Indices 1 2 3 4 5 6 
#
# 1 112.0175 24.2057 10.5845 0.0000 10.1546 0.0000
# 2 24.2057 95.6490 17.8983 0.0000 9.9985 0.0000
# 3 10.5845 17.8983 62.8235 0.0000 2.9738 0.0000
# 4 0.0000 0.0000 0.0000 39.0939 0.0000 -3.6464
# 5 10.1546 9.9985 2.9738 0.0000 36.6627 0.0000
# 6 0.0000 0.0000 0.0000 -3.6464 0.0000 41.8588
#
#
#
# Elastic Compliance Matrix: (Units=1/GPa)
#
#
# Indices 1 2 3 4 5 6 
#
# 1 0.009644 -0.002051 -0.000944 0.000000 -0.002035 0.000000
# 2 -0.002051 0.011767 -0.002893 0.000000 -0.002406 0.000000
# 3 -0.000944 -0.002893 0.016916 0.000000 -0.000322 0.000000
# 4 0.000000 0.000000 0.000000 0.025789 0.000000 0.002247
# 5 -0.002035 -0.002406 -0.000322 0.000000 0.028522 0.000000
# 6 0.000000 0.000000 0.000000 0.002247 0.000000 0.024086
#
#
# Mechanical properties :
#
#
# Convention : Reuss Voigt Hill
#
# Bulk Modulus (GPa) = 37.66384 41.76299 39.71342
# Shear Modulus (GPa) = 36.40341 38.04319 37.22330
#
# Velocity S-wave (km/s) = 4.08983 4.18093 4.13563
# Velocity P-wave (km/s) = 6.29351 6.51892 6.40720
#
# Compressibility (1/GPa) = 0.02655066
#
# Stress axis : x y z
#
# Youngs Moduli (GPa) = 103.69013 84.98454 59.11540
#
# Poissons Ratio (x) = 0.17432 0.05581
# Poissons Ratio (y) = 0.21269 0.17101
# Poissons Ratio (z) = 0.09790 0.24585
#
# Static dielectric constant tensor:
#      x y z
#    x 3.766010 0.000000 0.084920 
#    y 0.000000 4.045860 0.000000 
#    z 0.084920 0.000000 3.983850 
# 
# 
# High freq. dielectric constant tensor:
#      x y z
#    x 1.858540 0.000000 0.000730 
#    y 0.000000 1.868480 0.000000 
#    z 0.000730 0.000000 1.866900 
# 
# From -- ./inp_files/3301.got.cif
#   From: 2010.03.12/outbox.cif.g09.slc.cpg/sg4_2_cif.got.tgz:3301.got - 2010.03.31 09:31:35.
