data_PCOD8047205
_publ_section_title
;
Structure prediction by ZEFSAII (Michael W. Deem and Ramdas Pophale) SiO2 
 PCOD8047205
Probable space group: P 21
;
_chemical_formula_sum "Si O2"
_cell_formula_units_Z 12
_cell_length_a 10.518371
_cell_length_b 8.741754
_cell_length_c 4.779452
_cell_angle_alpha 90.000000
_cell_angle_beta 86.968140
_cell_angle_gamma 90.000000
_cell_volume 438.850758
_symmetry_space_group_name_H-M "P 21"
_symmetry_group_IT_number 4
_symmetry_cell_setting 'monoclinic'
loop_
_space_group_symop_operation_xyz
x,y,z
-x,1/2+y,-z
loop_
_atom_site_type_symbol
_atom_site_label
_atom_site_fract_x
_atom_site_fract_y
_atom_site_fract_z
Si Si1 0.608936 0.063190 0.708792
Si Si2 0.905364 0.496654 0.627056
Si Si3 0.390471 0.799664 0.750734
Si Si4 0.569335 0.858286 0.209836
Si Si5 0.149248 0.672529 0.559876
Si Si6 0.748472 0.591197 0.155094
O O1 0.548283 0.216077 0.543653
O O2 0.761522 0.070919 0.655677
O O3 0.582803 0.020377 0.039873
O O4 0.554517 0.913045 0.541463
O O5 0.914867 0.313447 0.600164
O O6 0.872314 0.572907 0.333384
O O7 0.041022 0.565470 0.707986
O O8 0.789710 0.543210 0.840535
O O9 0.456629 0.763374 0.044307
O O10 0.243970 0.738366 0.791035
O O11 0.370851 0.985477 0.728021
O O12 0.699503 0.765025 0.161548
#
# Coordination Sequence:
#
# PCOD8047205 Si02
#       6
#     2   2   2   2   2   2
#     4  10  26  43  69 105 140 185 233 289 351 420
#     4  11  25  46  72  98 144 182 236 293 354 413
#     4   9  24  47  67 104 142 184 231 294 352 417
#     4  12  24  44  74 105 141 184 239 289 356 425
#     4   9  25  47  68 103 135 189 228 296 342 422
#     4  11  26  43  70 105 138 188 237 289 351 425
#
# _framework density 27.344148000000001
#
# number of rings (size 3 to 8) (size 9 to 14) (size 15 to 20)
#    1.000    0.667    0.000    2.000    7.000   12.000 
#    0.000    0.000    0.000    0.000    0.000    0.000 
#    0.000    0.000    0.000    0.000    0.000    0.000 
#
# Total GULP energy -148758.841759 kJ/mol
# GULP energy per Si atom -12396.570147 kJ/mol
# Density = 2.728191 g / cm^3
# Si number density = 27.344148 Si / 1000 Ang^3
#
#
#
# Elastic Constant Matrix: (Units=GPa)
#
#
# Indices 1 2 3 4 5 6 
#
# 1 112.5547 53.2295 30.8559 0.0000 -6.4691 0.0000
# 2 53.2295 137.4497 37.5963 0.0000 -2.0141 0.0000
# 3 30.8559 37.5963 165.2460 0.0000 -9.1305 0.0000
# 4 0.0000 0.0000 0.0000 23.9463 0.0000 1.3384
# 5 -6.4691 -2.0141 -9.1305 0.0000 37.4886 0.0000
# 6 0.0000 0.0000 0.0000 1.3384 0.0000 64.5525
#
#
#
# Elastic Compliance Matrix: (Units=1/GPa)
#
#
# Indices 1 2 3 4 5 6 
#
# 1 0.011160 -0.004001 -0.001094 0.000000 0.001444 0.000000
# 2 -0.004001 0.009193 -0.001374 0.000000 -0.000531 0.000000
# 3 -0.001094 -0.001374 0.006643 0.000000 0.001355 0.000000
# 4 0.000000 0.000000 0.000000 0.041809 0.000000 -0.000867
# 5 0.001444 -0.000531 0.001355 0.000000 0.027226 0.000000
# 6 0.000000 0.000000 0.000000 -0.000867 0.000000 0.015509
#
#
# Mechanical properties :
#
#
# Convention : Reuss Voigt Hill
#
# Bulk Modulus (GPa) = 71.13215 73.17929 72.15572
# Shear Modulus (GPa) = 38.71069 44.76873 41.73971
#
# Velocity S-wave (km/s) = 3.76664 4.05066 3.91123
# Velocity P-wave (km/s) = 6.70723 6.97837 6.84414
#
# Compressibility (1/GPa) = 0.01405834
#
# Stress axis : x y z
#
# Youngs Moduli (GPa) = 89.60752 108.77852 150.52915
#
# Poissons Ratio (x) = 0.43528 0.16462
# Poissons Ratio (y) = 0.35856 0.20679
# Poissons Ratio (z) = 0.09800 0.14943
#
# Static dielectric constant tensor:
#      x y z
#    x 4.680540 0.000000 0.128850 
#    y 0.000000 5.338590 0.000000 
#    z 0.128850 0.000000 4.809720 
# 
# 
# High freq. dielectric constant tensor:
#      x y z
#    x 2.098230 0.000000 -0.002680 
#    y 0.000000 2.149700 0.000000 
#    z -0.002680 0.000000 2.123200 
# 
# From -- ./inp_files/2455.got.cif
#   From: 2010.03.12/outbox.cif.g09.slc.cpg/sg4_2_cif.got.tgz:2455.got - 2010.03.31 09:31:35.
