data_PCOD8047304
_publ_section_title
;
Structure prediction by ZEFSAII (Michael W. Deem and Ramdas Pophale) SiO2 
 PCOD8047304
Probable space group: P 21
;
_chemical_formula_sum "Si O2"
_cell_formula_units_Z 16
_cell_length_a 6.549910
_cell_length_b 12.854164
_cell_length_c 8.662029
_cell_angle_alpha 90.000000
_cell_angle_beta 102.026977
_cell_angle_gamma 90.000000
_cell_volume 713.279401
_symmetry_space_group_name_H-M "P 21"
_symmetry_group_IT_number 4
_symmetry_cell_setting 'monoclinic'
loop_
_space_group_symop_operation_xyz
x,y,z
-x,1/2+y,-z
loop_
_atom_site_type_symbol
_atom_site_label
_atom_site_fract_x
_atom_site_fract_y
_atom_site_fract_z
Si Si1 0.009196 0.877110 0.012680
Si Si2 0.275115 0.081407 0.027888
Si Si3 0.224088 0.826721 0.745947
Si Si4 0.816439 0.853642 0.511033
Si Si5 0.288869 0.576706 0.408847
Si Si6 0.413562 0.476162 0.119544
Si Si7 0.937591 0.726295 0.256001
Si Si8 0.435248 0.197616 0.333742
O O1 0.062766 0.812045 0.174684
O O2 0.758323 0.891207 0.958735
O O3 0.111077 0.990087 0.031182
O O4 0.099515 0.809949 0.885373
O O5 0.281618 0.139681 0.192333
O O6 0.200259 0.156105 0.878759
O O7 0.506092 0.040346 0.017288
O O8 0.380249 0.923538 0.778869
O O9 0.353365 0.723766 0.726198
O O10 0.062044 0.850393 0.585064
O O11 0.754613 0.974692 0.493777
O O12 0.678629 0.801281 0.623980
O O13 0.783973 0.791251 0.345942
O O14 0.317117 0.551276 0.233271
O O15 0.095114 0.657036 0.383657
O O16 0.499870 0.626500 0.510672
#
# Coordination Sequence:
#
# PCOD8047304 Si02
#       8
#     2   2   2   2   2   2   2   2
#     4  11  25  45  72 105 146 185 239 307 362 435
#     4  11  26  44  73 108 141 190 242 300 368 435
#     4  11  21  45  70 100 140 188 228 297 362 420
#     4  12  26  48  72 102 152 190 243 302 361 437
#     4  12  25  47  72 106 145 195 242 296 371 435
#     4  11  22  45  72 100 147 186 234 298 364 428
#     4  12  26  47  74 107 145 196 243 300 372 436
#     4  12  27  45  71 110 142 192 241 300 362 440
#
# _framework density 22.431602999999999
#
# number of rings (size 3 to 8) (size 9 to 14) (size 15 to 20)
#    0.000    0.500    5.000    3.000    3.500    4.000 
#    2.250    0.000    0.000    0.000    0.000    0.000 
#    0.000    0.000    0.000    0.000    0.000    0.000 
#
# Total GULP energy -198449.784455 kJ/mol
# GULP energy per Si atom -12403.111528 kJ/mol
# Density = 2.238055 g / cm^3
# Si number density = 22.431603 Si / 1000 Ang^3
#
#
#
# Elastic Constant Matrix: (Units=GPa)
#
#
# Indices 1 2 3 4 5 6 
#
# 1 97.9067 38.5778 23.6997 0.0000 -2.5794 0.0000
# 2 38.5778 121.8977 47.0514 0.0000 -3.6766 0.0000
# 3 23.6997 47.0514 87.8915 0.0000 -2.7088 0.0000
# 4 0.0000 0.0000 0.0000 43.0629 0.0000 -2.8342
# 5 -2.5794 -3.6766 -2.7088 0.0000 39.9786 0.0000
# 6 0.0000 0.0000 0.0000 -2.8342 0.0000 33.5405
#
#
#
# Elastic Compliance Matrix: (Units=1/GPa)
#
#
# Indices 1 2 3 4 5 6 
#
# 1 0.011828 -0.003158 -0.001487 0.000000 0.000372 0.000000
# 2 -0.003158 0.011197 -0.005128 0.000000 0.000479 0.000000
# 3 -0.001487 -0.005128 0.014537 0.000000 0.000417 0.000000
# 4 0.000000 0.000000 0.000000 0.023352 0.000000 0.001973
# 5 0.000372 0.000479 0.000417 0.000000 0.025110 0.000000
# 6 0.000000 0.000000 0.000000 0.001973 0.000000 0.029981
#
#
# Mechanical properties :
#
#
# Convention : Reuss Voigt Hill
#
# Bulk Modulus (GPa) = 55.50846 58.48374 56.99610
# Shear Modulus (GPa) = 35.32192 36.54088 35.93140
#
# Velocity S-wave (km/s) = 3.97249 4.04045 4.00662
# Velocity P-wave (km/s) = 6.77055 6.92067 6.84602
#
# Compressibility (1/GPa) = 0.01801527
#
# Stress axis : x y z
#
# Youngs Moduli (GPa) = 84.54548 89.31206 68.79171
#
# Poissons Ratio (x) = 0.28204 0.10232
# Poissons Ratio (y) = 0.26699 0.35274
# Poissons Ratio (z) = 0.12575 0.45797
#
# Static dielectric constant tensor:
#      x y z
#    x 4.090890 0.000000 -0.092240 
#    y 0.000000 4.106830 0.000000 
#    z -0.092240 0.000000 3.992280 
# 
# 
# High freq. dielectric constant tensor:
#      x y z
#    x 1.884490 0.000000 -0.003840 
#    y 0.000000 1.891680 0.000000 
#    z -0.003840 0.000000 1.880220 
# 
# From -- ./inp_files/1455.got.cif
#   From: 2010.03.12/outbox.cif.g09.slc.cpg/sg4_1_cif.got.tgz:1455.got - 2010.03.31 09:31:35.
