data_PCOD8047005
_publ_section_title
;
Structure prediction by ZEFSAII (Michael W. Deem and Ramdas Pophale) SiO2 
 PCOD8047005
Probable space group: P 21
;
_chemical_formula_sum "Si O2"
_cell_formula_units_Z 16
_cell_length_a 8.790662
_cell_length_b 5.267589
_cell_length_c 26.512763
_cell_angle_alpha 90.000000
_cell_angle_beta 148.249754
_cell_angle_gamma 90.000000
_cell_volume 646.031660
_symmetry_space_group_name_H-M "P 21"
_symmetry_group_IT_number 4
_symmetry_cell_setting 'monoclinic'
loop_
_space_group_symop_operation_xyz
x,y,z
-x,1/2+y,-z
loop_
_atom_site_type_symbol
_atom_site_label
_atom_site_fract_x
_atom_site_fract_y
_atom_site_fract_z
Si Si1 0.338210 0.146820 0.172692
Si Si2 0.899958 0.608270 0.447601
Si Si3 0.734229 0.275257 0.194646
Si Si4 0.200275 0.411267 0.869692
Si Si5 0.605734 0.981077 0.474619
Si Si6 0.317052 0.478666 0.386794
Si Si7 0.319357 0.649528 0.234177
Si Si8 0.291107 0.588424 0.007775
O O1 0.600663 0.141908 0.206784
O O2 0.311248 0.413878 0.194079
O O3 0.390342 0.910785 0.224847
O O4 0.026132 0.117428 0.056840
O O5 0.558395 0.597255 0.343652
O O6 0.004235 0.900144 0.483896
O O7 0.053910 0.504738 0.440389
O O8 0.461211 0.375635 0.086394
O O9 0.968718 0.486152 0.279500
O O10 0.915214 0.093738 0.207496
O O11 0.979484 0.176447 0.817937
O O12 0.510489 0.335781 0.933899
O O13 0.247685 0.543971 0.936233
O O14 0.473196 0.730513 0.409270
O O15 0.577144 0.972028 0.525768
O O16 0.439315 0.213644 0.400064
#
# Coordination Sequence:
#
# PCOD8047005 Si02
#       8
#     2   2   2   2   2   2   2   2
#     4  11  28  48  77 108 151 203 256 312 382 452
#     4  12  26  44  75 108 145 190 244 306 372 450
#     4  12  28  43  77 114 146 198 266 312 373 465
#     4  11  25  46  73 105 152 200 250 311 380 450
#     4  10  23  47  68 103 145 184 238 299 382 425
#     4  10  24  44  74 100 141 191 236 309 363 446
#     4  11  27  51  75 106 155 201 250 314 386 456
#     4  11  25  45  71 102 153 199 244 313 382 440
#
# _framework density 24.766586
#
# number of rings (size 3 to 8) (size 9 to 14) (size 15 to 20)
#    0.000    1.000    1.250    3.000   10.500    4.000 
#    0.000    0.000    0.000    0.000    0.000    0.000 
#    0.000    0.000    0.000    0.000    0.000    0.000 
#
# Total GULP energy -198263.464546 kJ/mol
# GULP energy per Si atom -12391.466534 kJ/mol
# Density = 2.471022 g / cm^3
# Si number density = 24.766586 Si / 1000 Ang^3
#
#
#
# Elastic Constant Matrix: (Units=GPa)
#
#
# Indices 1 2 3 4 5 6 
#
# 1 50.2067 19.9422 14.4221 0.0000 -6.8680 0.0000
# 2 19.9422 147.9928 35.5932 0.0000 -3.9720 0.0001
# 3 14.4221 35.5932 128.1931 0.0000 16.3189 0.0005
# 4 0.0000 0.0000 0.0000 39.9396 0.0000 6.5304
# 5 -6.8680 -3.9720 16.3189 0.0000 20.2399 0.0000
# 6 0.0000 0.0001 0.0005 6.5304 0.0000 24.9828
#
#
#
# Elastic Compliance Matrix: (Units=1/GPa)
#
#
# Indices 1 2 3 4 5 6 
#
# 1 0.023061 -0.002040 -0.003313 0.000000 0.010096 0.000000
# 2 -0.002040 0.007636 -0.002221 0.000000 0.002597 0.000000
# 3 -0.003313 -0.002221 0.010017 0.000000 -0.009637 0.000000
# 4 0.000000 0.000000 0.000000 0.026156 0.000000 -0.006837
# 5 0.010096 0.002597 -0.009637 0.000000 0.061113 0.000000
# 6 0.000000 0.000000 0.000000 -0.006837 0.000000 0.041815
#
#
# Mechanical properties :
#
#
# Convention : Reuss Voigt Hill
#
# Bulk Modulus (GPa) = 39.11591 51.81195 45.46393
# Shear Modulus (GPa) = 25.84423 34.12814 29.98618
#
# Velocity S-wave (km/s) = 3.23385 3.71616 3.48336
# Velocity P-wave (km/s) = 5.45635 6.27524 5.88007
#
# Compressibility (1/GPa) = 0.02556505
#
# Stress axis : x y z
#
# Youngs Moduli (GPa) = 43.36381 130.96081 99.83048
#
# Poissons Ratio (x) = 0.26711 0.33077
# Poissons Ratio (y) = 0.08844 0.22175
# Poissons Ratio (z) = 0.14368 0.29090
#
# Static dielectric constant tensor:
#      x y z
#    x 4.574330 0.000000 0.172870 
#    y 0.000000 4.734450 0.000000 
#    z 0.172870 0.000000 4.667590 
# 
# 
# High freq. dielectric constant tensor:
#      x y z
#    x 1.987530 0.000000 0.007240 
#    y 0.000000 1.991100 0.000000 
#    z 0.007240 0.000000 1.990110 
# 
# From -- ./inp_files/10140.got.cif
#   From: 2010.03.12/outbox.cif.g09.slc.cpg/sg4_6_cif.got.tgz:10140.got - 2010.03.31 09:31:35.
