data_PCOD8047980
_publ_section_title
;
Structure prediction by ZEFSAII (Michael W. Deem and Ramdas Pophale) SiO2 
 PCOD8047980
Probable space group: P 21
;
_chemical_formula_sum "Si O2"
_cell_formula_units_Z 16
_cell_length_a 15.252701
_cell_length_b 5.211387
_cell_length_c 12.440957
_cell_angle_alpha 90.000000
_cell_angle_beta 38.674767
_cell_angle_gamma 90.000000
_cell_volume 617.964643
_symmetry_space_group_name_H-M "P 21"
_symmetry_group_IT_number 4
_symmetry_cell_setting 'monoclinic'
loop_
_space_group_symop_operation_xyz
x,y,z
-x,1/2+y,-z
loop_
_atom_site_type_symbol
_atom_site_label
_atom_site_fract_x
_atom_site_fract_y
_atom_site_fract_z
Si Si1 0.026950 0.245440 0.035929
Si Si2 0.677731 0.118283 0.773314
Si Si3 0.985865 0.572381 0.258624
Si Si4 0.439228 0.833098 0.907543
Si Si5 0.689359 0.492715 0.578416
Si Si6 0.412302 0.812134 0.557194
Si Si7 0.768757 0.404543 0.079078
Si Si8 0.928589 0.846421 0.605352
O O1 0.938462 0.349684 0.220830
O O2 0.035818 0.469797 0.939144
O O3 0.185486 0.190476 0.927366
O O4 0.745370 0.292249 0.615162
O O5 0.519901 0.066083 0.886357
O O6 0.774009 0.866430 0.700114
O O7 0.670744 0.237953 0.898925
O O8 0.827956 0.679963 0.435953
O O9 0.070820 0.440308 0.273325
O O10 0.091561 0.770108 0.102017
O O11 0.554259 0.633433 0.755478
O O12 0.353673 0.938497 0.889020
O O13 0.641354 0.360414 0.512610
O O14 0.508956 0.560359 0.468443
O O15 0.281691 0.759282 0.763822
O O16 0.974602 0.550482 0.553371
#
# Coordination Sequence:
#
# PCOD8047980 Si02
#       8
#     2   2   2   2   2   2   2   2
#     4  12  28  52  81 124 162 212 276 345 412 490
#     4  12  26  47  83 116 165 221 275 345 412 502
#     4  12  28  49  85 122 167 217 277 349 418 498
#     4  12  26  49  79 121 164 217 282 336 419 500
#     4  12  27  52  79 120 162 219 274 343 418 494
#     4  12  29  53  82 118 165 216 277 342 406 498
#     4  12  28  51  82 123 166 220 279 344 421 492
#     4  12  28  51  79 122 167 214 278 344 418 496
#
# _framework density 25.891449000000001
#
# number of rings (size 3 to 8) (size 9 to 14) (size 15 to 20)
#    0.000    0.000    6.250    2.250    3.500    3.000 
#    0.000    0.000    0.000    0.000    0.000    0.000 
#    0.000    0.000    0.000    0.000    0.000    0.000 
#
# Total GULP energy -198245.423246 kJ/mol
# GULP energy per Si atom -12390.338953 kJ/mol
# Density = 2.583252 g / cm^3
# Si number density = 25.891449 Si / 1000 Ang^3
#
#
#
# Elastic Constant Matrix: (Units=GPa)
#
#
# Indices 1 2 3 4 5 6 
#
# 1 136.4477 6.4701 31.9152 0.0000 15.6815 0.0000
# 2 6.4701 65.8044 5.2990 0.0000 -4.9528 0.0000
# 3 31.9152 5.2990 112.8968 0.0000 11.0792 0.0000
# 4 0.0000 0.0000 0.0000 26.0044 0.0000 -15.3556
# 5 15.6815 -4.9528 11.0792 0.0000 51.7171 0.0000
# 6 0.0000 0.0000 0.0000 -15.3556 0.0000 12.2771
#
#
#
# Elastic Compliance Matrix: (Units=1/GPa)
#
#
# Indices 1 2 3 4 5 6 
#
# 1 0.008084 -0.000788 -0.002043 0.000000 -0.002089 0.000000
# 2 -0.000788 0.015470 -0.000687 0.000000 0.001867 0.000000
# 3 -0.002043 -0.000687 0.009615 0.000000 -0.001506 0.000000
# 4 0.000000 0.000000 0.000000 0.147094 0.000000 0.183978
# 5 -0.002089 0.001867 -0.001506 0.000000 0.020471 0.000000
# 6 0.000000 0.000000 0.000000 0.183978 0.000000 0.311563
#
#
# Mechanical properties :
#
#
# Convention : Reuss Voigt Hill
#
# Bulk Modulus (GPa) = 38.26426 44.72416 41.49421
# Shear Modulus (GPa) = 9.46890 36.09734 22.78312
#
# Velocity S-wave (km/s) = 1.91444 3.73792 2.96961
# Velocity P-wave (km/s) = 4.43820 5.99505 5.27438
#
# Compressibility (1/GPa) = 0.02613405
#
# Stress axis : x y z
#
# Youngs Moduli (GPa) = 123.69836 64.64189 104.00065
#
# Poissons Ratio (x) = 0.05091 0.21251
# Poissons Ratio (y) = 0.09742 0.07142
# Poissons Ratio (z) = 0.25276 0.04439
#
# Static dielectric constant tensor:
#      x y z
#    x 5.236970 0.000000 0.077660 
#    y 0.000000 4.471200 0.000000 
#    z 0.077660 0.000000 4.916510 
# 
# 
# High freq. dielectric constant tensor:
#      x y z
#    x 2.073010 0.000000 0.007620 
#    y 0.000000 2.013290 0.000000 
#    z 0.007620 0.000000 2.049040 
# 
# From -- ./inp_files/12474.got.cif
#   From: 2010.03.12/outbox.cif.g09.slc.cpg/sg4_7_cif.got.tgz:12474.got - 2010.03.31 09:31:35.
