data_PCOD8047108
_publ_section_title
;
Structure prediction by ZEFSAII (Michael W. Deem and Ramdas Pophale) SiO2 
 PCOD8047108
Probable space group: P 21
;
_chemical_formula_sum "Si O2"
_cell_formula_units_Z 14
_cell_length_a 6.917478
_cell_length_b 8.468803
_cell_length_c 9.642285
_cell_angle_alpha 90.000000
_cell_angle_beta 66.719765
_cell_angle_gamma 90.000000
_cell_volume 518.881371
_symmetry_space_group_name_H-M "P 21"
_symmetry_group_IT_number 4
_symmetry_cell_setting 'monoclinic'
loop_
_space_group_symop_operation_xyz
x,y,z
-x,1/2+y,-z
loop_
_atom_site_type_symbol
_atom_site_label
_atom_site_fract_x
_atom_site_fract_y
_atom_site_fract_z
Si Si1 0.336124 0.908900 0.698739
Si Si2 0.976297 0.426876 0.653831
Si Si3 0.168345 0.855789 0.029147
Si Si4 0.601017 0.057220 0.390857
Si Si5 0.671518 0.854124 0.107506
Si Si6 0.389131 0.581959 0.108079
Si Si7 0.006838 0.060065 0.632608
O O1 0.429327 0.736216 0.648762
O O2 0.455683 0.032490 0.566594
O O3 0.094376 0.948794 0.731101
O O4 0.333906 0.930653 0.868691
O O5 0.816196 0.450884 0.828375
O O6 0.163469 0.548130 0.622132
O O7 0.061894 0.246294 0.626239
O O8 0.879638 0.485152 0.536050
O O9 0.926054 0.853435 0.043742
O O10 0.236422 0.677963 0.044409
O O11 0.567545 0.934580 0.273500
O O12 0.589732 0.674820 0.114698
O O13 0.564691 0.930148 0.999796
O O14 0.246786 0.538030 0.284865
#
# Coordination Sequence:
#
# PCOD8047108 Si02
#       7
#     2   2   2   2   2   2   2
#     4  12  24  48  78 105 158 196 261 314 393 455
#     4  10  24  45  72 109 149 195 259 308 391 451
#     4  10  24  49  78 107 149 204 252 315 377 464
#     4  11  26  45  75 111 152 202 253 322 384 464
#     4  11  25  50  74 118 152 197 262 316 384 463
#     4  11  25  48  76 116 153 198 255 319 387 456
#     4  11  24  47  75 110 151 200 252 320 386 463
#
# _framework density 26.981117000000001
#
# number of rings (size 3 to 8) (size 9 to 14) (size 15 to 20)
#    0.000    1.143    2.857    1.714    6.000    2.286 
#    7.714    0.000    0.000    0.000    0.000    0.000 
#    0.000    0.000    0.000    0.000    0.000    0.000 
#
# Total GULP energy -173455.453847 kJ/mol
# GULP energy per Si atom -12389.675275 kJ/mol
# Density = 2.691971 g / cm^3
# Si number density = 26.981117 Si / 1000 Ang^3
#
#
#
# Elastic Constant Matrix: (Units=GPa)
#
#
# Indices 1 2 3 4 5 6 
#
# 1 37.3498 23.8733 36.1122 0.0000 3.6437 0.0000
# 2 23.8733 114.5191 63.1924 0.0000 0.0286 0.0000
# 3 36.1122 63.1924 234.9049 0.0000 0.5044 0.0000
# 4 0.0000 0.0000 0.0000 39.6124 0.0000 4.2610
# 5 3.6437 0.0286 0.5044 0.0000 54.3563 0.0000
# 6 0.0000 0.0000 0.0000 4.2610 0.0000 50.8313
#
#
#
# Elastic Compliance Matrix: (Units=1/GPa)
#
#
# Indices 1 2 3 4 5 6 
#
# 1 0.033891 -0.004923 -0.003881 0.000000 -0.002233 0.000000
# 2 -0.004923 0.010969 -0.002195 0.000000 0.000345 0.000000
# 3 -0.003881 -0.002195 0.005444 0.000000 0.000211 0.000000
# 4 0.000000 0.000000 0.000000 0.025474 0.000000 -0.002135
# 5 -0.002233 0.000345 0.000211 0.000000 0.018545 0.000000
# 6 0.000000 0.000000 0.000000 -0.002135 0.000000 0.019852
#
#
# Mechanical properties :
#
#
# Convention : Reuss Voigt Hill
#
# Bulk Modulus (GPa) = 35.32768 70.34769 52.83768
# Shear Modulus (GPa) = 34.33879 46.53305 40.43592
#
# Velocity S-wave (km/s) = 3.57136 4.15740 3.87547
# Velocity P-wave (km/s) = 5.48890 7.01248 6.29694
#
# Compressibility (1/GPa) = 0.02830642
#
# Stress axis : x y z
#
# Youngs Moduli (GPa) = 29.50653 91.16195 183.70017
#
# Poissons Ratio (x) = 0.44879 0.71293
# Poissons Ratio (y) = 0.14526 0.40320
# Poissons Ratio (z) = 0.11451 0.20009
#
# Static dielectric constant tensor:
#      x y z
#    x 4.863750 0.000000 -0.028590 
#    y 0.000000 4.653660 0.000000 
#    z -0.028590 0.000000 5.369110 
# 
# 
# High freq. dielectric constant tensor:
#      x y z
#    x 2.099810 0.000000 0.005210 
#    y 0.000000 2.080780 0.000000 
#    z 0.005210 0.000000 2.107530 
# 
# From -- ./inp_files/5771.got.cif
#   From: 2010.03.12/outbox.cif.g09.slc.cpg/sg4_3_cif.got.tgz:5771.got - 2010.03.31 09:31:35.
