data_PCOD8047440
_publ_section_title
;
Structure prediction by ZEFSAII (Michael W. Deem and Ramdas Pophale) SiO2 
 PCOD8047440
Probable space group: P 21
;
_chemical_formula_sum "Si O2"
_cell_formula_units_Z 12
_cell_length_a 9.467078
_cell_length_b 8.766785
_cell_length_c 14.432422
_cell_angle_alpha 90.000000
_cell_angle_beta 151.862634
_cell_angle_gamma 90.000000
_cell_volume 564.881586
_symmetry_space_group_name_H-M "P 21"
_symmetry_group_IT_number 4
_symmetry_cell_setting 'monoclinic'
loop_
_space_group_symop_operation_xyz
x,y,z
-x,1/2+y,-z
loop_
_atom_site_type_symbol
_atom_site_label
_atom_site_fract_x
_atom_site_fract_y
_atom_site_fract_z
Si Si1 0.499232 0.348390 0.355099
Si Si2 0.608947 0.160905 0.931395
Si Si3 0.894418 0.846526 0.699217
Si Si4 0.537276 0.208881 0.685912
Si Si5 0.158903 0.334907 0.976364
Si Si6 0.931740 0.671289 0.254290
O O1 0.300827 0.291410 0.326039
O O2 0.474158 0.529407 0.337498
O O3 0.836581 0.289784 0.564688
O O4 0.368768 0.280867 0.183095
O O5 0.537598 0.247993 0.794652
O O6 0.299606 0.113587 0.801732
O O7 0.774996 0.279450 0.094750
O O8 0.813710 0.014915 0.026678
O O9 0.764613 0.778156 0.529943
O O10 0.894701 0.028165 0.688556
O O11 0.815697 0.292736 0.798479
O O12 0.251775 0.250183 0.935522
#
# Coordination Sequence:
#
# PCOD8047440 Si02
#       6
#     2   2   2   2   2   2
#     4  11  23  42  71  97 129 175 227 272 325 400
#     4  11  27  44  66 101 139 173 222 281 334 393
#     4  12  23  41  71  99 129 181 221 271 333 396
#     4  11  24  42  70  97 129 176 226 270 327 396
#     4  11  23  44  71  95 134 179 223 274 327 399
#     4  12  26  43  67 103 138 172 221 280 340 390
#
# _framework density 21.243392
#
# number of rings (size 3 to 8) (size 9 to 14) (size 15 to 20)
#    0.000    0.667    5.000    2.000    2.333    5.333 
#    0.000    0.000    0.000    0.000    0.000    0.000 
#    0.000    0.000    0.000    0.000    0.000    0.000 
#
# Total GULP energy -148852.921157 kJ/mol
# GULP energy per Si atom -12404.410096 kJ/mol
# Density = 2.119504 g / cm^3
# Si number density = 21.243392 Si / 1000 Ang^3
#
#
#
# Elastic Constant Matrix: (Units=GPa)
#
#
# Indices 1 2 3 4 5 6 
#
# 1 103.0783 37.0927 57.8934 0.0000 -5.7123 0.0000
# 2 37.0927 71.0794 50.8817 0.0000 -9.1418 0.0000
# 3 57.8934 50.8817 137.1635 0.0000 -23.8713 0.0000
# 4 0.0000 0.0000 0.0000 34.8126 0.0000 -4.4329
# 5 -5.7123 -9.1418 -23.8713 0.0000 40.0073 0.0000
# 6 0.0000 0.0000 0.0000 -4.4329 0.0000 27.7079
#
#
#
# Elastic Compliance Matrix: (Units=1/GPa)
#
#
# Indices 1 2 3 4 5 6 
#
# 1 0.013620 -0.004084 -0.004528 0.000000 -0.001690 0.000000
# 2 -0.004084 0.020381 -0.005722 0.000000 0.000660 0.000000
# 3 -0.004528 -0.005722 0.012257 0.000000 0.005359 0.000000
# 4 0.000000 0.000000 0.000000 0.029323 0.000000 0.004691
# 5 -0.001690 0.000660 0.005359 0.000000 0.028103 0.000000
# 6 0.000000 0.000000 0.000000 0.004691 0.000000 0.036841
#
#
# Mechanical properties :
#
#
# Convention : Reuss Voigt Hill
#
# Bulk Modulus (GPa) = 56.84808 67.00630 61.92719
# Shear Modulus (GPa) = 28.56230 31.53578 30.04904
#
# Velocity S-wave (km/s) = 3.67076 3.85710 3.76508
# Velocity P-wave (km/s) = 6.69211 7.17265 6.93655
#
# Compressibility (1/GPa) = 0.01759074
#
# Stress axis : x y z
#
# Youngs Moduli (GPa) = 73.41912 49.06601 81.58553
#
# Poissons Ratio (x) = 0.20037 0.36943
# Poissons Ratio (y) = 0.29983 0.46682
# Poissons Ratio (z) = 0.33245 0.28075
#
# Static dielectric constant tensor:
#      x y z
#    x 3.909670 0.000000 -0.365580 
#    y 0.000000 3.712120 0.000000 
#    z -0.365580 0.000000 3.928980 
# 
# 
# High freq. dielectric constant tensor:
#      x y z
#    x 1.838680 0.000000 -0.018610 
#    y 0.000000 1.830450 0.000000 
#    z -0.018610 0.000000 1.837340 
# 
# From -- ./inp_files/5762.got.cif
#   From: 2010.03.12/outbox.cif.g09.slc.cpg/sg4_3_cif.got.tgz:5762.got - 2010.03.31 09:31:35.
