data_PCOD8047918
_publ_section_title
;
Structure prediction by ZEFSAII (Michael W. Deem and Ramdas Pophale) SiO2 
 PCOD8047918
Probable space group: P 21
;
_chemical_formula_sum "Si O2"
_cell_formula_units_Z 16
_cell_length_a 11.597045
_cell_length_b 9.723867
_cell_length_c 8.133769
_cell_angle_alpha 90.000000
_cell_angle_beta 135.448436
_cell_angle_gamma 90.000000
_cell_volume 643.483417
_symmetry_space_group_name_H-M "P 21"
_symmetry_group_IT_number 4
_symmetry_cell_setting 'monoclinic'
loop_
_space_group_symop_operation_xyz
x,y,z
-x,1/2+y,-z
loop_
_atom_site_type_symbol
_atom_site_label
_atom_site_fract_x
_atom_site_fract_y
_atom_site_fract_z
Si Si1 0.159447 0.451080 0.566646
Si Si2 0.867090 0.037902 0.964646
Si Si3 0.132243 0.993073 0.517842
Si Si4 0.663780 0.297818 0.852006
Si Si5 0.835882 0.574339 0.937191
Si Si6 0.299659 0.214210 0.888931
Si Si7 0.290327 0.310340 0.381805
Si Si8 0.671333 0.239845 0.240881
O O1 0.260294 0.373262 0.813063
O O2 0.184609 0.368674 0.424908
O O3 0.217191 0.607451 0.622706
O O4 0.965419 0.448800 0.413656
O O5 0.994652 0.029438 0.244324
O O6 0.969307 0.068459 0.900916
O O7 0.735371 0.157289 0.855076
O O8 0.763643 0.898034 0.834368
O O9 0.250253 0.122878 0.678044
O O10 0.245018 0.865092 0.572766
O O11 0.770804 0.421114 0.889617
O O12 0.481897 0.325900 0.604238
O O13 0.657482 0.294602 0.041695
O O14 0.750450 0.650286 0.694014
O O15 0.808710 0.663993 0.070657
O O16 0.491975 0.200760 0.127795
#
# Coordination Sequence:
#
# PCOD8047918 Si02
#       8
#     2   2   2   2   2   2   2   2
#     4  12  25  45  79 111 156 201 265 324 388 467
#     4  12  28  50  81 119 158 205 259 328 408 470
#     4  12  26  48  80 117 153 206 267 330 388 474
#     4  12  26  53  77 114 157 210 267 322 394 477
#     4  12  27  47  78 114 161 204 259 326 398 474
#     4  12  25  48  77 112 154 205 267 322 391 465
#     4  12  27  50  76 117 158 210 253 332 401 477
#     4  12  26  49  80 116 149 209 269 330 386 468
#
# _framework density 24.864666
#
# number of rings (size 3 to 8) (size 9 to 14) (size 15 to 20)
#    0.000    0.000    3.750    6.000    1.750    3.000 
#    0.000    0.000    0.000    0.000    0.000    0.000 
#    0.000    0.000    0.000    0.000    0.000    0.000 
#
# Total GULP energy -198479.261594 kJ/mol
# GULP energy per Si atom -12404.953850 kJ/mol
# Density = 2.480807 g / cm^3
# Si number density = 24.864666 Si / 1000 Ang^3
#
#
#
# Elastic Constant Matrix: (Units=GPa)
#
#
# Indices 1 2 3 4 5 6 
#
# 1 85.3547 14.8863 22.3298 0.0000 8.5895 0.0000
# 2 14.8863 121.4955 27.6011 0.0000 0.5578 0.0000
# 3 22.3298 27.6011 85.2237 0.0000 3.4071 0.0000
# 4 0.0000 0.0000 0.0000 54.5444 0.0000 3.3350
# 5 8.5895 0.5578 3.4071 0.0000 21.5069 0.0000
# 6 0.0000 0.0000 0.0000 3.3350 0.0000 35.8005
#
#
#
# Elastic Compliance Matrix: (Units=1/GPa)
#
#
# Indices 1 2 3 4 5 6 
#
# 1 0.013126 -0.000916 -0.002953 0.000000 -0.004751 0.000000
# 2 -0.000916 0.008949 -0.002681 0.000000 0.000558 0.000000
# 3 -0.002953 -0.002681 0.013411 0.000000 -0.000876 0.000000
# 4 0.000000 0.000000 0.000000 0.018439 0.000000 -0.001718
# 5 -0.004751 0.000558 -0.000876 0.000000 0.048518 0.000000
# 6 0.000000 0.000000 0.000000 -0.001718 0.000000 0.028093
#
#
# Mechanical properties :
#
#
# Convention : Reuss Voigt Hill
#
# Bulk Modulus (GPa) = 44.66723 46.85647 45.76185
# Shear Modulus (GPa) = 33.09135 37.52081 35.30608
#
# Velocity S-wave (km/s) = 3.65205 3.88880 3.77228
# Velocity P-wave (km/s) = 5.98218 6.24894 6.11701
#
# Compressibility (1/GPa) = 0.02238778
#
# Stress axis : x y z
#
# Youngs Moduli (GPa) = 76.18426 111.73927 74.56729
#
# Poissons Ratio (x) = 0.10232 0.22018
# Poissons Ratio (y) = 0.06976 0.19990
# Poissons Ratio (z) = 0.22495 0.29955
#
# Static dielectric constant tensor:
#      x y z
#    x 4.731630 0.000000 -0.039240 
#    y 0.000000 4.727470 0.000000 
#    z -0.039240 0.000000 4.473560 
# 
# 
# High freq. dielectric constant tensor:
#      x y z
#    x 1.995750 0.000000 0.001190 
#    y 0.000000 2.008450 0.000000 
#    z 0.001190 0.000000 1.996900 
# 
# From -- ./inp_files/8093.got.cif
#   From: 2010.03.12/outbox.cif.g09.slc.cpg/sg4_5_cif.got.tgz:8093.got - 2010.03.31 09:31:35.
