data_PCOD8047923
_publ_section_title
;
Structure prediction by ZEFSAII (Michael W. Deem and Ramdas Pophale) SiO2 
 PCOD8047923
Probable space group: P 21
;
_chemical_formula_sum "Si O2"
_cell_formula_units_Z 12
_cell_length_a 19.758136
_cell_length_b 5.178510
_cell_length_c 11.868979
_cell_angle_alpha 90.000000
_cell_angle_beta 159.287474
_cell_angle_gamma 90.000000
_cell_volume 429.510559
_symmetry_space_group_name_H-M "P 21"
_symmetry_group_IT_number 4
_symmetry_cell_setting 'monoclinic'
loop_
_space_group_symop_operation_xyz
x,y,z
-x,1/2+y,-z
loop_
_atom_site_type_symbol
_atom_site_label
_atom_site_fract_x
_atom_site_fract_y
_atom_site_fract_z
Si Si1 0.555703 0.135600 0.145763
Si Si2 0.342001 0.618054 0.132990
Si Si3 0.224105 0.092959 0.210612
Si Si4 0.873452 0.818932 0.712871
Si Si5 0.009234 0.485791 0.740325
Si Si6 0.275578 0.125035 0.894656
O O1 0.779614 0.077800 0.513526
O O2 0.539197 0.351186 0.024327
O O3 0.447967 0.240291 0.087632
O O4 0.561786 0.531554 0.500782
O O5 0.208143 0.659245 0.036524
O O6 0.228441 0.378994 0.895426
O O7 0.352959 0.886047 0.086062
O O8 0.229840 0.283663 0.328206
O O9 0.094622 0.205480 0.906272
O O10 0.104298 0.854473 0.078764
O O11 0.856383 0.583248 0.597033
O O12 0.902435 0.515636 0.454359
#
# Coordination Sequence:
#
# PCOD8047923 Si02
#       6
#     2   2   2   2   2   2
#     4  12  25  46  79 114 151 197 257 320 388 453
#     4  12  31  51  82 113 158 207 261 318 389 465
#     4  12  29  48  77 112 157 203 259 322 390 463
#     4  12  27  46  77 108 154 200 257 319 390 457
#     4  12  29  51  79 111 157 207 261 319 391 468
#     4  12  27  52  80 114 157 204 261 318 386 466
#
# _framework density 27.938776000000001
#
# number of rings (size 3 to 8) (size 9 to 14) (size 15 to 20)
#    0.000    0.000    5.000    3.000   11.667    0.000 
#    0.000    0.000    0.000    0.000    0.000    0.000 
#    0.000    0.000    0.000    0.000    0.000    0.000 
#
# Total GULP energy -148675.126708 kJ/mol
# GULP energy per Si atom -12389.593892 kJ/mol
# Density = 2.787519 g / cm^3
# Si number density = 27.938776 Si / 1000 Ang^3
#
#
#
# Elastic Constant Matrix: (Units=GPa)
#
#
# Indices 1 2 3 4 5 6 
#
# 1 73.3457 -18.7056 12.8859 0.0000 31.7370 0.0000
# 2 -18.7056 83.8884 -2.7308 0.0000 -9.3892 0.0000
# 3 12.8859 -2.7308 91.4629 0.0000 21.7782 0.0000
# 4 0.0000 0.0000 0.0000 49.2108 0.0000 5.9663
# 5 31.7370 -9.3892 21.7782 0.0000 51.6775 0.0000
# 6 0.0000 0.0000 0.0000 5.9663 0.0000 27.5831
#
#
#
# Elastic Compliance Matrix: (Units=1/GPa)
#
#
# Indices 1 2 3 4 5 6 
#
# 1 0.019299 0.003038 0.000069 0.000000 -0.011330 0.000000
# 2 0.003038 0.012649 -0.000170 0.000000 0.000505 0.000000
# 3 0.000069 -0.000170 0.012156 0.000000 -0.005196 0.000000
# 4 0.000000 0.000000 0.000000 0.020868 0.000000 -0.004514
# 5 -0.011330 0.000505 -0.005196 0.000000 0.028590 0.000000
# 6 0.000000 0.000000 0.000000 -0.004514 0.000000 0.037230
#
#
# Mechanical properties :
#
#
# Convention : Reuss Voigt Hill
#
# Bulk Modulus (GPa) = 20.00939 25.73288 22.87113
# Shear Modulus (GPa) = 35.31622 42.84412 39.08017
#
# Velocity S-wave (km/s) = 3.55922 3.92024 3.74408
# Velocity P-wave (km/s) = 4.90593 5.45174 5.18602
#
# Compressibility (1/GPa) = 0.04997654
#
# Stress axis : x y z
#
# Youngs Moduli (GPa) = 51.81647 79.05867 82.26507
#
# Poissons Ratio (x) = -0.24014 -0.00571
# Poissons Ratio (y) = -0.15739 0.01402
# Poissons Ratio (z) = -0.00360 0.01347
#
# Static dielectric constant tensor:
#      x y z
#    x 5.337670 0.000000 0.174090 
#    y 0.000000 4.696630 0.000000 
#    z 0.174090 0.000000 5.147740 
# 
# 
# High freq. dielectric constant tensor:
#      x y z
#    x 2.141140 0.000000 0.023290 
#    y 0.000000 2.123490 0.000000 
#    z 0.023290 0.000000 2.136780 
# 
# From -- ./inp_files/5156.got.cif
#   From: 2010.03.12/outbox.cif.g09.slc.cpg/sg4_3_cif.got.tgz:5156.got - 2010.03.31 09:31:35.
