data_PCOD8047319
_publ_section_title
;
Structure prediction by ZEFSAII (Michael W. Deem and Ramdas Pophale) SiO2 
 PCOD8047319
Probable space group: P 21
;
_chemical_formula_sum "Si O2"
_cell_formula_units_Z 16
_cell_length_a 9.993237
_cell_length_b 5.926758
_cell_length_c 20.837650
_cell_angle_alpha 90.000000
_cell_angle_beta 144.882587
_cell_angle_gamma 90.000000
_cell_volume 709.956390
_symmetry_space_group_name_H-M "P 21"
_symmetry_group_IT_number 4
_symmetry_cell_setting 'monoclinic'
loop_
_space_group_symop_operation_xyz
x,y,z
-x,1/2+y,-z
loop_
_atom_site_type_symbol
_atom_site_label
_atom_site_fract_x
_atom_site_fract_y
_atom_site_fract_z
Si Si1 0.326261 0.485960 0.786178
Si Si2 0.186915 0.043155 0.372659
Si Si3 0.092138 0.340509 0.223370
Si Si4 0.487422 0.755918 0.259437
Si Si5 0.456093 0.704557 0.385395
Si Si6 0.632653 0.869374 0.871321
Si Si7 0.927432 0.544878 0.902258
Si Si8 0.569763 0.357794 0.000984
O O1 0.357080 0.418407 0.724056
O O2 0.434212 0.739326 0.834614
O O3 0.058239 0.449842 0.699114
O O4 0.475256 0.323914 0.891467
O O5 0.132396 0.272476 0.313315
O O6 0.345608 0.082167 0.496447
O O7 0.319994 0.876745 0.376993
O O8 0.274409 0.535646 0.280965
O O9 0.135772 0.130819 0.193722
O O10 0.835879 0.434635 0.109978
O O11 0.577961 0.799159 0.368126
O O12 0.507018 0.504208 0.238591
O O13 0.212522 0.812083 0.145996
O O14 0.828980 0.712519 0.917065
O O15 0.792155 0.020134 0.981963
O O16 0.449973 0.601064 0.976736
#
# Coordination Sequence:
#
# PCOD8047319 Si02
#       8
#     2   2   2   2   2   2   2   2
#     4  11  28  46  70 110 156 194 241 315 390 462
#     4  12  26  51  73 103 142 189 259 314 380 450
#     4  12  25  41  73 104 139 191 248 311 365 456
#     4  11  24  44  69 104 146 189 247 309 370 455
#     4  12  26  48  77 101 135 197 261 318 373 453
#     4  11  23  40  65 104 149 193 239 297 376 447
#     4  11  22  37  66 105 142 190 243 293 365 449
#     4  12  28  47  73 113 159 203 248 311 397 468
#
# _framework density 22.536594999999998
#
# number of rings (size 3 to 8) (size 9 to 14) (size 15 to 20)
#    0.000    0.500    6.250    1.500    7.000    1.000 
#    2.250    0.000    0.000    0.000    0.000    0.000 
#    0.000    0.000    0.000    0.000    0.000    0.000 
#
# Total GULP energy -198249.241065 kJ/mol
# GULP energy per Si atom -12390.577567 kJ/mol
# Density = 2.248530 g / cm^3
# Si number density = 22.536595 Si / 1000 Ang^3
#
#
#
# Elastic Constant Matrix: (Units=GPa)
#
#
# Indices 1 2 3 4 5 6 
#
# 1 64.3267 2.9442 16.2751 0.0000 -18.0868 0.0000
# 2 2.9442 65.0504 6.1307 0.0000 -2.8496 0.0000
# 3 16.2751 6.1307 99.9012 0.0000 -8.1456 0.0000
# 4 0.0000 0.0000 0.0000 35.4223 0.0000 -7.6740
# 5 -18.0868 -2.8496 -8.1456 0.0000 34.1608 0.0000
# 6 0.0000 0.0000 0.0000 -7.6740 0.0000 28.9758
#
#
#
# Elastic Compliance Matrix: (Units=1/GPa)
#
#
# Indices 1 2 3 4 5 6 
#
# 1 0.018769 -0.000224 -0.002279 0.000000 0.009375 0.000000
# 2 -0.000224 0.015504 -0.000835 0.000000 0.000976 0.000000
# 3 -0.002279 -0.000835 0.010533 0.000000 0.001235 0.000000
# 4 0.000000 0.000000 0.000000 0.029949 0.000000 0.007932
# 5 0.009375 0.000976 0.001235 0.000000 0.034613 0.000000
# 6 0.000000 0.000000 0.000000 0.007932 0.000000 0.036612
#
#
# Mechanical properties :
#
#
# Convention : Reuss Voigt Hill
#
# Bulk Modulus (GPa) = 26.22720 31.10872 28.66796
# Shear Modulus (GPa) = 30.23565 33.30699 31.77132
#
# Velocity S-wave (km/s) = 3.66679 3.84853 3.75876
# Velocity P-wave (km/s) = 5.43967 5.79498 5.62014
#
# Compressibility (1/GPa) = 0.03812836
#
# Stress axis : x y z
#
# Youngs Moduli (GPa) = 53.28047 64.49827 94.93773
#
# Poissons Ratio (x) = 0.01444 0.21641
# Poissons Ratio (y) = 0.01193 0.07931
# Poissons Ratio (z) = 0.12145 0.05388
#
# Static dielectric constant tensor:
#      x y z
#    x 4.236590 0.000000 -0.193610 
#    y 0.000000 4.152780 0.000000 
#    z -0.193610 0.000000 3.944110 
# 
# 
# High freq. dielectric constant tensor:
#      x y z
#    x 1.897490 0.000000 -0.015500 
#    y 0.000000 1.888660 0.000000 
#    z -0.015500 0.000000 1.875930 
# 
# From -- ./inp_files/11590.got.cif
#   From: 2010.03.12/outbox.cif.g09.slc.cpg/sg4_6_cif.got.tgz:11590.got - 2010.03.31 09:31:35.
