data_PCOD8047640
_publ_section_title
;
Structure prediction by ZEFSAII (Michael W. Deem and Ramdas Pophale) SiO2 
 PCOD8047640
Probable space group: P 21
;
_chemical_formula_sum "Si O2"
_cell_formula_units_Z 16
_cell_length_a 15.362402
_cell_length_b 8.950761
_cell_length_c 5.585426
_cell_angle_alpha 90.000000
_cell_angle_beta 54.675975
_cell_angle_gamma 90.000000
_cell_volume 626.627967
_symmetry_space_group_name_H-M "P 21"
_symmetry_group_IT_number 4
_symmetry_cell_setting 'monoclinic'
loop_
_space_group_symop_operation_xyz
x,y,z
-x,1/2+y,-z
loop_
_atom_site_type_symbol
_atom_site_label
_atom_site_fract_x
_atom_site_fract_y
_atom_site_fract_z
Si Si1 0.228523 0.550510 0.383249
Si Si2 0.188396 0.248094 0.241635
Si Si3 0.280391 0.990851 0.365117
Si Si4 0.432031 0.905989 0.740284
Si Si5 0.373345 0.202664 0.602487
Si Si6 0.101120 0.864885 0.954428
Si Si7 0.275145 0.681524 0.820767
Si Si8 0.002950 0.175016 0.237692
O O1 0.210523 0.371628 0.409176
O O2 0.277574 0.585002 0.568589
O O3 0.115699 0.628633 0.515317
O O4 0.298909 0.590435 0.031806
O O5 0.203185 0.079507 0.306739
O O6 0.064282 0.264935 0.351343
O O7 0.269602 0.272563 0.892372
O O8 0.339660 0.118197 0.418585
O O9 0.204245 0.872482 0.613157
O O10 0.368565 0.890892 0.090949
O O11 0.550286 0.841441 0.582434
O O12 0.365195 0.811207 0.649147
O O13 0.436982 0.081377 0.664370
O O14 0.156115 0.754786 0.060514
O O15 0.999774 0.785781 0.989065
O O16 0.076297 0.031158 0.073813
#
# Coordination Sequence:
#
# PCOD8047640 Si02
#       8
#     2   2   2   2   2   2   2   2
#     4  11  29  44  78 113 154 200 258 316 379 462
#     4  11  27  45  71 109 154 200 251 323 381 459
#     4  11  24  49  74 107 152 203 248 328 384 458
#     4  11  25  47  78 104 147 202 257 317 395 461
#     4  11  26  49  73 109 151 193 261 316 393 459
#     4  11  24  46  76 106 153 197 255 316 378 458
#     4  11  25  51  73 111 151 201 255 323 384 453
#     4  11  26  41  75 109 150 206 255 307 382 460
#
# _framework density 25.533491000000001
#
# number of rings (size 3 to 8) (size 9 to 14) (size 15 to 20)
#    0.000    1.000    2.500    2.250   12.250    2.000 
#    0.000    0.000    0.000    0.000    0.000    0.000 
#    0.000    0.000    0.000    0.000    0.000    0.000 
#
# Total GULP energy -198333.411225 kJ/mol
# GULP energy per Si atom -12395.838202 kJ/mol
# Density = 2.547538 g / cm^3
# Si number density = 25.533491 Si / 1000 Ang^3
#
#
#
# Elastic Constant Matrix: (Units=GPa)
#
#
# Indices 1 2 3 4 5 6 
#
# 1 75.9601 3.6357 11.8229 0.0000 6.0505 0.0000
# 2 3.6357 76.7181 3.4846 0.0000 11.8013 0.0000
# 3 11.8229 3.4846 70.5168 0.0000 23.2708 0.0000
# 4 0.0000 0.0000 0.0000 42.3630 0.0000 -1.6982
# 5 6.0505 11.8013 23.2708 0.0000 26.8699 0.0000
# 6 0.0000 0.0000 0.0000 -1.6982 0.0000 44.5833
#
#
#
# Elastic Compliance Matrix: (Units=1/GPa)
#
#
# Indices 1 2 3 4 5 6 
#
# 1 0.013571 -0.000357 -0.001822 0.000000 -0.001321 0.000000
# 2 -0.000357 0.014167 0.001941 0.000000 -0.007823 0.000000
# 3 -0.001822 0.001941 0.020354 0.000000 -0.018070 0.000000
# 4 0.000000 0.000000 0.000000 0.023642 0.000000 0.000901
# 5 -0.001321 -0.007823 -0.018070 0.000000 0.056599 0.000000
# 6 0.000000 0.000000 0.000000 0.000901 0.000000 0.022464
#
#
# Mechanical properties :
#
#
# Convention : Reuss Voigt Hill
#
# Bulk Modulus (GPa) = 21.00101 29.00905 25.00503
# Shear Modulus (GPa) = 29.91455 36.38003 33.14729
#
# Velocity S-wave (km/s) = 3.42655 3.77874 3.60695
# Velocity P-wave (km/s) = 4.88853 5.51583 5.21163
#
# Compressibility (1/GPa) = 0.04761675
#
# Stress axis : x y z
#
# Youngs Moduli (GPa) = 73.68833 70.58711 49.13146
#
# Poissons Ratio (x) = 0.02521 0.08950
# Poissons Ratio (y) = 0.02632 -0.09539
# Poissons Ratio (z) = 0.13423 -0.13704
#
# Static dielectric constant tensor:
#      x y z
#    x 4.547090 0.000000 0.211970 
#    y 0.000000 4.891710 0.000000 
#    z 0.211970 0.000000 4.484040 
# 
# 
# High freq. dielectric constant tensor:
#      x y z
#    x 2.014440 0.000000 0.006960 
#    y 0.000000 2.034760 0.000000 
#    z 0.006960 0.000000 2.007140 
# 
# From -- ./inp_files/3624.got.cif
#   From: 2010.03.12/outbox.cif.g09.slc.cpg/sg4_2_cif.got.tgz:3624.got - 2010.03.31 09:31:35.
