data_PCOD8047404
_publ_section_title
;
Structure prediction by ZEFSAII (Michael W. Deem and Ramdas Pophale) SiO2 
 PCOD8047404
Probable space group: P 21
;
_chemical_formula_sum "Si O2"
_cell_formula_units_Z 12
_cell_length_a 9.015228
_cell_length_b 7.333436
_cell_length_c 13.598077
_cell_angle_alpha 90.000000
_cell_angle_beta 143.213158
_cell_angle_gamma 90.000000
_cell_volume 538.359396
_symmetry_space_group_name_H-M "P 21"
_symmetry_group_IT_number 4
_symmetry_cell_setting 'monoclinic'
loop_
_space_group_symop_operation_xyz
x,y,z
-x,1/2+y,-z
loop_
_atom_site_type_symbol
_atom_site_label
_atom_site_fract_x
_atom_site_fract_y
_atom_site_fract_z
Si Si1 0.508991 0.457950 0.709274
Si Si2 0.227808 0.656736 0.885994
Si Si3 0.323030 0.040716 0.998083
Si Si4 0.604157 0.825344 0.678886
Si Si5 0.071097 0.377157 0.961610
Si Si6 0.741357 0.666093 0.543180
O O1 0.506825 0.456062 0.825549
O O2 0.440424 0.662372 0.638268
O O3 0.301252 0.317509 0.562870
O O4 0.776690 0.402202 0.806368
O O5 0.504359 0.632892 0.992264
O O6 0.198509 0.544199 0.971633
O O7 0.025728 0.595284 0.696232
O O8 0.175508 0.871617 0.874267
O O9 0.128411 0.187470 0.936757
O O10 0.708528 0.755697 0.632067
O O11 0.435373 0.998246 0.570952
O O12 0.826213 0.874971 0.872499
#
# Coordination Sequence:
#
# PCOD8047404 Si02
#       6
#     2   2   2   2   2   2
#     4  11  25  44  68 102 130 177 231 277 338 393
#     4  12  24  47  67 100 136 181 226 277 346 403
#     4  11  26  45  70  99 133 184 227 277 336 415
#     4  11  23  39  65 101 135 172 225 282 327 392
#     4  11  24  44  72  99 133 178 236 274 330 411
#     4  12  24  41  66 101 139 172 223 285 343 390
#
# _framework density 22.289942
#
# number of rings (size 3 to 8) (size 9 to 14) (size 15 to 20)
#    0.000    0.667    5.000    2.000    9.333    1.333 
#    6.000    0.000    0.000    0.000    0.000    0.000 
#    0.000    0.000    0.000    0.000    0.000    0.000 
#
# Total GULP energy -148819.856966 kJ/mol
# GULP energy per Si atom -12401.654747 kJ/mol
# Density = 2.223921 g / cm^3
# Si number density = 22.289942 Si / 1000 Ang^3
#
#
#
# Elastic Constant Matrix: (Units=GPa)
#
#
# Indices 1 2 3 4 5 6 
#
# 1 59.6808 18.1286 3.2233 0.0000 -8.2520 0.0000
# 2 18.1286 128.4370 34.9464 0.0000 -10.1982 0.0000
# 3 3.2233 34.9464 59.5766 0.0000 -21.2026 0.0000
# 4 0.0000 0.0000 0.0000 37.8145 0.0000 -16.4969
# 5 -8.2520 -10.1982 -21.2026 0.0000 17.3398 0.0000
# 6 0.0000 0.0000 0.0000 -16.4969 0.0000 31.7937
#
#
#
# Elastic Compliance Matrix: (Units=1/GPa)
#
#
# Indices 1 2 3 4 5 6 
#
# 1 0.019462 -0.003236 0.006133 0.000000 0.014858 0.000000
# 2 -0.003236 0.009847 -0.007237 0.000000 -0.004598 0.000000
# 3 0.006133 -0.007237 0.035803 0.000000 0.042441 0.000000
# 4 0.000000 0.000000 0.000000 0.034183 0.000000 0.017736
# 5 0.014858 -0.004598 0.042441 0.000000 0.113933 0.000000
# 6 0.000000 0.000000 0.000000 0.017736 0.000000 0.040656
#
#
# Mechanical properties :
#
#
# Convention : Reuss Voigt Hill
#
# Bulk Modulus (GPa) = 17.72083 40.03234 28.87658
# Shear Modulus (GPa) = 17.76999 30.14933 23.95966
#
# Velocity S-wave (km/s) = 2.82657 3.68176 3.28214
# Velocity P-wave (km/s) = 4.31510 6.00605 5.22937
#
# Compressibility (1/GPa) = 0.05643078
#
# Stress axis : x y z
#
# Youngs Moduli (GPa) = 51.38240 101.55637 27.93083
#
# Poissons Ratio (x) = 0.32863 -0.17130
# Poissons Ratio (y) = 0.16627 0.20214
# Poissons Ratio (z) = -0.31513 0.73499
#
# Static dielectric constant tensor:
#      x y z
#    x 3.934420 0.000000 -0.157590 
#    y 0.000000 4.355280 0.000000 
#    z -0.157590 0.000000 4.038860 
# 
# 
# High freq. dielectric constant tensor:
#      x y z
#    x 1.864130 0.000000 -0.015520 
#    y 0.000000 1.900920 0.000000 
#    z -0.015520 0.000000 1.869490 
# 
# From -- ./inp_files/13706.got.cif
#   From: 2010.03.12/outbox.cif.g09.slc.cpg/sg4_7_cif.got.tgz:13706.got - 2010.03.31 09:31:35.
