data_PCOD8047224
_publ_section_title
;
Structure prediction by ZEFSAII (Michael W. Deem and Ramdas Pophale) SiO2 
 PCOD8047224
Probable space group: P 21
;
_chemical_formula_sum "Si O2"
_cell_formula_units_Z 10
_cell_length_a 4.962870
_cell_length_b 5.157997
_cell_length_c 14.456401
_cell_angle_alpha 90.000000
_cell_angle_beta 72.508968
_cell_angle_gamma 90.000000
_cell_volume 352.951555
_symmetry_space_group_name_H-M "P 21"
_symmetry_group_IT_number 4
_symmetry_cell_setting 'monoclinic'
loop_
_space_group_symop_operation_xyz
x,y,z
-x,1/2+y,-z
loop_
_atom_site_type_symbol
_atom_site_label
_atom_site_fract_x
_atom_site_fract_y
_atom_site_fract_z
Si Si1 0.665825 0.290880 0.843477
Si Si2 0.329250 0.387235 0.514812
Si Si3 0.183602 0.547802 0.990995
Si Si4 0.695910 0.915702 0.687259
Si Si5 0.152209 0.588023 0.718420
O O1 0.980345 0.421102 0.812093
O O2 0.665621 0.077007 0.924610
O O3 0.576213 0.169839 0.752582
O O4 0.425326 0.502252 0.889520
O O5 0.589686 0.586504 0.501959
O O6 0.202054 0.476690 0.428346
O O7 0.130970 0.422904 0.624311
O O8 0.031357 0.810893 0.976679
O O9 0.465363 0.681029 0.714296
O O10 0.971669 0.846013 0.717701
#
# Coordination Sequence:
#
# PCOD8047224 Si02
#       5
#     2   2   2   2   2
#     4  12  32  52  84 124 166 224 282 364 416 516
#     4  10  26  52  80 124 172 222 270 338 410 500
#     4  12  32  56  86 118 168 220 292 356 438 504
#     4  11  30  50  85 124 171 220 282 339 422 501
#     4  11  30  50  85 124 171 220 282 339 422 501
#
# _framework density 28.332498999999999
#
# number of rings (size 3 to 8) (size 9 to 14) (size 15 to 20)
#    0.000    0.800    0.000    1.200   28.000    1.600 
#    0.000    0.000    0.000    0.000    0.000    0.000 
#    0.000    0.000    0.000    0.000    0.000    0.000 
#
# Total GULP energy -124011.749934 kJ/mol
# GULP energy per Si atom -12401.174993 kJ/mol
# Density = 2.826801 g / cm^3
# Si number density = 28.332499 Si / 1000 Ang^3
#
#
#
# Elastic Constant Matrix: (Units=GPa)
#
#
# Indices 1 2 3 4 5 6 
#
# 1 62.9486 -2.1340 0.0309 0.0000 -8.2355 0.0000
# 2 -2.1340 80.2596 19.3776 0.0000 1.3601 0.0000
# 3 0.0309 19.3776 128.8754 0.0000 -19.0045 0.0000
# 4 0.0000 0.0000 0.0000 61.6208 0.0000 4.9397
# 5 -8.2355 1.3601 -19.0045 0.0000 42.1922 0.0000
# 6 0.0000 0.0000 0.0000 4.9397 0.0000 38.3048
#
#
#
# Elastic Compliance Matrix: (Units=1/GPa)
#
#
# Indices 1 2 3 4 5 6 
#
# 1 0.016338 0.000267 0.000455 0.000000 0.003385 0.000000
# 2 0.000267 0.013009 -0.002153 0.000000 -0.001337 0.000000
# 3 0.000455 -0.002153 0.008683 0.000000 0.004069 0.000000
# 4 0.000000 0.000000 0.000000 0.016398 0.000000 -0.002115
# 5 0.003385 -0.001337 0.004069 0.000000 0.026238 0.000000
# 6 0.000000 0.000000 0.000000 -0.002115 0.000000 0.026379
#
#
# Mechanical properties :
#
#
# Convention : Reuss Voigt Hill
#
# Bulk Modulus (GPa) = 28.43487 34.07027 31.25257
# Shear Modulus (GPa) = 41.10842 45.41084 43.25963
#
# Velocity S-wave (km/s) = 3.81324 4.00782 3.91174
# Velocity P-wave (km/s) = 5.42638 5.78516 5.60864
#
# Compressibility (1/GPa) = 0.03516809
#
# Stress axis : x y z
#
# Youngs Moduli (GPa) = 61.20810 76.86862 115.16513
#
# Poissons Ratio (x) = -0.02054 -0.05242
# Poissons Ratio (y) = -0.01635 0.24798
# Poissons Ratio (z) = -0.02786 0.16552
#
# Static dielectric constant tensor:
#      x y z
#    x 4.759320 0.000000 -0.064530 
#    y 0.000000 5.076650 0.000000 
#    z -0.064530 0.000000 5.658070 
# 
# 
# High freq. dielectric constant tensor:
#      x y z
#    x 2.133150 0.000000 -0.000010 
#    y 0.000000 2.150070 0.000000 
#    z -0.000010 0.000000 2.174400 
# 
# From -- ./inp_files/13158.got.cif
#   From: 2010.03.12/outbox.cif.g09.slc.cpg/sg4_7_cif.got.tgz:13158.got - 2010.03.31 09:31:35.
