data_PCOD8047584
_publ_section_title
;
Structure prediction by ZEFSAII (Michael W. Deem and Ramdas Pophale) SiO2 
 PCOD8047584
Probable space group: P 21
;
_chemical_formula_sum "Si O2"
_cell_formula_units_Z 14
_cell_length_a 10.420679
_cell_length_b 7.608916
_cell_length_c 10.359408
_cell_angle_alpha 90.000000
_cell_angle_beta 43.753632
_cell_angle_gamma 90.000000
_cell_volume 568.045189
_symmetry_space_group_name_H-M "P 21"
_symmetry_group_IT_number 4
_symmetry_cell_setting 'monoclinic'
loop_
_space_group_symop_operation_xyz
x,y,z
-x,1/2+y,-z
loop_
_atom_site_type_symbol
_atom_site_label
_atom_site_fract_x
_atom_site_fract_y
_atom_site_fract_z
Si Si1 0.431790 0.158240 0.095967
Si Si2 0.922497 0.470430 0.604583
Si Si3 0.384258 0.907969 0.703796
Si Si4 0.299236 0.275039 0.682885
Si Si5 0.725831 0.068087 0.083736
Si Si6 0.963616 0.649680 0.330375
Si Si7 0.658876 0.022934 0.715907
O O1 0.532395 0.064257 0.145958
O O2 0.363415 0.350945 0.179884
O O3 0.242818 0.057643 0.191882
O O4 0.568016 0.174827 0.872715
O O5 0.866383 0.501991 0.492735
O O6 0.925383 0.268780 0.646033
O O7 0.127413 0.555553 0.476896
O O8 0.487055 0.809767 0.510421
O O9 0.256584 0.762127 0.864651
O O10 0.540513 0.003928 0.673842
O O11 0.258742 0.071424 0.750299
O O12 0.248442 0.412372 0.831459
O O13 0.172807 0.284695 0.645441
O O14 0.896312 0.046743 0.863179
#
# Coordination Sequence:
#
# PCOD8047584 Si02
#       7
#     2   2   2   2   2   2   2
#     4  11  24  44  71 104 145 186 247 305 374 447
#     4  12  23  46  74 102 150 188 247 322 367 444
#     4  11  24  47  73 105 148 202 248 312 377 448
#     4  12  26  48  74 107 152 201 256 303 384 467
#     4  11  26  49  73 109 154 200 255 311 378 462
#     4  12  27  50  70 114 150 193 264 310 386 459
#     4  11  24  44  69 109 143 184 253 303 370 447
#
# _framework density 24.645927
#
# number of rings (size 3 to 8) (size 9 to 14) (size 15 to 20)
#    0.000    0.571    5.714    2.571    4.000    0.000 
#    5.143    0.000    0.000    0.000    0.000    0.000 
#    0.000    0.000    0.000    0.000    0.000    0.000 
#
# Total GULP energy -173490.460205 kJ/mol
# GULP energy per Si atom -12392.175729 kJ/mol
# Density = 2.458983 g / cm^3
# Si number density = 24.645927 Si / 1000 Ang^3
#
#
#
# Elastic Constant Matrix: (Units=GPa)
#
#
# Indices 1 2 3 4 5 6 
#
# 1 63.4069 27.6565 18.7030 0.0000 1.6275 0.0000
# 2 27.6565 89.0234 1.2695 0.0000 12.2823 0.0000
# 3 18.7030 1.2695 83.4230 0.0000 5.2302 0.0000
# 4 0.0000 0.0000 0.0000 43.6923 0.0000 17.7971
# 5 1.6275 12.2823 5.2302 0.0000 35.9903 0.0000
# 6 0.0000 0.0000 0.0000 17.7971 0.0000 45.0358
#
#
#
# Elastic Compliance Matrix: (Units=1/GPa)
#
#
# Indices 1 2 3 4 5 6 
#
# 1 0.019811 -0.006356 -0.004465 0.000000 0.001922 0.000000
# 2 -0.006356 0.013828 0.001506 0.000000 -0.004650 0.000000
# 3 -0.004465 0.001506 0.013104 0.000000 -0.002216 0.000000
# 4 0.000000 0.000000 0.000000 0.027278 0.000000 -0.010780
# 5 0.001922 -0.004650 -0.002216 0.000000 0.029608 0.000000
# 6 0.000000 0.000000 0.000000 -0.010780 0.000000 0.026464
#
#
# Mechanical properties :
#
#
# Convention : Reuss Voigt Hill
#
# Bulk Modulus (GPa) = 35.57135 36.79014 36.18075
# Shear Modulus (GPa) = 31.62647 37.49196 34.55921
#
# Velocity S-wave (km/s) = 3.58611 3.90452 3.74870
# Velocity P-wave (km/s) = 5.62238 5.94028 5.78352
#
# Compressibility (1/GPa) = 0.02811251
#
# Stress axis : x y z
#
# Youngs Moduli (GPa) = 50.47598 72.31814 76.31103
#
# Poissons Ratio (x) = 0.45967 0.34076
# Poissons Ratio (y) = 0.32084 -0.11494
# Poissons Ratio (z) = 0.22540 -0.10892
#
# Static dielectric constant tensor:
#      x y z
#    x 4.510980 0.000000 0.191500 
#    y 0.000000 4.347930 0.000000 
#    z 0.191500 0.000000 4.720090 
# 
# 
# High freq. dielectric constant tensor:
#      x y z
#    x 1.971950 0.000000 0.001570 
#    y 0.000000 1.975950 0.000000 
#    z 0.001570 0.000000 1.988380 
# 
# From -- ./inp_files/12092.got.cif
#   From: 2010.03.12/outbox.cif.g09.slc.cpg/sg4_7_cif.got.tgz:12092.got - 2010.03.31 09:31:35.
