data_PCOD8047285
_publ_section_title
;
Structure prediction by ZEFSAII (Michael W. Deem and Ramdas Pophale) SiO2 
 PCOD8047285
Probable space group: P 21
;
_chemical_formula_sum "Si O2"
_cell_formula_units_Z 16
_cell_length_a 16.648295
_cell_length_b 7.154711
_cell_length_c 13.534772
_cell_angle_alpha 90.000000
_cell_angle_beta 154.199576
_cell_angle_gamma 90.000000
_cell_volume 701.680442
_symmetry_space_group_name_H-M "P 21"
_symmetry_group_IT_number 4
_symmetry_cell_setting 'monoclinic'
loop_
_space_group_symop_operation_xyz
x,y,z
-x,1/2+y,-z
loop_
_atom_site_type_symbol
_atom_site_label
_atom_site_fract_x
_atom_site_fract_y
_atom_site_fract_z
Si Si1 0.468379 0.087650 0.631465
Si Si2 0.041796 0.329887 0.335325
Si Si3 0.713290 0.520394 0.038967
Si Si4 0.437326 0.642180 0.044481
Si Si5 0.846365 0.312395 0.782161
Si Si6 0.129457 0.579553 0.004994
Si Si7 0.748649 0.791535 0.248422
Si Si8 0.346380 0.482352 0.538863
O O1 0.413928 0.304018 0.549435
O O2 0.314647 0.962357 0.409090
O O3 0.477986 0.053852 0.760473
O O4 0.661106 0.035405 0.792850
O O5 0.067911 0.294375 0.481254
O O6 0.235410 0.410443 0.511312
O O7 0.873436 0.477088 0.136065
O O8 0.989884 0.137116 0.223061
O O9 0.674024 0.327347 0.051966
O O10 0.791494 0.676449 0.197562
O O11 0.528182 0.592547 0.778504
O O12 0.301807 0.499402 0.840576
O O13 0.592191 0.685489 0.136245
O O14 0.036353 0.393080 0.947270
O O15 0.787321 0.115260 0.669904
O O16 0.882595 0.260420 0.936210
#
# Coordination Sequence:
#
# PCOD8047285 Si02
#       8
#     2   2   2   2   2   2   2   2
#     4  11  25  47  73 102 144 186 231 296 355 427
#     4  12  24  46  68 100 147 180 232 300 343 415
#     4  11  25  43  66 102 140 184 237 287 342 426
#     4  11  21  43  67  98 138 180 236 282 345 414
#     4  12  28  46  77 104 137 188 233 291 369 423
#     4  12  27  48  73 106 145 178 241 301 349 436
#     4  12  23  40  69  99 138 188 232 284 349 414
#     4  11  23  49  71 101 141 186 232 289 362 419
#
# _framework density 22.802402000000001
#
# number of rings (size 3 to 8) (size 9 to 14) (size 15 to 20)
#    0.000    0.500    7.500    1.500    3.500    2.000 
#    2.250    0.000    0.000    0.000    0.000    0.000 
#    0.000    0.000    0.000    0.000    0.000    0.000 
#
# Total GULP energy -198425.015345 kJ/mol
# GULP energy per Si atom -12401.563459 kJ/mol
# Density = 2.275050 g / cm^3
# Si number density = 22.802402 Si / 1000 Ang^3
#
#
#
# Elastic Constant Matrix: (Units=GPa)
#
#
# Indices 1 2 3 4 5 6 
#
# 1 64.4130 17.5323 21.0372 0.0000 16.6555 0.0000
# 2 17.5323 79.6677 36.6616 0.0000 -7.0859 0.0000
# 3 21.0372 36.6616 96.6480 0.0000 8.6435 0.0000
# 4 0.0000 0.0000 0.0000 45.4273 0.0000 1.5354
# 5 16.6555 -7.0859 8.6435 0.0000 40.4732 0.0000
# 6 0.0000 0.0000 0.0000 1.5354 0.0000 29.2155
#
#
#
# Elastic Compliance Matrix: (Units=1/GPa)
#
#
# Indices 1 2 3 4 5 6 
#
# 1 0.019423 -0.004131 -0.001918 0.000000 -0.008307 0.000000
# 2 -0.004131 0.016738 -0.005978 0.000000 0.005907 0.000000
# 3 -0.001918 -0.005978 0.013309 0.000000 -0.003100 0.000000
# 4 0.000000 0.000000 0.000000 0.022052 0.000000 -0.001159
# 5 -0.008307 0.005907 -0.003100 0.000000 0.029822 0.000000
# 6 0.000000 0.000000 0.000000 -0.001159 0.000000 0.034289
#
#
# Mechanical properties :
#
#
# Convention : Reuss Voigt Hill
#
# Bulk Modulus (GPa) = 39.34472 43.46566 41.40519
# Shear Modulus (GPa) = 29.73354 34.05638 31.89496
#
# Velocity S-wave (km/s) = 3.61496 3.86883 3.74405
# Velocity P-wave (km/s) = 5.89203 6.24983 6.07357
#
# Compressibility (1/GPa) = 0.02541637
#
# Stress axis : x y z
#
# Youngs Moduli (GPa) = 51.48415 59.74575 75.13557
#
# Poissons Ratio (x) = 0.24679 0.14412
# Poissons Ratio (y) = 0.21266 0.44918
# Poissons Ratio (z) = 0.09875 0.35717
#
# Static dielectric constant tensor:
#      x y z
#    x 4.174340 0.000000 0.047370 
#    y 0.000000 3.967110 0.000000 
#    z 0.047370 0.000000 4.304410 
# 
# 
# High freq. dielectric constant tensor:
#      x y z
#    x 1.896920 0.000000 0.004170 
#    y 0.000000 1.890280 0.000000 
#    z 0.004170 0.000000 1.915060 
# 
# From -- ./inp_files/12689.got.cif
#   From: 2010.03.12/outbox.cif.g09.slc.cpg/sg4_7_cif.got.tgz:12689.got - 2010.03.31 09:31:35.
