data_PCOD8047080
_publ_section_title
;
Structure prediction by ZEFSAII (Michael W. Deem and Ramdas Pophale) SiO2 
 PCOD8047080
Probable space group: P 21
;
_chemical_formula_sum "Si O2"
_cell_formula_units_Z 14
_cell_length_a 9.609397
_cell_length_b 9.406827
_cell_length_c 8.754698
_cell_angle_alpha 90.000000
_cell_angle_beta 130.676240
_cell_angle_gamma 90.000000
_cell_volume 600.179935
_symmetry_space_group_name_H-M "P 21"
_symmetry_group_IT_number 4
_symmetry_cell_setting 'monoclinic'
loop_
_space_group_symop_operation_xyz
x,y,z
-x,1/2+y,-z
loop_
_atom_site_type_symbol
_atom_site_label
_atom_site_fract_x
_atom_site_fract_y
_atom_site_fract_z
Si Si1 0.135477 0.117460 0.080603
Si Si2 0.272693 0.861719 0.381710
Si Si3 0.615183 0.865744 0.821311
Si Si4 0.833138 0.535635 0.241290
Si Si5 0.534860 0.190990 0.037147
Si Si6 0.254723 0.668779 0.109728
Si Si7 0.883628 0.244185 0.445518
O O1 0.299543 0.229935 0.200408
O O2 0.191530 0.988069 0.226141
O O3 0.098474 0.058103 0.883216
O O4 0.961985 0.201809 0.028221
O O5 0.433428 0.917192 0.605086
O O6 0.349040 0.735745 0.327031
O O7 0.115036 0.800992 0.379721
O O8 0.574568 0.825399 0.969443
O O9 0.748318 0.999112 0.909624
O O10 0.885586 0.375337 0.327270
O O11 0.938206 0.642563 0.434719
O O12 0.612395 0.564306 0.097993
O O13 0.697594 0.151647 0.275643
O O14 0.639343 0.238385 0.957457
#
# Coordination Sequence:
#
# PCOD8047080 Si02
#       7
#     2   2   2   2   2   2   2
#     4  11  24  44  71 103 143 181 233 293 360 414
#     4  11  23  44  67 102 140 177 234 289 348 421
#     4  10  24  44  69 100 138 185 235 285 351 430
#     4  11  25  48  71 102 143 189 238 294 358 438
#     4  10  24  44  70  97 139 188 232 289 352 421
#     4  12  23  43  70 102 139 183 229 296 356 406
#     4  11  25  45  70 106 138 185 245 288 353 434
#
# _framework density 23.326338
#
# number of rings (size 3 to 8) (size 9 to 14) (size 15 to 20)
#    0.000    1.143    1.429    4.286    4.000    2.286 
#    2.571    0.000    0.000    0.000    0.000    0.000 
#    0.000    0.000    0.000    0.000    0.000    0.000 
#
# Total GULP energy -173519.084887 kJ/mol
# GULP energy per Si atom -12394.220349 kJ/mol
# Density = 2.327325 g / cm^3
# Si number density = 23.326338 Si / 1000 Ang^3
#
#
#
# Elastic Constant Matrix: (Units=GPa)
#
#
# Indices 1 2 3 4 5 6 
#
# 1 126.0177 22.5968 31.5593 0.0000 -4.1014 0.0000
# 2 22.5968 91.0501 46.7897 0.0000 6.3128 0.0000
# 3 31.5593 46.7897 92.3413 0.0000 0.8125 0.0000
# 4 0.0000 0.0000 0.0000 44.7620 0.0000 0.8052
# 5 -4.1014 6.3128 0.8125 0.0000 42.0121 0.0000
# 6 0.0000 0.0000 0.0000 0.8052 0.0000 29.3383
#
#
#
# Elastic Compliance Matrix: (Units=1/GPa)
#
#
# Indices 1 2 3 4 5 6 
#
# 1 0.008773 -0.000952 -0.002525 0.000000 0.001048 0.000000
# 2 -0.000952 0.015138 -0.007325 0.000000 -0.002226 0.000000
# 3 -0.002525 -0.007325 0.015399 0.000000 0.000556 0.000000
# 4 0.000000 0.000000 0.000000 0.022351 0.000000 -0.000613
# 5 0.001048 -0.002226 0.000556 0.000000 0.024229 0.000000
# 6 0.000000 0.000000 0.000000 -0.000613 0.000000 0.034102
#
#
# Mechanical properties :
#
#
# Convention : Reuss Voigt Hill
#
# Bulk Modulus (GPa) = 56.48250 56.81118 56.64684
# Shear Modulus (GPa) = 33.89852 37.12002 35.50927
#
# Velocity S-wave (km/s) = 3.81626 3.99348 3.90588
# Velocity P-wave (km/s) = 6.60947 6.75808 6.68419
#
# Compressibility (1/GPa) = 0.01770460
#
# Stress axis : x y z
#
# Youngs Moduli (GPa) = 113.99127 66.05832 64.93822
#
# Poissons Ratio (x) = 0.06291 0.16396
# Poissons Ratio (y) = 0.10856 0.47570
# Poissons Ratio (z) = 0.28781 0.48391
#
# Static dielectric constant tensor:
#      x y z
#    x 4.319440 0.000000 -0.047840 
#    y 0.000000 4.058510 0.000000 
#    z -0.047840 0.000000 4.256250 
# 
# 
# High freq. dielectric constant tensor:
#      x y z
#    x 1.928840 0.000000 -0.003250 
#    y 0.000000 1.918250 0.000000 
#    z -0.003250 0.000000 1.922540 
# 
# From -- ./inp_files/5840.got.cif
#   From: 2010.03.12/outbox.cif.g09.slc.cpg/sg4_3_cif.got.tgz:5840.got - 2010.03.31 09:31:35.
