data_PCOD8047191
_publ_section_title
;
Structure prediction by ZEFSAII (Michael W. Deem and Ramdas Pophale) SiO2 
 PCOD8047191
Probable space group: P 21
;
_chemical_formula_sum "Si O2"
_cell_formula_units_Z 16
_cell_length_a 11.636831
_cell_length_b 9.650217
_cell_length_c 9.129824
_cell_angle_alpha 90.000000
_cell_angle_beta 141.711442
_cell_angle_gamma 90.000000
_cell_volume 635.274248
_symmetry_space_group_name_H-M "P 21"
_symmetry_group_IT_number 4
_symmetry_cell_setting 'monoclinic'
loop_
_space_group_symop_operation_xyz
x,y,z
-x,1/2+y,-z
loop_
_atom_site_type_symbol
_atom_site_label
_atom_site_fract_x
_atom_site_fract_y
_atom_site_fract_z
Si Si1 0.455173 0.672160 0.374830
Si Si2 0.606223 0.867867 0.756507
Si Si3 0.319101 0.836613 0.710553
Si Si4 0.044497 0.475156 0.744177
Si Si5 0.455676 0.902549 0.156013
Si Si6 0.044961 0.705255 0.964153
Si Si7 0.180839 0.541149 0.571752
Si Si8 0.893586 0.509765 0.043328
O O1 0.599315 0.751024 0.624376
O O2 0.496294 0.509174 0.399342
O O3 0.464455 0.743783 0.222669
O O4 0.249979 0.688653 0.238714
O O5 0.500742 0.814954 0.794489
O O6 0.822574 0.890030 0.011826
O O7 0.250065 0.688779 0.694996
O O8 0.162292 0.914647 0.459337
O O9 0.372838 0.918740 0.910847
O O10 0.036042 0.633944 0.793606
O O11 0.126943 0.458818 0.664232
O O12 0.662394 0.963215 0.365904
O O13 0.322747 0.987653 0.134068
O O14 0.003834 0.868257 0.906676
O O15 0.900505 0.626128 0.924514
O O16 0.999267 0.563198 0.292292
#
# Coordination Sequence:
#
# PCOD8047191 Si02
#       8
#     2   2   2   2   2   2   2   2
#     4  10  25  49  73 107 147 192 244 301 360 437
#     4  11  25  50  75 106 151 189 245 301 362 438
#     4  12  26  48  74 110 146 187 249 305 364 440
#     4  11  26  49  74 107 145 193 239 305 370 431
#     4  11  26  49  74 107 145 193 239 305 370 431
#     4  10  25  49  73 107 147 192 244 301 360 437
#     4  12  26  48  74 110 146 187 249 305 364 440
#     4  11  25  50  75 106 151 189 245 301 362 438
#
# _framework density 25.185973000000001
#
# number of rings (size 3 to 8) (size 9 to 14) (size 15 to 20)
#    0.000    1.000    2.500    3.000   10.500    2.000 
#    4.500    0.000    0.000    0.000    0.000    0.000 
#    0.000    0.000    0.000    0.000    0.000    0.000 
#
# Total GULP energy -198482.321296 kJ/mol
# GULP energy per Si atom -12405.145081 kJ/mol
# Density = 2.512865 g / cm^3
# Si number density = 25.185973 Si / 1000 Ang^3
#
#
#
# Elastic Constant Matrix: (Units=GPa)
#
#
# Indices 1 2 3 4 5 6 
#
# 1 78.5497 14.4762 41.3093 0.0000 -14.4303 0.0000
# 2 14.4762 73.7346 12.4561 0.0000 -5.3002 0.0000
# 3 41.3093 12.4561 70.7517 0.0000 -8.4979 0.0000
# 4 0.0000 0.0000 0.0000 36.8483 0.0000 -0.9766
# 5 -14.4303 -5.3002 -8.4979 0.0000 36.3810 0.0000
# 6 0.0000 0.0000 0.0000 -0.9766 0.0000 37.1296
#
#
#
# Elastic Compliance Matrix: (Units=1/GPa)
#
#
# Indices 1 2 3 4 5 6 
#
# 1 0.019471 -0.001693 -0.010466 0.000000 0.005032 0.000000
# 2 -0.001693 0.014205 -0.001383 0.000000 0.001075 0.000000
# 3 -0.010466 -0.001383 0.020542 0.000000 0.000445 0.000000
# 4 0.000000 0.000000 0.000000 0.027157 0.000000 0.000714
# 5 0.005032 0.001075 0.000445 0.000000 0.029743 0.000000
# 6 0.000000 0.000000 0.000000 0.000714 0.000000 0.026951
#
#
# Mechanical properties :
#
#
# Convention : Reuss Voigt Hill
#
# Bulk Modulus (GPa) = 36.85468 39.94656 38.40062
# Shear Modulus (GPa) = 28.70261 32.39143 30.54702
#
# Velocity S-wave (km/s) = 3.37950 3.59010 3.48639
# Velocity P-wave (km/s) = 5.46743 5.75154 5.61128
#
# Compressibility (1/GPa) = 0.02713360
#
# Stress axis : x y z
#
# Youngs Moduli (GPa) = 51.35747 70.39528 48.68128
#
# Poissons Ratio (x) = 0.11918 0.50951
# Poissons Ratio (y) = 0.08695 0.06734
# Poissons Ratio (z) = 0.53752 0.09738
#
# Static dielectric constant tensor:
#      x y z
#    x 4.372920 0.000000 0.071900 
#    y 0.000000 4.510670 0.000000 
#    z 0.071900 0.000000 4.392900 
# 
# 
# High freq. dielectric constant tensor:
#      x y z
#    x 2.007880 0.000000 0.002960 
#    y 0.000000 2.001230 0.000000 
#    z 0.002960 0.000000 2.008780 
# 
# From -- ./inp_files/7987.got.cif
#   From: 2010.03.12/outbox.cif.g09.slc.cpg/sg4_4_cif.got.tgz:7987.got - 2010.03.31 09:31:35.
