data_PCOD8047670
_publ_section_title
;
Structure prediction by ZEFSAII (Michael W. Deem and Ramdas Pophale) SiO2 
 PCOD8047670
Probable space group: P 21
;
_chemical_formula_sum "Si O2"
_cell_formula_units_Z 16
_cell_length_a 13.754228
_cell_length_b 8.354133
_cell_length_c 13.842324
_cell_angle_alpha 90.000000
_cell_angle_beta 159.725928
_cell_angle_gamma 90.000000
_cell_volume 551.142477
_symmetry_space_group_name_H-M "P 21"
_symmetry_group_IT_number 4
_symmetry_cell_setting 'monoclinic'
loop_
_space_group_symop_operation_xyz
x,y,z
-x,1/2+y,-z
loop_
_atom_site_type_symbol
_atom_site_label
_atom_site_fract_x
_atom_site_fract_y
_atom_site_fract_z
Si Si1 0.902197 0.665200 0.661661
Si Si2 0.795820 0.967243 0.310883
Si Si3 0.443128 0.251726 0.378510
Si Si4 0.479503 0.668509 0.106134
Si Si5 0.797200 0.746405 0.035006
Si Si6 0.851015 0.986872 0.715684
Si Si7 0.211563 0.776992 0.579546
Si Si8 0.902772 0.497206 0.850268
O O1 0.670963 0.592654 0.370912
O O2 0.769965 0.823687 0.587362
O O3 0.995234 0.527022 0.824661
O O4 0.178760 0.723916 0.864534
O O5 0.640541 0.820336 0.215435
O O6 0.095148 0.910225 0.545686
O O7 0.878601 0.101553 0.466241
O O8 0.578254 0.035694 0.029067
O O9 0.253638 0.339921 0.116622
O O10 0.665309 0.361740 0.640515
O O11 0.237438 0.169914 0.262346
O O12 0.607515 0.116176 0.469255
O O13 0.546891 0.773392 0.877916
O O14 0.860234 0.562732 0.058526
O O15 0.068148 0.813410 0.342718
O O16 0.865970 0.962788 0.848716
#
# Coordination Sequence:
#
# PCOD8047670 Si02
#       8
#     2   2   2   2   2   2   2   2
#     4  12  29  50  80 123 161 212 276 335 402 494
#     4  12  30  56  82 121 162 218 271 350 440 485
#     4  11  25  48  75 115 157 218 257 332 391 476
#     4  12  31  54  85 116 166 211 279 350 421 505
#     4  11  25  45  78 115 150 205 263 322 392 483
#     4  11  24  48  78 117 162 218 262 325 401 474
#     4  12  27  50  81 112 161 204 271 335 407 502
#     4  11  27  45  79 113 171 208 275 321 404 473
#
# _framework density 29.030607
#
# number of rings (size 3 to 8) (size 9 to 14) (size 15 to 20)
#    0.000    0.500    1.250    4.500   10.500    8.000 
#    0.000    0.000    0.000    0.000    0.000    0.000 
#    0.000    0.000    0.000    0.000    0.000    0.000 
#
# Total GULP energy -198429.757927 kJ/mol
# GULP energy per Si atom -12401.859870 kJ/mol
# Density = 2.896453 g / cm^3
# Si number density = 29.030607 Si / 1000 Ang^3
#
#
#
# Elastic Constant Matrix: (Units=GPa)
#
#
# Indices 1 2 3 4 5 6 
#
# 1 117.8322 11.6052 29.8735 0.0000 -3.3183 0.0000
# 2 11.6052 56.8499 16.7743 0.0000 0.7774 0.0000
# 3 29.8735 16.7743 138.7305 0.0000 -14.5234 0.0000
# 4 0.0000 0.0000 0.0000 43.6435 0.0000 -5.6647
# 5 -3.3183 0.7774 -14.5234 0.0000 29.4478 0.0000
# 6 0.0000 0.0000 0.0000 -5.6647 0.0000 51.9196
#
#
#
# Elastic Compliance Matrix: (Units=1/GPa)
#
#
# Indices 1 2 3 4 5 6 
#
# 1 0.009073 -0.001331 -0.001774 0.000000 0.000183 0.000000
# 2 -0.001331 0.018513 -0.002129 0.000000 -0.001689 0.000000
# 3 -0.001774 -0.002129 0.008259 0.000000 0.003930 0.000000
# 4 0.000000 0.000000 0.000000 0.023242 0.000000 0.002536
# 5 0.000183 -0.001689 0.003930 0.000000 0.035962 0.000000
# 6 0.000000 0.000000 0.000000 0.002536 0.000000 0.019537
#
#
# Mechanical properties :
#
#
# Convention : Reuss Voigt Hill
#
# Bulk Modulus (GPa) = 39.40452 47.76875 43.58663
# Shear Modulus (GPa) = 37.45001 42.01283 39.73142
#
# Velocity S-wave (km/s) = 3.59558 3.80832 3.70348
# Velocity P-wave (km/s) = 5.55342 5.98566 5.77359
#
# Compressibility (1/GPa) = 0.02537780
#
# Stress axis : x y z
#
# Youngs Moduli (GPa) = 110.22272 54.01581 121.08192
#
# Poissons Ratio (x) = 0.07191 0.21474
# Poissons Ratio (y) = 0.14673 0.25773
# Poissons Ratio (z) = 0.19548 0.11498
#
# Static dielectric constant tensor:
#      x y z
#    x 5.764620 0.000000 -0.072780 
#    y 0.000000 5.705170 0.000000 
#    z -0.072780 0.000000 5.343620 
# 
# 
# High freq. dielectric constant tensor:
#      x y z
#    x 2.203520 0.000000 -0.001730 
#    y 0.000000 2.210030 0.000000 
#    z -0.001730 0.000000 2.188290 
# 
# From -- ./inp_files/14216.got.cif
#   From: 2010.03.12/outbox.cif.g09.slc.cpg/sg4_8_cif.got.tgz:14216.got - 2010.03.31 09:31:35.
