data_PCOD8047560
_publ_section_title
;
Structure prediction by ZEFSAII (Michael W. Deem and Ramdas Pophale) SiO2 
 PCOD8047560
Probable space group: P 21
;
_chemical_formula_sum "Si O2"
_cell_formula_units_Z 16
_cell_length_a 18.326850
_cell_length_b 6.529726
_cell_length_c 6.631144
_cell_angle_alpha 90.000000
_cell_angle_beta 109.973986
_cell_angle_gamma 90.000000
_cell_volume 745.810986
_symmetry_space_group_name_H-M "P 21"
_symmetry_group_IT_number 4
_symmetry_cell_setting 'monoclinic'
loop_
_space_group_symop_operation_xyz
x,y,z
-x,1/2+y,-z
loop_
_atom_site_type_symbol
_atom_site_label
_atom_site_fract_x
_atom_site_fract_y
_atom_site_fract_z
Si Si1 0.584173 0.943440 0.901239
Si Si2 0.675148 0.663669 0.703736
Si Si3 0.824425 0.208969 0.391744
Si Si4 0.580777 0.611568 0.221266
Si Si5 0.676194 0.338044 0.035205
Si Si6 0.076687 0.096250 0.474884
Si Si7 0.170854 0.381516 0.275554
Si Si8 0.082249 0.434802 0.796047
O O1 0.605111 0.782031 0.748070
O O2 0.503070 0.051503 0.770086
O O3 0.579585 0.835600 0.116450
O O4 0.652988 0.107249 0.963517
O O5 0.644470 0.604136 0.455876
O O6 0.751120 0.803250 0.756905
O O7 0.697623 0.460594 0.851337
O O8 0.748803 0.334989 0.254577
O O9 0.895141 0.365925 0.468747
O O10 0.811863 0.095887 0.594531
O O11 0.844514 0.039931 0.243642
O O12 0.604104 0.444337 0.077810
O O13 0.139112 0.212868 0.398330
O O14 0.067183 0.213203 0.679386
O O15 0.992891 0.080733 0.290200
O O16 0.103295 0.412917 0.048900
#
# Coordination Sequence:
#
# PCOD8047560 Si02
#       8
#     2   2   2   2   2   2   2   2
#     4  11  24  42  66  96 131 173 216 271 324 382
#     4  11  26  43  65 101 132 171 218 271 322 392
#     4  11  24  44  69  95 131 176 213 265 327 384
#     4  11  24  43  66  96 134 170 220 269 323 386
#     4  11  24  44  69  95 131 176 213 265 327 384
#     4  11  24  42  66  96 131 173 216 271 324 382
#     4  11  26  43  65 101 132 171 218 271 322 392
#     4  11  24  43  66  96 134 170 220 269 323 386
#
# _framework density 21.453156
#
# number of rings (size 3 to 8) (size 9 to 14) (size 15 to 20)
#    0.000    1.000    2.500    3.000    3.500   10.000 
#    0.000    0.000    0.000    0.000    0.000    0.000 
#    0.000    0.000    0.000    0.000    0.000    0.000 
#
# Total GULP energy -198486.321325 kJ/mol
# GULP energy per Si atom -12405.395083 kJ/mol
# Density = 2.140433 g / cm^3
# Si number density = 21.453156 Si / 1000 Ang^3
#
#
#
# Elastic Constant Matrix: (Units=GPa)
#
#
# Indices 1 2 3 4 5 6 
#
# 1 90.7406 26.9441 18.5575 0.0000 7.4149 0.0000
# 2 26.9441 109.4518 40.8761 0.0000 -0.2465 0.0000
# 3 18.5575 40.8761 108.6454 0.0000 14.4122 0.0000
# 4 0.0000 0.0000 0.0000 36.5254 0.0000 1.0229
# 5 7.4149 -0.2465 14.4122 0.0000 34.5262 0.0000
# 6 0.0000 0.0000 0.0000 1.0229 0.0000 42.6515
#
#
#
# Elastic Compliance Matrix: (Units=1/GPa)
#
#
# Indices 1 2 3 4 5 6 
#
# 1 0.012171 -0.002723 -0.000747 0.000000 -0.002322 0.000000
# 2 -0.002723 0.011352 -0.004122 0.000000 0.002387 0.000000
# 3 -0.000747 -0.004122 0.011502 0.000000 -0.004670 0.000000
# 4 0.000000 0.000000 0.000000 0.027397 0.000000 -0.000657
# 5 -0.002322 0.002387 -0.004670 0.000000 0.031429 0.000000
# 6 0.000000 0.000000 0.000000 -0.000657 0.000000 0.023462
#
#
# Mechanical properties :
#
#
# Convention : Reuss Voigt Hill
#
# Bulk Modulus (GPa) = 50.39838 53.51036 51.95437
# Shear Modulus (GPa) = 35.94289 37.57128 36.75708
#
# Velocity S-wave (km/s) = 4.09762 4.18941 4.14377
# Velocity P-wave (km/s) = 6.77721 6.95691 6.86765
#
# Compressibility (1/GPa) = 0.01984191
#
# Stress axis : x y z
#
# Youngs Moduli (GPa) = 82.16061 88.09307 86.93889
#
# Poissons Ratio (x) = 0.23985 0.06491
# Poissons Ratio (y) = 0.22369 0.35840
# Poissons Ratio (z) = 0.06134 0.36316
#
# Static dielectric constant tensor:
#      x y z
#    x 3.745290 0.000000 -0.024940 
#    y 0.000000 3.893910 0.000000 
#    z -0.024940 0.000000 3.730260 
# 
# 
# High freq. dielectric constant tensor:
#      x y z
#    x 1.851900 0.000000 0.002480 
#    y 0.000000 1.850380 0.000000 
#    z 0.002480 0.000000 1.837120 
# 
# From -- ./inp_files/3952.got.cif
#   From: 2010.03.12/outbox.cif.g09.slc.cpg/sg4_2_cif.got.tgz:3952.got - 2010.03.31 09:31:35.
