data_PCOD8047744
_publ_section_title
;
Structure prediction by ZEFSAII (Michael W. Deem and Ramdas Pophale) SiO2 
 PCOD8047744
Probable space group: P 21
;
_chemical_formula_sum "Si O2"
_cell_formula_units_Z 16
_cell_length_a 9.250621
_cell_length_b 10.626291
_cell_length_c 12.988691
_cell_angle_alpha 90.000000
_cell_angle_beta 148.855219
_cell_angle_gamma 90.000000
_cell_volume 660.356591
_symmetry_space_group_name_H-M "P 21"
_symmetry_group_IT_number 4
_symmetry_cell_setting 'monoclinic'
loop_
_space_group_symop_operation_xyz
x,y,z
-x,1/2+y,-z
loop_
_atom_site_type_symbol
_atom_site_label
_atom_site_fract_x
_atom_site_fract_y
_atom_site_fract_z
Si Si1 0.696168 0.266530 0.708476
Si Si2 0.680544 0.300862 0.060455
Si Si3 0.045094 0.971860 0.472869
Si Si4 0.825339 0.648382 0.871033
Si Si5 0.158742 0.130286 0.349411
Si Si6 0.213336 0.740121 0.459694
Si Si7 0.721676 0.568120 0.189174
Si Si8 0.468025 0.930314 0.223043
O O1 0.491195 0.146764 0.566622
O O2 0.812285 0.308906 0.667637
O O3 0.510031 0.376799 0.646968
O O4 0.946566 0.237644 0.939147
O O5 0.619417 0.437140 0.074592
O O6 0.997445 0.261074 0.277709
O O7 0.476765 0.184099 0.966901
O O8 0.638251 0.317604 0.913245
O O9 0.040517 0.028860 0.356362
O O10 0.279235 0.037707 0.688189
O O11 0.095572 0.823911 0.482524
O O12 0.755993 0.988458 0.357402
O O13 0.920452 0.593793 0.816953
O O14 0.538970 0.723179 0.679602
O O15 0.768201 0.538243 0.918447
O O16 0.036083 0.610129 0.347748
#
# Coordination Sequence:
#
# PCOD8047744 Si02
#       8
#     2   2   2   2   2   2   2   2
#     4  11  25  47  72 104 155 200 260 315 399 464
#     4  12  26  47  77 117 155 209 263 328 398 479
#     4  12  26  47  79 110 161 201 264 332 402 458
#     4  11  25  47  76 107 153 206 260 316 396 474
#     4  11  26  47  73 113 152 203 261 324 385 474
#     4  11  26  48  73 116 148 204 260 330 385 480
#     4  12  27  47  79 115 164 205 264 333 405 472
#     4  12  23  46  75 104 152 202 256 326 394 467
#
# _framework density 24.229334000000001
#
# number of rings (size 3 to 8) (size 9 to 14) (size 15 to 20)
#    0.000    0.500    3.750    3.750    1.750    3.000 
#    2.250    0.000    0.000    0.000    0.000    0.000 
#    0.000    0.000    0.000    0.000    0.000    0.000 
#
# Total GULP energy -198304.523669 kJ/mol
# GULP energy per Si atom -12394.032729 kJ/mol
# Density = 2.417419 g / cm^3
# Si number density = 24.229334 Si / 1000 Ang^3
#
#
#
# Elastic Constant Matrix: (Units=GPa)
#
#
# Indices 1 2 3 4 5 6 
#
# 1 129.4289 45.2301 40.9441 0.0000 -2.3597 0.0000
# 2 45.2301 111.8169 37.5652 0.0000 3.4760 0.0000
# 3 40.9441 37.5652 125.1446 0.0000 2.8215 0.0000
# 4 0.0000 0.0000 0.0000 37.4947 0.0000 -2.9764
# 5 -2.3597 3.4760 2.8215 0.0000 27.8560 0.0000
# 6 0.0000 0.0000 0.0000 -2.9764 0.0000 52.7035
#
#
#
# Elastic Compliance Matrix: (Units=1/GPa)
#
#
# Indices 1 2 3 4 5 6 
#
# 1 0.009558 -0.003169 -0.002208 0.000000 0.001429 0.000000
# 2 -0.003169 0.011021 -0.002240 0.000000 -0.001417 0.000000
# 3 -0.002208 -0.002240 0.009405 0.000000 -0.000860 0.000000
# 4 0.000000 0.000000 0.000000 0.026791 0.000000 0.001513
# 5 0.001429 -0.001417 -0.000860 0.000000 0.036284 0.000000
# 6 0.000000 0.000000 0.000000 0.001513 0.000000 0.019060
#
#
# Mechanical properties :
#
#
# Convention : Reuss Voigt Hill
#
# Bulk Modulus (GPa) = 67.79131 68.20768 67.99949
# Shear Modulus (GPa) = 37.80173 39.78757 38.79465
#
# Velocity S-wave (km/s) = 3.95418 4.05671 4.00577
# Velocity P-wave (km/s) = 6.99193 7.08198 7.03710
#
# Compressibility (1/GPa) = 0.01475115
#
# Stress axis : x y z
#
# Youngs Moduli (GPa) = 104.62169 90.73201 106.32750
#
# Poissons Ratio (x) = 0.28752 0.23479
# Poissons Ratio (y) = 0.33153 0.23813
# Poissons Ratio (z) = 0.23103 0.20321
#
# Static dielectric constant tensor:
#      x y z
#    x 4.556600 0.000000 -0.073600 
#    y 0.000000 4.140070 0.000000 
#    z -0.073600 0.000000 4.307430 
# 
# 
# High freq. dielectric constant tensor:
#      x y z
#    x 1.975140 0.000000 -0.005700 
#    y 0.000000 1.953390 0.000000 
#    z -0.005700 0.000000 1.961080 
# 
# From -- ./inp_files/11316.got.cif
#   From: 2010.03.12/outbox.cif.g09.slc.cpg/sg4_6_cif.got.tgz:11316.got - 2010.03.31 09:31:35.
