data_PCOD8047764
_publ_section_title
;
Structure prediction by ZEFSAII (Michael W. Deem and Ramdas Pophale) SiO2 
 PCOD8047764
Probable space group: P 21
;
_chemical_formula_sum "Si O2"
_cell_formula_units_Z 10
_cell_length_a 8.616036
_cell_length_b 9.472895
_cell_length_c 8.818726
_cell_angle_alpha 90.000000
_cell_angle_beta 145.194399
_cell_angle_gamma 90.000000
_cell_volume 410.842490
_symmetry_space_group_name_H-M "P 21"
_symmetry_group_IT_number 4
_symmetry_cell_setting 'monoclinic'
loop_
_space_group_symop_operation_xyz
x,y,z
-x,1/2+y,-z
loop_
_atom_site_type_symbol
_atom_site_label
_atom_site_fract_x
_atom_site_fract_y
_atom_site_fract_z
Si Si1 0.971456 0.667870 0.400538
Si Si2 0.363822 0.693294 0.996915
Si Si3 0.797245 0.484555 0.016837
Si Si4 0.291364 0.505179 0.211089
Si Si5 0.556816 0.207825 0.410858
O O1 0.951378 0.512825 0.302209
O O2 0.132828 0.668716 0.686571
O O3 0.144538 0.756304 0.412633
O O4 0.665200 0.723731 0.175276
O O5 0.306430 0.825409 0.060496
O O6 0.342239 0.551166 0.079044
O O7 0.977957 0.503272 0.010847
O O8 0.565424 0.605402 0.818810
O O9 0.391020 0.346827 0.314312
O O10 0.449292 0.616530 0.441753
#
# Coordination Sequence:
#
# PCOD8047764 Si02
#       5
#     2   2   2   2   2
#     4  11  28  47  75 112 148 193 242 306 367 437
#     4  12  28  48  77 111 147 195 246 305 370 432
#     4  11  26  49  76 109 151 191 253 301 365 440
#     4  11  27  46  77 107 151 196 249 299 372 434
#     4  11  25  50  73 111 149 197 246 305 364 443
#
# _framework density 24.340229000000001
#
# number of rings (size 3 to 8) (size 9 to 14) (size 15 to 20)
#    0.000    0.800    2.000    2.400   14.000    3.200 
#    0.000    0.000    0.000    0.000    0.000    0.000 
#    0.000    0.000    0.000    0.000    0.000    0.000 
#
# Total GULP energy -123939.127901 kJ/mol
# GULP energy per Si atom -12393.912790 kJ/mol
# Density = 2.428483 g / cm^3
# Si number density = 24.340229 Si / 1000 Ang^3
#
#
#
# Elastic Constant Matrix: (Units=GPa)
#
#
# Indices 1 2 3 4 5 6 
#
# 1 78.0786 13.2943 24.6495 0.0000 11.0911 0.0000
# 2 13.2943 102.9538 10.5898 0.0000 2.1033 0.0000
# 3 24.6495 10.5898 102.5471 0.0000 4.6341 0.0000
# 4 0.0000 0.0000 0.0000 32.0499 0.0000 4.4483
# 5 11.0911 2.1033 4.6341 0.0000 45.6852 0.0000
# 6 0.0000 0.0000 0.0000 4.4483 0.0000 31.9513
#
#
#
# Elastic Compliance Matrix: (Units=1/GPa)
#
#
# Indices 1 2 3 4 5 6 
#
# 1 0.014513 -0.001482 -0.003194 0.000000 -0.003131 0.000000
# 2 -0.001482 0.009974 -0.000672 0.000000 -0.000031 0.000000
# 3 -0.003194 -0.000672 0.010601 0.000000 -0.000269 0.000000
# 4 0.000000 0.000000 0.000000 0.031816 0.000000 -0.004429
# 5 -0.003131 -0.000031 -0.000269 0.000000 0.022678 0.000000
# 6 0.000000 0.000000 0.000000 -0.004429 0.000000 0.031914
#
#
# Mechanical properties :
#
#
# Convention : Reuss Voigt Hill
#
# Bulk Modulus (GPa) = 40.99689 42.29407 41.64548
# Shear Modulus (GPa) = 35.63202 37.60700 36.61951
#
# Velocity S-wave (km/s) = 3.83026 3.93498 3.88298
# Velocity P-wave (km/s) = 6.03664 6.16923 6.10330
#
# Compressibility (1/GPa) = 0.02439209
#
# Stress axis : x y z
#
# Youngs Moduli (GPa) = 68.90371 100.25849 94.33097
#
# Poissons Ratio (x) = 0.14854 0.30130
# Poissons Ratio (y) = 0.10208 0.06344
# Poissons Ratio (z) = 0.22008 0.06742
#
# Static dielectric constant tensor:
#      x y z
#    x 4.449720 0.000000 0.091220 
#    y 0.000000 4.111200 0.000000 
#    z 0.091220 0.000000 4.549230 
# 
# 
# High freq. dielectric constant tensor:
#      x y z
#    x 1.986850 0.000000 0.002990 
#    y 0.000000 1.954490 0.000000 
#    z 0.002990 0.000000 1.972130 
# 
# From -- ./inp_files/933.got.cif
#   From: 2010.03.12/outbox.cif.g09.slc.cpg/sg4_1_cif.got.tgz:933.got - 2010.03.31 09:31:35.
