data_PCOD8047827
_publ_section_title
;
Structure prediction by ZEFSAII (Michael W. Deem and Ramdas Pophale) SiO2 
 PCOD8047827
Probable space group: P 21
;
_chemical_formula_sum "Si O2"
_cell_formula_units_Z 12
_cell_length_a 12.525743
_cell_length_b 6.773777
_cell_length_c 7.841199
_cell_angle_alpha 90.000000
_cell_angle_beta 50.188521
_cell_angle_gamma 90.000000
_cell_volume 511.052926
_symmetry_space_group_name_H-M "P 21"
_symmetry_group_IT_number 4
_symmetry_cell_setting 'monoclinic'
loop_
_space_group_symop_operation_xyz
x,y,z
-x,1/2+y,-z
loop_
_atom_site_type_symbol
_atom_site_label
_atom_site_fract_x
_atom_site_fract_y
_atom_site_fract_z
Si Si1 0.365831 0.863620 0.971809
Si Si2 0.340058 0.157274 0.315322
Si Si3 0.087875 0.454666 0.549846
Si Si4 0.759626 0.504135 0.230759
Si Si5 0.892027 0.124083 0.821069
Si Si6 0.992257 0.269829 0.112164
O O1 0.517560 0.776652 0.836446
O O2 0.348577 0.993524 0.815823
O O3 0.269793 0.667940 0.051967
O O4 0.327273 0.003358 0.171497
O O5 0.228947 0.331799 0.417870
O O6 0.324531 0.032938 0.506508
O O7 0.049432 0.495443 0.395032
O O8 0.080154 0.663934 0.653850
O O9 0.964223 0.335580 0.763407
O O10 0.855032 0.302524 0.131245
O O11 0.867383 0.682260 0.107068
O O12 0.945625 0.991994 0.923373
#
# Coordination Sequence:
#
# PCOD8047827 Si02
#       6
#     2   2   2   2   2   2
#     4  12  28  50  73 109 154 203 253 312 376 452
#     4  12  28  50  73 109 154 203 253 312 376 452
#     4  12  22  43  75 111 150 198 252 308 373 441
#     4  12  26  46  76 110 154 198 250 310 382 442
#     4  12  22  43  75 111 150 198 252 308 373 441
#     4  12  24  44  74 114 158 186 252 320 368 446
#
# _framework density 23.480934000000001
#
# number of rings (size 3 to 8) (size 9 to 14) (size 15 to 20)
#    0.000    0.000    5.000    6.000    0.000    4.000 
#    0.000    0.000    0.000    0.000    0.000    0.000 
#    0.000    0.000    0.000    0.000    0.000    0.000 
#
# Total GULP energy -148711.123271 kJ/mol
# GULP energy per Si atom -12392.593606 kJ/mol
# Density = 2.342749 g / cm^3
# Si number density = 23.480934 Si / 1000 Ang^3
#
#
#
# Elastic Constant Matrix: (Units=GPa)
#
#
# Indices 1 2 3 4 5 6 
#
# 1 114.5323 23.0245 41.5091 0.0000 16.6241 0.0000
# 2 23.0245 78.6781 21.0039 0.0000 0.7282 0.0000
# 3 41.5091 21.0039 97.8629 0.0000 8.3507 0.0000
# 4 0.0000 0.0000 0.0000 43.6118 0.0000 -10.3029
# 5 16.6241 0.7282 8.3507 0.0000 41.7902 0.0000
# 6 0.0000 0.0000 0.0000 -10.3029 0.0000 42.7242
#
#
#
# Elastic Compliance Matrix: (Units=1/GPa)
#
#
# Indices 1 2 3 4 5 6 
#
# 1 0.011118 -0.002168 -0.003944 0.000000 -0.003597 0.000000
# 2 -0.002168 0.013910 -0.002156 0.000000 0.001051 0.000000
# 3 -0.003944 -0.002156 0.012429 0.000000 -0.000877 0.000000
# 4 0.000000 0.000000 0.000000 0.024315 0.000000 0.005863
# 5 -0.003597 0.001051 -0.000877 0.000000 0.025517 0.000000
# 6 0.000000 0.000000 0.000000 0.005863 0.000000 0.024820
#
#
# Mechanical properties :
#
#
# Convention : Reuss Voigt Hill
#
# Bulk Modulus (GPa) = 47.79431 51.34980 49.57205
# Shear Modulus (GPa) = 36.86851 39.32764 38.09807
#
# Velocity S-wave (km/s) = 3.96681 4.09696 4.03241
# Velocity P-wave (km/s) = 6.43269 6.65555 6.54507
#
# Compressibility (1/GPa) = 0.02092299
#
# Stress axis : x y z
#
# Youngs Moduli (GPa) = 89.94172 71.89014 80.45915
#
# Poissons Ratio (x) = 0.15583 0.31731
# Poissons Ratio (y) = 0.19495 0.17345
# Poissons Ratio (z) = 0.35471 0.15498
#
# Static dielectric constant tensor:
#      x y z
#    x 4.461470 0.000000 0.198840 
#    y 0.000000 4.423130 0.000000 
#    z 0.198840 0.000000 4.290800 
# 
# 
# High freq. dielectric constant tensor:
#      x y z
#    x 1.943680 0.000000 0.022270 
#    y 0.000000 1.947700 0.000000 
#    z 0.022270 0.000000 1.939810 
# 
# From -- ./inp_files/8982.got.cif
#   From: 2010.03.12/outbox.cif.g09.slc.cpg/sg4_5_cif.got.tgz:8982.got - 2010.03.31 09:31:35.
