data_PCOD8047129
_publ_section_title
;
Structure prediction by ZEFSAII (Michael W. Deem and Ramdas Pophale) SiO2 
 PCOD8047129
Probable space group: P 21
;
_chemical_formula_sum "Si O2"
_cell_formula_units_Z 16
_cell_length_a 7.971795
_cell_length_b 9.185429
_cell_length_c 11.159183
_cell_angle_alpha 90.000000
_cell_angle_beta 129.378498
_cell_angle_gamma 90.000000
_cell_volume 631.613744
_symmetry_space_group_name_H-M "P 21"
_symmetry_group_IT_number 4
_symmetry_cell_setting 'monoclinic'
loop_
_space_group_symop_operation_xyz
x,y,z
-x,1/2+y,-z
loop_
_atom_site_type_symbol
_atom_site_label
_atom_site_fract_x
_atom_site_fract_y
_atom_site_fract_z
Si Si1 0.027151 0.664850 0.334059
Si Si2 0.646886 0.401113 0.559856
Si Si3 0.825777 0.861054 0.667023
Si Si4 0.579343 0.806917 0.070656
Si Si5 0.200394 0.132819 0.539865
Si Si6 0.420125 0.545885 0.107929
Si Si7 0.996432 0.192468 0.036906
Si Si8 0.699297 0.450376 0.851350
O O1 0.833199 0.769839 0.202359
O O2 0.010084 0.637782 0.469739
O O3 0.254839 0.738812 0.402427
O O4 0.023846 0.505277 0.271006
O O5 0.412039 0.400698 0.387654
O O6 0.813993 0.505040 0.564452
O O7 0.604938 0.461266 0.674411
O O8 0.782777 0.788511 0.517623
O O9 0.946223 0.744057 0.803472
O O10 0.441770 0.658360 0.005506
O O11 0.485224 0.905709 0.137916
O O12 0.539924 0.884625 0.924871
O O13 0.409931 0.101687 0.717073
O O14 0.176041 0.559232 0.043478
O O15 0.203035 0.111216 0.068717
O O16 0.893313 0.330238 0.922886
#
# Coordination Sequence:
#
# PCOD8047129 Si02
#       8
#     2   2   2   2   2   2   2   2
#     4  11  26  46  76 105 150 195 246 313 369 453
#     4  12  25  49  72 107 146 194 249 311 373 447
#     4  12  26  47  72 110 148 195 252 301 385 444
#     4  10  24  46  75 110 146 199 246 312 375 442
#     4  11  25  48  72 109 143 199 249 305 379 443
#     4  10  24  47  73 106 152 190 251 311 370 453
#     4  11  26  44  72 109 142 200 240 310 372 444
#     4  11  26  47  76 108 151 190 251 309 373 450
#
# _framework density 25.331939999999999
#
# number of rings (size 3 to 8) (size 9 to 14) (size 15 to 20)
#    0.000    1.000    1.250    4.500   10.500    1.000 
#    0.000    0.000    0.000    0.000    0.000    0.000 
#    0.000    0.000    0.000    0.000    0.000    0.000 
#
# Total GULP energy -198313.555364 kJ/mol
# GULP energy per Si atom -12394.597210 kJ/mol
# Density = 2.527428 g / cm^3
# Si number density = 25.331940 Si / 1000 Ang^3
#
#
#
# Elastic Constant Matrix: (Units=GPa)
#
#
# Indices 1 2 3 4 5 6 
#
# 1 73.9754 17.8619 19.6172 0.0000 7.7583 0.0000
# 2 17.8619 108.9725 22.8006 0.0000 3.9342 0.0000
# 3 19.6172 22.8006 87.7521 0.0000 4.2482 0.0000
# 4 0.0000 0.0000 0.0000 25.3304 0.0000 0.7521
# 5 7.7583 3.9342 4.2482 0.0000 29.8110 0.0000
# 6 0.0000 0.0000 0.0000 0.7521 0.0000 55.0780
#
#
#
# Elastic Compliance Matrix: (Units=1/GPa)
#
#
# Indices 1 2 3 4 5 6 
#
# 1 0.015016 -0.001770 -0.002738 0.000000 -0.003284 0.000000
# 2 -0.001770 0.009938 -0.002160 0.000000 -0.000543 0.000000
# 3 -0.002738 -0.002160 0.012608 0.000000 -0.000799 0.000000
# 4 0.000000 0.000000 0.000000 0.039494 0.000000 -0.000539
# 5 -0.003284 -0.000543 -0.000799 0.000000 0.034585 0.000000
# 6 0.000000 0.000000 0.000000 -0.000539 0.000000 0.018163
#
#
# Mechanical properties :
#
#
# Convention : Reuss Voigt Hill
#
# Bulk Modulus (GPa) = 41.27849 43.47329 42.37589
# Shear Modulus (GPa) = 33.06526 36.07190 34.56858
#
# Velocity S-wave (km/s) = 3.61678 3.77765 3.69809
# Velocity P-wave (km/s) = 5.81136 6.01882 5.91600
#
# Compressibility (1/GPa) = 0.02422569
#
# Stress axis : x y z
#
# Youngs Moduli (GPa) = 66.59634 100.62031 79.31580
#
# Poissons Ratio (x) = 0.17808 0.21717
# Poissons Ratio (y) = 0.11786 0.17135
# Poissons Ratio (z) = 0.18234 0.21737
#
# Static dielectric constant tensor:
#      x y z
#    x 4.609760 0.000000 -0.021220 
#    y 0.000000 4.684700 0.000000 
#    z -0.021220 0.000000 4.354150 
# 
# 
# High freq. dielectric constant tensor:
#      x y z
#    x 2.010590 0.000000 -0.001830 
#    y 0.000000 2.020930 0.000000 
#    z -0.001830 0.000000 1.995980 
# 
# From -- ./inp_files/11091.got.cif
#   From: 2010.03.12/outbox.cif.g09.slc.cpg/sg4_6_cif.got.tgz:11091.got - 2010.03.31 09:31:35.
