data_PCOD8047321
_publ_section_title
;
Structure prediction by ZEFSAII (Michael W. Deem and Ramdas Pophale) SiO2 
 PCOD8047321
Probable space group: P 21
;
_chemical_formula_sum "Si O2"
_cell_formula_units_Z 16
_cell_length_a 29.791034
_cell_length_b 4.934474
_cell_length_c 10.574808
_cell_angle_alpha 90.000000
_cell_angle_beta 152.550933
_cell_angle_gamma 90.000000
_cell_volume 716.575742
_symmetry_space_group_name_H-M "P 21"
_symmetry_group_IT_number 4
_symmetry_cell_setting 'monoclinic'
loop_
_space_group_symop_operation_xyz
x,y,z
-x,1/2+y,-z
loop_
_atom_site_type_symbol
_atom_site_label
_atom_site_fract_x
_atom_site_fract_y
_atom_site_fract_z
Si Si1 0.265482 0.181320 0.524849
Si Si2 0.621902 0.117240 0.554758
Si Si3 0.480602 0.382658 0.032936
Si Si4 0.223768 0.652182 0.262424
Si Si5 0.934620 0.117258 0.336550
Si Si6 0.519398 0.351806 0.629926
Si Si7 0.776237 0.082255 0.143599
Si Si8 0.265477 0.053119 0.802548
O O1 0.373730 0.298653 0.810224
O O2 0.197706 0.419566 0.298383
O O3 0.223982 0.117238 0.559954
O O4 0.261340 0.922941 0.423256
O O5 0.689946 0.021966 0.608550
O O6 0.552551 0.872722 0.428897
O O7 0.689946 0.212490 0.841194
O O8 0.552554 0.361762 0.333865
O O9 0.480852 0.688742 0.983525
O O10 0.130094 0.718031 0.943260
O O11 0.869910 0.016449 0.292795
O O12 0.999992 0.367275 0.544782
O O13 0.519144 0.045718 0.579258
O O14 0.626272 0.435803 0.941577
O O15 0.802296 0.314851 0.309873
O O16 0.738673 0.811472 0.116573
#
# Coordination Sequence:
#
# PCOD8047321 Si02
#       8
#     2   2   2   2   2   2   2   2
#     4  12  23  40  60  91 136 182 212 255 305 377
#     4  11  22  38  60  90 130 170 224 270 308 349
#     4  12  23  36  53  85 130 179 226 257 296 357
#     4  11  25  41  66  97 126 165 215 269 329 379
#     4  11  24  48  78 102 122 152 202 280 348 403
#     4  12  23  36  53  85 130 179 226 257 296 357
#     4  11  25  41  66  97 126 165 215 269 329 379
#     4  12  23  40  60  91 136 182 212 255 305 377
#
# _framework density 22.328415
#
# number of rings (size 3 to 8) (size 9 to 14) (size 15 to 20)
#    0.000    0.500    6.250    2.250    0.000    6.000 
#    0.000    0.000    0.000   15.000    0.000    0.000 
#    0.000    0.000    0.000    0.000    0.000    0.000 
#
# Total GULP energy -198439.284903 kJ/mol
# GULP energy per Si atom -12402.455306 kJ/mol
# Density = 2.227759 g / cm^3
# Si number density = 22.328415 Si / 1000 Ang^3
#
#
#
# Elastic Constant Matrix: (Units=GPa)
#
#
# Indices 1 2 3 4 5 6 
#
# 1 74.4829 9.7125 41.4506 0.0000 -9.3456 0.0000
# 2 9.7125 75.4878 7.5533 0.0000 -2.2121 0.0000
# 3 41.4506 7.5533 67.6268 0.0000 2.3231 0.0000
# 4 0.0000 0.0000 0.0000 29.8576 0.0000 -2.4686
# 5 -9.3456 -2.2121 2.3231 0.0000 23.9188 0.0000
# 6 0.0000 0.0000 0.0000 -2.4686 0.0000 32.2580
#
#
#
# Elastic Compliance Matrix: (Units=1/GPa)
#
#
# Indices 1 2 3 4 5 6 
#
# 1 0.022727 -0.001212 -0.014143 0.000000 0.010142 0.000000
# 2 -0.001212 0.013508 -0.000795 0.000000 0.000853 0.000000
# 3 -0.014143 -0.000795 0.023817 0.000000 -0.007913 0.000000
# 4 0.000000 0.000000 0.000000 0.033706 0.000000 0.002579
# 5 0.010142 0.000853 -0.007913 0.000000 0.046618 0.000000
# 6 0.000000 0.000000 0.000000 0.002579 0.000000 0.031197
#
#
# Mechanical properties :
#
#
# Convention : Reuss Voigt Hill
#
# Bulk Modulus (GPa) = 36.03496 37.22559 36.63028
# Shear Modulus (GPa) = 23.46056 27.79896 25.62976
#
# Velocity S-wave (km/s) = 3.24497 3.53229 3.39168
# Velocity P-wave (km/s) = 5.49668 5.77444 5.63727
#
# Compressibility (1/GPa) = 0.02775083
#
# Stress axis : x y z
#
# Youngs Moduli (GPa) = 43.99988 74.03207 41.98765
#
# Poissons Ratio (x) = 0.08971 0.59384
# Poissons Ratio (y) = 0.05332 0.03339
# Poissons Ratio (z) = 0.62230 0.05887
#
# Static dielectric constant tensor:
#      x y z
#    x 4.164240 0.000000 -0.201960 
#    y 0.000000 3.971290 0.000000 
#    z -0.201960 0.000000 3.967350 
# 
# 
# High freq. dielectric constant tensor:
#      x y z
#    x 1.879280 0.000000 -0.020250 
#    y 0.000000 1.881010 0.000000 
#    z -0.020250 0.000000 1.859540 
# 
# From -- ./inp_files/10133.got.cif
#   From: 2010.03.12/outbox.cif.g09.slc.cpg/sg4_6_cif.got.tgz:10133.got - 2010.03.31 09:31:35.
