data_PCOD8047054
_publ_section_title
;
Structure prediction by ZEFSAII (Michael W. Deem and Ramdas Pophale) SiO2 
 PCOD8047054
Probable space group: P 21
;
_chemical_formula_sum "Si O2"
_cell_formula_units_Z 14
_cell_length_a 10.454493
_cell_length_b 11.596295
_cell_length_c 5.613447
_cell_angle_alpha 90.000000
_cell_angle_beta 71.304968
_cell_angle_gamma 90.000000
_cell_volume 644.630728
_symmetry_space_group_name_H-M "P 21"
_symmetry_group_IT_number 4
_symmetry_cell_setting 'monoclinic'
loop_
_space_group_symop_operation_xyz
x,y,z
-x,1/2+y,-z
loop_
_atom_site_type_symbol
_atom_site_label
_atom_site_fract_x
_atom_site_fract_y
_atom_site_fract_z
Si Si1 0.784214 0.746430 0.478059
Si Si2 0.333570 0.438021 0.707924
Si Si3 0.875242 0.522689 0.221056
Si Si4 0.737074 0.345139 0.987560
Si Si5 0.431405 0.380098 0.156042
Si Si6 0.878151 0.138505 0.162832
Si Si7 0.941713 0.323197 0.485792
O O1 0.727201 0.807706 0.271248
O O2 0.794743 0.608632 0.446919
O O3 0.681435 0.778058 0.756751
O O4 0.928881 0.806619 0.428590
O O5 0.424081 0.455642 0.408977
O O6 0.214083 0.528288 0.751509
O O7 0.407431 0.450946 0.921423
O O8 0.761278 0.454892 0.142103
O O9 0.972177 0.426822 0.283625
O O10 0.972586 0.603954 0.009888
O O11 0.578721 0.323691 0.049118
O O12 0.805800 0.227072 0.030428
O O13 0.809677 0.372725 0.696686
O O14 0.902370 0.200140 0.399511
#
# Coordination Sequence:
#
# PCOD8047054 Si02
#       7
#     2   2   2   2   2   2   2
#     4  10  24  42  72 102 140 190 231 293 353 425
#     4  10  25  46  72 100 144 190 239 279 363 421
#     4  11  25  42  70 106 140 182 240 297 354 423
#     4  11  26  45  68 104 141 184 239 294 355 426
#     4  10  26  46  71 103 147 189 236 288 354 429
#     4  11  25  43  73 104 141 185 238 297 361 420
#     4  11  25  42  72 103 141 180 239 298 358 420
#
# _framework density 21.717859000000001
#
# number of rings (size 3 to 8) (size 9 to 14) (size 15 to 20)
#    0.857    0.571    1.429    1.714   14.000    1.143 
#    2.571    0.000    0.000    0.000    0.000    0.000 
#    0.000    0.000    0.000    0.000    0.000    0.000 
#
# Total GULP energy -173460.457868 kJ/mol
# GULP energy per Si atom -12390.032705 kJ/mol
# Density = 2.166843 g / cm^3
# Si number density = 21.717859 Si / 1000 Ang^3
#
#
#
# Elastic Constant Matrix: (Units=GPa)
#
#
# Indices 1 2 3 4 5 6 
#
# 1 99.3295 32.8831 48.9682 0.0000 -15.5098 0.0000
# 2 32.8831 96.0703 17.3995 0.0000 3.0229 0.0000
# 3 48.9682 17.3995 105.7567 0.0000 7.5461 0.0000
# 4 0.0000 0.0000 0.0000 26.5129 0.0000 -1.3483
# 5 -15.5098 3.0229 7.5461 0.0000 39.5090 0.0000
# 6 0.0000 0.0000 0.0000 -1.3483 0.0000 19.0654
#
#
#
# Elastic Compliance Matrix: (Units=1/GPa)
#
#
# Indices 1 2 3 4 5 6 
#
# 1 0.016584 -0.004576 -0.007518 0.000000 0.008296 0.000000
# 2 -0.004576 0.012001 0.000343 0.000000 -0.002780 0.000000
# 3 -0.007518 0.000343 0.013274 0.000000 -0.005513 0.000000
# 4 0.000000 0.000000 0.000000 0.037854 0.000000 0.002677
# 5 0.008296 -0.002780 -0.005513 0.000000 0.029833 0.000000
# 6 0.000000 0.000000 0.000000 0.002677 0.000000 0.052640
#
#
# Mechanical properties :
#
#
# Convention : Reuss Voigt Hill
#
# Bulk Modulus (GPa) = 54.47779 55.51757 54.99768
# Shear Modulus (GPa) = 26.06793 30.47784 28.27289
#
# Velocity S-wave (km/s) = 3.46829 3.75020 3.61200
# Velocity P-wave (km/s) = 6.41697 6.66113 6.54019
#
# Compressibility (1/GPa) = 0.01835610
#
# Stress axis : x y z
#
# Youngs Moduli (GPa) = 60.29894 83.32865 75.33717
#
# Poissons Ratio (x) = 0.38130 0.56638
# Poissons Ratio (y) = 0.27592 -0.02582
# Poissons Ratio (z) = 0.45333 -0.02856
#
# Static dielectric constant tensor:
#      x y z
#    x 3.743360 0.000000 0.049650 
#    y 0.000000 3.817850 0.000000 
#    z 0.049650 0.000000 4.008170 
# 
# 
# High freq. dielectric constant tensor:
#      x y z
#    x 1.847010 0.000000 0.000580 
#    y 0.000000 1.847710 0.000000 
#    z 0.000580 0.000000 1.854040 
# 
# From -- ./inp_files/2785.got.cif
#   From: 2010.03.12/outbox.cif.g09.slc.cpg/sg4_2_cif.got.tgz:2785.got - 2010.03.31 09:31:35.
