data_PCOD8047847
_publ_section_title
;
Structure prediction by ZEFSAII (Michael W. Deem and Ramdas Pophale) SiO2 
 PCOD8047847
Probable space group: P 21
;
_chemical_formula_sum "Si O2"
_cell_formula_units_Z 16
_cell_length_a 7.954763
_cell_length_b 17.875937
_cell_length_c 7.813450
_cell_angle_alpha 90.000000
_cell_angle_beta 144.648861
_cell_angle_gamma 90.000000
_cell_volume 642.845626
_symmetry_space_group_name_H-M "P 21"
_symmetry_group_IT_number 4
_symmetry_cell_setting 'monoclinic'
loop_
_space_group_symop_operation_xyz
x,y,z
-x,1/2+y,-z
loop_
_atom_site_type_symbol
_atom_site_label
_atom_site_fract_x
_atom_site_fract_y
_atom_site_fract_z
Si Si1 0.435676 0.204030 0.411667
Si Si2 0.038891 0.327951 0.260099
Si Si3 0.916477 0.050862 0.549909
Si Si4 0.578651 0.546756 0.453878
Si Si5 0.037390 0.479958 0.079859
Si Si6 0.051275 0.206284 0.781571
Si Si7 0.420582 0.328906 0.887519
Si Si8 0.533715 0.487132 0.076532
O O1 0.233001 0.263814 0.336693
O O2 0.488629 0.134556 0.582062
O O3 0.749091 0.238085 0.613134
O O4 0.261730 0.174090 0.102601
O O5 0.986563 0.393234 0.079307
O O6 0.224934 0.361158 0.571162
O O7 0.726819 0.296085 0.068139
O O8 0.980867 0.139412 0.591747
O O9 0.784418 0.032436 0.628630
O O10 0.194787 0.996226 0.828633
O O11 0.736059 0.029148 0.233248
O O12 0.299892 0.493295 0.163783
O O13 0.711723 0.533530 0.374818
O O14 0.752417 0.513285 0.757206
O O15 0.230434 0.269031 0.830471
O O16 0.481503 0.398953 0.063177
#
# Coordination Sequence:
#
# PCOD8047847 Si02
#       8
#     2   2   2   2   2   2   2   2
#     4  12  26  50  71 111 149 196 246 305 373 451
#     4  12  27  47  77 106 152 196 247 304 378 447
#     4  12  23  48  77 104 141 198 246 305 365 440
#     4  12  26  46  77 109 148 188 255 312 364 433
#     4  12  23  48  77 104 141 198 246 305 365 440
#     4  12  27  47  77 106 152 196 247 304 378 447
#     4  12  26  50  71 111 149 196 246 305 373 451
#     4  12  26  46  77 109 148 188 255 312 364 433
#
# _framework density 24.889337000000001
#
# number of rings (size 3 to 8) (size 9 to 14) (size 15 to 20)
#    0.000    0.000    5.000    4.500    3.500    0.000 
#    0.000    0.000    0.000    0.000    0.000    0.000 
#    0.000    0.000    0.000    0.000    0.000    0.000 
#
# Total GULP energy -198250.980616 kJ/mol
# GULP energy per Si atom -12390.686289 kJ/mol
# Density = 2.483269 g / cm^3
# Si number density = 24.889337 Si / 1000 Ang^3
#
#
#
# Elastic Constant Matrix: (Units=GPa)
#
#
# Indices 1 2 3 4 5 6 
#
# 1 67.3912 72.5780 51.4911 0.0000 19.3056 0.0000
# 2 72.5780 162.9385 42.1570 0.0000 7.4158 0.0000
# 3 51.4911 42.1570 141.8585 0.0000 12.2066 0.0000
# 4 0.0000 0.0000 0.0000 41.3107 0.0000 8.4695
# 5 19.3056 7.4158 12.2066 0.0000 57.6842 0.0000
# 6 0.0000 0.0000 0.0000 8.4695 0.0000 27.6085
#
#
#
# Elastic Compliance Matrix: (Units=1/GPa)
#
#
# Indices 1 2 3 4 5 6 
#
# 1 0.042195 -0.015815 -0.009753 0.000000 -0.010025 0.000000
# 2 -0.015815 0.012588 0.001715 0.000000 0.003312 0.000000
# 3 -0.009753 0.001715 0.010000 0.000000 0.000928 0.000000
# 4 0.000000 0.000000 0.000000 0.025831 0.000000 -0.007924
# 5 -0.010025 0.003312 0.000928 0.000000 0.020069 0.000000
# 6 0.000000 0.000000 0.000000 -0.007924 0.000000 0.038652
#
#
# Mechanical properties :
#
#
# Convention : Reuss Voigt Hill
#
# Bulk Modulus (GPa) = 58.56421 78.29337 68.42879
# Shear Modulus (GPa) = 24.66286 39.05149 31.85717
#
# Velocity S-wave (km/s) = 3.15127 3.96536 3.58152
# Velocity P-wave (km/s) = 6.06808 7.24502 6.68251
#
# Compressibility (1/GPa) = 0.01707527
#
# Stress axis : x y z
#
# Youngs Moduli (GPa) = 23.69935 79.44361 99.99979
#
# Poissons Ratio (x) = 1.25643 0.97532
# Poissons Ratio (y) = 0.37481 -0.17149
# Poissons Ratio (z) = 0.23115 -0.13624
#
# Static dielectric constant tensor:
#      x y z
#    x 4.809160 0.000000 0.206340 
#    y 0.000000 4.073250 0.000000 
#    z 0.206340 0.000000 4.561240 
# 
# 
# High freq. dielectric constant tensor:
#      x y z
#    x 2.026360 0.000000 0.015860 
#    y 0.000000 1.982150 0.000000 
#    z 0.015860 0.000000 2.006320 
# 
# From -- ./inp_files/6957.got.cif
#   From: 2010.03.12/outbox.cif.g09.slc.cpg/sg4_4_cif.got.tgz:6957.got - 2010.03.31 09:31:35.
