data_PCOD8047154
_publ_section_title
;
Structure prediction by ZEFSAII (Michael W. Deem and Ramdas Pophale) SiO2 
 PCOD8047154
Probable space group: P 21
;
_chemical_formula_sum "Si O2"
_cell_formula_units_Z 12
_cell_length_a 7.227952
_cell_length_b 8.270603
_cell_length_c 9.379805
_cell_angle_alpha 90.000000
_cell_angle_beta 116.865740
_cell_angle_gamma 90.000000
_cell_volume 500.200542
_symmetry_space_group_name_H-M "P 21"
_symmetry_group_IT_number 4
_symmetry_cell_setting 'monoclinic'
loop_
_space_group_symop_operation_xyz
x,y,z
-x,1/2+y,-z
loop_
_atom_site_type_symbol
_atom_site_label
_atom_site_fract_x
_atom_site_fract_y
_atom_site_fract_z
Si Si1 0.807748 0.709460 0.576816
Si Si2 0.445849 0.385195 0.087987
Si Si3 0.028198 0.731335 0.351378
Si Si4 0.212926 0.049487 0.954417
Si Si5 0.050466 0.531180 0.866786
Si Si6 0.433885 0.888247 0.547405
O O1 0.656216 0.861539 0.548600
O O2 0.665265 0.551284 0.547177
O O3 0.915943 0.717616 0.463496
O O4 0.981463 0.698950 0.764735
O O5 0.630801 0.409169 0.039341
O O6 0.542915 0.400763 0.276366
O O7 0.336758 0.214339 0.027583
O O8 0.282765 0.534122 0.010586
O O9 0.276794 0.738977 0.457372
O O10 0.961685 0.580682 0.228650
O O11 0.948501 0.896072 0.254589
O O12 0.106575 0.985944 0.060709
#
# Coordination Sequence:
#
# PCOD8047154 Si02
#       6
#     2   2   2   2   2   2
#     4  11  24  46  71 105 139 181 233 285 347 409
#     4  11  25  45  73 103 136 184 231 285 346 414
#     4  10  25  43  68 103 141 180 228 284 341 408
#     4  11  24  46  71 105 139 181 233 285 347 409
#     4  10  25  43  68 103 141 180 228 284 341 408
#     4  11  25  45  73 103 136 184 231 285 346 414
#
# _framework density 23.990376000000001
#
# number of rings (size 3 to 8) (size 9 to 14) (size 15 to 20)
#    0.000    1.333    3.333    0.000    4.667   12.000 
#    0.000    0.000    0.000    0.000    0.000    0.000 
#    0.000    0.000    0.000    0.000    0.000    0.000 
#
# Total GULP energy -148798.599268 kJ/mol
# GULP energy per Si atom -12399.883272 kJ/mol
# Density = 2.393577 g / cm^3
# Si number density = 23.990376 Si / 1000 Ang^3
#
#
#
# Elastic Constant Matrix: (Units=GPa)
#
#
# Indices 1 2 3 4 5 6 
#
# 1 82.4461 7.7216 32.6639 0.0000 -7.5542 0.0000
# 2 7.7216 27.7572 4.3612 0.0000 7.3966 0.0000
# 3 32.6639 4.3612 116.0512 0.0000 1.2416 0.0000
# 4 0.0000 0.0000 0.0000 15.8560 0.0000 -6.5335
# 5 -7.5542 7.3966 1.2416 0.0000 51.2769 0.0000
# 6 0.0000 0.0000 0.0000 -6.5335 0.0000 41.9088
#
#
#
# Elastic Compliance Matrix: (Units=1/GPa)
#
#
# Indices 1 2 3 4 5 6 
#
# 1 0.014318 -0.004115 -0.003905 0.000000 0.002797 0.000000
# 2 -0.004115 0.038862 -0.000236 0.000000 -0.006206 0.000000
# 3 -0.003905 -0.000236 0.009733 0.000000 -0.000777 0.000000
# 4 0.000000 0.000000 0.000000 0.067397 0.000000 0.010507
# 5 0.002797 -0.006206 -0.000777 0.000000 0.020828 0.000000
# 6 0.000000 0.000000 0.000000 0.010507 0.000000 0.025499
#
#
# Mechanical properties :
#
#
# Convention : Reuss Voigt Hill
#
# Bulk Modulus (GPa) = 21.55101 35.08311 28.31706
# Shear Modulus (GPa) = 23.96732 33.90887 28.93809
#
# Velocity S-wave (km/s) = 3.16419 3.76365 3.47686
# Velocity P-wave (km/s) = 4.72780 5.79157 5.28651
#
# Compressibility (1/GPa) = 0.04640154
#
# Stress axis : x y z
#
# Youngs Moduli (GPa) = 69.84183 25.73186 102.74063
#
# Poissons Ratio (x) = 0.10588 0.40123
# Poissons Ratio (y) = 0.28739 0.02423
# Poissons Ratio (z) = 0.27275 0.00607
#
# Static dielectric constant tensor:
#      x y z
#    x 4.504860 0.000000 0.480610 
#    y 0.000000 4.166930 0.000000 
#    z 0.480610 0.000000 4.817980 
# 
# 
# High freq. dielectric constant tensor:
#      x y z
#    x 1.960890 0.000000 0.008630 
#    y 0.000000 1.934440 0.000000 
#    z 0.008630 0.000000 1.970020 
# 
# From -- ./inp_files/1018.got.cif
#   From: 2010.03.12/outbox.cif.g09.slc.cpg/sg4_1_cif.got.tgz:1018.got - 2010.03.31 09:31:35.
