data_PCOD8047888
_publ_section_title
;
Structure prediction by ZEFSAII (Michael W. Deem and Ramdas Pophale) SiO2 
 PCOD8047888
Probable space group: P 21
;
_chemical_formula_sum "Si O2"
_cell_formula_units_Z 14
_cell_length_a 10.346060
_cell_length_b 8.652747
_cell_length_c 7.725592
_cell_angle_alpha 90.000000
_cell_angle_beta 48.258815
_cell_angle_gamma 90.000000
_cell_volume 516.050997
_symmetry_space_group_name_H-M "P 21"
_symmetry_group_IT_number 4
_symmetry_cell_setting 'monoclinic'
loop_
_space_group_symop_operation_xyz
x,y,z
-x,1/2+y,-z
loop_
_atom_site_type_symbol
_atom_site_label
_atom_site_fract_x
_atom_site_fract_y
_atom_site_fract_z
Si Si1 0.082528 0.626850 0.236165
Si Si2 0.622963 0.811086 0.794617
Si Si3 0.446447 0.112388 0.838362
Si Si4 0.874850 0.542798 0.101900
Si Si5 0.429069 0.568708 0.774667
Si Si6 0.016009 0.443356 0.622994
Si Si7 0.655817 0.302238 0.434849
O O1 0.978722 0.550244 0.489766
O O2 0.970804 0.647191 0.158281
O O3 0.124423 0.803742 0.254098
O O4 0.260951 0.530184 0.047749
O O5 0.580731 0.642954 0.752030
O O6 0.797038 0.866170 0.550626
O O7 0.477946 0.947903 0.905229
O O8 0.636438 0.755765 0.981347
O O9 0.317662 0.095628 0.787184
O O10 0.637039 0.174634 0.604736
O O11 0.841611 0.385923 0.246693
O O12 0.996057 0.532627 0.823932
O O13 0.495420 0.422922 0.606811
O O14 0.366880 0.714745 0.722354
#
# Coordination Sequence:
#
# PCOD8047888 Si02
#       7
#     2   2   2   2   2   2   2
#     4  12  29  51  77 115 160 203 259 320 394 472
#     4  12  26  48  76 110 154 200 267 323 381 470
#     4  12  26  49  78 113 152 209 264 323 391 459
#     4  12  28  47  80 114 156 203 260 323 394 465
#     4  12  25  49  75 111 149 205 260 320 389 459
#     4  12  28  48  75 112 157 203 256 322 396 460
#     4  12  24  48  75 109 152 197 266 313 383 461
#
# _framework density 27.129104000000002
#
# number of rings (size 3 to 8) (size 9 to 14) (size 15 to 20)
#    0.000    0.000    4.286    4.286    4.000    5.714 
#    0.000    0.000    0.000    0.000    0.000    0.000 
#    0.000    0.000    0.000    0.000    0.000    0.000 
#
# Total GULP energy -173450.790403 kJ/mol
# GULP energy per Si atom -12389.342172 kJ/mol
# Density = 2.706736 g / cm^3
# Si number density = 27.129104 Si / 1000 Ang^3
#
#
#
# Elastic Constant Matrix: (Units=GPa)
#
#
# Indices 1 2 3 4 5 6 
#
# 1 57.6735 6.3637 -3.4739 0.0000 14.6799 0.0000
# 2 6.3637 89.4958 15.2177 0.0000 22.0147 0.0000
# 3 -3.4739 15.2177 142.1046 0.0000 24.0598 0.0000
# 4 0.0000 0.0000 0.0000 61.4609 0.0000 6.4786
# 5 14.6799 22.0147 24.0598 0.0000 39.6163 0.0000
# 6 0.0000 0.0000 0.0000 6.4786 0.0000 25.1739
#
#
#
# Elastic Compliance Matrix: (Units=1/GPa)
#
#
# Indices 1 2 3 4 5 6 
#
# 1 0.019609 0.000410 0.001900 0.000000 -0.008648 0.000000
# 2 0.000410 0.012956 -0.000148 0.000000 -0.007262 0.000000
# 3 0.001900 -0.000148 0.008030 0.000000 -0.005499 0.000000
# 4 0.000000 0.000000 0.000000 0.016724 0.000000 -0.004304
# 5 -0.008648 -0.007262 -0.005499 0.000000 0.035821 0.000000
# 6 0.000000 0.000000 0.000000 -0.004304 0.000000 0.040831
#
#
# Mechanical properties :
#
#
# Convention : Reuss Voigt Hill
#
# Bulk Modulus (GPa) = 22.26239 36.16544 29.21392
# Shear Modulus (GPa) = 34.57280 43.32799 38.95039
#
# Velocity S-wave (km/s) = 3.57372 4.00071 3.79323
# Velocity P-wave (km/s) = 5.02519 5.89073 5.47509
#
# Compressibility (1/GPa) = 0.04491880
#
# Stress axis : x y z
#
# Youngs Moduli (GPa) = 50.99609 77.18446 124.52770
#
# Poissons Ratio (x) = -0.03163 -0.23656
# Poissons Ratio (y) = -0.02090 0.01842
# Poissons Ratio (z) = -0.09687 0.01142
#
# Static dielectric constant tensor:
#      x y z
#    x 4.562290 0.000000 0.259370 
#    y 0.000000 5.315210 0.000000 
#    z 0.259370 0.000000 5.254610 
# 
# 
# High freq. dielectric constant tensor:
#      x y z
#    x 2.058320 0.000000 0.020300 
#    y 0.000000 2.108990 0.000000 
#    z 0.020300 0.000000 2.118040 
# 
# From -- ./inp_files/7924.got.cif
#   From: 2010.03.12/outbox.cif.g09.slc.cpg/sg4_4_cif.got.tgz:7924.got - 2010.03.31 09:31:35.
