data_PCOD8047337
_publ_section_title
;
Structure prediction by ZEFSAII (Michael W. Deem and Ramdas Pophale) SiO2 
 PCOD8047337
Probable space group: P 21
;
_chemical_formula_sum "Si O2"
_cell_formula_units_Z 12
_cell_length_a 11.066767
_cell_length_b 7.456889
_cell_length_c 18.199580
_cell_angle_alpha 90.000000
_cell_angle_beta 23.970060
_cell_angle_gamma 90.000000
_cell_volume 610.159016
_symmetry_space_group_name_H-M "P 21"
_symmetry_group_IT_number 4
_symmetry_cell_setting 'monoclinic'
loop_
_space_group_symop_operation_xyz
x,y,z
-x,1/2+y,-z
loop_
_atom_site_type_symbol
_atom_site_label
_atom_site_fract_x
_atom_site_fract_y
_atom_site_fract_z
Si Si1 0.090068 0.773430 0.345491
Si Si2 0.596909 0.875938 0.521587
Si Si3 0.610786 0.569935 0.099863
Si Si4 0.027738 0.404652 0.437580
Si Si5 0.504667 0.698646 0.317818
Si Si6 0.727137 0.006237 0.291960
O O1 0.943325 0.843399 0.351707
O O2 0.911462 0.592736 0.468793
O O3 0.443634 0.725889 0.143809
O O4 0.034163 0.917384 0.440846
O O5 0.576753 0.918507 0.447015
O O6 0.399568 0.703887 0.650755
O O7 0.461256 0.041386 0.642071
O O8 0.660331 0.642395 0.155219
O O9 0.388012 0.395875 0.224893
O O10 0.919517 0.520581 0.891176
O O11 0.845803 0.242494 0.501263
O O12 0.668330 0.877100 0.255774
#
# Coordination Sequence:
#
# PCOD8047337 Si02
#       6
#     2   2   2   2   2   2
#     4   9  17  37  63  88 119 160 201 250 305 361
#     4  12  23  42  64  84 130 174 198 246 324 373
#     4   9  22  38  65  97 116 156 219 260 293 355
#     4   9  17  36  63  90 118 153 210 249 306 353
#     4  11  22  41  66  89 124 170 202 254 312 366
#     4  12  25  42  61  94 129 163 210 247 312 380
#
# _framework density 19.667003999999999
#
# number of rings (size 3 to 8) (size 9 to 14) (size 15 to 20)
#    1.000    0.667    5.000    0.000    2.333    0.000 
#    3.000    1.667    0.000    0.000    0.000    0.000 
#    0.000    0.000    0.000    0.000    0.000    0.000 
#
# Total GULP energy -148673.714958 kJ/mol
# GULP energy per Si atom -12389.476246 kJ/mol
# Density = 1.962224 g / cm^3
# Si number density = 19.667004 Si / 1000 Ang^3
#
#
#
# Elastic Constant Matrix: (Units=GPa)
#
#
# Indices 1 2 3 4 5 6 
#
# 1 52.4660 15.4946 5.3047 0.0000 -8.0632 0.0000
# 2 15.4946 91.8025 22.8080 0.0000 -2.6263 0.0000
# 3 5.3047 22.8080 85.5219 0.0000 -19.3495 0.0000
# 4 0.0000 0.0000 0.0000 20.3888 0.0000 -6.5077
# 5 -8.0632 -2.6263 -19.3495 0.0000 22.6844 0.0000
# 6 0.0000 0.0000 0.0000 -6.5077 0.0000 38.0198
#
#
#
# Elastic Compliance Matrix: (Units=1/GPa)
#
#
# Indices 1 2 3 4 5 6 
#
# 1 0.021314 -0.003752 0.001604 0.000000 0.008510 0.000000
# 2 -0.003752 0.012375 -0.003773 0.000000 -0.003120 0.000000
# 3 0.001604 -0.003773 0.015650 0.000000 0.013483 0.000000
# 4 0.000000 0.000000 0.000000 0.051881 0.000000 0.008880
# 5 0.008510 -0.003120 0.013483 0.000000 0.058247 0.000000
# 6 0.000000 0.000000 0.000000 0.008880 0.000000 0.027822
#
#
# Mechanical properties :
#
#
# Convention : Reuss Voigt Hill
#
# Bulk Modulus (GPa) = 26.67009 35.22278 30.94643
# Shear Modulus (GPa) = 23.62606 28.63080 26.12843
#
# Velocity S-wave (km/s) = 3.46974 3.81961 3.64887
# Velocity P-wave (km/s) = 5.44449 6.11563 5.78979
#
# Compressibility (1/GPa) = 0.03749519
#
# Stress axis : x y z
#
# Youngs Moduli (GPa) = 46.91795 80.81133 63.89690
#
# Poissons Ratio (x) = 0.30324 -0.10249
# Poissons Ratio (y) = 0.17606 0.24110
# Poissons Ratio (z) = -0.07526 0.30492
#
# Static dielectric constant tensor:
#      x y z
#    x 3.558420 0.000000 -0.247700 
#    y 0.000000 3.549420 0.000000 
#    z -0.247700 0.000000 3.153370 
# 
# 
# High freq. dielectric constant tensor:
#      x y z
#    x 1.768260 0.000000 -0.022150 
#    y 0.000000 1.770290 0.000000 
#    z -0.022150 0.000000 1.728200 
# 
# From -- ./inp_files/15699.got.cif
#   From: 2010.03.12/outbox.cif.g09.slc.cpg/sg4_8_cif.got.tgz:15699.got - 2010.03.31 09:31:35.
