data_PCOD8047130
_publ_section_title
;
Structure prediction by ZEFSAII (Michael W. Deem and Ramdas Pophale) SiO2 
 PCOD8047130
Probable space group: P 21
;
_chemical_formula_sum "Si O2"
_cell_formula_units_Z 16
_cell_length_a 14.759089
_cell_length_b 6.130648
_cell_length_c 15.164412
_cell_angle_alpha 90.000000
_cell_angle_beta 149.624896
_cell_angle_gamma 90.000000
_cell_volume 693.823807
_symmetry_space_group_name_H-M "P 21"
_symmetry_group_IT_number 4
_symmetry_cell_setting 'monoclinic'
loop_
_space_group_symop_operation_xyz
x,y,z
-x,1/2+y,-z
loop_
_atom_site_type_symbol
_atom_site_label
_atom_site_fract_x
_atom_site_fract_y
_atom_site_fract_z
Si Si1 0.517120 0.284690 0.970554
Si Si2 0.362028 0.674535 0.589155
Si Si3 0.429003 0.823323 0.326250
Si Si4 0.095066 0.685638 0.706068
Si Si5 0.273956 0.416353 0.137521
Si Si6 0.206009 0.471745 0.618014
Si Si7 0.727843 0.680150 0.695506
Si Si8 0.049553 0.945581 0.250354
O O1 0.357241 0.286386 0.765084
O O2 0.495889 0.537963 0.995429
O O3 0.718997 0.291081 0.102664
O O4 0.407284 0.436451 0.589144
O O5 0.546006 0.803447 0.743945
O O6 0.294117 0.663057 0.633174
O O7 0.213387 0.779267 0.400291
O O8 0.316053 0.673009 0.164438
O O9 0.529196 0.688198 0.487025
O O10 0.280251 0.979236 0.243113
O O11 0.119278 0.567865 0.632942
O O12 0.949863 0.874397 0.573423
O O13 0.022548 0.514547 0.715345
O O14 0.227001 0.381827 0.202026
O O15 0.113920 0.336302 0.940157
O O16 0.880644 0.648831 0.750019
#
# Coordination Sequence:
#
# PCOD8047130 Si02
#       8
#     2   2   2   2   2   2   2   2
#     4  10  24  46  75 110 147 200 257 320 381 453
#     4  11  26  45  69 105 140 197 242 305 374 452
#     4  11  21  45  72  98 140 183 239 298 374 455
#     4  11  25  45  72 111 146 191 252 307 369 459
#     4  11  27  45  72 102 144 185 243 309 379 457
#     4  11  24  45  76 103 148 198 243 306 382 440
#     4  11  22  43  70 102 134 186 235 297 377 453
#     4  12  27  44  70 107 149 188 249 314 372 461
#
# _framework density 23.060611999999999
#
# number of rings (size 3 to 8) (size 9 to 14) (size 15 to 20)
#    0.000    1.000    2.500    3.000    3.500    7.000 
#    4.500    0.000    0.000    0.000    0.000    0.000 
#    0.000    0.000    0.000    0.000    0.000    0.000 
#
# Total GULP energy -198219.588270 kJ/mol
# GULP energy per Si atom -12388.724267 kJ/mol
# Density = 2.300812 g / cm^3
# Si number density = 23.060612 Si / 1000 Ang^3
#
#
#
# Elastic Constant Matrix: (Units=GPa)
#
#
# Indices 1 2 3 4 5 6 
#
# 1 125.1598 34.0688 39.7013 0.0000 -5.0198 0.0000
# 2 34.0688 95.1845 29.7542 0.0000 8.6256 0.0000
# 3 39.7013 29.7542 123.1939 0.0000 25.2017 0.0000
# 4 0.0000 0.0000 0.0000 20.3749 0.0000 -4.0296
# 5 -5.0198 8.6256 25.2017 0.0000 31.5330 0.0000
# 6 0.0000 0.0000 0.0000 -4.0296 0.0000 31.0404
#
#
#
# Elastic Compliance Matrix: (Units=1/GPa)
#
#
# Indices 1 2 3 4 5 6 
#
# 1 0.010177 -0.002986 -0.003654 0.000000 0.005357 0.000000
# 2 -0.002986 0.012271 -0.001456 0.000000 -0.002669 0.000000
# 3 -0.003654 -0.001456 0.011577 0.000000 -0.009436 0.000000
# 4 0.000000 0.000000 0.000000 0.050373 0.000000 0.006539
# 5 0.005357 -0.002669 -0.009436 0.000000 0.040837 0.000000
# 6 0.000000 0.000000 0.000000 0.006539 0.000000 0.033065
#
#
# Mechanical properties :
#
#
# Convention : Reuss Voigt Hill
#
# Bulk Modulus (GPa) = 56.07488 61.17631 58.62559
# Shear Modulus (GPa) = 27.71066 32.59061 30.15063
#
# Velocity S-wave (km/s) = 3.47024 3.76341 3.61979
# Velocity P-wave (km/s) = 6.35813 6.74318 6.55348
#
# Compressibility (1/GPa) = 0.01783330
#
# Stress axis : x y z
#
# Youngs Moduli (GPa) = 98.26531 81.49032 86.37893
#
# Poissons Ratio (x) = 0.24329 0.31567
# Poissons Ratio (y) = 0.29338 0.12575
# Poissons Ratio (z) = 0.35910 0.11863
#
# Static dielectric constant tensor:
#      x y z
#    x 4.197070 0.000000 0.093930 
#    y 0.000000 4.429170 0.000000 
#    z 0.093930 0.000000 4.355160 
# 
# 
# High freq. dielectric constant tensor:
#      x y z
#    x 1.909930 0.000000 0.010410 
#    y 0.000000 1.904670 0.000000 
#    z 0.010410 0.000000 1.920870 
# 
# From -- ./inp_files/14061.got.cif
#   From: 2010.03.12/outbox.cif.g09.slc.cpg/sg4_8_cif.got.tgz:14061.got - 2010.03.31 09:31:35.
