data_PCOD8047811
_publ_section_title
;
Structure prediction by ZEFSAII (Michael W. Deem and Ramdas Pophale) SiO2 
 PCOD8047811
Probable space group: P 21
;
_chemical_formula_sum "Si O2"
_cell_formula_units_Z 14
_cell_length_a 8.885125
_cell_length_b 13.350397
_cell_length_c 8.885115
_cell_angle_alpha 90.000000
_cell_angle_beta 144.327143
_cell_angle_gamma 90.000000
_cell_volume 614.618810
_symmetry_space_group_name_H-M "P 21"
_symmetry_group_IT_number 4
_symmetry_cell_setting 'monoclinic'
loop_
_space_group_symop_operation_xyz
x,y,z
-x,1/2+y,-z
loop_
_atom_site_type_symbol
_atom_site_label
_atom_site_fract_x
_atom_site_fract_y
_atom_site_fract_z
Si Si1 0.160211 0.464430 0.018970
Si Si2 0.518951 0.652560 0.660189
Si Si3 0.564687 0.808497 0.935282
Si Si4 0.034547 0.170447 0.203013
Si Si5 0.247285 0.808494 0.252670
Si Si6 0.034570 0.308491 0.465458
Si Si7 0.297009 0.446538 0.465473
O O1 0.403268 0.406705 0.144230
O O2 0.182155 0.482809 0.214434
O O3 0.145854 0.572731 0.928677
O O4 0.907916 0.395825 0.787437
O O5 0.644214 0.710296 0.903239
O O6 0.714425 0.634176 0.682146
O O7 0.287409 0.721154 0.407868
O O8 0.428669 0.544259 0.645854
O O9 0.265705 0.804668 0.736402
O O10 0.763554 0.812316 0.234260
O O11 0.100470 0.208265 0.423790
O O12 0.906375 0.264703 0.014215
O O13 0.514161 0.852294 0.406331
O O14 0.076241 0.408713 0.399554
#
# Coordination Sequence:
#
# PCOD8047811 Si02
#       7
#     2   2   2   2   2   2   2
#     4  12  25  44  77 109 139 192 253 309 359 429
#     4  12  25  44  77 109 139 192 253 309 359 429
#     4  12  28  50  73 105 160 200 232 298 374 448
#     4  12  25  44  77 109 139 192 253 309 359 429
#     4  12  20  44  72 110 144 174 246 314 366 408
#     4  12  28  50  73 105 160 200 232 298 374 448
#     4  12  25  44  77 109 139 192 253 309 359 429
#
# _framework density 22.778345000000002
#
# number of rings (size 3 to 8) (size 9 to 14) (size 15 to 20)
#    0.000    0.000    8.571    1.714    0.000    1.143 
#    0.000    8.571    0.000    0.000    0.000    0.000 
#    0.000    0.000    0.000    0.000    0.000    0.000 
#
# Total GULP energy -173650.051996 kJ/mol
# GULP energy per Si atom -12403.575143 kJ/mol
# Density = 2.272650 g / cm^3
# Si number density = 22.778345 Si / 1000 Ang^3
#
#
#
# Elastic Constant Matrix: (Units=GPa)
#
#
# Indices 1 2 3 4 5 6 
#
# 1 118.8553 42.0831 33.0312 0.0000 3.4812 0.0000
# 2 42.0831 138.4453 18.3748 0.0000 -9.9487 0.0000
# 3 33.0312 18.3748 103.7357 0.0000 -9.8302 0.0000
# 4 0.0000 0.0000 0.0000 42.8062 0.0000 12.5822
# 5 3.4812 -9.9487 -9.8302 0.0000 41.4800 0.0000
# 6 0.0000 0.0000 0.0000 12.5822 0.0000 12.8228
#
#
#
# Elastic Compliance Matrix: (Units=1/GPa)
#
#
# Indices 1 2 3 4 5 6 
#
# 1 0.010342 -0.002910 -0.002993 0.000000 -0.002275 0.000000
# 2 -0.002910 0.008308 -0.000341 0.000000 0.002156 0.000000
# 3 -0.002993 -0.000341 0.010915 0.000000 0.002756 0.000000
# 4 0.000000 0.000000 0.000000 0.032830 0.000000 -0.032214
# 5 -0.002275 0.002156 0.002756 0.000000 0.025469 0.000000
# 6 0.000000 0.000000 0.000000 -0.032214 0.000000 0.109595
#
#
# Mechanical properties :
#
#
# Convention : Reuss Voigt Hill
#
# Bulk Modulus (GPa) = 58.55936 60.89051 59.72493
# Shear Modulus (GPa) = 23.18684 37.25830 30.22257
#
# Velocity S-wave (km/s) = 3.19397 4.04875 3.64649
# Velocity P-wave (km/s) = 6.27424 6.97469 6.63372
#
# Compressibility (1/GPa) = 0.01707669
#
# Stress axis : x y z
#
# Youngs Moduli (GPa) = 96.68864 120.36926 91.62093
#
# Poissons Ratio (x) = 0.35028 0.27426
# Poissons Ratio (y) = 0.28136 0.03121
# Poissons Ratio (z) = 0.28943 0.04100
#
# Static dielectric constant tensor:
#      x y z
#    x 4.192740 0.000000 -0.034780 
#    y 0.000000 4.233780 0.000000 
#    z -0.034780 0.000000 4.110000 
# 
# 
# High freq. dielectric constant tensor:
#      x y z
#    x 1.892400 0.000000 0.002850 
#    y 0.000000 1.909000 0.000000 
#    z 0.002850 0.000000 1.899190 
# 
# From -- ./inp_files/4662.got.cif
#   From: 2010.03.12/outbox.cif.g09.slc.cpg/sg4_3_cif.got.tgz:4662.got - 2010.03.31 09:31:35.
