data_PCOD8047705
_publ_section_title
;
Structure prediction by ZEFSAII (Michael W. Deem and Ramdas Pophale) SiO2 
 PCOD8047705
Probable space group: P 21
;
_chemical_formula_sum "Si O2"
_cell_formula_units_Z 16
_cell_length_a 11.661626
_cell_length_b 8.299683
_cell_length_c 9.702799
_cell_angle_alpha 90.000000
_cell_angle_beta 53.503144
_cell_angle_gamma 90.000000
_cell_volume 754.942726
_symmetry_space_group_name_H-M "P 21"
_symmetry_group_IT_number 4
_symmetry_cell_setting 'monoclinic'
loop_
_space_group_symop_operation_xyz
x,y,z
-x,1/2+y,-z
loop_
_atom_site_type_symbol
_atom_site_label
_atom_site_fract_x
_atom_site_fract_y
_atom_site_fract_z
Si Si1 0.940603 0.505300 0.708389
Si Si2 0.892577 0.856225 0.165861
Si Si3 0.613147 0.346493 0.268294
Si Si4 0.382842 0.015852 0.011346
Si Si5 0.445374 0.813863 0.222591
Si Si6 0.106955 0.980082 0.808926
Si Si7 0.584459 0.986897 0.373896
Si Si8 0.877328 0.317271 0.483741
O O1 0.945785 0.393338 0.570576
O O2 0.997140 0.396025 0.792081
O O3 0.037556 0.660373 0.620810
O O4 0.782071 0.566356 0.855933
O O5 0.865917 0.666139 0.176517
O O6 0.746129 0.948770 0.298118
O O7 0.955190 0.920138 0.976133
O O8 0.601241 0.375502 0.113682
O O9 0.774056 0.371668 0.202908
O O10 0.509740 0.470701 0.421338
O O11 0.563914 0.166174 0.333386
O O12 0.474820 0.166846 0.903030
O O13 0.442537 0.957832 0.114816
O O14 0.530482 0.864027 0.297115
O O15 0.285479 0.763280 0.377546
O O16 0.112066 0.953124 0.641773
#
# Coordination Sequence:
#
# PCOD8047705 Si02
#       8
#     2   2   2   2   2   2   2   2
#     4  11  25  46  68 100 135 180 224 278 339 400
#     4  12  26  43  71 100 137 181 222 277 337 396
#     4  12  24  45  67 101 137 176 228 275 334 402
#     4  11  25  45  70  97 139 176 227 278 335 406
#     4  11  25  46  68 100 135 180 224 278 339 400
#     4  12  24  45  67 101 137 176 228 275 334 402
#     4  12  26  43  71 100 137 181 222 277 337 396
#     4  11  25  45  70  97 139 176 227 278 335 406
#
# _framework density 21.193660999999999
#
# number of rings (size 3 to 8) (size 9 to 14) (size 15 to 20)
#    0.000    0.500    2.500    6.000    3.500    1.000 
#    0.000    0.000    0.000    0.000    0.000    0.000 
#    0.000    0.000    0.000    0.000    0.000    0.000 
#
# Total GULP energy -198543.897840 kJ/mol
# GULP energy per Si atom -12408.993615 kJ/mol
# Density = 2.114542 g / cm^3
# Si number density = 21.193661 Si / 1000 Ang^3
#
#
#
# Elastic Constant Matrix: (Units=GPa)
#
#
# Indices 1 2 3 4 5 6 
#
# 1 79.8640 3.0880 26.9708 0.0000 2.2129 0.0000
# 2 3.0880 83.5048 25.5827 0.0000 -20.2675 0.0000
# 3 26.9708 25.5827 116.4777 0.0000 -1.8179 0.0000
# 4 0.0000 0.0000 0.0000 40.4717 0.0000 -4.4285
# 5 2.2129 -20.2675 -1.8179 0.0000 29.9407 0.0000
# 6 0.0000 0.0000 0.0000 -4.4285 0.0000 18.7190
#
#
#
# Elastic Compliance Matrix: (Units=1/GPa)
#
#
# Indices 1 2 3 4 5 6 
#
# 1 0.013630 0.000229 -0.003223 0.000000 -0.001048 0.000000
# 2 0.000229 0.015462 -0.003289 0.000000 0.010250 0.000000
# 3 -0.003223 -0.003289 0.010032 0.000000 -0.001379 0.000000
# 4 0.000000 0.000000 0.000000 0.025365 0.000000 0.006001
# 5 -0.001048 0.010250 -0.001379 0.000000 0.040332 0.000000
# 6 0.000000 0.000000 0.000000 0.006001 0.000000 0.054841
#
#
# Mechanical properties :
#
#
# Convention : Reuss Voigt Hill
#
# Bulk Modulus (GPa) = 37.65225 43.45883 40.55554
# Shear Modulus (GPa) = 27.61187 32.77329 30.19258
#
# Velocity S-wave (km/s) = 3.61340 3.93666 3.77849
# Velocity P-wave (km/s) = 5.93407 6.41975 6.18168
#
# Compressibility (1/GPa) = 0.02655884
#
# Stress axis : x y z
#
# Youngs Moduli (GPa) = 73.36871 64.67303 99.67665
#
# Poissons Ratio (x) = -0.01480 0.32122
# Poissons Ratio (y) = -0.01679 0.32785
# Poissons Ratio (z) = 0.23644 0.21272
#
# Static dielectric constant tensor:
#      x y z
#    x 3.954630 0.000000 0.077460 
#    y 0.000000 3.776690 0.000000 
#    z 0.077460 0.000000 4.184340 
# 
# 
# High freq. dielectric constant tensor:
#      x y z
#    x 1.837500 0.000000 0.000470 
#    y 0.000000 1.833940 0.000000 
#    z 0.000470 0.000000 1.854660 
# 
# From -- ./inp_files/5380.got.cif
#   From: 2010.03.12/outbox.cif.g09.slc.cpg/sg4_3_cif.got.tgz:5380.got - 2010.03.31 09:31:35.
