data_PCOD8047095
_publ_section_title
;
Structure prediction by ZEFSAII (Michael W. Deem and Ramdas Pophale) SiO2 
 PCOD8047095
Probable space group: P 21
;
_chemical_formula_sum "Si O2"
_cell_formula_units_Z 14
_cell_length_a 9.764763
_cell_length_b 5.353691
_cell_length_c 23.971235
_cell_angle_alpha 90.000000
_cell_angle_beta 26.083024
_cell_angle_gamma 90.000000
_cell_volume 550.979309
_symmetry_space_group_name_H-M "P 21"
_symmetry_group_IT_number 4
_symmetry_cell_setting 'monoclinic'
loop_
_space_group_symop_operation_xyz
x,y,z
-x,1/2+y,-z
loop_
_atom_site_type_symbol
_atom_site_label
_atom_site_fract_x
_atom_site_fract_y
_atom_site_fract_z
Si Si1 0.103494 0.686480 0.599938
Si Si2 0.287907 0.505632 0.327802
Si Si3 0.297241 0.450084 0.634675
Si Si4 0.255978 0.190158 0.032903
Si Si5 0.200173 0.232294 0.930008
Si Si6 0.892350 0.188977 0.864548
Si Si7 0.335820 0.299780 0.427204
O O1 0.052276 0.531511 0.675698
O O2 0.375906 0.885879 0.514949
O O3 0.231349 0.537275 0.500412
O O4 0.780272 0.814333 0.698862
O O5 0.533869 0.708799 0.214939
O O6 0.435027 0.372909 0.328049
O O7 0.958098 0.614492 0.467907
O O8 0.362879 0.670400 0.655032
O O9 0.144416 0.215430 0.722616
O O10 0.041133 0.431102 0.127275
O O11 0.069437 0.928864 0.108559
O O12 0.367332 0.218778 0.928762
O O13 0.547338 0.185439 0.966911
O O14 0.041816 0.502677 0.983449
#
# Coordination Sequence:
#
# PCOD8047095 Si02
#       7
#     2   2   2   2   2   2   2
#     4  11  24  43  68 111 148 188 252 307 388 440
#     4  11  27  47  77 103 153 201 252 312 376 469
#     4  11  25  40  74 109 145 195 245 325 369 452
#     4  10  24  48  67 109 141 196 250 304 377 440
#     4  12  30  49  78 111 150 200 257 313 373 447
#     4  10  24  44  77  99 148 192 249 308 375 445
#     4  11  24  47  71 110 147 198 251 303 390 441
#
# _framework density 25.409302
#
# number of rings (size 3 to 8) (size 9 to 14) (size 15 to 20)
#    0.000    1.143    2.857    0.857    8.000    4.571 
#    0.000    0.000    0.000    0.000    0.000    0.000 
#    0.000    0.000    0.000    0.000    0.000    0.000 
#
# Total GULP energy -173596.870041 kJ/mol
# GULP energy per Si atom -12399.776431 kJ/mol
# Density = 2.535147 g / cm^3
# Si number density = 25.409302 Si / 1000 Ang^3
#
#
#
# Elastic Constant Matrix: (Units=GPa)
#
#
# Indices 1 2 3 4 5 6 
#
# 1 108.3287 13.4715 7.7142 0.0000 25.7385 0.0000
# 2 13.4715 99.1766 6.5160 0.0000 -2.5591 0.0000
# 3 7.7142 6.5160 68.5264 0.0000 16.6480 0.0000
# 4 0.0000 0.0000 0.0000 43.0951 0.0000 8.0391
# 5 25.7385 -2.5591 16.6480 0.0000 32.0215 0.0000
# 6 0.0000 0.0000 0.0000 8.0391 0.0000 31.9276
#
#
#
# Elastic Compliance Matrix: (Units=1/GPa)
#
#
# Indices 1 2 3 4 5 6 
#
# 1 0.011848 -0.001968 0.001379 0.000000 -0.010398 0.000000
# 2 -0.001968 0.010537 -0.001567 0.000000 0.003239 0.000000
# 3 0.001379 -0.001567 0.017039 0.000000 -0.010092 0.000000
# 4 0.000000 0.000000 0.000000 0.024348 0.000000 -0.006131
# 5 -0.010398 0.003239 -0.010092 0.000000 0.045093 0.000000
# 6 0.000000 0.000000 0.000000 -0.006131 0.000000 0.032865
#
#
# Mechanical properties :
#
#
# Convention : Reuss Voigt Hill
#
# Bulk Modulus (GPa) = 28.48065 36.82613 32.65339
# Shear Modulus (GPa) = 31.69668 37.96416 34.83042
#
# Velocity S-wave (km/s) = 3.53575 3.86956 3.70641
# Velocity P-wave (km/s) = 5.28221 5.87276 5.58530
#
# Compressibility (1/GPa) = 0.03511156
#
# Stress axis : x y z
#
# Youngs Moduli (GPa) = 84.40075 94.90428 58.69045
#
# Poissons Ratio (x) = 0.18680 -0.08096
# Poissons Ratio (y) = 0.16613 0.09198
# Poissons Ratio (z) = -0.11643 0.14874
#
# Static dielectric constant tensor:
#      x y z
#    x 4.647250 0.000000 -0.004570 
#    y 0.000000 4.879710 0.000000 
#    z -0.004570 0.000000 4.274190 
# 
# 
# High freq. dielectric constant tensor:
#      x y z
#    x 2.024140 0.000000 0.003960 
#    y 0.000000 2.021440 0.000000 
#    z 0.003960 0.000000 1.996390 
# 
# From -- ./inp_files/8573.got.cif
#   From: 2010.03.12/outbox.cif.g09.slc.cpg/sg4_5_cif.got.tgz:8573.got - 2010.03.31 09:31:35.
