data_PCOD8047306
_publ_section_title
;
Structure prediction by ZEFSAII (Michael W. Deem and Ramdas Pophale) SiO2 
 PCOD8047306
Probable space group: P 21
;
_chemical_formula_sum "Si O2"
_cell_formula_units_Z 16
_cell_length_a 12.464907
_cell_length_b 9.669551
_cell_length_c 18.137264
_cell_angle_alpha 90.000000
_cell_angle_beta 19.335389
_cell_angle_gamma 90.000000
_cell_volume 723.806916
_symmetry_space_group_name_H-M "P 21"
_symmetry_group_IT_number 4
_symmetry_cell_setting 'monoclinic'
loop_
_space_group_symop_operation_xyz
x,y,z
-x,1/2+y,-z
loop_
_atom_site_type_symbol
_atom_site_label
_atom_site_fract_x
_atom_site_fract_y
_atom_site_fract_z
Si Si1 0.670520 0.109640 0.823286
Si Si2 0.682500 0.575919 0.095916
Si Si3 0.586155 0.815523 0.258133
Si Si4 0.366680 0.051076 0.304173
Si Si5 0.408500 0.673557 0.626106
Si Si6 0.233459 0.896082 0.625536
Si Si7 0.513974 0.917522 0.063494
Si Si8 0.694805 0.288586 0.154207
O O1 0.419148 0.068934 0.922786
O O2 0.652198 0.273712 0.853849
O O3 0.027330 0.069763 0.565650
O O4 0.568332 0.020237 0.960222
O O5 0.489444 0.696878 0.263050
O O6 0.583779 0.440716 0.205024
O O7 0.066136 0.596665 0.849919
O O8 0.304351 0.828066 0.500615
O O9 0.603035 0.955468 0.200310
O O10 0.921249 0.782746 0.081851
O O11 0.574603 0.192420 0.164465
O O12 0.298197 0.992297 0.266580
O O13 0.419497 0.805637 0.565659
O O14 0.666752 0.557512 0.434553
O O15 0.495315 0.735005 0.649939
O O16 0.851518 0.883881 0.885969
#
# Coordination Sequence:
#
# PCOD8047306 Si02
#       8
#     2   2   2   2   2   2   2   2
#     4  12  28  51  70 105 145 189 248 289 356 422
#     4  11  24  43  70 102 140 188 240 289 351 430
#     4  11  21  45  72  99 147 184 231 293 356 422
#     4  12  26  49  75 104 144 193 237 293 360 420
#     4  11  24  43  67 106 144 182 233 293 361 422
#     4  12  24  45  69 108 145 184 233 294 365 422
#     4  12  28  49  75 100 145 191 239 302 347 424
#     4  11  23  43  70 106 136 183 239 287 354 428
#
# _framework density 22.105345
#
# number of rings (size 3 to 8) (size 9 to 14) (size 15 to 20)
#    0.000    0.500    6.250    1.500    7.000    1.000 
#    2.250    0.000    0.000    0.000    0.000    0.000 
#    0.000    0.000    0.000    0.000    0.000    0.000 
#
# Total GULP energy -198438.727052 kJ/mol
# GULP energy per Si atom -12402.420441 kJ/mol
# Density = 2.205503 g / cm^3
# Si number density = 22.105345 Si / 1000 Ang^3
#
#
#
# Elastic Constant Matrix: (Units=GPa)
#
#
# Indices 1 2 3 4 5 6 
#
# 1 103.0951 48.3993 30.1516 0.0000 17.7384 0.0000
# 2 48.3993 149.4227 49.3981 0.0000 16.9104 0.0000
# 3 30.1516 49.3981 67.0614 0.0000 14.4608 0.0000
# 4 0.0000 0.0000 0.0000 34.6888 0.0000 3.8172
# 5 17.7384 16.9104 14.4608 0.0000 29.8115 0.0000
# 6 0.0000 0.0000 0.0000 3.8172 0.0000 47.8123
#
#
#
# Elastic Compliance Matrix: (Units=1/GPa)
#
#
# Indices 1 2 3 4 5 6 
#
# 1 0.012526 -0.002644 -0.002680 0.000000 -0.004653 0.000000
# 2 -0.002644 0.009521 -0.005583 0.000000 -0.001119 0.000000
# 3 -0.002680 -0.005583 0.021446 0.000000 -0.005641 0.000000
# 4 0.000000 0.000000 0.000000 0.029083 0.000000 -0.002322
# 5 -0.004653 -0.001119 -0.005641 0.000000 0.039684 0.000000
# 6 0.000000 0.000000 0.000000 -0.002322 0.000000 0.021101
#
#
# Mechanical properties :
#
#
# Convention : Reuss Voigt Hill
#
# Bulk Modulus (GPa) = 46.13252 63.94192 55.03722
# Shear Modulus (GPa) = 30.78768 35.23785 33.01277
#
# Velocity S-wave (km/s) = 3.73603 3.99693 3.86868
# Velocity P-wave (km/s) = 6.28691 7.09150 6.70130
#
# Compressibility (1/GPa) = 0.02167668
#
# Stress axis : x y z
#
# Youngs Moduli (GPa) = 79.83548 105.02616 46.62884
#
# Poissons Ratio (x) = 0.27774 0.12499
# Poissons Ratio (y) = 0.21112 0.26034
# Poissons Ratio (z) = 0.21400 0.58639
#
# Static dielectric constant tensor:
#      x y z
#    x 4.110450 0.000000 0.097220 
#    y 0.000000 4.275950 0.000000 
#    z 0.097220 0.000000 3.768010 
# 
# 
# High freq. dielectric constant tensor:
#      x y z
#    x 1.876040 0.000000 0.005630 
#    y 0.000000 1.887070 0.000000 
#    z 0.005630 0.000000 1.856380 
# 
# From -- ./inp_files/12935.got.cif
#   From: 2010.03.12/outbox.cif.g09.slc.cpg/sg4_7_cif.got.tgz:12935.got - 2010.03.31 09:31:35.
