data_PCOD8047412
_publ_section_title
;
Structure prediction by ZEFSAII (Michael W. Deem and Ramdas Pophale) SiO2 
 PCOD8047412
Probable space group: P 21
;
_chemical_formula_sum "Si O2"
_cell_formula_units_Z 16
_cell_length_a 12.253199
_cell_length_b 9.032880
_cell_length_c 11.819090
_cell_angle_alpha 90.000000
_cell_angle_beta 33.818646
_cell_angle_gamma 90.000000
_cell_volume 728.075559
_symmetry_space_group_name_H-M "P 21"
_symmetry_group_IT_number 4
_symmetry_cell_setting 'monoclinic'
loop_
_space_group_symop_operation_xyz
x,y,z
-x,1/2+y,-z
loop_
_atom_site_type_symbol
_atom_site_label
_atom_site_fract_x
_atom_site_fract_y
_atom_site_fract_z
Si Si1 0.109268 0.812190 0.276412
Si Si2 0.287954 0.197504 0.188148
Si Si3 0.082991 0.365046 0.797555
Si Si4 0.607303 0.055337 0.566631
Si Si5 0.042090 0.013958 0.541856
Si Si6 0.480464 0.462139 0.114328
Si Si7 0.833389 0.635212 0.092624
Si Si8 0.970690 0.258517 0.288175
O O1 0.979287 0.833715 0.276905
O O2 0.126074 0.639007 0.298833
O O3 0.005546 0.899161 0.469929
O O4 0.324752 0.866016 0.064940
O O5 0.242706 0.107687 0.343199
O O6 0.318433 0.373529 0.179857
O O7 0.099682 0.169230 0.269745
O O8 0.482498 0.127847 0.963138
O O9 0.295792 0.446121 0.610030
O O10 0.097962 0.209372 0.849324
O O11 0.929163 0.473941 0.992942
O O12 0.401378 0.119692 0.701372
O O13 0.756729 0.189568 0.459619
O O14 0.580418 0.963011 0.703903
O O15 0.061881 0.927046 0.643464
O O16 0.902864 0.749310 0.935351
#
# Coordination Sequence:
#
# PCOD8047412 Si02
#       8
#     2   2   2   2   2   2   2   2
#     4  11  24  44  68 103 143 186 225 292 350 417
#     4  11  24  37  65 100 139 183 225 283 346 412
#     4  11  26  47  75 100 140 183 232 300 344 409
#     4  11  23  47  72  96 139 181 234 285 353 409
#     4  11  23  40  67 100 138 185 229 268 361 413
#     4  11  24  40  65 101 139 182 229 282 347 419
#     4  11  25  50  72 102 138 184 239 289 351 404
#     4  11  25  43  70  98 138 188 227 287 344 413
#
# _framework density 21.975740999999999
#
# number of rings (size 3 to 8) (size 9 to 14) (size 15 to 20)
#    0.000    1.000    3.750    3.000    8.750    2.000 
#    0.000    0.000    0.000    0.000    0.000    0.000 
#    0.000    0.000    0.000    0.000    0.000    0.000 
#
# Total GULP energy -198353.988024 kJ/mol
# GULP energy per Si atom -12397.124251 kJ/mol
# Density = 2.192572 g / cm^3
# Si number density = 21.975741 Si / 1000 Ang^3
#
#
#
# Elastic Constant Matrix: (Units=GPa)
#
#
# Indices 1 2 3 4 5 6 
#
# 1 64.2542 4.1270 16.4152 0.0000 -1.2304 0.0000
# 2 4.1270 89.2217 5.6591 0.0000 8.8394 0.0000
# 3 16.4152 5.6591 97.0275 0.0000 -12.9184 0.0000
# 4 0.0000 0.0000 0.0000 36.8239 0.0000 8.1078
# 5 -1.2304 8.8394 -12.9184 0.0000 29.8334 0.0000
# 6 0.0000 0.0000 0.0000 8.1078 0.0000 38.4509
#
#
#
# Elastic Compliance Matrix: (Units=1/GPa)
#
#
# Indices 1 2 3 4 5 6 
#
# 1 0.016300 -0.000541 -0.002775 0.000000 -0.000369 0.000000
# 2 -0.000541 0.011698 -0.001120 0.000000 -0.003973 0.000000
# 3 -0.002775 -0.001120 0.011535 0.000000 0.005212 0.000000
# 4 0.000000 0.000000 0.000000 0.028478 0.000000 -0.006005
# 5 -0.000369 -0.003973 0.005212 0.000000 0.036938 0.000000
# 6 0.000000 0.000000 0.000000 -0.006005 0.000000 0.027273
#
#
# Mechanical properties :
#
#
# Convention : Reuss Voigt Hill
#
# Bulk Modulus (GPa) = 32.61550 33.65623 33.13586
# Shear Modulus (GPa) = 33.04352 35.97511 34.50931
#
# Velocity S-wave (km/s) = 3.88188 4.05042 3.96705
# Velocity P-wave (km/s) = 5.91319 6.10106 6.00786
#
# Compressibility (1/GPa) = 0.03066027
#
# Stress axis : x y z
#
# Youngs Moduli (GPa) = 61.35017 85.48677 86.69165
#
# Poissons Ratio (x) = 0.04628 0.24059
# Poissons Ratio (y) = 0.03321 0.09707
# Poissons Ratio (z) = 0.17026 0.09572
#
# Static dielectric constant tensor:
#      x y z
#    x 3.652580 0.000000 -0.003680 
#    y 0.000000 4.167350 0.000000 
#    z -0.003680 0.000000 4.348070 
# 
# 
# High freq. dielectric constant tensor:
#      x y z
#    x 1.832820 0.000000 -0.004970 
#    y 0.000000 1.872860 0.000000 
#    z -0.004970 0.000000 1.888400 
# 
# From -- ./inp_files/11976.got.cif
#   From: 2010.03.12/outbox.cif.g09.slc.cpg/sg4_6_cif.got.tgz:11976.got - 2010.03.31 09:31:35.
