data_PCOD8047260
_publ_section_title
;
Structure prediction by ZEFSAII (Michael W. Deem and Ramdas Pophale) SiO2 
 PCOD8047260
Probable space group: P 21
;
_chemical_formula_sum "Si O2"
_cell_formula_units_Z 12
_cell_length_a 8.859380
_cell_length_b 7.997676
_cell_length_c 9.463164
_cell_angle_alpha 90.000000
_cell_angle_beta 129.217140
_cell_angle_gamma 90.000000
_cell_volume 519.479131
_symmetry_space_group_name_H-M "P 21"
_symmetry_group_IT_number 4
_symmetry_cell_setting 'monoclinic'
loop_
_space_group_symop_operation_xyz
x,y,z
-x,1/2+y,-z
loop_
_atom_site_type_symbol
_atom_site_label
_atom_site_fract_x
_atom_site_fract_y
_atom_site_fract_z
Si Si1 0.645426 0.436900 0.422076
Si Si2 0.847993 0.886830 0.581237
Si Si3 0.529447 0.587252 0.626876
Si Si4 0.162494 0.143210 0.671747
Si Si5 0.036699 0.362530 0.815294
Si Si6 0.941474 0.670242 0.899103
O O1 0.549316 0.578054 0.467000
O O2 0.518030 0.271109 0.343626
O O3 0.664451 0.516770 0.274579
O O4 0.858528 0.384920 0.602574
O O5 0.902778 0.735419 0.510481
O O6 0.881627 0.823747 0.761089
O O7 0.625424 0.946646 0.419192
O O8 0.981925 0.045348 0.631722
O O9 0.747577 0.555461 0.816554
O O10 0.212755 0.280631 0.824517
O O11 0.097344 0.543102 0.917595
O O12 0.973479 0.238714 0.904838
#
# Coordination Sequence:
#
# PCOD8047260 Si02
#       6
#     2   2   2   2   2   2
#     4  11  21  38  64  94 126 171 219 265 316 382
#     4  12  20  38  65  92 132 167 222 266 311 394
#     4  11  21  39  64  95 125 171 217 267 314 387
#     4  12  21  38  64  98 125 169 219 269 318 380
#     4  11  23  40  62  97 132 167 215 264 326 383
#     4  11  24  41  65  98 130 173 214 269 327 384
#
# _framework density 23.100059999999999
#
# number of rings (size 3 to 8) (size 9 to 14) (size 15 to 20)
#    0.000    0.667    8.333    1.000    0.000    0.000 
#    0.000    1.667    0.000    4.000    0.000    0.000 
#    0.000    0.000    0.000    0.000    0.000    0.000 
#
# Total GULP energy -148660.829303 kJ/mol
# GULP energy per Si atom -12388.402442 kJ/mol
# Density = 2.304748 g / cm^3
# Si number density = 23.100060 Si / 1000 Ang^3
#
#
#
# Elastic Constant Matrix: (Units=GPa)
#
#
# Indices 1 2 3 4 5 6 
#
# 1 102.5524 59.5937 27.5000 0.0000 -23.7587 0.0000
# 2 59.5937 123.6887 25.8015 0.0000 -19.5299 0.0000
# 3 27.5000 25.8015 40.7832 0.0000 -25.6342 0.0000
# 4 0.0000 0.0000 0.0000 33.9858 0.0000 -11.2501
# 5 -23.7587 -19.5299 -25.6342 0.0000 27.6216 0.0000
# 6 0.0000 0.0000 0.0000 -11.2501 0.0000 50.0184
#
#
#
# Elastic Compliance Matrix: (Units=1/GPa)
#
#
# Indices 1 2 3 4 5 6 
#
# 1 0.015365 -0.005824 -0.002298 0.000000 0.006966 0.000000
# 2 -0.005824 0.011605 -0.003374 0.000000 0.000064 0.000000
# 3 -0.002298 -0.003374 0.061107 0.000000 0.052348 0.000000
# 4 0.000000 0.000000 0.000000 0.031791 0.000000 0.007150
# 5 0.006966 0.000064 0.052348 0.000000 0.090823 0.000000
# 6 0.000000 0.000000 0.000000 0.007150 0.000000 0.021601
#
#
# Mechanical properties :
#
#
# Convention : Reuss Voigt Hill
#
# Bulk Modulus (GPa) = 15.36434 54.75719 35.06077
# Shear Modulus (GPa) = 18.05187 32.60044 25.32615
#
# Velocity S-wave (km/s) = 2.79850 3.76076 3.31474
# Velocity P-wave (km/s) = 4.13616 6.52791 5.46449
#
# Compressibility (1/GPa) = 0.06508577
#
# Stress axis : x y z
#
# Youngs Moduli (GPa) = 65.08099 86.17115 16.36464
#
# Poissons Ratio (x) = 0.50185 0.03760
# Poissons Ratio (y) = 0.37902 0.05522
# Poissons Ratio (z) = 0.14953 0.29078
#
# Static dielectric constant tensor:
#      x y z
#    x 4.413300 0.000000 -0.330450 
#    y 0.000000 4.658860 0.000000 
#    z -0.330450 0.000000 3.644630 
# 
# 
# High freq. dielectric constant tensor:
#      x y z
#    x 1.906540 0.000000 -0.032640 
#    y 0.000000 1.939290 0.000000 
#    z -0.032640 0.000000 1.857610 
# 
# From -- ./inp_files/5207.got.cif
#   From: 2010.03.12/outbox.cif.g09.slc.cpg/sg4_3_cif.got.tgz:5207.got - 2010.03.31 09:31:35.
