data_PCOD8047905
_publ_section_title
;
Structure prediction by ZEFSAII (Michael W. Deem and Ramdas Pophale) SiO2 
 PCOD8047905
Probable space group: P 21
;
_chemical_formula_sum "Si O2"
_cell_formula_units_Z 14
_cell_length_a 11.790969
_cell_length_b 8.556779
_cell_length_c 8.667214
_cell_angle_alpha 90.000000
_cell_angle_beta 39.954282
_cell_angle_gamma 90.000000
_cell_volume 561.556565
_symmetry_space_group_name_H-M "P 21"
_symmetry_group_IT_number 4
_symmetry_cell_setting 'monoclinic'
loop_
_space_group_symop_operation_xyz
x,y,z
-x,1/2+y,-z
loop_
_atom_site_type_symbol
_atom_site_label
_atom_site_fract_x
_atom_site_fract_y
_atom_site_fract_z
Si Si1 0.530636 0.043500 0.353386
Si Si2 0.889804 0.442758 0.440166
Si Si3 0.257118 0.798328 0.689538
Si Si4 0.380786 0.305806 0.293093
Si Si5 0.272989 0.975626 0.076306
Si Si6 0.011991 0.274608 0.783274
Si Si7 0.256749 0.311959 0.082903
O O1 0.643758 0.141187 0.359842
O O2 0.435219 0.144930 0.320846
O O3 0.383206 0.945651 0.602509
O O4 0.658472 0.922636 0.133214
O O5 0.784089 0.312322 0.449771
O O6 0.756608 0.501791 0.710039
O O7 0.951520 0.591287 0.275841
O O8 0.063634 0.369150 0.335313
O O9 0.062198 0.809430 0.968820
O O10 0.372776 0.290501 0.116174
O O11 0.194818 0.366383 0.559542
O O12 0.527057 0.434717 0.174736
O O13 0.146381 0.832740 0.161359
O O14 0.234405 0.139376 0.030641
#
# Coordination Sequence:
#
# PCOD8047905 Si02
#       7
#     2   2   2   2   2   2   2
#     4  12  28  52  77 115 160 214 270 322 400 477
#     4  12  24  53  79 114 163 204 264 326 400 475
#     4  12  28  51  78 111 168 212 257 325 396 488
#     4  12  24  51  82 111 159 204 271 335 389 466
#     4  12  25  49  80 123 152 205 267 338 400 459
#     4  12  26  51  76 114 157 207 264 324 387 476
#     4  12  25  47  82 114 157 204 267 340 394 461
#
# _framework density 24.930703000000001
#
# number of rings (size 3 to 8) (size 9 to 14) (size 15 to 20)
#    0.000    0.000    7.143    1.714    2.000    2.286 
#   10.286    0.000    0.000    0.000    0.000    0.000 
#    0.000    0.000    0.000    0.000    0.000    0.000 
#
# Total GULP energy -173571.902587 kJ/mol
# GULP energy per Si atom -12397.993042 kJ/mol
# Density = 2.487396 g / cm^3
# Si number density = 24.930703 Si / 1000 Ang^3
#
#
#
# Elastic Constant Matrix: (Units=GPa)
#
#
# Indices 1 2 3 4 5 6 
#
# 1 100.9422 48.3376 19.7236 0.0000 -17.7666 0.0000
# 2 48.3376 124.2243 48.7127 0.0000 -9.3343 0.0000
# 3 19.7236 48.7127 115.6966 0.0000 -42.9907 0.0000
# 4 0.0000 0.0000 0.0000 44.0304 0.0000 2.8136
# 5 -17.7666 -9.3343 -42.9907 0.0000 40.3032 0.0000
# 6 0.0000 0.0000 0.0000 2.8136 0.0000 33.6139
#
#
#
# Elastic Compliance Matrix: (Units=1/GPa)
#
#
# Indices 1 2 3 4 5 6 
#
# 1 0.013508 -0.005883 0.003115 0.000000 0.007915 0.000000
# 2 -0.005883 0.012507 -0.006875 0.000000 -0.007031 0.000000
# 3 0.003115 -0.006875 0.018100 0.000000 0.019087 0.000000
# 4 0.000000 0.000000 0.000000 0.022834 0.000000 -0.001911
# 5 0.007915 -0.007031 0.019087 0.000000 0.047033 0.000000
# 6 0.000000 0.000000 0.000000 -0.001911 0.000000 0.029910
#
#
# Mechanical properties :
#
#
# Convention : Reuss Voigt Hill
#
# Bulk Modulus (GPa) = 40.27654 63.82343 52.04998
# Shear Modulus (GPa) = 29.16236 38.52879 33.84557
#
# Velocity S-wave (km/s) = 3.42385 3.93547 3.68854
# Velocity P-wave (km/s) = 5.64099 6.80488 6.25009
#
# Compressibility (1/GPa) = 0.02482835
#
# Stress axis : x y z
#
# Youngs Moduli (GPa) = 74.02831 79.95514 55.24997
#
# Poissons Ratio (x) = 0.47039 -0.17212
# Poissons Ratio (y) = 0.43552 0.37987
# Poissons Ratio (z) = -0.23063 0.54973
#
# Static dielectric constant tensor:
#      x y z
#    x 4.441770 0.000000 -0.254550 
#    y 0.000000 4.428050 0.000000 
#    z -0.254550 0.000000 4.842370 
# 
# 
# High freq. dielectric constant tensor:
#      x y z
#    x 1.992700 0.000000 -0.010340 
#    y 0.000000 1.990970 0.000000 
#    z -0.010340 0.000000 2.008410 
# 
# From -- ./inp_files/7490.got.cif
#   From: 2010.03.12/outbox.cif.g09.slc.cpg/sg4_4_cif.got.tgz:7490.got - 2010.03.31 09:31:35.
