data_PCOD8047543
_publ_section_title
;
Structure prediction by ZEFSAII (Michael W. Deem and Ramdas Pophale) SiO2 
 PCOD8047543
Probable space group: P 21
;
_chemical_formula_sum "Si O2"
_cell_formula_units_Z 16
_cell_length_a 14.328820
_cell_length_b 8.002380
_cell_length_c 5.431830
_cell_angle_alpha 90.000000
_cell_angle_beta 103.715043
_cell_angle_gamma 90.000000
_cell_volume 605.079888
_symmetry_space_group_name_H-M "P 21"
_symmetry_group_IT_number 4
_symmetry_cell_setting 'monoclinic'
loop_
_space_group_symop_operation_xyz
x,y,z
-x,1/2+y,-z
loop_
_atom_site_type_symbol
_atom_site_label
_atom_site_fract_x
_atom_site_fract_y
_atom_site_fract_z
Si Si1 0.302285 0.756040 0.848490
Si Si2 0.444117 0.309207 0.309944
Si Si3 0.795025 0.473820 0.595334
Si Si4 0.002514 0.503335 0.254907
Si Si5 0.661072 0.906329 0.246954
Si Si6 0.131398 0.274285 0.609175
Si Si7 0.880508 0.221062 0.979093
Si Si8 0.601419 0.448418 0.713320
O O1 0.223646 0.674968 0.983820
O O2 0.397220 0.815925 0.060139
O O3 0.255849 0.916913 0.688542
O O4 0.328082 0.603583 0.682440
O O5 0.384930 0.327901 0.533279
O O6 0.552463 0.372629 0.435766
O O7 0.455231 0.114772 0.247429
O O8 0.402633 0.399947 0.043083
O O9 0.853022 0.647558 0.612170
O O10 0.869819 0.330690 0.722657
O O11 0.712623 0.497474 0.746820
O O12 0.080162 0.451642 0.513687
O O13 0.064608 0.548435 0.050617
O O14 0.933749 0.663843 0.247579
O O15 0.941184 0.334222 0.204444
O O16 0.760898 0.816626 0.233931
#
# Coordination Sequence:
#
# PCOD8047543 Si02
#       8
#     2   2   2   2   2   2   2   2
#     4  11  26  47  77 107 153 205 253 321 390 464
#     4  12  29  51  79 120 152 210 254 322 385 473
#     4  11  23  48  74 106 149 200 249 320 391 457
#     4  12  27  44  73 105 149 195 260 320 377 472
#     4  12  30  48  82 112 162 201 260 318 399 462
#     4  12  26  48  75 109 153 202 257 319 400 453
#     4  11  26  43  72 105 144 194 256 316 388 447
#     4  11  27  47  80 112 158 199 261 318 386 468
#
# _framework density 26.442786999999999
#
# number of rings (size 3 to 8) (size 9 to 14) (size 15 to 20)
#    0.000    0.500    2.500    3.750   14.000    0.000 
#    0.000    0.000    0.000    0.000    0.000    0.000 
#    0.000    0.000    0.000    0.000    0.000    0.000 
#
# Total GULP energy -198315.599185 kJ/mol
# GULP energy per Si atom -12394.724949 kJ/mol
# Density = 2.638260 g / cm^3
# Si number density = 26.442787 Si / 1000 Ang^3
#
#
#
# Elastic Constant Matrix: (Units=GPa)
#
#
# Indices 1 2 3 4 5 6 
#
# 1 85.1307 5.8533 2.8210 0.0000 10.0523 0.0000
# 2 5.8533 99.1135 -14.6921 0.0000 -3.1264 0.0000
# 3 2.8210 -14.6921 87.2403 0.0000 11.3473 0.0000
# 4 0.0000 0.0000 0.0000 46.0839 0.0000 0.8051
# 5 10.0523 -3.1264 11.3473 0.0000 31.8188 0.0000
# 6 0.0000 0.0000 0.0000 0.8051 0.0000 37.4472
#
#
#
# Elastic Compliance Matrix: (Units=1/GPa)
#
#
# Indices 1 2 3 4 5 6 
#
# 1 0.012273 -0.000853 -0.000027 0.000000 -0.003952 0.000000
# 2 -0.000853 0.010412 0.001691 0.000000 0.000689 0.000000
# 3 -0.000027 0.001691 0.012296 0.000000 -0.004210 0.000000
# 4 0.000000 0.000000 0.000000 0.021708 0.000000 -0.000467
# 5 -0.003952 0.000689 -0.004210 0.000000 0.034246 0.000000
# 6 0.000000 0.000000 0.000000 -0.000467 0.000000 0.026714
#
#
# Mechanical properties :
#
#
# Convention : Reuss Voigt Hill
#
# Bulk Modulus (GPa) = 27.31937 28.82766 28.07352
# Shear Modulus (GPa) = 38.99331 41.57014 40.28172
#
# Velocity S-wave (km/s) = 3.84426 3.96925 3.90725
# Velocity P-wave (km/s) = 5.48255 5.65085 5.56734
#
# Compressibility (1/GPa) = 0.03660407
#
# Stress axis : x y z
#
# Youngs Moduli (GPa) = 81.48091 96.04009 81.32752
#
# Poissons Ratio (x) = 0.08196 0.00216
# Poissons Ratio (y) = 0.06953 -0.13756
# Poissons Ratio (z) = 0.00217 -0.16245
#
# Static dielectric constant tensor:
#      x y z
#    x 5.023910 0.000000 0.197050 
#    y 0.000000 4.756450 0.000000 
#    z 0.197050 0.000000 4.503040 
# 
# 
# High freq. dielectric constant tensor:
#      x y z
#    x 2.078360 0.000000 0.009250 
#    y 0.000000 2.064100 0.000000 
#    z 0.009250 0.000000 2.046230 
# 
# From -- ./inp_files/3724.got.cif
#   From: 2010.03.12/outbox.cif.g09.slc.cpg/sg4_2_cif.got.tgz:3724.got - 2010.03.31 09:31:35.
