data_PCOD8047211
_publ_section_title
;
Structure prediction by ZEFSAII (Michael W. Deem and Ramdas Pophale) SiO2 
 PCOD8047211
Probable space group: P 21
;
_chemical_formula_sum "Si O2"
_cell_formula_units_Z 12
_cell_length_a 4.684331
_cell_length_b 9.255879
_cell_length_c 9.873636
_cell_angle_alpha 90.000000
_cell_angle_beta 92.944302
_cell_angle_gamma 90.000000
_cell_volume 427.532055
_symmetry_space_group_name_H-M "P 21"
_symmetry_group_IT_number 4
_symmetry_cell_setting 'monoclinic'
loop_
_space_group_symop_operation_xyz
x,y,z
-x,1/2+y,-z
loop_
_atom_site_type_symbol
_atom_site_label
_atom_site_fract_x
_atom_site_fract_y
_atom_site_fract_z
Si Si1 0.505761 0.523150 0.779038
Si Si2 0.866292 0.231734 0.593122
Si Si3 0.355522 0.396942 0.503882
Si Si4 0.021339 0.709192 0.855205
Si Si5 0.196126 0.977774 0.698661
Si Si6 0.203837 0.253440 0.855417
O O1 0.395709 0.521924 0.619169
O O2 0.340159 0.645418 0.861589
O O3 0.463911 0.368073 0.852197
O O4 0.829902 0.578942 0.790757
O O5 0.034060 0.327080 0.481103
O O6 0.964797 0.301578 0.738377
O O7 0.528901 0.255911 0.570348
O O8 0.954334 0.059652 0.591453
O O9 0.511106 0.433926 0.367137
O O10 0.016728 0.850861 0.762517
O O11 0.935321 0.757301 0.001982
O O12 0.302590 0.091176 0.816248
#
# Coordination Sequence:
#
# PCOD8047211 Si02
#       6
#     2   2   2   2   2   2
#     4  11  26  44  71 102 146 189 234 310 357 426
#     4   9  24  44  70  97 142 184 227 296 355 428
#     4  11  23  45  68 101 138 183 238 289 368 417
#     4  12  26  44  73 109 140 188 253 291 360 436
#     4  10  26  44  76 104 141 192 242 300 358 444
#     4   9  23  51  66 105 145 198 230 304 364 435
#
# _framework density 28.068069999999999
#
# number of rings (size 3 to 8) (size 9 to 14) (size 15 to 20)
#    1.000    0.667    0.000    3.000    4.667    8.000 
#    0.000    0.000    0.000    0.000    0.000    0.000 
#    0.000    0.000    0.000    0.000    0.000    0.000 
#
# Total GULP energy -148807.380376 kJ/mol
# GULP energy per Si atom -12400.615031 kJ/mol
# Density = 2.800419 g / cm^3
# Si number density = 28.068070 Si / 1000 Ang^3
#
#
#
# Elastic Constant Matrix: (Units=GPa)
#
#
# Indices 1 2 3 4 5 6 
#
# 1 85.1979 17.6652 7.0788 0.0000 -15.5697 0.0000
# 2 17.6652 170.6965 48.9799 0.0000 -22.2575 0.0000
# 3 7.0788 48.9799 165.4188 0.0000 -43.1147 0.0000
# 4 0.0000 0.0000 0.0000 48.8390 0.0000 -17.7130
# 5 -15.5697 -22.2575 -43.1147 0.0000 38.1142 0.0000
# 6 0.0000 0.0000 0.0000 -17.7130 0.0000 41.6456
#
#
#
# Elastic Compliance Matrix: (Units=1/GPa)
#
#
# Indices 1 2 3 4 5 6 
#
# 1 0.012964 -0.000910 0.001356 0.000000 0.006299 0.000000
# 2 -0.000910 0.006607 -0.001430 0.000000 0.001869 0.000000
# 3 0.001356 -0.001430 0.008987 0.000000 0.009885 0.000000
# 4 0.000000 0.000000 0.000000 0.024210 0.000000 0.010297
# 5 0.006299 0.001869 0.009885 0.000000 0.041083 0.000000
# 6 0.000000 0.000000 0.000000 0.010297 0.000000 0.028392
#
#
# Mechanical properties :
#
#
# Convention : Reuss Voigt Hill
#
# Bulk Modulus (GPa) = 37.60636 63.19567 50.40101
# Shear Modulus (GPa) = 37.57316 48.89239 43.23277
#
# Velocity S-wave (km/s) = 3.66272 4.17816 3.92890
# Velocity P-wave (km/s) = 5.59595 6.77053 6.21107
#
# Compressibility (1/GPa) = 0.02659125
#
# Stress axis : x y z
#
# Youngs Moduli (GPa) = 77.13427 151.36578 111.27006
#
# Poissons Ratio (x) = 0.13767 -0.15092
# Poissons Ratio (y) = 0.07015 0.15914
# Poissons Ratio (z) = -0.10462 0.21648
#
# Static dielectric constant tensor:
#      x y z
#    x 4.920590 0.000000 -0.081040 
#    y 0.000000 5.312660 0.000000 
#    z -0.081040 0.000000 4.961260 
# 
# 
# High freq. dielectric constant tensor:
#      x y z
#    x 2.137920 0.000000 -0.017170 
#    y 0.000000 2.162350 0.000000 
#    z -0.017170 0.000000 2.134790 
# 
# From -- ./inp_files/10246.got.cif
#   From: 2010.03.12/outbox.cif.g09.slc.cpg/sg4_6_cif.got.tgz:10246.got - 2010.03.31 09:31:35.
