data_PCOD8047978
_publ_section_title
;
Structure prediction by ZEFSAII (Michael W. Deem and Ramdas Pophale) SiO2 
 PCOD8047978
Probable space group: P 21
;
_chemical_formula_sum "Si O2"
_cell_formula_units_Z 16
_cell_length_a 11.621677
_cell_length_b 9.029857
_cell_length_c 9.793134
_cell_angle_alpha 90.000000
_cell_angle_beta 37.054102
_cell_angle_gamma 90.000000
_cell_volume 619.267180
_symmetry_space_group_name_H-M "P 21"
_symmetry_group_IT_number 4
_symmetry_cell_setting 'monoclinic'
loop_
_space_group_symop_operation_xyz
x,y,z
-x,1/2+y,-z
loop_
_atom_site_type_symbol
_atom_site_label
_atom_site_fract_x
_atom_site_fract_y
_atom_site_fract_z
Si Si1 0.597263 0.337260 0.409572
Si Si2 0.734224 0.136455 0.520327
Si Si3 0.089212 0.048910 0.827629
Si Si4 0.311106 0.793665 0.985688
Si Si5 0.806988 0.881506 0.276687
Si Si6 0.423520 0.251654 0.023828
Si Si7 0.867068 0.982427 0.785281
Si Si8 0.910621 0.546308 0.682933
O O1 0.697327 0.223388 0.416146
O O2 0.696366 0.497748 0.337020
O O3 0.372592 0.354290 0.654577
O O4 0.618175 0.275902 0.235935
O O5 0.947714 0.165349 0.378008
O O6 0.725978 0.958727 0.492549
O O7 0.579851 0.173601 0.780556
O O8 0.083909 0.225526 0.803782
O O9 0.017096 0.955484 0.765176
O O10 0.949404 0.004805 0.082476
O O11 0.205711 0.648448 0.135569
O O12 0.163083 0.930250 0.133817
O O13 0.485785 0.820912 0.925699
O O14 0.318369 0.377349 0.033854
O O15 0.267203 0.130525 0.216797
O O16 0.978306 0.956128 0.538661
#
# Coordination Sequence:
#
# PCOD8047978 Si02
#       8
#     2   2   2   2   2   2   2   2
#     4  12  28  48  81 114 158 204 261 325 398 465
#     4  12  26  51  79 112 156 210 260 332 391 463
#     4  12  27  49  76 118 156 203 264 325 384 479
#     4  12  27  50  76 118 156 209 262 325 393 472
#     4  12  27  49  79 113 162 205 257 326 397 461
#     4  12  28  50  78 113 160 202 270 326 388 472
#     4  12  26  47  80 113 154 208 262 321 397 465
#     4  12  27  50  79 111 156 209 264 326 396 461
#
# _framework density 25.836991999999999
#
# number of rings (size 3 to 8) (size 9 to 14) (size 15 to 20)
#    0.000    0.000    1.250    8.250    5.250    3.000 
#    0.000    0.000    0.000    0.000    0.000    0.000 
#    0.000    0.000    0.000    0.000    0.000    0.000 
#
# Total GULP energy -198478.638873 kJ/mol
# GULP energy per Si atom -12404.914930 kJ/mol
# Density = 2.577819 g / cm^3
# Si number density = 25.836992 Si / 1000 Ang^3
#
#
#
# Elastic Constant Matrix: (Units=GPa)
#
#
# Indices 1 2 3 4 5 6 
#
# 1 142.2984 26.9956 67.3615 0.0000 0.4489 0.0000
# 2 26.9956 107.3833 48.8377 0.0000 -6.9979 0.0000
# 3 67.3615 48.8377 104.8445 0.0000 -10.5028 0.0000
# 4 0.0000 0.0000 0.0000 34.8806 0.0000 -3.2588
# 5 0.4489 -6.9979 -10.5028 0.0000 48.8717 0.0000
# 6 0.0000 0.0000 0.0000 -3.2588 0.0000 48.0881
#
#
#
# Elastic Compliance Matrix: (Units=1/GPa)
#
#
# Indices 1 2 3 4 5 6 
#
# 1 0.010231 0.000492 -0.006955 0.000000 -0.001518 0.000000
# 2 0.000492 0.011852 -0.005792 0.000000 0.000448 0.000000
# 3 -0.006955 -0.005792 0.016993 0.000000 0.002886 0.000000
# 4 0.000000 0.000000 0.000000 0.028852 0.000000 0.001955
# 5 -0.001518 0.000448 0.002886 0.000000 0.021160 0.000000
# 6 0.000000 0.000000 0.000000 0.001955 0.000000 0.020928
#
#
# Mechanical properties :
#
#
# Convention : Reuss Voigt Hill
#
# Bulk Modulus (GPa) = 68.64748 71.21285 69.93016
# Shear Modulus (GPa) = 35.87273 40.45684 38.16478
#
# Velocity S-wave (km/s) = 3.73020 3.96137 3.84752
# Velocity P-wave (km/s) = 6.72158 6.96746 6.84563
#
# Compressibility (1/GPa) = 0.01456718
#
# Stress axis : x y z
#
# Youngs Moduli (GPa) = 97.74077 84.37272 58.84647
#
# Poissons Ratio (x) = -0.04151 0.40926
# Poissons Ratio (y) = -0.04808 0.34084
# Poissons Ratio (z) = 0.67975 0.48869
#
# Static dielectric constant tensor:
#      x y z
#    x 5.144550 0.000000 -0.209170 
#    y 0.000000 4.628520 0.000000 
#    z -0.209170 0.000000 4.569170 
# 
# 
# High freq. dielectric constant tensor:
#      x y z
#    x 2.056290 0.000000 -0.011890 
#    y 0.000000 2.036080 0.000000 
#    z -0.011890 0.000000 2.030770 
# 
# From -- ./inp_files/7954.got.cif
#   From: 2010.03.12/outbox.cif.g09.slc.cpg/sg4_4_cif.got.tgz:7954.got - 2010.03.31 09:31:35.
