data_PCOD8047410
_publ_section_title
;
Structure prediction by ZEFSAII (Michael W. Deem and Ramdas Pophale) SiO2 
 PCOD8047410
Probable space group: P 21
;
_chemical_formula_sum "Si O2"
_cell_formula_units_Z 16
_cell_length_a 26.417445
_cell_length_b 4.917296
_cell_length_c 8.940088
_cell_angle_alpha 90.000000
_cell_angle_beta 29.845243
_cell_angle_gamma 90.000000
_cell_volume 577.950767
_symmetry_space_group_name_H-M "P 21"
_symmetry_group_IT_number 4
_symmetry_cell_setting 'monoclinic'
loop_
_space_group_symop_operation_xyz
x,y,z
-x,1/2+y,-z
loop_
_atom_site_type_symbol
_atom_site_label
_atom_site_fract_x
_atom_site_fract_y
_atom_site_fract_z
Si Si1 0.106212 0.561130 0.437576
Si Si2 0.960149 0.278667 0.020273
Si Si3 0.783464 0.539933 0.347507
Si Si4 0.357677 0.058736 0.774170
Si Si5 0.162086 0.050259 0.118831
Si Si6 0.737332 0.936738 0.724899
Si Si7 0.555935 0.301126 0.185522
Si Si8 0.442819 0.114688 0.089687
O O1 0.158362 0.354996 0.189147
O O2 0.175489 0.613427 0.410104
O O3 0.004045 0.420569 0.758346
O O4 0.083636 0.838842 0.400887
O O5 0.836735 0.284698 0.301805
O O6 0.006537 0.977001 0.925245
O O7 0.790477 0.784490 0.449388
O O8 0.669578 0.514731 0.573861
O O9 0.851525 0.576484 0.023584
O O10 0.440988 0.199471 0.453932
O O11 0.421291 0.822104 0.695865
O O12 0.272702 0.929745 0.885069
O O13 0.308624 0.235401 0.032477
O O14 0.646808 0.116552 0.884991
O O15 0.558648 0.585906 0.087574
O O16 0.471488 0.421246 0.056514
#
# Coordination Sequence:
#
# PCOD8047410 Si02
#       8
#     2   2   2   2   2   2   2   2
#     4  11  25  49  75 107 153 194 251 312 385 451
#     4  12  28  48  82 118 151 195 261 322 377 464
#     4  12  28  50  79 114 154 204 257 319 400 453
#     4  11  23  40  65 103 137 199 251 313 367 463
#     4  11  27  47  73 108 154 199 248 317 388 463
#     4  11  23  44  71 107 147 195 261 312 377 461
#     4  12  23  40  71  99 146 196 261 309 380 449
#     4  12  29  48  72 108 158 200 250 318 384 462
#
# _framework density 27.684018999999999
#
# number of rings (size 3 to 8) (size 9 to 14) (size 15 to 20)
#    0.000    0.500    5.000    2.250    3.500    8.000 
#    0.000    0.000    0.000    0.000    0.000    0.000 
#    0.000    0.000    0.000    0.000    0.000    0.000 
#
# Total GULP energy -198266.342983 kJ/mol
# GULP energy per Si atom -12391.646436 kJ/mol
# Density = 2.762101 g / cm^3
# Si number density = 27.684019 Si / 1000 Ang^3
#
#
#
# Elastic Constant Matrix: (Units=GPa)
#
#
# Indices 1 2 3 4 5 6 
#
# 1 113.1174 3.6692 21.8922 0.0000 3.7960 0.0000
# 2 3.6692 58.1050 -22.9808 0.0000 6.0978 0.0000
# 3 21.8922 -22.9808 48.5490 0.0000 0.9443 0.0000
# 4 0.0000 0.0000 0.0000 19.2539 0.0000 -1.0532
# 5 3.7960 6.0978 0.9443 0.0000 61.6451 0.0000
# 6 0.0000 0.0000 0.0000 -1.0532 0.0000 27.8224
#
#
#
# Elastic Compliance Matrix: (Units=1/GPa)
#
#
# Indices 1 2 3 4 5 6 
#
# 1 0.010097 -0.002967 -0.005953 0.000000 -0.000237 0.000000
# 2 -0.002967 0.022363 0.011966 0.000000 -0.002213 0.000000
# 3 -0.005953 0.011966 0.028971 0.000000 -0.001261 0.000000
# 4 0.000000 0.000000 0.000000 0.052045 0.000000 0.001970
# 5 -0.000237 -0.002213 -0.001261 0.000000 0.016475 0.000000
# 6 0.000000 0.000000 0.000000 0.001970 0.000000 0.036017
#
#
# Mechanical properties :
#
#
# Convention : Reuss Voigt Hill
#
# Bulk Modulus (GPa) = 14.80976 24.99254 19.90115
# Shear Modulus (GPa) = 27.41508 36.22367 31.81938
#
# Velocity S-wave (km/s) = 3.15029 3.62120 3.39392
# Velocity P-wave (km/s) = 4.31204 5.15087 4.75001
#
# Compressibility (1/GPa) = 0.06752303
#
# Stress axis : x y z
#
# Youngs Moduli (GPa) = 99.04300 44.71771 34.51754
#
# Poissons Ratio (x) = 0.13268 0.20547
# Poissons Ratio (y) = 0.29386 -0.41305
# Poissons Ratio (z) = 0.58957 -0.53511
#
# Static dielectric constant tensor:
#      x y z
#    x 5.269590 0.000000 -0.286490 
#    y 0.000000 4.714490 0.000000 
#    z -0.286490 0.000000 5.315870 
# 
# 
# High freq. dielectric constant tensor:
#      x y z
#    x 2.131370 0.000000 -0.002330 
#    y 0.000000 2.096290 0.000000 
#    z -0.002330 0.000000 2.129320 
# 
# From -- ./inp_files/10155.got.cif
#   From: 2010.03.12/outbox.cif.g09.slc.cpg/sg4_6_cif.got.tgz:10155.got - 2010.03.31 09:31:35.
