data_PCOD8047504
_publ_section_title
;
Structure prediction by ZEFSAII (Michael W. Deem and Ramdas Pophale) SiO2 
 PCOD8047504
Probable space group: P 21
;
_chemical_formula_sum "Si O2"
_cell_formula_units_Z 16
_cell_length_a 15.185617
_cell_length_b 9.091332
_cell_length_c 14.679101
_cell_angle_alpha 90.000000
_cell_angle_beta 18.804320
_cell_angle_gamma 90.000000
_cell_volume 653.235341
_symmetry_space_group_name_H-M "P 21"
_symmetry_group_IT_number 4
_symmetry_cell_setting 'monoclinic'
loop_
_space_group_symop_operation_xyz
x,y,z
-x,1/2+y,-z
loop_
_atom_site_type_symbol
_atom_site_label
_atom_site_fract_x
_atom_site_fract_y
_atom_site_fract_z
Si Si1 0.743883 0.000000 0.291891
Si Si2 0.230520 0.099074 0.100202
Si Si3 0.726305 0.299033 0.204686
Si Si4 0.026102 0.837388 0.521679
Si Si5 0.503055 0.830303 0.927478
Si Si6 0.265716 0.657863 0.514348
Si Si7 0.547808 0.157946 0.203986
Si Si8 0.055527 0.971624 0.678789
O O1 0.774122 0.127056 0.185375
O O2 0.656435 0.094017 0.465030
O O3 0.504833 0.880482 0.507934
O O4 0.013054 0.902632 0.039338
O O5 0.124395 0.206777 0.280787
O O6 0.964129 0.048755 0.303063
O O7 0.352171 0.967821 0.035312
O O8 0.460746 0.174872 0.812223
O O9 0.633741 0.290428 0.188390
O O10 0.316139 0.782447 0.196924
O O11 0.080753 0.964460 0.543271
O O12 0.809946 0.880136 0.654031
O O13 0.497029 0.708134 0.855687
O O14 0.116517 0.816075 0.667082
O O15 0.259351 0.093688 0.519678
O O16 0.755863 0.021796 0.001316
#
# Coordination Sequence:
#
# PCOD8047504 Si02
#       8
#     2   2   2   2   2   2   2   2
#     4  12  27  49  82 113 156 196 251 309 375 459
#     4  11  24  44  65  96 131 181 240 293 355 447
#     4  12  29  50  79 118 157 196 257 305 387 448
#     4  11  25  42  63 100 133 182 239 292 361 434
#     4  12  25  40  68  91 137 183 228 300 360 428
#     4  11  23  45  73  97 139 187 241 290 372 430
#     4  12  26  44  72 103 149 186 245 301 379 426
#     4  11  25  44  68 104 140 189 239 306 361 446
#
# _framework density 24.493469999999999
#
# number of rings (size 3 to 8) (size 9 to 14) (size 15 to 20)
#    0.000    0.500    0.000    9.000    8.750    0.000 
#    0.000    0.000    0.000    0.000    0.000    0.000 
#    0.000    0.000    0.000    0.000    0.000    0.000 
#
# Total GULP energy -198379.279089 kJ/mol
# GULP energy per Si atom -12398.704943 kJ/mol
# Density = 2.443772 g / cm^3
# Si number density = 24.493470 Si / 1000 Ang^3
#
#
#
# Elastic Constant Matrix: (Units=GPa)
#
#
# Indices 1 2 3 4 5 6 
#
# 1 77.0962 26.4116 21.9897 0.0000 -7.4221 0.0000
# 2 26.4116 91.4014 26.5929 0.0000 -4.1024 0.0000
# 3 21.9897 26.5929 108.7169 0.0000 -15.3134 0.0000
# 4 0.0000 0.0000 0.0000 44.3750 0.0000 -4.4385
# 5 -7.4221 -4.1024 -15.3134 0.0000 36.3750 0.0000
# 6 0.0000 0.0000 0.0000 -4.4385 0.0000 51.2392
#
#
#
# Elastic Compliance Matrix: (Units=1/GPa)
#
#
# Indices 1 2 3 4 5 6 
#
# 1 0.014945 -0.003695 -0.001858 0.000000 0.001850 0.000000
# 2 -0.003695 0.012693 -0.002405 0.000000 -0.000335 0.000000
# 3 -0.001858 -0.002405 0.010705 0.000000 0.003856 0.000000
# 4 0.000000 0.000000 0.000000 0.022732 0.000000 0.001969
# 5 0.001850 -0.000335 0.003856 0.000000 0.029455 0.000000
# 6 0.000000 0.000000 0.000000 0.001969 0.000000 0.019687
#
#
# Mechanical properties :
#
#
# Convention : Reuss Voigt Hill
#
# Bulk Modulus (GPa) = 44.58777 47.46700 46.02738
# Shear Modulus (GPa) = 37.42279 39.87919 38.65099
#
# Velocity S-wave (km/s) = 3.91304 4.03942 3.97673
# Velocity P-wave (km/s) = 6.21766 6.41696 6.31810
#
# Compressibility (1/GPa) = 0.02242767
#
# Stress axis : x y z
#
# Youngs Moduli (GPa) = 66.91314 78.78366 93.40997
#
# Poissons Ratio (x) = 0.29108 0.17360
# Poissons Ratio (y) = 0.24723 0.22461
# Poissons Ratio (z) = 0.12435 0.18944
#
# Static dielectric constant tensor:
#      x y z
#    x 4.846910 0.000000 -0.271340 
#    y 0.000000 4.232170 0.000000 
#    z -0.271340 0.000000 4.549670 
# 
# 
# High freq. dielectric constant tensor:
#      x y z
#    x 1.977030 0.000000 -0.011780 
#    y 0.000000 1.973060 0.000000 
#    z -0.011780 0.000000 1.990010 
# 
# From -- ./inp_files/14173.got.cif
#   From: 2010.03.12/outbox.cif.g09.slc.cpg/sg4_8_cif.got.tgz:14173.got - 2010.03.31 09:31:35.
