data_PCOD8047286
_publ_section_title
;
Structure prediction by ZEFSAII (Michael W. Deem and Ramdas Pophale) SiO2 
 PCOD8047286
Probable space group: P 21
;
_chemical_formula_sum "Si O2"
_cell_formula_units_Z 14
_cell_length_a 14.454411
_cell_length_b 6.418877
_cell_length_c 8.496007
_cell_angle_alpha 90.000000
_cell_angle_beta 122.494769
_cell_angle_gamma 90.000000
_cell_volume 664.857794
_symmetry_space_group_name_H-M "P 21"
_symmetry_group_IT_number 4
_symmetry_cell_setting 'monoclinic'
loop_
_space_group_symop_operation_xyz
x,y,z
-x,1/2+y,-z
loop_
_atom_site_type_symbol
_atom_site_label
_atom_site_fract_x
_atom_site_fract_y
_atom_site_fract_z
Si Si1 0.881043 0.468420 0.490485
Si Si2 0.383838 0.507023 0.784037
Si Si3 0.979483 0.301713 0.273749
Si Si4 0.216312 0.593611 0.055449
Si Si5 0.816081 0.083143 0.609808
Si Si6 0.744578 0.727169 0.131029
Si Si7 0.613277 0.335958 0.954624
O O1 0.941450 0.325047 0.418853
O O2 0.810103 0.319561 0.539113
O O3 0.821063 0.660198 0.347332
O O4 0.962381 0.578764 0.686598
O O5 0.282941 0.473296 0.572985
O O6 0.362951 0.344750 0.905014
O O7 0.495789 0.433727 0.801261
O O8 0.389660 0.737584 0.870206
O O9 0.061777 0.488112 0.301202
O O10 0.872118 0.276014 0.066201
O O11 0.213614 0.555438 0.236694
O O12 0.340865 0.665718 0.126547
O O13 0.192138 0.378368 0.935672
O O14 0.703807 0.514816 0.017409
#
# Coordination Sequence:
#
# PCOD8047286 Si02
#       7
#     2   2   2   2   2   2   2
#     4  12  22  41  69  96 126 178 233 283 324 400
#     4  11  22  43  70 101 123 174 238 281 332 398
#     4  12  24  40  68  95 130 177 224 278 338 409
#     4  11  28  43  61 102 144 180 218 276 367 408
#     4  12  27  43  64 103 140 173 229 285 340 415
#     4  11  21  43  68  94 132 174 230 283 329 403
#     4  11  22  43  72  95 131 176 228 286 336 403
#
# _framework density 21.057134999999999
#
# number of rings (size 3 to 8) (size 9 to 14) (size 15 to 20)
#    0.000    0.571    7.143    1.714    2.000    1.143 
#    2.571    0.000    0.000    0.000    0.000    0.000 
#    0.000    0.000    0.000    0.000    0.000    0.000 
#
# Total GULP energy -173454.161932 kJ/mol
# GULP energy per Si atom -12389.582995 kJ/mol
# Density = 2.100921 g / cm^3
# Si number density = 21.057135 Si / 1000 Ang^3
#
#
#
# Elastic Constant Matrix: (Units=GPa)
#
#
# Indices 1 2 3 4 5 6 
#
# 1 99.8558 41.5711 47.7541 0.0000 1.2631 0.0000
# 2 41.5711 99.6119 37.0681 0.0000 -1.0594 0.0000
# 3 47.7541 37.0681 70.5503 0.0000 0.2538 0.0000
# 4 0.0000 0.0000 0.0000 27.5782 0.0000 6.3383
# 5 1.2631 -1.0594 0.2538 0.0000 36.1119 0.0000
# 6 0.0000 0.0000 0.0000 6.3383 0.0000 36.2528
#
#
#
# Elastic Compliance Matrix: (Units=1/GPa)
#
#
# Indices 1 2 3 4 5 6 
#
# 1 0.015602 -0.003217 -0.008868 0.000000 -0.000578 0.000000
# 2 -0.003217 0.013148 -0.004733 0.000000 0.000532 0.000000
# 3 -0.008868 -0.004733 0.022664 0.000000 0.000012 0.000000
# 4 0.000000 0.000000 0.000000 0.037779 0.000000 -0.006605
# 5 -0.000578 0.000532 0.000012 0.000000 0.027727 0.000000
# 6 0.000000 0.000000 0.000000 -0.006605 0.000000 0.028739
#
#
# Mechanical properties :
#
#
# Convention : Reuss Voigt Hill
#
# Bulk Modulus (GPa) = 56.24976 58.08940 57.16958
# Shear Modulus (GPa) = 26.99472 29.56358 28.27915
#
# Velocity S-wave (km/s) = 3.58435 3.75102 3.66863
# Velocity P-wave (km/s) = 6.62578 6.81225 6.71966
#
# Compressibility (1/GPa) = 0.01777785
#
# Stress axis : x y z
#
# Youngs Moduli (GPa) = 64.09319 76.05498 44.12362
#
# Poissons Ratio (x) = 0.24469 0.39130
# Poissons Ratio (y) = 0.20621 0.20882
# Poissons Ratio (z) = 0.56840 0.35993
#
# Static dielectric constant tensor:
#      x y z
#    x 3.747090 0.000000 0.227170 
#    y 0.000000 3.924500 0.000000 
#    z 0.227170 0.000000 3.565240 
# 
# 
# High freq. dielectric constant tensor:
#      x y z
#    x 1.818410 0.000000 0.020380 
#    y 0.000000 1.838920 0.000000 
#    z 0.020380 0.000000 1.798000 
# 
# From -- ./inp_files/7115.got.cif
#   From: 2010.03.12/outbox.cif.g09.slc.cpg/sg4_4_cif.got.tgz:7115.got - 2010.03.31 09:31:35.
