data_PCOD8047336
_publ_section_title
;
Structure prediction by ZEFSAII (Michael W. Deem and Ramdas Pophale) SiO2 
 PCOD8047336
Probable space group: P 21
;
_chemical_formula_sum "Si O2"
_cell_formula_units_Z 16
_cell_length_a 9.306062
_cell_length_b 8.526992
_cell_length_c 18.771393
_cell_angle_alpha 90.000000
_cell_angle_beta 29.944970
_cell_angle_gamma 90.000000
_cell_volume 743.541183
_symmetry_space_group_name_H-M "P 21"
_symmetry_group_IT_number 4
_symmetry_cell_setting 'monoclinic'
loop_
_space_group_symop_operation_xyz
x,y,z
-x,1/2+y,-z
loop_
_atom_site_type_symbol
_atom_site_label
_atom_site_fract_x
_atom_site_fract_y
_atom_site_fract_z
Si Si1 0.201124 0.735750 0.440760
Si Si2 0.741929 0.201924 0.079588
Si Si3 0.241931 0.641338 0.579580
Si Si4 0.229001 0.418243 0.824549
Si Si5 0.271000 0.925004 0.675452
Si Si6 0.373295 0.396680 0.338074
Si Si7 0.126688 0.946550 0.161939
Si Si8 0.701127 0.107486 0.940757
O O1 0.114698 0.699201 0.559302
O O2 0.449530 0.865960 0.332327
O O3 0.305692 0.579683 0.355467
O O4 0.921446 0.802464 0.521425
O O5 0.533685 0.337524 0.198498
O O6 0.760775 0.059460 0.125267
O O7 0.614790 0.144049 0.059263
O O8 0.060423 0.271226 0.930641
O O9 0.260830 0.783817 0.625227
O O10 0.560431 0.572056 0.430607
O O11 0.033758 0.505718 0.698471
O O12 0.075174 0.477407 0.819106
O O13 0.424802 0.865810 0.680906
O O14 0.949507 0.977262 0.832329
O O15 0.194330 0.763551 0.144533
O O16 0.421410 0.040784 0.021454
#
# Coordination Sequence:
#
# PCOD8047336 Si02
#       8
#     2   2   2   2   2   2   2   2
#     4  11  24  42  62  91 125 159 203 253 300 360
#     4  11  22  41  64  90 123 163 201 249 303 358
#     4  11  22  41  64  90 123 163 201 249 303 358
#     4  11  23  42  64  91 123 160 203 252 302 359
#     4  11  23  42  64  91 123 160 203 252 302 359
#     4  11  23  41  63  90 124 162 202 250 302 359
#     4  11  23  41  63  90 124 162 202 250 302 359
#     4  11  24  42  62  91 125 159 203 253 300 360
#
# _framework density 21.518646
#
# number of rings (size 3 to 8) (size 9 to 14) (size 15 to 20)
#    0.000    1.000    0.000    9.000    0.000    4.000 
#    0.000    7.500    0.000    0.000    0.000    0.000 
#    0.000    0.000    0.000    0.000    0.000    0.000 
#
# Total GULP energy -198515.295544 kJ/mol
# GULP energy per Si atom -12407.205972 kJ/mol
# Density = 2.146967 g / cm^3
# Si number density = 21.518646 Si / 1000 Ang^3
#
#
#
# Elastic Constant Matrix: (Units=GPa)
#
#
# Indices 1 2 3 4 5 6 
#
# 1 46.2890 36.5246 30.3294 0.0000 13.0463 0.0000
# 2 36.5246 68.9379 25.2364 0.0000 11.8740 0.0000
# 3 30.3294 25.2364 90.4704 0.0000 19.9014 0.0000
# 4 0.0000 0.0000 0.0000 34.3924 0.0000 2.2157
# 5 13.0463 11.8740 19.9014 0.0000 23.7208 0.0000
# 6 0.0000 0.0000 0.0000 2.2157 0.0000 39.3602
#
#
#
# Elastic Compliance Matrix: (Units=1/GPa)
#
#
# Indices 1 2 3 4 5 6 
#
# 1 0.043977 -0.019096 -0.007601 0.000000 -0.008251 0.000000
# 2 -0.019096 0.025006 -0.000160 0.000000 -0.001880 0.000000
# 3 -0.007601 -0.000160 0.015585 0.000000 -0.008815 0.000000
# 4 0.000000 0.000000 0.000000 0.029182 0.000000 -0.001643
# 5 -0.008251 -0.001880 -0.008815 0.000000 0.055032 0.000000
# 6 0.000000 0.000000 0.000000 -0.001643 0.000000 0.025499
#
#
# Mechanical properties :
#
#
# Convention : Reuss Voigt Hill
#
# Bulk Modulus (GPa) = 32.41078 43.31979 37.86528
# Shear Modulus (GPa) = 19.35880 27.06846 23.21363
#
# Velocity S-wave (km/s) = 3.00264 3.55055 3.28802
# Velocity P-wave (km/s) = 5.20726 6.08141 5.66123
#
# Compressibility (1/GPa) = 0.03085394
#
# Stress axis : x y z
#
# Youngs Moduli (GPa) = 22.73902 39.99080 64.16315
#
# Poissons Ratio (x) = 0.76367 0.48771
# Poissons Ratio (y) = 0.43423 0.01025
# Poissons Ratio (z) = 0.17284 0.00639
#
# Static dielectric constant tensor:
#      x y z
#    x 3.826500 0.000000 -0.032480 
#    y 0.000000 3.986540 0.000000 
#    z -0.032480 0.000000 4.072300 
# 
# 
# High freq. dielectric constant tensor:
#      x y z
#    x 1.840490 0.000000 -0.004850 
#    y 0.000000 1.857050 0.000000 
#    z -0.004850 0.000000 1.858900 
# 
# From -- ./inp_files/9625.got.cif
#   From: 2010.03.12/outbox.cif.g09.slc.cpg/sg4_5_cif.got.tgz:9625.got - 2010.03.31 09:31:35.
