data_PCOD8047480
_publ_section_title
;
Structure prediction by ZEFSAII (Michael W. Deem and Ramdas Pophale) SiO2 
 PCOD8047480
Probable space group: P 21
;
_chemical_formula_sum "Si O2"
_cell_formula_units_Z 16
_cell_length_a 9.577468
_cell_length_b 8.379933
_cell_length_c 10.386830
_cell_angle_alpha 90.000000
_cell_angle_beta 59.749720
_cell_angle_gamma 90.000000
_cell_volume 720.118706
_symmetry_space_group_name_H-M "P 21"
_symmetry_group_IT_number 4
_symmetry_cell_setting 'monoclinic'
loop_
_space_group_symop_operation_xyz
x,y,z
-x,1/2+y,-z
loop_
_atom_site_type_symbol
_atom_site_label
_atom_site_fract_x
_atom_site_fract_y
_atom_site_fract_z
Si Si1 0.895678 0.070910 0.184533
Si Si2 0.107626 0.190387 0.311003
Si Si3 0.283341 0.781800 0.159616
Si Si4 0.156662 0.897956 0.465781
Si Si5 0.324924 0.027932 0.616404
Si Si6 0.437608 0.127923 0.109869
Si Si7 0.030712 0.220486 0.867804
Si Si8 0.555692 0.219759 0.337980
O O1 0.723214 0.140238 0.298643
O O2 0.004686 0.086542 0.259983
O O3 0.875159 0.886011 0.159103
O O4 0.980967 0.165474 0.031252
O O5 0.281061 0.245461 0.171063
O O6 0.019395 0.348187 0.400944
O O7 0.144157 0.074623 0.414042
O O8 0.221929 0.764934 0.334768
O O9 0.131442 0.747162 0.138847
O O10 0.363090 0.956055 0.110136
O O11 0.426206 0.659009 0.059989
O O12 0.283149 0.903050 0.522795
O O13 0.155958 0.093067 0.751208
O O14 0.429286 0.172441 0.509044
O O15 0.422381 0.914452 0.673014
O O16 0.508660 0.150720 0.220157
#
# Coordination Sequence:
#
# PCOD8047480 Si02
#       8
#     2   2   2   2   2   2   2   2
#     4  12  25  46  74 106 146 191 252 301 361 442
#     4  11  24  45  73 103 144 192 248 296 363 435
#     4  11  24  47  71 105 145 190 243 297 364 430
#     4  11  23  44  71 105 140 190 243 296 359 434
#     4  12  26  46  75 106 149 191 240 306 373 430
#     4  11  25  46  72 101 150 186 244 305 356 437
#     4  12  26  47  75 107 145 196 243 303 367 440
#     4  12  25  49  69 111 149 190 247 306 365 434
#
# _framework density 22.218558000000002
#
# number of rings (size 3 to 8) (size 9 to 14) (size 15 to 20)
#    0.000    0.500    7.500    2.250    0.000    4.000 
#    4.500    0.000    0.000    0.000    0.000    0.000 
#    0.000    0.000    0.000    0.000    0.000    0.000 
#
# Total GULP energy -198341.751401 kJ/mol
# GULP energy per Si atom -12396.359463 kJ/mol
# Density = 2.216799 g / cm^3
# Si number density = 22.218558 Si / 1000 Ang^3
#
#
#
# Elastic Constant Matrix: (Units=GPa)
#
#
# Indices 1 2 3 4 5 6 
#
# 1 100.4469 29.5818 29.4700 0.0000 -23.9060 0.0000
# 2 29.5818 78.2358 13.3746 0.0000 -11.7894 0.0000
# 3 29.4700 13.3746 62.2866 0.0000 -19.7243 0.0000
# 4 0.0000 0.0000 0.0000 32.5364 0.0000 -11.5308
# 5 -23.9060 -11.7894 -19.7243 0.0000 38.4857 0.0000
# 6 0.0000 0.0000 0.0000 -11.5308 0.0000 42.2538
#
#
#
# Elastic Compliance Matrix: (Units=1/GPa)
#
#
# Indices 1 2 3 4 5 6 
#
# 1 0.013411 -0.003615 -0.003917 0.000000 0.005215 0.000000
# 2 -0.003615 0.014563 -0.000853 0.000000 0.001778 0.000000
# 3 -0.003917 -0.000853 0.020578 0.000000 0.007852 0.000000
# 4 0.000000 0.000000 0.000000 0.034026 0.000000 0.009285
# 5 0.005215 0.001778 0.007852 0.000000 0.033792 0.000000
# 6 0.000000 0.000000 0.000000 0.009285 0.000000 0.026200
#
#
# Mechanical properties :
#
#
# Convention : Reuss Voigt Hill
#
# Bulk Modulus (GPa) = 31.46711 42.86913 37.16812
# Shear Modulus (GPa) = 29.42318 33.89135 31.65727
#
# Velocity S-wave (km/s) = 3.64299 3.90983 3.77876
# Velocity P-wave (km/s) = 5.64698 6.30226 5.98360
#
# Compressibility (1/GPa) = 0.03177922
#
# Stress axis : x y z
#
# Youngs Moduli (GPa) = 74.56752 68.66887 48.59587
#
# Poissons Ratio (x) = 0.24825 0.19037
# Poissons Ratio (y) = 0.26957 0.04148
# Poissons Ratio (z) = 0.29210 0.05861
#
# Static dielectric constant tensor:
#      x y z
#    x 4.331740 0.000000 -0.282730 
#    y 0.000000 3.950790 0.000000 
#    z -0.282730 0.000000 4.315410 
# 
# 
# High freq. dielectric constant tensor:
#      x y z
#    x 1.887470 0.000000 -0.012280 
#    y 0.000000 1.864450 0.000000 
#    z -0.012280 0.000000 1.884870 
# 
# From -- ./inp_files/5387.got.cif
#   From: 2010.03.12/outbox.cif.g09.slc.cpg/sg4_3_cif.got.tgz:5387.got - 2010.03.31 09:31:35.
