data_PCOD8047881
_publ_section_title
;
Structure prediction by ZEFSAII (Michael W. Deem and Ramdas Pophale) SiO2 
 PCOD8047881
Probable space group: P 21
;
_chemical_formula_sum "Si O2"
_cell_formula_units_Z 16
_cell_length_a 11.376275
_cell_length_b 6.726633
_cell_length_c 9.480886
_cell_angle_alpha 90.000000
_cell_angle_beta 77.471997
_cell_angle_gamma 90.000000
_cell_volume 708.241126
_symmetry_space_group_name_H-M "P 21"
_symmetry_group_IT_number 4
_symmetry_cell_setting 'monoclinic'
loop_
_space_group_symop_operation_xyz
x,y,z
-x,1/2+y,-z
loop_
_atom_site_type_symbol
_atom_site_label
_atom_site_fract_x
_atom_site_fract_y
_atom_site_fract_z
Si Si1 0.638153 0.832290 0.371252
Si Si2 0.815720 0.016284 0.766811
Si Si3 0.801546 0.147534 0.470873
Si Si4 0.378993 0.097748 0.899166
Si Si5 0.857192 0.382966 0.947014
Si Si6 0.617960 0.485555 0.571965
Si Si7 0.983276 0.226483 0.188681
Si Si8 0.429978 0.280718 0.167086
O O1 0.639915 0.775676 0.206815
O O2 0.676927 0.638226 0.447486
O O3 0.505904 0.897296 0.457198
O O4 0.731822 0.006006 0.379388
O O5 0.684377 0.922583 0.804481
O O6 0.909214 0.882603 0.827441
O O7 0.855427 0.033077 0.592285
O O8 0.809851 0.227710 0.845021
O O9 0.713710 0.310183 0.563958
O O10 0.908672 0.242238 0.353028
O O11 0.454158 0.911660 0.815234
O O12 0.455938 0.191226 0.006429
O O13 0.249067 0.032976 0.986818
O O14 0.965236 0.505342 0.846415
O O15 0.900255 0.277933 0.077965
O O16 0.590410 0.594170 0.725832
#
# Coordination Sequence:
#
# PCOD8047881 Si02
#       8
#     2   2   2   2   2   2   2   2
#     4  12  25  44  73 107 151 189 240 294 365 439
#     4  12  27  50  74 107 149 188 243 307 367 432
#     4  12  29  45  77 109 144 198 245 300 369 439
#     4  12  26  44  76 113 146 194 242 302 369 442
#     4  12  27  51  75 104 147 194 246 304 359 434
#     4  12  24  48  70 108 150 191 239 300 365 437
#     4  12  29  49  75 105 143 198 247 300 363 436
#     4  12  25  47  74 113 150 190 244 303 377 437
#
# _framework density 22.591176999999998
#
# number of rings (size 3 to 8) (size 9 to 14) (size 15 to 20)
#    0.000    0.000    5.000    4.500    7.000    1.000 
#    0.000    0.000    0.000    0.000    0.000    0.000 
#    0.000    0.000    0.000    0.000    0.000    0.000 
#
# Total GULP energy -198523.912452 kJ/mol
# GULP energy per Si atom -12407.744528 kJ/mol
# Density = 2.253976 g / cm^3
# Si number density = 22.591177 Si / 1000 Ang^3
#
#
#
# Elastic Constant Matrix: (Units=GPa)
#
#
# Indices 1 2 3 4 5 6 
#
# 1 72.3213 22.0845 23.8802 0.0000 -0.5336 0.0000
# 2 22.0845 103.4176 37.0598 0.0000 2.6346 0.0000
# 3 23.8802 37.0598 116.5061 0.0000 4.1459 0.0000
# 4 0.0000 0.0000 0.0000 51.0623 0.0000 2.3289
# 5 -0.5336 2.6346 4.1459 0.0000 33.8150 0.0000
# 6 0.0000 0.0000 0.0000 2.3289 0.0000 34.1311
#
#
#
# Elastic Compliance Matrix: (Units=1/GPa)
#
#
# Indices 1 2 3 4 5 6 
#
# 1 0.015370 -0.002441 -0.002400 0.000000 0.000727 0.000000
# 2 -0.002441 0.011307 -0.003077 0.000000 -0.000542 0.000000
# 3 -0.002400 -0.003077 0.010091 0.000000 -0.001035 0.000000
# 4 0.000000 0.000000 0.000000 0.019645 0.000000 -0.001340
# 5 0.000727 -0.000542 -0.001035 0.000000 0.029753 0.000000
# 6 0.000000 0.000000 0.000000 -0.001340 0.000000 0.029390
#
#
# Mechanical properties :
#
#
# Convention : Reuss Voigt Hill
#
# Bulk Modulus (GPa) = 47.77228 50.92156 49.34692
# Shear Modulus (GPa) = 36.13487 37.74970 36.94229
#
# Velocity S-wave (km/s) = 4.00373 4.09221 4.04821
# Velocity P-wave (km/s) = 6.52422 6.70206 6.61374
#
# Compressibility (1/GPa) = 0.02093264
#
# Stress axis : x y z
#
# Youngs Moduli (GPa) = 65.06036 88.43855 99.09989
#
# Poissons Ratio (x) = 0.21586 0.23783
# Poissons Ratio (y) = 0.15880 0.30495
# Poissons Ratio (z) = 0.15614 0.27214
#
# Static dielectric constant tensor:
#      x y z
#    x 4.004160 0.000000 0.117730 
#    y 0.000000 4.248820 0.000000 
#    z 0.117730 0.000000 4.070190 
# 
# 
# High freq. dielectric constant tensor:
#      x y z
#    x 1.889230 0.000000 0.006300 
#    y 0.000000 1.905070 0.000000 
#    z 0.006300 0.000000 1.902470 
# 
# From -- ./inp_files/7363.got.cif
#   From: 2010.03.12/outbox.cif.g09.slc.cpg/sg4_4_cif.got.tgz:7363.got - 2010.03.31 09:31:35.
