data_PCOD8047173
_publ_section_title
;
Structure prediction by ZEFSAII (Michael W. Deem and Ramdas Pophale) SiO2 
 PCOD8047173
Probable space group: P 21
;
_chemical_formula_sum "Si O2"
_cell_formula_units_Z 16
_cell_length_a 8.121179
_cell_length_b 10.055157
_cell_length_c 8.895165
_cell_angle_alpha 90.000000
_cell_angle_beta 114.544759
_cell_angle_gamma 90.000000
_cell_volume 660.739215
_symmetry_space_group_name_H-M "P 21"
_symmetry_group_IT_number 4
_symmetry_cell_setting 'monoclinic'
loop_
_space_group_symop_operation_xyz
x,y,z
-x,1/2+y,-z
loop_
_atom_site_type_symbol
_atom_site_label
_atom_site_fract_x
_atom_site_fract_y
_atom_site_fract_z
Si Si1 0.718542 0.044940 0.257151
Si Si2 0.225422 0.131423 0.580765
Si Si3 0.194658 0.072825 0.053330
Si Si4 0.923755 0.131400 0.704530
Si Si5 0.108041 0.934712 0.316566
Si Si6 0.457688 0.016123 0.904226
Si Si7 0.675472 0.893398 0.516689
Si Si8 0.502328 0.268933 0.282010
O O1 0.691909 0.186481 0.335614
O O2 0.605146 0.946914 0.327710
O O3 0.918411 0.987747 0.315103
O O4 0.634572 0.063837 0.060695
O O5 0.196275 0.268740 0.479893
O O6 0.051519 0.096846 0.613601
O O7 0.257314 0.012519 0.472609
O O8 0.400174 0.127899 0.758899
O O9 0.300140 0.990703 0.965775
O O10 0.116898 0.971836 0.145871
O O11 0.023675 0.139148 0.903634
O O12 0.324062 0.180960 0.180797
O O13 0.849032 0.279704 0.649011
O O14 0.775062 0.012579 0.646042
O O15 0.502672 0.877684 0.847803
O O16 0.514321 0.833299 0.557849
#
# Coordination Sequence:
#
# PCOD8047173 Si02
#       8
#     2   2   2   2   2   2   2   2
#     4  11  26  46  74 110 146 196 248 312 375 445
#     4  11  23  47  73 104 147 190 245 315 376 436
#     4  10  25  46  72 108 145 195 248 305 370 454
#     4  11  24  43  72 108 147 189 247 307 379 428
#     4  12  24  45  78 111 143 188 254 316 367 444
#     4  10  26  46  72  97 153 196 238 306 376 455
#     4  12  26  45  73 106 150 198 248 309 375 451
#     4  11  26  48  68 108 153 200 248 302 378 455
#
# _framework density 24.215302000000001
#
# number of rings (size 3 to 8) (size 9 to 14) (size 15 to 20)
#    0.000    1.000    3.750    0.750   10.500    3.000 
#    2.250    0.000    0.000    0.000    0.000    0.000 
#    0.000    0.000    0.000    0.000    0.000    0.000 
#
# Total GULP energy -198238.166328 kJ/mol
# GULP energy per Si atom -12389.885396 kJ/mol
# Density = 2.416019 g / cm^3
# Si number density = 24.215302 Si / 1000 Ang^3
#
#
#
# Elastic Constant Matrix: (Units=GPa)
#
#
# Indices 1 2 3 4 5 6 
#
# 1 65.6810 38.6460 30.0692 0.0000 -12.1518 0.0000
# 2 38.6460 136.9347 45.3491 0.0000 -6.6255 0.0000
# 3 30.0692 45.3491 121.9430 0.0000 -18.1177 0.0000
# 4 0.0000 0.0000 0.0000 42.2941 0.0000 -11.7670
# 5 -12.1518 -6.6255 -18.1177 0.0000 36.1844 0.0000
# 6 0.0000 0.0000 0.0000 -11.7670 0.0000 35.4862
#
#
#
# Elastic Compliance Matrix: (Units=1/GPa)
#
#
# Indices 1 2 3 4 5 6 
#
# 1 0.019916 -0.004560 -0.002534 0.000000 0.004585 0.000000
# 2 -0.004560 0.009372 -0.002521 0.000000 -0.001078 0.000000
# 3 -0.002534 -0.002521 0.010337 0.000000 0.003863 0.000000
# 4 0.000000 0.000000 0.000000 0.026047 0.000000 0.008637
# 5 0.004585 -0.001078 0.003863 0.000000 0.030913 0.000000
# 6 0.000000 0.000000 0.000000 0.008637 0.000000 0.031044
#
#
# Mechanical properties :
#
#
# Convention : Reuss Voigt Hill
#
# Bulk Modulus (GPa) = 49.03034 61.40972 55.22003
# Shear Modulus (GPa) = 32.53968 36.82590 34.68279
#
# Velocity S-wave (km/s) = 3.66972 3.90394 3.78864
# Velocity P-wave (km/s) = 6.18445 6.76283 6.48010
#
# Compressibility (1/GPa) = 0.02039553
#
# Stress axis : x y z
#
# Youngs Moduli (GPa) = 50.20981 106.69567 96.73972
#
# Poissons Ratio (x) = 0.48651 0.24515
# Poissons Ratio (y) = 0.22895 0.24390
# Poissons Ratio (z) = 0.12724 0.26900
#
# Static dielectric constant tensor:
#      x y z
#    x 4.187510 0.000000 -0.120900 
#    y 0.000000 4.399930 0.000000 
#    z -0.120900 0.000000 4.705270 
# 
# 
# High freq. dielectric constant tensor:
#      x y z
#    x 1.945520 0.000000 -0.013620 
#    y 0.000000 1.962810 0.000000 
#    z -0.013620 0.000000 1.982660 
# 
# From -- ./inp_files/5501.got.cif
#   From: 2010.03.12/outbox.cif.g09.slc.cpg/sg4_3_cif.got.tgz:5501.got - 2010.03.31 09:31:35.
