data_PCOD8047078
_publ_section_title
;
Structure prediction by ZEFSAII (Michael W. Deem and Ramdas Pophale) SiO2 
 PCOD8047078
Probable space group: P 21
;
_chemical_formula_sum "Si O2"
_cell_formula_units_Z 12
_cell_length_a 11.106078
_cell_length_b 11.390129
_cell_length_c 9.824163
_cell_angle_alpha 90.000000
_cell_angle_beta 26.689232
_cell_angle_gamma 90.000000
_cell_volume 558.183999
_symmetry_space_group_name_H-M "P 21"
_symmetry_group_IT_number 4
_symmetry_cell_setting 'monoclinic'
loop_
_space_group_symop_operation_xyz
x,y,z
-x,1/2+y,-z
loop_
_atom_site_type_symbol
_atom_site_label
_atom_site_fract_x
_atom_site_fract_y
_atom_site_fract_z
Si Si1 0.566548 0.534270 0.593366
Si Si2 0.461312 0.019728 0.697587
Si Si3 0.563336 0.781132 0.733284
Si Si4 0.058103 0.784485 0.420970
Si Si5 0.040899 0.646772 0.692494
Si Si6 0.935956 0.902676 0.805530
O O1 0.518117 0.538222 0.482764
O O2 0.504864 0.662308 0.712704
O O3 0.869676 0.495859 0.318631
O O4 0.368611 0.441731 0.864329
O O5 0.533835 0.885955 0.656126
O O6 0.661158 0.108878 0.569612
O O7 0.164534 0.046987 0.052559
O O8 0.862713 0.781319 0.489821
O O9 0.360621 0.796205 0.063388
O O10 0.029183 0.665030 0.540161
O O11 0.995162 0.895941 0.583044
O O12 0.975759 0.772362 0.830607
#
# Coordination Sequence:
#
# PCOD8047078 Si02
#       6
#     2   2   2   2   2   2
#     4  12  26  44  68  99 137 178 216 277 323 404
#     4  12  26  44  68  99 137 178 216 277 323 404
#     4  12  26  40  68 104 130 172 230 272 328 386
#     4  10  24  44  68 104 128 174 222 276 330 396
#     4  10  24  45  70  94 132 180 215 267 343 382
#     4  10  24  45  70  94 132 180 215 267 343 382
#
# _framework density 21.498286
#
# number of rings (size 3 to 8) (size 9 to 14) (size 15 to 20)
#    1.000    0.000    0.000    6.000    4.667    8.000 
#    0.000    0.000    0.000    0.000    0.000    0.000 
#    0.000    0.000    0.000    0.000    0.000    0.000 
#
# Total GULP energy -148844.727573 kJ/mol
# GULP energy per Si atom -12403.727298 kJ/mol
# Density = 2.144935 g / cm^3
# Si number density = 21.498286 Si / 1000 Ang^3
#
#
#
# Elastic Constant Matrix: (Units=GPa)
#
#
# Indices 1 2 3 4 5 6 
#
# 1 94.9057 16.8774 22.7764 0.0000 4.3347 0.0000
# 2 16.8774 82.1926 9.2309 0.0000 2.0560 0.0000
# 3 22.7764 9.2309 68.0517 0.0000 -13.9931 0.0000
# 4 0.0000 0.0000 0.0000 40.6824 0.0000 -2.2801
# 5 4.3347 2.0560 -13.9931 0.0000 19.1975 0.0000
# 6 0.0000 0.0000 0.0000 -2.2801 0.0000 32.9772
#
#
#
# Elastic Compliance Matrix: (Units=1/GPa)
#
#
# Indices 1 2 3 4 5 6 
#
# 1 0.012404 -0.001800 -0.005227 0.000000 -0.006418 0.000000
# 2 -0.001800 0.012764 -0.001560 0.000000 -0.002098 0.000000
# 3 -0.005227 -0.001560 0.019918 0.000000 0.015866 0.000000
# 4 0.000000 0.000000 0.000000 0.024676 0.000000 0.001706
# 5 -0.006418 -0.002098 0.015866 0.000000 0.065329 0.000000
# 6 0.000000 0.000000 0.000000 0.001706 0.000000 0.030442
#
#
# Mechanical properties :
#
#
# Convention : Reuss Voigt Hill
#
# Bulk Modulus (GPa) = 35.82698 38.10216 36.96457
# Shear Modulus (GPa) = 26.04004 31.65577 28.84791
#
# Velocity S-wave (km/s) = 3.48409 3.84145 3.66713
# Velocity P-wave (km/s) = 5.73467 6.11862 5.92975
#
# Compressibility (1/GPa) = 0.02791192
#
# Stress axis : x y z
#
# Youngs Moduli (GPa) = 80.61637 78.34665 50.20505
#
# Poissons Ratio (x) = 0.14099 0.26244
# Poissons Ratio (y) = 0.14507 0.07834
# Poissons Ratio (z) = 0.42141 0.12226
#
# Static dielectric constant tensor:
#      x y z
#    x 3.714220 0.000000 -0.004490 
#    y 0.000000 3.830800 0.000000 
#    z -0.004490 0.000000 3.796400 
# 
# 
# High freq. dielectric constant tensor:
#      x y z
#    x 1.840080 0.000000 -0.005220 
#    y 0.000000 1.846750 0.000000 
#    z -0.005220 0.000000 1.854530 
# 
# From -- ./inp_files/12234.got.cif
#   From: 2010.03.12/outbox.cif.g09.slc.cpg/sg4_7_cif.got.tgz:12234.got - 2010.03.31 09:31:35.
