data_PCOD8047803
_publ_section_title
;
Structure prediction by ZEFSAII (Michael W. Deem and Ramdas Pophale) SiO2 
 PCOD8047803
Probable space group: P 21
;
_chemical_formula_sum "Si O2"
_cell_formula_units_Z 16
_cell_length_a 18.464469
_cell_length_b 8.632390
_cell_length_c 10.281896
_cell_angle_alpha 90.000000
_cell_angle_beta 26.115352
_cell_angle_gamma 90.000000
_cell_volume 721.391741
_symmetry_space_group_name_H-M "P 21"
_symmetry_group_IT_number 4
_symmetry_cell_setting 'monoclinic'
loop_
_space_group_symop_operation_xyz
x,y,z
-x,1/2+y,-z
loop_
_atom_site_type_symbol
_atom_site_label
_atom_site_fract_x
_atom_site_fract_y
_atom_site_fract_z
Si Si1 0.607156 0.993510 0.919293
Si Si2 0.678666 0.689483 0.207295
Si Si3 0.026456 0.214932 0.080695
Si Si4 0.385970 0.518941 0.792692
Si Si5 0.918731 0.218319 0.772596
Si Si6 0.691482 0.333625 0.712284
Si Si7 0.096224 0.374809 0.712291
Si Si8 0.191320 0.990084 0.227422
O O1 0.732703 0.879672 0.641977
O O2 0.616152 0.163684 0.845706
O O3 0.422553 0.930148 0.202229
O O4 0.662110 0.995981 0.980067
O O5 0.560903 0.604215 0.499996
O O6 0.601039 0.854201 0.297897
O O7 0.857812 0.712490 0.980088
O O8 0.691005 0.583600 0.059496
O O9 0.874678 0.328765 0.358016
O O10 0.124776 0.278289 0.797772
O O11 0.961883 0.044748 0.154267
O O12 0.250509 0.624799 0.940469
O O13 0.907920 0.354189 0.684147
O O14 0.956029 0.291990 0.852715
O O15 0.062191 0.104198 0.500016
O O16 0.691247 0.416437 0.852720
#
# Coordination Sequence:
#
# PCOD8047803 Si02
#       8
#     2   2   2   2   2   2   2   2
#     4  11  27  49  69 108 144 187 242 296 360 434
#     4  12  28  47  72 107 145 186 244 302 366 430
#     4  11  27  49  69 108 144 187 242 296 360 434
#     4  12  28  47  72 107 145 186 244 302 366 430
#     4  12  24  45  75 105 143 192 240 294 362 433
#     4  11  27  46  74 104 142 191 239 296 363 430
#     4  11  27  46  74 104 142 191 239 296 363 430
#     4  12  24  45  75 105 143 192 240 294 362 433
#
# _framework density 22.179349999999999
#
# number of rings (size 3 to 8) (size 9 to 14) (size 15 to 20)
#    0.000    0.500    2.500    4.500   10.500    0.000 
#    0.000    0.000    0.000    0.000    0.000    0.000 
#    0.000    0.000    0.000    0.000    0.000    0.000 
#
# Total GULP energy -198562.577878 kJ/mol
# GULP energy per Si atom -12410.161117 kJ/mol
# Density = 2.212887 g / cm^3
# Si number density = 22.179350 Si / 1000 Ang^3
#
#
#
# Elastic Constant Matrix: (Units=GPa)
#
#
# Indices 1 2 3 4 5 6 
#
# 1 95.7795 38.5743 31.5771 0.0000 0.7395 0.0000
# 2 38.5743 112.3728 42.8895 0.0000 -0.5930 0.0000
# 3 31.5771 42.8895 121.1869 0.0000 -4.2380 0.0000
# 4 0.0000 0.0000 0.0000 33.1040 0.0000 1.5414
# 5 0.7395 -0.5930 -4.2380 0.0000 30.1148 0.0000
# 6 0.0000 0.0000 0.0000 1.5414 0.0000 44.2890
#
#
#
# Elastic Compliance Matrix: (Units=1/GPa)
#
#
# Indices 1 2 3 4 5 6 
#
# 1 0.012540 -0.003529 -0.002042 0.000000 -0.000665 0.000000
# 2 -0.003529 0.011285 -0.003079 0.000000 -0.000124 0.000000
# 3 -0.002042 -0.003079 0.009922 0.000000 0.001386 0.000000
# 4 0.000000 0.000000 0.000000 0.030257 0.000000 -0.001053
# 5 -0.000665 -0.000124 0.001386 0.000000 0.033415 0.000000
# 6 0.000000 0.000000 0.000000 -0.001053 0.000000 0.022616
#
#
# Mechanical properties :
#
#
# Convention : Reuss Voigt Hill
#
# Bulk Modulus (GPa) = 60.79804 61.71345 61.25574
# Shear Modulus (GPa) = 35.01018 35.92146 35.46582
#
# Velocity S-wave (km/s) = 3.97735 4.02878 4.00315
# Velocity P-wave (km/s) = 6.96878 7.03751 7.00323
#
# Compressibility (1/GPa) = 0.01644790
#
# Stress axis : x y z
#
# Youngs Moduli (GPa) = 79.74371 88.61574 100.78836
#
# Poissons Ratio (x) = 0.31271 0.20580
# Poissons Ratio (y) = 0.28140 0.31029
# Poissons Ratio (z) = 0.16283 0.27282
#
# Static dielectric constant tensor:
#      x y z
#    x 3.943530 0.000000 -0.002560 
#    y 0.000000 4.285800 0.000000 
#    z -0.002560 0.000000 3.962140 
# 
# 
# High freq. dielectric constant tensor:
#      x y z
#    x 1.872800 0.000000 0.000190 
#    y 0.000000 1.896060 0.000000 
#    z 0.000190 0.000000 1.871440 
# 
# From -- ./inp_files/5410.got.cif
#   From: 2010.03.12/outbox.cif.g09.slc.cpg/sg4_3_cif.got.tgz:5410.got - 2010.03.31 09:31:35.
