data_PCOD8047026
_publ_section_title
;
Structure prediction by ZEFSAII (Michael W. Deem and Ramdas Pophale) SiO2 
 PCOD8047026
Probable space group: P 21
;
_chemical_formula_sum "Si O2"
_cell_formula_units_Z 14
_cell_length_a 14.468145
_cell_length_b 9.170418
_cell_length_c 4.968716
_cell_angle_alpha 90.000000
_cell_angle_beta 78.206056
_cell_angle_gamma 90.000000
_cell_volume 645.326658
_symmetry_space_group_name_H-M "P 21"
_symmetry_group_IT_number 4
_symmetry_cell_setting 'monoclinic'
loop_
_space_group_symop_operation_xyz
x,y,z
-x,1/2+y,-z
loop_
_atom_site_type_symbol
_atom_site_label
_atom_site_fract_x
_atom_site_fract_y
_atom_site_fract_z
Si Si1 0.577025 0.415390 0.465842
Si Si2 0.612664 0.252143 0.930676
Si Si3 0.768627 0.043776 0.620641
Si Si4 0.572171 0.725996 0.236567
Si Si5 0.233096 0.356264 0.884989
Si Si6 0.036899 0.621605 0.677865
Si Si7 0.041478 0.278433 0.774211
O O1 0.632569 0.384310 0.709989
O O2 0.578500 0.584438 0.415647
O O3 0.468552 0.358652 0.556552
O O4 0.630711 0.316644 0.212866
O O5 0.682614 0.121381 0.823104
O O6 0.503150 0.196507 0.961343
O O7 0.856123 0.147797 0.490628
O O8 0.732687 0.967355 0.368902
O O9 0.807750 0.931206 0.821652
O O10 0.676805 0.762189 0.071865
O O11 0.149051 0.258152 0.813187
O O12 0.017913 0.449359 0.739456
O O13 0.966515 0.686715 0.496353
O O14 0.027820 0.710478 0.961053
#
# Coordination Sequence:
#
# PCOD8047026 Si02
#       7
#     2   2   2   2   2   2   2
#     4  10  24  38  61  89 131 167 214 265 316 379
#     4  10  24  38  64  90 129 161 225 249 319 374
#     4  11  23  44  69  96 126 183 216 262 320 418
#     4  10  25  40  64  91 134 168 214 268 319 378
#     4  11  24  40  72  94 133 170 226 255 338 386
#     4  11  23  45  71  98 137 169 227 275 341 394
#     4  11  23  45  69 104 130 178 218 282 335 409
#
# _framework density 21.694437000000001
#
# number of rings (size 3 to 8) (size 9 to 14) (size 15 to 20)
#    0.857    0.571    0.000    6.000    8.000    0.000 
#    7.714    0.000    0.000    0.000    0.000    0.000 
#    0.000    0.000    0.000    0.000    0.000    0.000 
#
# Total GULP energy -173516.197882 kJ/mol
# GULP energy per Si atom -12394.014134 kJ/mol
# Density = 2.164506 g / cm^3
# Si number density = 21.694437 Si / 1000 Ang^3
#
#
#
# Elastic Constant Matrix: (Units=GPa)
#
#
# Indices 1 2 3 4 5 6 
#
# 1 98.5465 32.4607 14.7048 0.0000 -16.8924 0.0000
# 2 32.4607 74.4192 10.0788 0.0000 -8.9901 0.0000
# 3 14.7048 10.0788 85.8687 0.0000 0.5658 0.0000
# 4 0.0000 0.0000 0.0000 41.9522 0.0000 2.0884
# 5 -16.8924 -8.9901 0.5658 0.0000 26.5290 0.0000
# 6 0.0000 0.0000 0.0000 2.0884 0.0000 25.8523
#
#
#
# Elastic Compliance Matrix: (Units=1/GPa)
#
#
# Indices 1 2 3 4 5 6 
#
# 1 0.013109 -0.004660 -0.001743 0.000000 0.006805 0.000000
# 2 -0.004660 0.015913 -0.001086 0.000000 0.002449 0.000000
# 3 -0.001743 -0.001086 0.012083 0.000000 -0.001735 0.000000
# 4 0.000000 0.000000 0.000000 0.023933 0.000000 -0.001933
# 5 0.006805 0.002449 -0.001735 0.000000 0.042895 0.000000
# 6 0.000000 0.000000 0.000000 -0.001933 0.000000 0.038837
#
#
# Mechanical properties :
#
#
# Convention : Reuss Voigt Hill
#
# Bulk Modulus (GPa) = 38.27347 41.48036 39.87691
# Shear Modulus (GPa) = 29.33307 32.30605 30.81956
#
# Velocity S-wave (km/s) = 3.68108 3.86312 3.77320
# Velocity P-wave (km/s) = 5.97892 6.24981 6.11586
#
# Compressibility (1/GPa) = 0.02612776
#
# Stress axis : x y z
#
# Youngs Moduli (GPa) = 76.28346 62.84243 82.76067
#
# Poissons Ratio (x) = 0.29284 0.14423
# Poissons Ratio (y) = 0.35547 0.08987
# Poissons Ratio (z) = 0.13295 0.06824
#
# Static dielectric constant tensor:
#      x y z
#    x 3.779780 0.000000 0.033810 
#    y 0.000000 3.716190 0.000000 
#    z 0.033810 0.000000 4.025540 
# 
# 
# High freq. dielectric constant tensor:
#      x y z
#    x 1.838580 0.000000 0.005190 
#    y 0.000000 1.837590 0.000000 
#    z 0.005190 0.000000 1.869220 
# 
# From -- ./inp_files/3393.got.cif
#   From: 2010.03.12/outbox.cif.g09.slc.cpg/sg4_2_cif.got.tgz:3393.got - 2010.03.31 09:31:35.
