data_PCOD8047804
_publ_section_title
;
Structure prediction by ZEFSAII (Michael W. Deem and Ramdas Pophale) SiO2 
 PCOD8047804
Probable space group: P 21
;
_chemical_formula_sum "Si O2"
_cell_formula_units_Z 16
_cell_length_a 9.387544
_cell_length_b 8.232684
_cell_length_c 11.452418
_cell_angle_alpha 90.000000
_cell_angle_beta 50.590151
_cell_angle_gamma 90.000000
_cell_volume 683.847198
_symmetry_space_group_name_H-M "P 21"
_symmetry_group_IT_number 4
_symmetry_cell_setting 'monoclinic'
loop_
_space_group_symop_operation_xyz
x,y,z
-x,1/2+y,-z
loop_
_atom_site_type_symbol
_atom_site_label
_atom_site_fract_x
_atom_site_fract_y
_atom_site_fract_z
Si Si1 0.223876 0.437290 0.916191
Si Si2 0.420888 0.939227 0.896986
Si Si3 0.881512 0.253367 0.418781
Si Si4 0.001912 0.611547 0.413469
Si Si5 0.613907 0.759358 0.584150
Si Si6 0.956387 0.632101 0.898990
Si Si7 0.317193 0.641891 0.088936
Si Si8 0.506562 0.901782 0.410667
O O1 0.381748 0.341214 0.761566
O O2 0.130997 0.565087 0.877248
O O3 0.071692 0.311596 0.036806
O O4 0.316126 0.525650 0.977582
O O5 0.488830 0.850248 0.744571
O O6 0.567998 0.070712 0.862729
O O7 0.410819 0.809840 0.006339
O O8 0.221149 0.020208 0.985379
O O9 0.976539 0.420832 0.407612
O O10 0.677305 0.294969 0.480801
O O11 0.876800 0.135101 0.532968
O O12 0.997124 0.155430 0.261449
O O13 0.816030 0.715814 0.526735
O O14 0.110830 0.676803 0.243051
O O15 0.627337 0.876455 0.464683
O O16 0.522872 0.592447 0.589911
#
# Coordination Sequence:
#
# PCOD8047804 Si02
#       8
#     2   2   2   2   2   2   2   2
#     4  12  27  48  73 110 149 199 247 312 377 451
#     4  12  29  48  78 109 155 196 253 312 382 453
#     4  11  27  48  76 111 147 200 244 316 373 456
#     4  11  27  47  76 107 155 190 258 304 378 446
#     4  11  27  48  76 111 147 200 244 316 373 456
#     4  12  29  48  78 109 155 196 253 312 382 453
#     4  12  27  48  73 110 149 199 247 312 377 451
#     4  11  27  47  76 107 155 190 258 304 378 446
#
# _framework density 23.397040000000001
#
# number of rings (size 3 to 8) (size 9 to 14) (size 15 to 20)
#    0.000    0.500    2.500    3.000   14.000    2.000 
#    0.000    0.000    0.000    0.000    0.000    0.000 
#    0.000    0.000    0.000    0.000    0.000    0.000 
#
# Total GULP energy -198472.154461 kJ/mol
# GULP energy per Si atom -12404.509654 kJ/mol
# Density = 2.334379 g / cm^3
# Si number density = 23.397040 Si / 1000 Ang^3
#
#
#
# Elastic Constant Matrix: (Units=GPa)
#
#
# Indices 1 2 3 4 5 6 
#
# 1 81.5030 22.5198 21.9281 0.0000 8.0263 0.0000
# 2 22.5198 37.6336 -2.6395 0.0000 -1.2310 0.0000
# 3 21.9281 -2.6395 115.7814 0.0000 4.3197 0.0000
# 4 0.0000 0.0000 0.0000 51.2557 0.0000 0.1544
# 5 8.0263 -1.2310 4.3197 0.0000 36.4945 0.0000
# 6 0.0000 0.0000 0.0000 0.1544 0.0000 38.9173
#
#
#
# Elastic Compliance Matrix: (Units=1/GPa)
#
#
# Indices 1 2 3 4 5 6 
#
# 1 0.016253 -0.010064 -0.003176 0.000000 -0.003538 0.000000
# 2 -0.010064 0.032872 0.002543 0.000000 0.003021 0.000000
# 3 -0.003176 0.002543 0.009308 0.000000 -0.000318 0.000000
# 4 0.000000 0.000000 0.000000 0.019510 0.000000 -0.000077
# 5 -0.003538 0.003021 -0.000318 0.000000 0.028319 0.000000
# 6 0.000000 0.000000 0.000000 -0.000077 0.000000 0.025696
#
#
# Mechanical properties :
#
#
# Convention : Reuss Voigt Hill
#
# Bulk Modulus (GPa) = 26.99887 35.39277 31.19582
# Shear Modulus (GPa) = 30.17529 38.20748 34.19138
#
# Velocity S-wave (km/s) = 3.59514 4.04543 3.82691
# Velocity P-wave (km/s) = 5.36637 6.08116 5.73491
#
# Compressibility (1/GPa) = 0.03703859
#
# Stress axis : x y z
#
# Youngs Moduli (GPa) = 61.52661 30.42145 107.43189
#
# Poissons Ratio (x) = 0.30617 0.34117
# Poissons Ratio (y) = 0.61922 -0.27317
# Poissons Ratio (z) = 0.19539 -0.07735
#
# Static dielectric constant tensor:
#      x y z
#    x 4.045390 0.000000 -0.028560 
#    y 0.000000 4.256140 0.000000 
#    z -0.028560 0.000000 4.375340 
# 
# 
# High freq. dielectric constant tensor:
#      x y z
#    x 1.929040 0.000000 0.001060 
#    y 0.000000 1.934930 0.000000 
#    z 0.001060 0.000000 1.942030 
# 
# From -- ./inp_files/5513.got.cif
#   From: 2010.03.12/outbox.cif.g09.slc.cpg/sg4_3_cif.got.tgz:5513.got - 2010.03.31 09:31:35.
