data_PCOD8047957
_publ_section_title
;
Structure prediction by ZEFSAII (Michael W. Deem and Ramdas Pophale) SiO2 
 PCOD8047957
Probable space group: P 21
;
_chemical_formula_sum "Si O2"
_cell_formula_units_Z 16
_cell_length_a 8.417535
_cell_length_b 8.835574
_cell_length_c 11.487612
_cell_angle_alpha 90.000000
_cell_angle_beta 46.089303
_cell_angle_gamma 90.000000
_cell_volume 615.511553
_symmetry_space_group_name_H-M "P 21"
_symmetry_group_IT_number 4
_symmetry_cell_setting 'monoclinic'
loop_
_space_group_symop_operation_xyz
x,y,z
-x,1/2+y,-z
loop_
_atom_site_type_symbol
_atom_site_label
_atom_site_fract_x
_atom_site_fract_y
_atom_site_fract_z
Si Si1 0.403950 0.278490 0.056405
Si Si2 0.489785 0.117224 0.637523
Si Si3 0.080917 0.294250 0.585326
Si Si4 0.789301 0.455279 0.908960
Si Si5 0.383887 0.398233 0.828592
Si Si6 0.832997 0.993643 0.653990
Si Si7 0.436694 0.677890 0.654447
Si Si8 0.115307 0.921444 0.885725
O O1 0.226798 0.390593 0.204394
O O2 0.328254 0.103647 0.090384
O O3 0.626732 0.310957 0.016081
O O4 0.508141 0.335742 0.879276
O O5 0.401366 0.282493 0.713719
O O6 0.619725 0.120958 0.448310
O O7 0.630600 0.049280 0.674177
O O8 0.263607 0.025565 0.725825
O O9 0.013653 0.384864 0.502341
O O10 0.347363 0.284833 0.458683
O O11 0.001079 0.397957 0.731748
O O12 0.970437 0.130637 0.637432
O O13 0.870980 0.500368 0.994471
O O14 0.488758 0.549460 0.723393
O O15 0.141451 0.413170 0.010607
O O16 0.217692 0.755290 0.816708
#
# Coordination Sequence:
#
# PCOD8047957 Si02
#       8
#     2   2   2   2   2   2   2   2
#     4  12  26  49  77 113 151 201 256 316 372 454
#     4  12  25  53  70 111 151 198 248 316 378 443
#     4  12  28  48  76 113 152 200 250 312 388 451
#     4  12  26  48  79 108 156 198 257 313 375 452
#     4  12  28  46  78 110 147 200 258 306 376 458
#     4  12  28  49  75 112 152 200 249 313 386 452
#     4  12  29  47  78 107 155 196 254 316 379 452
#     4  12  26  50  73 110 146 203 252 310 380 440
#
# _framework density 25.994638999999999
#
# number of rings (size 3 to 8) (size 9 to 14) (size 15 to 20)
#    0.000    0.000    3.750    4.500   12.250    1.000 
#    0.000    0.000    0.000    0.000    0.000    0.000 
#    0.000    0.000    0.000    0.000    0.000    0.000 
#
# Total GULP energy -198296.928701 kJ/mol
# GULP energy per Si atom -12393.558044 kJ/mol
# Density = 2.593547 g / cm^3
# Si number density = 25.994639 Si / 1000 Ang^3
#
#
#
# Elastic Constant Matrix: (Units=GPa)
#
#
# Indices 1 2 3 4 5 6 
#
# 1 36.9552 7.4064 11.7388 0.0000 11.2805 0.0000
# 2 7.4064 117.2121 40.3977 0.0000 5.0295 0.0000
# 3 11.7388 40.3977 126.0062 0.0000 14.5726 0.0000
# 4 0.0000 0.0000 0.0000 58.0013 0.0000 -4.5360
# 5 11.2805 5.0295 14.5726 0.0000 39.6043 0.0000
# 6 0.0000 0.0000 0.0000 -4.5360 0.0000 24.0439
#
#
#
# Elastic Compliance Matrix: (Units=1/GPa)
#
#
# Indices 1 2 3 4 5 6 
#
# 1 0.030171 -0.001027 -0.001569 0.000000 -0.007886 0.000000
# 2 -0.001027 0.009627 -0.003011 0.000000 0.000178 0.000000
# 3 -0.001569 -0.003011 0.009350 0.000000 -0.002611 0.000000
# 4 0.000000 0.000000 0.000000 0.017499 0.000000 0.003301
# 5 -0.007886 0.000178 -0.002611 0.000000 0.028434 0.000000
# 6 0.000000 0.000000 0.000000 0.003301 0.000000 0.042213
#
#
# Mechanical properties :
#
#
# Convention : Reuss Voigt Hill
#
# Bulk Modulus (GPa) = 26.36306 44.36216 35.36261
# Shear Modulus (GPa) = 31.02628 39.03862 35.03245
#
# Velocity S-wave (km/s) = 3.45855 3.87950 3.67506
# Velocity P-wave (km/s) = 5.11004 6.09675 5.62507
#
# Compressibility (1/GPa) = 0.03793187
#
# Stress axis : x y z
#
# Youngs Moduli (GPa) = 33.14411 103.87850 106.95576
#
# Poissons Ratio (x) = 0.10670 0.16786
# Poissons Ratio (y) = 0.03404 0.32207
# Poissons Ratio (z) = 0.05202 0.31280
#
# Static dielectric constant tensor:
#      x y z
#    x 4.403190 0.000000 0.130040 
#    y 0.000000 4.804070 0.000000 
#    z 0.130040 0.000000 4.903160 
# 
# 
# High freq. dielectric constant tensor:
#      x y z
#    x 2.025290 0.000000 0.010280 
#    y 0.000000 2.053850 0.000000 
#    z 0.010280 0.000000 2.058640 
# 
# From -- ./inp_files/11009.got.cif
#   From: 2010.03.12/outbox.cif.g09.slc.cpg/sg4_6_cif.got.tgz:11009.got - 2010.03.31 09:31:35.
