data_PCOD8047876
_publ_section_title
;
Structure prediction by ZEFSAII (Michael W. Deem and Ramdas Pophale) SiO2 
 PCOD8047876
Probable space group: P 21
;
_chemical_formula_sum "Si O2"
_cell_formula_units_Z 12
_cell_length_a 18.968410
_cell_length_b 5.201343
_cell_length_c 19.524866
_cell_angle_alpha 90.000000
_cell_angle_beta 165.414461
_cell_angle_gamma 90.000000
_cell_volume 485.102501
_symmetry_space_group_name_H-M "P 21"
_symmetry_group_IT_number 4
_symmetry_cell_setting 'monoclinic'
loop_
_space_group_symop_operation_xyz
x,y,z
-x,1/2+y,-z
loop_
_atom_site_type_symbol
_atom_site_label
_atom_site_fract_x
_atom_site_fract_y
_atom_site_fract_z
Si Si1 0.644442 0.348680 0.203779
Si Si2 0.189099 0.164431 0.509718
Si Si3 0.123256 0.065269 0.707626
Si Si4 0.791740 0.101813 0.020971
Si Si5 0.480767 0.634456 0.525844
Si Si6 0.892857 0.607187 0.033182
O O1 0.788423 0.535011 0.394810
O O2 0.648959 0.428578 0.128228
O O3 0.853501 0.107444 0.405904
O O4 0.320191 0.298433 0.921023
O O5 0.499467 0.214383 0.774545
O O6 0.996029 0.418219 0.338500
O O7 0.011290 0.009630 0.286051
O O8 0.920735 0.340251 0.100585
O O9 0.740190 0.843240 0.928842
O O10 0.423530 0.393063 0.422576
O O11 0.203286 0.701013 0.307362
O O12 0.725319 0.548271 0.806666
#
# Coordination Sequence:
#
# PCOD8047876 Si02
#       6
#     2   2   2   2   2   2
#     4  12  26  45  70 100 139 179 245 328 396 454
#     4  12  28  47  68 105 132 204 248 300 380 466
#     4  12  26  45  70 100 139 179 245 328 396 454
#     4  12  28  47  74 101 156 200 246 298 362 454
#     4  12  24  45  80 113 146 190 240 296 358 428
#     4  12  26  49  70 113 152 194 238 300 358 428
#
# _framework density 24.73704
#
# number of rings (size 3 to 8) (size 9 to 14) (size 15 to 20)
#    0.000    0.000    1.667    8.000    9.333    0.000 
#    0.000    0.000    0.000    0.000    0.000    0.000 
#    0.000    0.000    0.000    0.000    0.000    0.000 
#
# Total GULP energy -148774.622049 kJ/mol
# GULP energy per Si atom -12397.885171 kJ/mol
# Density = 2.468074 g / cm^3
# Si number density = 24.737040 Si / 1000 Ang^3
#
#
#
# Elastic Constant Matrix: (Units=GPa)
#
#
# Indices 1 2 3 4 5 6 
#
# 1 87.7156 32.0417 24.9458 0.0000 10.3478 0.0000
# 2 32.0417 93.0488 16.2429 0.0000 1.4554 0.0000
# 3 24.9458 16.2429 133.5613 0.0000 4.8563 0.0000
# 4 0.0000 0.0000 0.0000 38.3566 0.0000 7.1479
# 5 10.3478 1.4554 4.8563 0.0000 41.6501 0.0000
# 6 0.0000 0.0000 0.0000 7.1479 0.0000 32.3194
#
#
#
# Elastic Compliance Matrix: (Units=1/GPa)
#
#
# Indices 1 2 3 4 5 6 
#
# 1 0.013929 -0.004407 -0.001954 0.000000 -0.003079 0.000000
# 2 -0.004407 0.012377 -0.000709 0.000000 0.000745 0.000000
# 3 -0.001954 -0.000709 0.007953 0.000000 -0.000417 0.000000
# 4 0.000000 0.000000 0.000000 0.027192 0.000000 -0.006014
# 5 -0.003079 0.000745 -0.000417 0.000000 0.024797 0.000000
# 6 0.000000 0.000000 0.000000 -0.006014 0.000000 0.032271
#
#
# Mechanical properties :
#
#
# Convention : Reuss Voigt Hill
#
# Bulk Modulus (GPa) = 49.70353 51.19850 50.45102
# Shear Modulus (GPa) = 35.87659 38.53824 37.20741
#
# Velocity S-wave (km/s) = 3.81244 3.95133 3.88250
# Velocity P-wave (km/s) = 6.28617 6.44665 6.36692
#
# Compressibility (1/GPa) = 0.02011929
#
# Stress axis : x y z
#
# Youngs Moduli (GPa) = 71.79114 80.79585 125.73082
#
# Poissons Ratio (x) = 0.35610 0.24564
# Poissons Ratio (y) = 0.31641 0.08916
# Poissons Ratio (z) = 0.14026 0.05729
#
# Static dielectric constant tensor:
#      x y z
#    x 4.476920 0.000000 -0.033970 
#    y 0.000000 4.323390 0.000000 
#    z -0.033970 0.000000 4.753700 
# 
# 
# High freq. dielectric constant tensor:
#      x y z
#    x 1.989770 0.000000 0.002100 
#    y 0.000000 1.977380 0.000000 
#    z 0.002100 0.000000 2.008840 
# 
# From -- ./inp_files/3936.got.cif
#   From: 2010.03.12/outbox.cif.g09.slc.cpg/sg4_2_cif.got.tgz:3936.got - 2010.03.31 09:31:35.
