data_PCOD8047000
_publ_section_title
;
Structure prediction by ZEFSAII (Michael W. Deem and Ramdas Pophale) SiO2 
 PCOD8047000
Probable space group: P 21
;
_chemical_formula_sum "Si O2"
_cell_formula_units_Z 16
_cell_length_a 11.531552
_cell_length_b 7.729633
_cell_length_c 11.537075
_cell_angle_alpha 90.000000
_cell_angle_beta 140.936372
_cell_angle_gamma 90.000000
_cell_volume 648.050815
_symmetry_space_group_name_H-M "P 21"
_symmetry_group_IT_number 4
_symmetry_cell_setting 'monoclinic'
loop_
_space_group_symop_operation_xyz
x,y,z
-x,1/2+y,-z
loop_
_atom_site_type_symbol
_atom_site_label
_atom_site_fract_x
_atom_site_fract_y
_atom_site_fract_z
Si Si1 0.897726 0.420040 0.089791
Si Si2 0.131614 0.855395 0.511624
Si Si3 0.245103 0.499156 0.496847
Si Si4 0.330238 0.784730 0.889452
Si Si5 0.062310 0.291932 0.999907
Si Si6 0.281801 0.401832 0.777189
Si Si7 0.394043 0.336952 0.399473
Si Si8 0.239270 0.980862 0.375697
O O1 0.714379 0.366483 0.018438
O O2 0.889621 0.607846 0.021348
O O3 0.055206 0.412626 0.308640
O O4 0.939862 0.275926 0.023433
O O5 0.219556 0.697980 0.508955
O O6 0.223159 0.892548 0.706714
O O7 0.186371 0.015426 0.469923
O O8 0.914958 0.813923 0.353206
O O9 0.318972 0.406997 0.669179
O O10 0.387886 0.474139 0.501573
O O11 0.269300 0.587556 0.829604
O O12 0.550054 0.794274 0.037138
O O13 0.950814 0.415125 0.827443
O O14 0.253993 0.387341 0.185705
O O15 0.602668 0.333384 0.516605
O O16 0.322696 0.152279 0.387290
#
# Coordination Sequence:
#
# PCOD8047000 Si02
#       8
#     2   2   2   2   2   2   2   2
#     4  11  23  48  75 105 151 191 251 302 371 436
#     4  11  25  47  71 108 145 196 250 304 368 441
#     4  10  23  46  75  95 148 192 238 306 364 433
#     4  11  28  47  74 111 147 199 245 310 371 440
#     4  11  25  45  74 105 146 196 241 307 371 437
#     4  11  27  46  75 110 147 194 250 297 374 443
#     4  11  27  45  70 111 142 198 249 306 376 442
#     4  12  26  44  72 105 150 192 250 304 375 444
#
# _framework density 24.689423999999999
#
# number of rings (size 3 to 8) (size 9 to 14) (size 15 to 20)
#    0.000    1.000    3.750    0.750    8.750    4.000 
#    0.000    0.000    0.000    0.000    0.000    0.000 
#    0.000    0.000    0.000    0.000    0.000    0.000 
#
# Total GULP energy -198303.636602 kJ/mol
# GULP energy per Si atom -12393.977288 kJ/mol
# Density = 2.463323 g / cm^3
# Si number density = 24.689424 Si / 1000 Ang^3
#
#
#
# Elastic Constant Matrix: (Units=GPa)
#
#
# Indices 1 2 3 4 5 6 
#
# 1 121.0691 16.9814 53.4531 0.0000 -8.6639 0.0000
# 2 16.9814 62.1360 27.3698 0.0000 -13.5348 0.0000
# 3 53.4531 27.3698 113.9731 0.0000 -6.9634 0.0000
# 4 0.0000 0.0000 0.0000 29.6566 0.0000 -3.6494
# 5 -8.6639 -13.5348 -6.9634 0.0000 34.2513 0.0000
# 6 0.0000 0.0000 0.0000 -3.6494 0.0000 34.2138
#
#
#
# Elastic Compliance Matrix: (Units=1/GPa)
#
#
# Indices 1 2 3 4 5 6 
#
# 1 0.010522 -0.000461 -0.004731 0.000000 0.001517 0.000000
# 2 -0.000461 0.019474 -0.004048 0.000000 0.006756 0.000000
# 3 -0.004731 -0.004048 0.011942 0.000000 -0.000368 0.000000
# 4 0.000000 0.000000 0.000000 0.034168 0.000000 0.003645
# 5 0.001517 0.006756 -0.000368 0.000000 0.032175 0.000000
# 6 0.000000 0.000000 0.000000 0.003645 0.000000 0.029617
#
#
# Mechanical properties :
#
#
# Convention : Reuss Voigt Hill
#
# Bulk Modulus (GPa) = 42.62799 54.75408 48.69103
# Shear Modulus (GPa) = 30.45119 32.91595 31.68357
#
# Velocity S-wave (km/s) = 3.51575 3.65526 3.58618
# Velocity P-wave (km/s) = 5.81238 6.32771 6.07551
#
# Compressibility (1/GPa) = 0.02345877
#
# Stress axis : x y z
#
# Youngs Moduli (GPa) = 95.03969 51.34992 83.73463
#
# Poissons Ratio (x) = 0.02367 0.39618
# Poissons Ratio (y) = 0.04381 0.33893
# Poissons Ratio (z) = 0.44967 0.20785
#
# Static dielectric constant tensor:
#      x y z
#    x 4.831500 0.000000 -0.141030 
#    y 0.000000 4.231940 0.000000 
#    z -0.141030 0.000000 4.796100 
# 
# 
# High freq. dielectric constant tensor:
#      x y z
#    x 1.989000 0.000000 -0.006860 
#    y 0.000000 1.969480 0.000000 
#    z -0.006860 0.000000 1.989980 
# 
# From -- ./inp_files/12052.got.cif
#   From: 2010.03.12/outbox.cif.g09.slc.cpg/sg4_7_cif.got.tgz:12052.got - 2010.03.31 09:31:35.
