data_PCOD8047906
_publ_section_title
;
Structure prediction by ZEFSAII (Michael W. Deem and Ramdas Pophale) SiO2 
 PCOD8047906
Probable space group: P 21
;
_chemical_formula_sum "Si O2"
_cell_formula_units_Z 16
_cell_length_a 9.588637
_cell_length_b 15.327449
_cell_length_c 9.600063
_cell_angle_alpha 90.000000
_cell_angle_beta 29.816386
_cell_angle_gamma 90.000000
_cell_volume 701.538121
_symmetry_space_group_name_H-M "P 21"
_symmetry_group_IT_number 4
_symmetry_cell_setting 'monoclinic'
loop_
_space_group_symop_operation_xyz
x,y,z
-x,1/2+y,-z
loop_
_atom_site_type_symbol
_atom_site_label
_atom_site_fract_x
_atom_site_fract_y
_atom_site_fract_z
Si Si1 0.903273 0.667930 0.372733
Si Si2 0.591933 0.286058 0.137202
Si Si3 0.582345 0.377302 0.439710
Si Si4 0.172740 0.321911 0.019216
Si Si5 0.453984 0.417136 0.028748
Si Si6 0.989772 0.626573 0.822818
Si Si7 0.971331 0.532260 0.548271
Si Si8 0.427129 0.075661 0.585924
O O1 0.704433 0.737536 0.620744
O O2 0.026028 0.602184 0.380238
O O3 0.735349 0.615850 0.402076
O O4 0.160088 0.716045 0.076346
O O5 0.610819 0.340779 0.261116
O O6 0.624423 0.350269 0.978124
O O7 0.481695 0.477061 0.525424
O O8 0.880542 0.372742 0.258648
O O9 0.344433 0.321710 0.725589
O O10 0.361224 0.369417 0.969397
O O11 0.119590 0.223324 0.112215
O O12 0.188029 0.453061 0.343541
O O13 0.655910 0.496534 0.811198
O O14 0.291648 0.632192 0.636034
O O15 0.028060 0.575813 0.646731
O O16 0.767073 0.574921 0.109404
#
# Coordination Sequence:
#
# PCOD8047906 Si02
#       8
#     2   2   2   2   2   2   2   2
#     4  12  25  44  68  99 135 176 221 274 332 394
#     4  12  25  44  68  99 135 176 221 274 332 394
#     4  12  25  44  69  99 134 175 221 274 332 395
#     4  12  25  44  69  99 134 176 223 274 330 394
#     4  12  26  46  69  99 135 177 223 274 331 395
#     4  12  25  44  69  99 134 176 223 274 330 394
#     4  12  26  46  69  99 135 177 223 274 331 395
#     4  12  25  44  69  99 134 175 221 274 332 395
#
# _framework density 22.807027999999999
#
# number of rings (size 3 to 8) (size 9 to 14) (size 15 to 20)
#    0.000    0.000    0.000   12.000    0.000    2.000 
#    0.000    0.000    0.000    0.000    0.000    0.000 
#    0.000    0.000    0.000    0.000    0.000    0.000 
#
# Total GULP energy -198606.120849 kJ/mol
# GULP energy per Si atom -12412.882553 kJ/mol
# Density = 2.275512 g / cm^3
# Si number density = 22.807028 Si / 1000 Ang^3
#
#
#
# Elastic Constant Matrix: (Units=GPa)
#
#
# Indices 1 2 3 4 5 6 
#
# 1 75.8117 28.3468 20.9038 0.0000 3.9030 0.0000
# 2 28.3468 85.1625 16.2909 0.0000 11.1068 0.0000
# 3 20.9038 16.2909 102.4604 0.0000 -7.2713 0.0000
# 4 0.0000 0.0000 0.0000 32.2172 0.0000 1.1545
# 5 3.9030 11.1068 -7.2713 0.0000 22.6767 0.0000
# 6 0.0000 0.0000 0.0000 1.1545 0.0000 33.0950
#
#
#
# Elastic Compliance Matrix: (Units=1/GPa)
#
#
# Indices 1 2 3 4 5 6 
#
# 1 0.015667 -0.004557 -0.002563 0.000000 -0.001287 0.000000
# 2 -0.004557 0.014520 -0.001871 0.000000 -0.006927 0.000000
# 3 -0.002563 -0.001871 0.010925 0.000000 0.004861 0.000000
# 4 0.000000 0.000000 0.000000 0.031078 0.000000 -0.001084
# 5 -0.001287 -0.006927 0.004861 0.000000 0.049271 0.000000
# 6 0.000000 0.000000 0.000000 -0.001084 0.000000 0.030254
#
#
# Mechanical properties :
#
#
# Convention : Reuss Voigt Hill
#
# Bulk Modulus (GPa) = 43.23107 43.83531 43.53319
# Shear Modulus (GPa) = 28.18360 30.79064 29.48712
#
# Velocity S-wave (km/s) = 3.51913 3.67829 3.59959
# Velocity P-wave (km/s) = 5.95891 6.10750 6.03366
#
# Compressibility (1/GPa) = 0.02313151
#
# Stress axis : x y z
#
# Youngs Moduli (GPa) = 63.82666 68.86892 91.53170
#
# Poissons Ratio (x) = 0.31383 0.23462
# Poissons Ratio (y) = 0.29085 0.17122
# Poissons Ratio (z) = 0.16360 0.12883
#
# Static dielectric constant tensor:
#      x y z
#    x 4.077630 0.000000 -0.008320 
#    y 0.000000 4.290760 0.000000 
#    z -0.008320 0.000000 4.460050 
# 
# 
# High freq. dielectric constant tensor:
#      x y z
#    x 1.911030 0.000000 0.000000 
#    y 0.000000 1.914470 0.000000 
#    z 0.000000 0.000000 1.915050 
# 
# From -- ./inp_files/6901.got.cif
#   From: 2010.03.12/outbox.cif.g09.slc.cpg/sg4_4_cif.got.tgz:6901.got - 2010.03.31 09:31:35.
