data_PCOD8047496
_publ_section_title
;
Structure prediction by ZEFSAII (Michael W. Deem and Ramdas Pophale) SiO2 
 PCOD8047496
Probable space group: P 21
;
_chemical_formula_sum "Si O2"
_cell_formula_units_Z 16
_cell_length_a 9.270516
_cell_length_b 8.446507
_cell_length_c 16.942714
_cell_angle_alpha 90.000000
_cell_angle_beta 148.845396
_cell_angle_gamma 90.000000
_cell_volume 686.353353
_symmetry_space_group_name_H-M "P 21"
_symmetry_group_IT_number 4
_symmetry_cell_setting 'monoclinic'
loop_
_space_group_symop_operation_xyz
x,y,z
-x,1/2+y,-z
loop_
_atom_site_type_symbol
_atom_site_label
_atom_site_fract_x
_atom_site_fract_y
_atom_site_fract_z
Si Si1 0.970957 0.748990 0.894273
Si Si2 0.945862 0.733080 0.380222
Si Si3 0.136939 0.867922 0.634922
Si Si4 0.523064 0.355941 0.435244
Si Si5 0.718205 0.758180 0.938283
Si Si6 0.531689 0.442349 0.912180
Si Si7 0.234246 0.164935 0.424535
Si Si8 0.145278 0.479488 0.871315
O O1 0.654923 0.771018 0.716650
O O2 0.957197 0.747922 0.983020
O O3 0.134289 0.592806 0.942637
O O4 0.146139 0.890268 0.936457
O O5 0.037189 0.821417 0.501998
O O6 0.651375 0.804365 0.213924
O O7 0.959782 0.545435 0.393454
O O8 0.169980 0.779566 0.418910
O O9 0.000871 0.737924 0.629876
O O10 0.471047 0.878977 0.799235
O O11 0.383367 0.313813 0.453786
O O12 0.544467 0.546903 0.428982
O O13 0.539250 0.597755 0.862201
O O14 0.867794 0.807454 0.091535
O O15 0.431369 0.483402 0.954282
O O16 0.104752 0.037219 0.301694
#
# Coordination Sequence:
#
# PCOD8047496 Si02
#       8
#     2   2   2   2   2   2   2   2
#     4  11  26  45  70 104 148 190 246 305 371 437
#     4  12  25  46  75 105 143 194 246 303 377 444
#     4  12  25  45  75 105 145 196 245 306 368 449
#     4  11  23  45  70 101 145 181 243 309 367 440
#     4  12  24  45  72 101 150 193 244 311 367 440
#     4  12  25  47  72 105 145 194 251 300 374 452
#     4  11  24  46  69 109 140 192 247 307 370 444
#     4  11  24  45  71 102 144 192 246 299 368 442
#
# _framework density 23.311606999999999
#
# number of rings (size 3 to 8) (size 9 to 14) (size 15 to 20)
#    0.000    0.500    3.750    4.500    1.750    1.000 
#    4.500    0.000    0.000    0.000    0.000    0.000 
#    0.000    0.000    0.000    0.000    0.000    0.000 
#
# Total GULP energy -198293.011974 kJ/mol
# GULP energy per Si atom -12393.313248 kJ/mol
# Density = 2.325855 g / cm^3
# Si number density = 23.311607 Si / 1000 Ang^3
#
#
#
# Elastic Constant Matrix: (Units=GPa)
#
#
# Indices 1 2 3 4 5 6 
#
# 1 153.4693 41.9815 19.9244 0.0000 17.1755 0.0000
# 2 41.9815 123.0097 30.9935 0.0000 6.5449 0.0000
# 3 19.9244 30.9935 56.2874 0.0000 8.0650 0.0000
# 4 0.0000 0.0000 0.0000 39.2171 0.0000 0.3666
# 5 17.1755 6.5449 8.0650 0.0000 31.3941 0.0000
# 6 0.0000 0.0000 0.0000 0.3666 0.0000 45.1498
#
#
#
# Elastic Compliance Matrix: (Units=1/GPa)
#
#
# Indices 1 2 3 4 5 6 
#
# 1 0.007627 -0.002164 -0.001012 0.000000 -0.003461 0.000000
# 2 -0.002164 0.010066 -0.004823 0.000000 0.000324 0.000000
# 3 -0.001012 -0.004823 0.021342 0.000000 -0.003923 0.000000
# 4 0.000000 0.000000 0.000000 0.025501 0.000000 -0.000207
# 5 -0.003461 0.000324 -0.003923 0.000000 0.034687 0.000000
# 6 0.000000 0.000000 0.000000 -0.000207 0.000000 0.022150
#
#
# Mechanical properties :
#
#
# Convention : Reuss Voigt Hill
#
# Bulk Modulus (GPa) = 43.40942 57.61836 50.51389
# Shear Modulus (GPa) = 34.47086 39.14332 36.80709
#
# Velocity S-wave (km/s) = 3.84956 4.10217 3.97787
# Velocity P-wave (km/s) = 6.19843 6.87076 6.54324
#
# Compressibility (1/GPa) = 0.02303648
#
# Stress axis : x y z
#
# Youngs Moduli (GPa) = 131.11958 99.34589 46.85546
#
# Poissons Ratio (x) = 0.21495 0.04743
# Poissons Ratio (y) = 0.28369 0.22599
# Poissons Ratio (z) = 0.13274 0.47916
#
# Static dielectric constant tensor:
#      x y z
#    x 4.375360 0.000000 0.150830 
#    y 0.000000 4.321300 0.000000 
#    z 0.150830 0.000000 3.988710 
# 
# 
# High freq. dielectric constant tensor:
#      x y z
#    x 1.934210 0.000000 0.010090 
#    y 0.000000 1.930370 0.000000 
#    z 0.010090 0.000000 1.907720 
# 
# From -- ./inp_files/5859.got.cif
#   From: 2010.03.12/outbox.cif.g09.slc.cpg/sg4_3_cif.got.tgz:5859.got - 2010.03.31 09:31:35.
