data_PCOD8047935
_publ_section_title
;
Structure prediction by ZEFSAII (Michael W. Deem and Ramdas Pophale) SiO2 
 PCOD8047935
Probable space group: P 21
;
_chemical_formula_sum "Si O2"
_cell_formula_units_Z 16
_cell_length_a 8.907186
_cell_length_b 8.448599
_cell_length_c 18.300882
_cell_angle_alpha 90.000000
_cell_angle_beta 149.098689
_cell_angle_gamma 90.000000
_cell_volume 707.276419
_symmetry_space_group_name_H-M "P 21"
_symmetry_group_IT_number 4
_symmetry_cell_setting 'monoclinic'
loop_
_space_group_symop_operation_xyz
x,y,z
-x,1/2+y,-z
loop_
_atom_site_type_symbol
_atom_site_label
_atom_site_fract_x
_atom_site_fract_y
_atom_site_fract_z
Si Si1 0.424597 0.938710 0.409341
Si Si2 0.953665 0.074823 0.559301
Si Si3 0.560957 0.089612 0.138029
Si Si4 0.505479 0.574752 0.411958
Si Si5 0.043885 0.435597 0.585027
Si Si6 0.547638 0.919863 0.846983
Si Si7 0.035440 0.421680 0.118309
Si Si8 0.867281 0.088274 0.109746
O O1 0.421771 0.752293 0.395872
O O2 0.745067 0.017838 0.537479
O O3 0.346165 0.976390 0.459873
O O4 0.188949 0.019026 0.257893
O O5 0.912460 0.260533 0.530173
O O6 0.810544 0.975629 0.432065
O O7 0.292085 0.039986 0.717701
O O8 0.604189 0.252168 0.200244
O O9 0.680940 0.103335 0.106001
O O10 0.735579 0.955307 0.255405
O O11 0.220280 0.048786 0.997967
O O12 0.226930 0.483154 0.265366
O O13 0.776907 0.564224 0.469641
O O14 0.783968 0.907665 0.881073
O O15 0.700244 0.972239 0.985456
O O16 0.893832 0.255841 0.081143
#
# Coordination Sequence:
#
# PCOD8047935 Si02
#       8
#     2   2   2   2   2   2   2   2
#     4  12  27  44  76 105 146 193 240 301 359 435
#     4  12  27  44  76 105 146 193 240 301 359 435
#     4  12  27  47  75 104 148 192 244 303 364 441
#     4  12  25  48  70 107 145 188 246 296 364 430
#     4  12  25  48  70 107 145 188 246 296 364 430
#     4  12  27  48  73 107 145 193 245 299 370 437
#     4  12  27  47  75 104 148 192 244 303 364 441
#     4  12  27  48  73 107 145 193 245 299 370 437
#
# _framework density 22.62199
#
# number of rings (size 3 to 8) (size 9 to 14) (size 15 to 20)
#    0.000    0.000    2.500    7.500    7.000    0.000 
#    0.000    0.000    0.000    0.000    0.000    0.000 
#    0.000    0.000    0.000    0.000    0.000    0.000 
#
# Total GULP energy -198488.202550 kJ/mol
# GULP energy per Si atom -12405.512659 kJ/mol
# Density = 2.257050 g / cm^3
# Si number density = 22.621990 Si / 1000 Ang^3
#
#
#
# Elastic Constant Matrix: (Units=GPa)
#
#
# Indices 1 2 3 4 5 6 
#
# 1 113.0114 34.6554 34.5686 0.0000 2.0650 0.0000
# 2 34.6554 104.6729 8.5366 0.0000 -5.3638 0.0000
# 3 34.5686 8.5366 114.5819 0.0000 -3.8280 0.0000
# 4 0.0000 0.0000 0.0000 36.3539 0.0000 -1.1944
# 5 2.0650 -5.3638 -3.8280 0.0000 35.2811 0.0000
# 6 0.0000 0.0000 0.0000 -1.1944 0.0000 39.8658
#
#
#
# Elastic Compliance Matrix: (Units=1/GPa)
#
#
# Indices 1 2 3 4 5 6 
#
# 1 0.010866 -0.003423 -0.003073 0.000000 -0.001490 0.000000
# 2 -0.003423 0.010759 0.000294 0.000000 0.001868 0.000000
# 3 -0.003073 0.000294 0.009675 0.000000 0.001274 0.000000
# 4 0.000000 0.000000 0.000000 0.027534 0.000000 0.000825
# 5 -0.001490 0.001868 0.001274 0.000000 0.028853 0.000000
# 6 0.000000 0.000000 0.000000 0.000825 0.000000 0.025109
#
#
# Mechanical properties :
#
#
# Convention : Reuss Voigt Hill
#
# Bulk Modulus (GPa) = 52.92501 54.19860 53.56181
# Shear Modulus (GPa) = 38.02319 39.26722 38.64520
#
# Velocity S-wave (km/s) = 4.10421 4.17081 4.13765
# Velocity P-wave (km/s) = 6.77537 6.87056 6.82313
#
# Compressibility (1/GPa) = 0.01889466
#
# Stress axis : x y z
#
# Youngs Moduli (GPa) = 92.03415 92.94824 103.35787
#
# Poissons Ratio (x) = 0.31817 0.31760
# Poissons Ratio (y) = 0.31504 -0.03034
# Poissons Ratio (z) = 0.28280 -0.02729
#
# Static dielectric constant tensor:
#      x y z
#    x 4.243450 0.000000 -0.056710 
#    y 0.000000 3.986180 0.000000 
#    z -0.056710 0.000000 4.004910 
# 
# 
# High freq. dielectric constant tensor:
#      x y z
#    x 1.913570 0.000000 -0.001720 
#    y 0.000000 1.901560 0.000000 
#    z -0.001720 0.000000 1.901000 
# 
# From -- ./inp_files/5382.got.cif
#   From: 2010.03.12/outbox.cif.g09.slc.cpg/sg4_3_cif.got.tgz:5382.got - 2010.03.31 09:31:35.
