data_PCOD8047673
_publ_section_title
;
Structure prediction by ZEFSAII (Michael W. Deem and Ramdas Pophale) SiO2 
 PCOD8047673
Probable space group: P 21
;
_chemical_formula_sum "Si O2"
_cell_formula_units_Z 10
_cell_length_a 4.967736
_cell_length_b 8.993289
_cell_length_c 8.855289
_cell_angle_alpha 90.000000
_cell_angle_beta 116.244394
_cell_angle_gamma 90.000000
_cell_volume 354.839186
_symmetry_space_group_name_H-M "P 21"
_symmetry_group_IT_number 4
_symmetry_cell_setting 'monoclinic'
loop_
_space_group_symop_operation_xyz
x,y,z
-x,1/2+y,-z
loop_
_atom_site_type_symbol
_atom_site_label
_atom_site_fract_x
_atom_site_fract_y
_atom_site_fract_z
Si Si1 0.514621 0.317180 0.706445
Si Si2 0.439972 0.011798 0.558999
Si Si3 0.005687 0.179142 0.044938
Si Si4 0.900075 0.406391 0.251126
Si Si5 0.683533 0.902582 0.038590
O O1 0.365534 0.188028 0.563394
O O2 0.602613 0.458618 0.623987
O O3 0.277403 0.375484 0.772917
O O4 0.793198 0.252097 0.864840
O O5 0.210509 0.913020 0.602852
O O6 0.787916 0.992699 0.694921
O O7 0.937482 0.238958 0.197192
O O8 0.963389 0.002101 0.044706
O O9 0.320485 0.246002 0.059549
O O10 0.633490 0.484222 0.083170
#
# Coordination Sequence:
#
# PCOD8047673 Si02
#       5
#     2   2   2   2   2
#     4  11  29  46  77 113 161 203 260 318 392 460
#     4  12  28  50  76 114 161 199 259 315 399 451
#     4  11  24  48  81 114 153 204 266 312 389 448
#     4  11  25  49  80 108 157 205 254 326 372 471
#     4  11  26  49  80 115 158 205 269 317 384 464
#
# _framework density 28.181781000000001
#
# number of rings (size 3 to 8) (size 9 to 14) (size 15 to 20)
#    0.000    0.800    4.000    0.000   11.200    3.200 
#    0.000    0.000    0.000    0.000    0.000    0.000 
#    0.000    0.000    0.000    0.000    0.000    0.000 
#
# Total GULP energy -123900.626654 kJ/mol
# GULP energy per Si atom -12390.062665 kJ/mol
# Density = 2.811764 g / cm^3
# Si number density = 28.181781 Si / 1000 Ang^3
#
#
#
# Elastic Constant Matrix: (Units=GPa)
#
#
# Indices 1 2 3 4 5 6 
#
# 1 97.0708 27.2836 23.4775 0.0000 -35.8151 0.0000
# 2 27.2836 103.5568 25.6496 0.0000 -24.6197 0.0000
# 3 23.4775 25.6496 102.3716 0.0000 -35.0102 0.0000
# 4 0.0000 0.0000 0.0000 38.6797 0.0000 -18.9192
# 5 -35.8151 -24.6197 -35.0102 0.0000 57.4844 0.0000
# 6 0.0000 0.0000 0.0000 -18.9192 0.0000 38.8858
#
#
#
# Elastic Compliance Matrix: (Units=1/GPa)
#
#
# Indices 1 2 3 4 5 6 
#
# 1 0.013657 -0.001748 -0.000051 0.000000 0.007729 0.000000
# 2 -0.001748 0.011139 -0.001429 0.000000 0.002812 0.000000
# 3 -0.000051 -0.001429 0.012527 0.000000 0.006986 0.000000
# 4 0.000000 0.000000 0.000000 0.033927 0.000000 0.016507
# 5 0.007729 0.002812 0.006986 0.000000 0.027671 0.000000
# 6 0.000000 0.000000 0.000000 0.016507 0.000000 0.033747
#
#
# Mechanical properties :
#
#
# Convention : Reuss Voigt Hill
#
# Bulk Modulus (GPa) = 32.39487 50.64670 41.52079
# Shear Modulus (GPa) = 33.46429 42.11590 37.79009
#
# Velocity S-wave (km/s) = 3.44967 3.86999 3.66586
# Velocity P-wave (km/s) = 5.23325 6.16275 5.71692
#
# Compressibility (1/GPa) = 0.03086908
#
# Stress axis : x y z
#
# Youngs Moduli (GPa) = 73.22152 89.77174 79.82715
#
# Poissons Ratio (x) = 0.15692 0.00405
# Poissons Ratio (y) = 0.12799 0.11404
# Poissons Ratio (z) = 0.00371 0.12824
#
# Static dielectric constant tensor:
#      x y z
#    x 5.314380 0.000000 -0.202630 
#    y 0.000000 5.039050 0.000000 
#    z -0.202630 0.000000 5.080480 
# 
# 
# High freq. dielectric constant tensor:
#      x y z
#    x 2.150890 0.000000 -0.015790 
#    y 0.000000 2.125980 0.000000 
#    z -0.015790 0.000000 2.139820 
# 
# From -- ./inp_files/957.got.cif
#   From: 2010.03.12/outbox.cif.g09.slc.cpg/sg4_1_cif.got.tgz:957.got - 2010.03.31 09:31:35.
