data_PCOD8047351
_publ_section_title
;
Structure prediction by ZEFSAII (Michael W. Deem and Ramdas Pophale) SiO2 
 PCOD8047351
Probable space group: P 21
;
_chemical_formula_sum "Si O2"
_cell_formula_units_Z 16
_cell_length_a 8.116423
_cell_length_b 7.977892
_cell_length_c 11.261964
_cell_angle_alpha 90.000000
_cell_angle_beta 114.934499
_cell_angle_gamma 90.000000
_cell_volume 661.262421
_symmetry_space_group_name_H-M "P 21"
_symmetry_group_IT_number 4
_symmetry_cell_setting 'monoclinic'
loop_
_space_group_symop_operation_xyz
x,y,z
-x,1/2+y,-z
loop_
_atom_site_type_symbol
_atom_site_label
_atom_site_fract_x
_atom_site_fract_y
_atom_site_fract_z
Si Si1 0.816580 0.692910 0.720760
Si Si2 0.219666 0.078381 0.837443
Si Si3 0.907790 0.356523 0.024135
Si Si4 0.203768 0.309208 0.535626
Si Si5 0.382428 0.624009 0.958954
Si Si6 0.942904 0.904207 0.179186
Si Si7 0.186041 0.924353 0.593180
Si Si8 0.427917 0.619976 0.694295
O O1 0.784796 0.823894 0.604581
O O2 0.630904 0.612825 0.708644
O O3 0.915680 0.772458 0.864110
O O4 0.949011 0.542638 0.710256
O O5 0.121691 0.248703 0.758882
O O6 0.172631 0.927743 0.732974
O O7 0.116581 0.045245 0.931830
O O8 0.435615 0.095241 0.911840
O O9 0.715163 0.282128 0.010182
O O10 0.921949 0.355968 0.887379
O O11 0.249960 0.113240 0.577675
O O12 0.343170 0.439008 0.636912
O O13 0.005446 0.367724 0.519708
O O14 0.244427 0.469951 0.936328
O O15 0.424693 0.649929 0.833688
O O16 0.328063 0.778170 0.600072
#
# Coordination Sequence:
#
# PCOD8047351 Si02
#       8
#     2   2   2   2   2   2   2   2
#     4  11  27  48  68 104 151 190 244 301 372 435
#     4  12  23  41  72 109 139 190 243 297 365 445
#     4  11  22  43  66 107 146 191 233 296 376 436
#     4  12  27  50  75 105 143 195 251 299 373 426
#     4  11  23  44  71 106 146 187 246 293 371 440
#     4  11  24  41  70 103 153 190 227 308 368 431
#     4  12  26  46  79 104 138 194 251 301 363 438
#     4  12  26  51  77 104 150 193 245 315 354 439
#
# _framework density 24.196142999999999
#
# number of rings (size 3 to 8) (size 9 to 14) (size 15 to 20)
#    0.000    0.500    3.750    5.250    5.250    1.000 
#    2.250    0.000    0.000    0.000    0.000    0.000 
#    0.000    0.000    0.000    0.000    0.000    0.000 
#
# Total GULP energy -198347.935415 kJ/mol
# GULP energy per Si atom -12396.745963 kJ/mol
# Density = 2.414107 g / cm^3
# Si number density = 24.196143 Si / 1000 Ang^3
#
#
#
# Elastic Constant Matrix: (Units=GPa)
#
#
# Indices 1 2 3 4 5 6 
#
# 1 105.2943 29.7942 20.0097 0.0000 26.1764 0.0000
# 2 29.7942 123.7354 10.8469 0.0000 17.5581 0.0000
# 3 20.0097 10.8469 51.8278 0.0000 13.5516 0.0000
# 4 0.0000 0.0000 0.0000 29.5312 0.0000 -7.9742
# 5 26.1764 17.5581 13.5516 0.0000 37.0977 0.0000
# 6 0.0000 0.0000 0.0000 -7.9742 0.0000 32.9908
#
#
#
# Elastic Compliance Matrix: (Units=1/GPa)
#
#
# Indices 1 2 3 4 5 6 
#
# 1 0.012173 -0.001738 -0.002549 0.000000 -0.006836 0.000000
# 2 -0.001738 0.008943 -0.000458 0.000000 -0.002839 0.000000
# 3 -0.002549 -0.000458 0.021944 0.000000 -0.006001 0.000000
# 4 0.000000 0.000000 0.000000 0.036227 0.000000 0.008756
# 5 -0.006836 -0.002839 -0.006001 0.000000 0.035315 0.000000
# 6 0.000000 0.000000 0.000000 0.008756 0.000000 0.032428
#
#
# Mechanical properties :
#
#
# Convention : Reuss Voigt Hill
#
# Bulk Modulus (GPa) = 29.78847 44.68436 37.23641
# Shear Modulus (GPa) = 29.81361 34.60438 32.20899
#
# Velocity S-wave (km/s) = 3.51403 3.78585 3.65247
# Velocity P-wave (km/s) = 5.36679 6.13334 5.76283
#
# Compressibility (1/GPa) = 0.03357004
#
# Stress axis : x y z
#
# Youngs Moduli (GPa) = 82.15202 111.81627 45.57141
#
# Poissons Ratio (x) = 0.19430 0.11614
# Poissons Ratio (y) = 0.14275 0.02089
# Poissons Ratio (z) = 0.20937 0.05126
#
# Static dielectric constant tensor:
#      x y z
#    x 4.228870 0.000000 0.025020 
#    y 0.000000 4.647930 0.000000 
#    z 0.025020 0.000000 4.275910 
# 
# 
# High freq. dielectric constant tensor:
#      x y z
#    x 1.959280 0.000000 -0.000230 
#    y 0.000000 1.974960 0.000000 
#    z -0.000230 0.000000 1.957940 
# 
# From -- ./inp_files/10906.got.cif
#   From: 2010.03.12/outbox.cif.g09.slc.cpg/sg4_6_cif.got.tgz:10906.got - 2010.03.31 09:31:35.
