data_PCOD8047688
_publ_section_title
;
Structure prediction by ZEFSAII (Michael W. Deem and Ramdas Pophale) SiO2 
 PCOD8047688
Probable space group: P 21
;
_chemical_formula_sum "Si O2"
_cell_formula_units_Z 16
_cell_length_a 5.732062
_cell_length_b 9.121054
_cell_length_c 12.156099
_cell_angle_alpha 90.000000
_cell_angle_beta 87.068473
_cell_angle_gamma 90.000000
_cell_volume 634.718900
_symmetry_space_group_name_H-M "P 21"
_symmetry_group_IT_number 4
_symmetry_cell_setting 'monoclinic'
loop_
_space_group_symop_operation_xyz
x,y,z
-x,1/2+y,-z
loop_
_atom_site_type_symbol
_atom_site_label
_atom_site_fract_x
_atom_site_fract_y
_atom_site_fract_z
Si Si1 0.680206 0.113020 0.485949
Si Si2 0.067394 0.420983 0.778059
Si Si3 0.321864 0.124302 0.313371
Si Si4 0.235385 0.697321 0.116584
Si Si5 0.341044 0.681325 0.873057
Si Si6 0.095142 0.960557 0.800642
Si Si7 0.029588 0.362986 0.429748
Si Si8 0.584094 0.685374 0.290312
O O1 0.545938 0.064371 0.376726
O O2 0.500038 0.118995 0.591645
O O3 0.801777 0.273620 0.476686
O O4 0.875094 0.985048 0.488130
O O5 0.239964 0.525751 0.839985
O O6 0.213409 0.307401 0.696812
O O7 0.880069 0.506694 0.706273
O O8 0.952618 0.328609 0.880896
O O9 0.412728 0.197954 0.196979
O O10 0.232417 0.249714 0.396279
O O11 0.371821 0.747590 0.223548
O O12 0.113058 0.538353 0.127716
O O13 0.389893 0.694374 0.002047
O O14 0.145803 0.800386 0.845931
O O15 0.028070 0.957209 0.675192
O O16 0.329566 0.057004 0.794439
#
# Coordination Sequence:
#
# PCOD8047688 Si02
#       8
#     2   2   2   2   2   2   2   2
#     4  12  29  50  81 112 152 201 253 306 386 450
#     4  11  26  50  71 111 153 195 254 315 371 452
#     4  12  27  48  75 109 155 197 255 309 382 451
#     4  11  26  46  81 109 150 197 251 314 378 454
#     4  12  25  47  78 112 148 200 253 311 384 451
#     4  11  24  51  71 108 155 193 250 312 378 444
#     4  12  28  52  74 111 151 201 249 320 369 452
#     4  11  27  50  73 110 152 200 253 309 380 448
#
# _framework density 25.208010999999999
#
# number of rings (size 3 to 8) (size 9 to 14) (size 15 to 20)
#    0.000    0.500    3.750    2.250    1.750   10.000 
#    0.000    0.000    0.000    0.000    0.000    0.000 
#    0.000    0.000    0.000    0.000    0.000    0.000 
#
# Total GULP energy -198393.705931 kJ/mol
# GULP energy per Si atom -12399.606621 kJ/mol
# Density = 2.515064 g / cm^3
# Si number density = 25.208011 Si / 1000 Ang^3
#
#
#
# Elastic Constant Matrix: (Units=GPa)
#
#
# Indices 1 2 3 4 5 6 
#
# 1 73.8150 11.2278 24.4931 0.0000 -4.2877 0.0000
# 2 11.2278 95.1249 12.9152 0.0000 1.5314 0.0000
# 3 24.4931 12.9152 120.4390 0.0000 -18.9481 0.0000
# 4 0.0000 0.0000 0.0000 31.3648 0.0000 2.2767
# 5 -4.2877 1.5314 -18.9481 0.0000 33.3730 0.0000
# 6 0.0000 0.0000 0.0000 2.2767 0.0000 44.3726
#
#
#
# Elastic Compliance Matrix: (Units=1/GPa)
#
#
# Indices 1 2 3 4 5 6 
#
# 1 0.014700 -0.001363 -0.002785 0.000000 0.000370 0.000000
# 2 -0.001363 0.010842 -0.001089 0.000000 -0.001291 0.000000
# 3 -0.002785 -0.001089 0.009814 0.000000 0.005264 0.000000
# 4 0.000000 0.000000 0.000000 0.032002 0.000000 -0.001642
# 5 0.000370 -0.001291 0.005264 0.000000 0.033060 0.000000
# 6 0.000000 0.000000 0.000000 -0.001642 0.000000 0.022621
#
#
# Mechanical properties :
#
#
# Convention : Reuss Voigt Hill
#
# Bulk Modulus (GPa) = 40.18752 42.96122 41.57437
# Shear Modulus (GPa) = 35.25917 37.87159 36.56538
#
# Velocity S-wave (km/s) = 3.74402 3.88024 3.81274
# Velocity P-wave (km/s) = 5.88788 6.09546 5.99257
#
# Compressibility (1/GPa) = 0.02488335
#
# Stress axis : x y z
#
# Youngs Moduli (GPa) = 68.02561 92.23450 101.89203
#
# Poissons Ratio (x) = 0.12571 0.28379
# Poissons Ratio (y) = 0.09271 0.11091
# Poissons Ratio (z) = 0.18946 0.10040
#
# Static dielectric constant tensor:
#      x y z
#    x 4.687120 0.000000 -0.161180 
#    y 0.000000 4.702130 0.000000 
#    z -0.161180 0.000000 4.317840 
# 
# 
# High freq. dielectric constant tensor:
#      x y z
#    x 2.010180 0.000000 -0.010320 
#    y 0.000000 2.018360 0.000000 
#    z -0.010320 0.000000 1.999490 
# 
# From -- ./inp_files/10301.got.cif
#   From: 2010.03.12/outbox.cif.g09.slc.cpg/sg4_6_cif.got.tgz:10301.got - 2010.03.31 09:31:35.
