data_PCOD8047195
_publ_section_title
;
Structure prediction by ZEFSAII (Michael W. Deem and Ramdas Pophale) SiO2 
 PCOD8047195
Probable space group: P 21
;
_chemical_formula_sum "Si O2"
_cell_formula_units_Z 12
_cell_length_a 12.414844
_cell_length_b 9.291844
_cell_length_c 5.305677
_cell_angle_alpha 90.000000
_cell_angle_beta 68.723381
_cell_angle_gamma 90.000000
_cell_volume 570.328463
_symmetry_space_group_name_H-M "P 21"
_symmetry_group_IT_number 4
_symmetry_cell_setting 'monoclinic'
loop_
_space_group_symop_operation_xyz
x,y,z
-x,1/2+y,-z
loop_
_atom_site_type_symbol
_atom_site_label
_atom_site_fract_x
_atom_site_fract_y
_atom_site_fract_z
Si Si1 0.213815 0.040570 0.972620
Si Si2 0.114612 0.792381 0.323657
Si Si3 0.094599 0.084716 0.563398
Si Si4 0.540926 0.639743 0.307775
Si Si5 0.311625 0.583223 0.274449
Si Si6 0.628591 0.957818 0.284738
O O1 0.170207 0.110178 0.749256
O O2 0.352334 0.040522 0.869706
O O3 0.165953 0.132845 0.252942
O O4 0.168701 0.875426 0.034718
O O5 0.218609 0.709592 0.371745
O O6 0.019519 0.679921 0.312432
O O7 0.063192 0.913975 0.558513
O O8 0.442532 0.647640 0.173679
O O9 0.586779 0.795777 0.333419
O O10 0.482504 0.564627 0.602607
O O11 0.289880 0.481999 0.538152
O O12 0.298865 0.490983 0.029065
#
# Coordination Sequence:
#
# PCOD8047195 Si02
#       6
#     2   2   2   2   2   2
#     4  10  26  40  73  94 139 167 222 278 331 391
#     4  10  26  46  72  94 137 171 231 274 331 386
#     4  10  26  43  72  95 130 179 226 272 334 379
#     4  10  26  42  69 101 137 175 221 265 342 393
#     4  10  26  39  71  98 138 171 220 271 334 392
#     4  10  26  38  67  98 139 169 222 260 330 403
#
# _framework density 21.040506000000001
#
# number of rings (size 3 to 8) (size 9 to 14) (size 15 to 20)
#    2.000    0.000    0.000    0.000   16.333    2.667 
#    0.000    0.000    0.000    0.000    0.000    0.000 
#    0.000    0.000    0.000    0.000    0.000    0.000 
#
# Total GULP energy -148673.037575 kJ/mol
# GULP energy per Si atom -12389.419798 kJ/mol
# Density = 2.099262 g / cm^3
# Si number density = 21.040506 Si / 1000 Ang^3
#
#
#
# Elastic Constant Matrix: (Units=GPa)
#
#
# Indices 1 2 3 4 5 6 
#
# 1 88.5255 -1.7706 27.8127 0.0000 3.6767 0.0000
# 2 -1.7706 77.5942 17.7769 0.0000 -0.4197 0.0000
# 3 27.8127 17.7769 90.8312 0.0000 31.4103 0.0000
# 4 0.0000 0.0000 0.0000 32.6557 0.0000 -13.6579
# 5 3.6767 -0.4197 31.4103 0.0000 36.8980 0.0000
# 6 0.0000 0.0000 0.0000 -13.6579 0.0000 25.3446
#
#
#
# Elastic Compliance Matrix: (Units=1/GPa)
#
#
# Indices 1 2 3 4 5 6 
#
# 1 0.012886 0.001549 -0.005401 0.000000 0.003331 0.000000
# 2 0.001549 0.013987 -0.004554 0.000000 0.003882 0.000000
# 3 -0.005401 -0.004554 0.018971 0.000000 -0.015663 0.000000
# 4 0.000000 0.000000 0.000000 0.039532 0.000000 0.021304
# 5 0.003331 0.003882 -0.015663 0.000000 0.040147 0.000000
# 6 0.000000 0.000000 0.000000 0.021304 0.000000 0.050936
#
#
# Mechanical properties :
#
#
# Convention : Reuss Voigt Hill
#
# Bulk Modulus (GPa) = 34.44408 38.28766 36.36587
# Shear Modulus (GPa) = 24.63674 33.18845 28.91260
#
# Velocity S-wave (km/s) = 3.42558 3.97591 3.71096
# Velocity P-wave (km/s) = 5.66145 6.27007 5.97352
#
# Compressibility (1/GPa) = 0.02903257
#
# Stress axis : x y z
#
# Youngs Moduli (GPa) = 77.60583 71.49345 52.71219
#
# Poissons Ratio (x) = -0.11077 0.28469
# Poissons Ratio (y) = -0.12024 0.24006
# Poissons Ratio (z) = 0.41913 0.32560
#
# Static dielectric constant tensor:
#      x y z
#    x 3.597220 0.000000 -0.011460 
#    y 0.000000 3.565000 0.000000 
#    z -0.011460 0.000000 3.670290 
# 
# 
# High freq. dielectric constant tensor:
#      x y z
#    x 1.816120 0.000000 0.003490 
#    y 0.000000 1.816710 0.000000 
#    z 0.003490 0.000000 1.816630 
# 
# From -- ./inp_files/3670.got.cif
#   From: 2010.03.12/outbox.cif.g09.slc.cpg/sg4_2_cif.got.tgz:3670.got - 2010.03.31 09:31:35.
