data_PCOD8047275
_publ_section_title
;
Structure prediction by ZEFSAII (Michael W. Deem and Ramdas Pophale) SiO2 
 PCOD8047275
Probable space group: P 21
;
_chemical_formula_sum "Si O2"
_cell_formula_units_Z 14
_cell_length_a 13.099455
_cell_length_b 5.265439
_cell_length_c 8.480076
_cell_angle_alpha 90.000000
_cell_angle_beta 99.325068
_cell_angle_gamma 90.000000
_cell_volume 577.178387
_symmetry_space_group_name_H-M "P 21"
_symmetry_group_IT_number 4
_symmetry_cell_setting 'monoclinic'
loop_
_space_group_symop_operation_xyz
x,y,z
-x,1/2+y,-z
loop_
_atom_site_type_symbol
_atom_site_label
_atom_site_fract_x
_atom_site_fract_y
_atom_site_fract_z
Si Si1 0.587483 0.064390 0.867305
Si Si2 0.949030 0.300698 0.554482
Si Si3 0.044694 0.921722 0.079113
Si Si4 0.735735 0.208071 0.347193
Si Si5 0.382003 0.306435 0.827723
Si Si6 0.254157 0.920127 0.985085
Si Si7 0.485018 0.823931 0.591878
O O1 0.482609 0.195413 0.769091
O O2 0.578576 0.822346 0.748090
O O3 0.690057 0.233255 0.873661
O O4 0.572384 0.036925 0.052434
O O5 0.965722 0.373783 0.739037
O O6 0.827903 0.241306 0.494489
O O7 0.985933 0.544352 0.462756
O O8 0.156263 0.027460 0.054116
O O9 0.031010 0.652422 0.986046
O O10 0.779244 0.286169 0.186601
O O11 0.633118 0.370934 0.367358
O O12 0.699956 0.911471 0.321712
O O13 0.328341 0.149577 0.954820
O O14 0.487738 0.539759 0.527455
#
# Coordination Sequence:
#
# PCOD8047275 Si02
#       7
#     2   2   2   2   2   2   2
#     4  11  22  41  67 107 147 202 244 306 367 444
#     4  12  29  53  83 111 152 199 254 321 391 460
#     4  12  29  54  79 116 150 196 260 322 383 455
#     4  11  26  46  72 112 148 204 250 313 383 447
#     4  11  21  41  74 106 150 193 253 302 371 455
#     4  11  25  43  77 108 151 197 254 316 376 452
#     4  12  28  44  68 104 160 205 253 306 367 455
#
# _framework density 24.255931
#
# number of rings (size 3 to 8) (size 9 to 14) (size 15 to 20)
#    0.000    0.571    2.857    4.286   12.000    0.000 
#    0.000    0.000    0.000    0.000    0.000    0.000 
#    0.000    0.000    0.000    0.000    0.000    0.000 
#
# Total GULP energy -173467.523928 kJ/mol
# GULP energy per Si atom -12390.537423 kJ/mol
# Density = 2.420072 g / cm^3
# Si number density = 24.255931 Si / 1000 Ang^3
#
#
#
# Elastic Constant Matrix: (Units=GPa)
#
#
# Indices 1 2 3 4 5 6 
#
# 1 99.6841 9.3584 26.2912 0.0000 2.1875 0.0000
# 2 9.3584 84.0462 23.8186 0.0000 8.6238 0.0000
# 3 26.2912 23.8186 104.7272 0.0000 15.2446 0.0000
# 4 0.0000 0.0000 0.0000 35.2160 0.0000 -2.3117
# 5 2.1875 8.6238 15.2446 0.0000 43.2480 0.0000
# 6 0.0000 0.0000 0.0000 -2.3117 0.0000 35.8317
#
#
#
# Elastic Compliance Matrix: (Units=1/GPa)
#
#
# Indices 1 2 3 4 5 6 
#
# 1 0.010770 -0.000495 -0.002663 0.000000 0.000493 0.000000
# 2 -0.000495 0.012846 -0.002560 0.000000 -0.001634 0.000000
# 3 -0.002663 -0.002560 0.011284 0.000000 -0.003333 0.000000
# 4 0.000000 0.000000 0.000000 0.028517 0.000000 0.001840
# 5 0.000493 -0.001634 -0.003333 0.000000 0.024598 0.000000
# 6 0.000000 0.000000 0.000000 0.001840 0.000000 0.028027
#
#
# Mechanical properties :
#
#
# Convention : Reuss Voigt Hill
#
# Bulk Modulus (GPa) = 42.61557 45.26599 43.94078
# Shear Modulus (GPa) = 36.95518 38.12510 37.54014
#
# Velocity S-wave (km/s) = 3.90751 3.96887 3.93831
# Velocity P-wave (km/s) = 6.16161 6.30119 6.23179
#
# Compressibility (1/GPa) = 0.02346560
#
# Stress axis : x y z
#
# Youngs Moduli (GPa) = 92.85349 77.84278 88.61852
#
# Poissons Ratio (x) = 0.03854 0.23597
# Poissons Ratio (y) = 0.04597 0.22682
# Poissons Ratio (z) = 0.24725 0.19924
#
# Static dielectric constant tensor:
#      x y z
#    x 4.174420 0.000000 0.085560 
#    y 0.000000 4.588410 0.000000 
#    z 0.085560 0.000000 4.359390 
# 
# 
# High freq. dielectric constant tensor:
#      x y z
#    x 1.953380 0.000000 0.003660 
#    y 0.000000 1.975270 0.000000 
#    z 0.003660 0.000000 1.969080 
# 
# From -- ./inp_files/7224.got.cif
#   From: 2010.03.12/outbox.cif.g09.slc.cpg/sg4_4_cif.got.tgz:7224.got - 2010.03.31 09:31:35.
