data_PCOD8047324
_publ_section_title
;
Structure prediction by ZEFSAII (Michael W. Deem and Ramdas Pophale) SiO2 
 PCOD8047324
Probable space group: P 21
;
_chemical_formula_sum "Si O2"
_cell_formula_units_Z 16
_cell_length_a 17.489063
_cell_length_b 6.477869
_cell_length_c 11.207799
_cell_angle_alpha 90.000000
_cell_angle_beta 34.917979
_cell_angle_gamma 90.000000
_cell_volume 726.810332
_symmetry_space_group_name_H-M "P 21"
_symmetry_group_IT_number 4
_symmetry_cell_setting 'monoclinic'
loop_
_space_group_symop_operation_xyz
x,y,z
-x,1/2+y,-z
loop_
_atom_site_type_symbol
_atom_site_label
_atom_site_fract_x
_atom_site_fract_y
_atom_site_fract_z
Si Si1 0.531846 0.563590 0.791113
Si Si2 0.376829 0.923299 0.082546
Si Si3 0.775117 0.723691 0.099387
Si Si4 0.963728 0.943907 0.274657
Si Si5 0.716686 0.866987 0.435368
Si Si6 0.911452 0.058244 0.782237
Si Si7 0.887342 0.241484 0.568531
Si Si8 0.464802 0.166316 0.758173
O O1 0.533132 0.445038 0.915566
O O2 0.667390 0.691384 0.590808
O O3 0.503979 0.407536 0.717686
O O4 0.412528 0.726300 0.955161
O O5 0.229949 0.892698 0.323925
O O6 0.390990 0.119184 0.978068
O O7 0.747717 0.757564 0.272155
O O8 0.641349 0.625482 0.212086
O O9 0.902230 0.571454 0.927555
O O10 0.800317 0.946852 0.005379
O O11 0.853337 0.967740 0.311246
O O12 0.998049 0.701975 0.247847
O O13 0.895341 0.031269 0.482488
O O14 0.600514 0.037102 0.565211
O O15 0.856155 0.203625 0.748107
O O16 0.981639 0.873665 0.621167
#
# Coordination Sequence:
#
# PCOD8047324 Si02
#       8
#     2   2   2   2   2   2   2   2
#     4  11  23  41  68 101 136 178 219 278 341 400
#     4  11  22  38  67 102 137 174 216 272 345 403
#     4  11  28  47  70 100 134 187 233 278 339 402
#     4  11  25  46  70 101 141 177 227 286 337 406
#     4  11  28  47  70 100 134 187 233 278 339 402
#     4  11  23  41  68 101 136 178 219 278 341 400
#     4  11  22  38  67 102 137 174 216 272 345 403
#     4  11  25  46  70 101 141 177 227 286 337 406
#
# _framework density 22.013995000000001
#
# number of rings (size 3 to 8) (size 9 to 14) (size 15 to 20)
#    0.000    1.000    2.500    3.000    7.000    5.000 
#    0.000    0.000    0.000    0.000    0.000    0.000 
#    0.000    0.000    0.000    0.000    0.000    0.000 
#
# Total GULP energy -198357.583249 kJ/mol
# GULP energy per Si atom -12397.348953 kJ/mol
# Density = 2.196389 g / cm^3
# Si number density = 22.013995 Si / 1000 Ang^3
#
#
#
# Elastic Constant Matrix: (Units=GPa)
#
#
# Indices 1 2 3 4 5 6 
#
# 1 139.6432 34.8949 51.8323 0.0000 -16.3284 0.0000
# 2 34.8949 92.1040 30.9534 0.0000 -7.6116 0.0000
# 3 51.8323 30.9534 81.5206 0.0000 -3.6782 0.0000
# 4 0.0000 0.0000 0.0000 24.3588 0.0000 -1.3870
# 5 -16.3284 -7.6116 -3.6782 0.0000 41.0371 0.0000
# 6 0.0000 0.0000 0.0000 -1.3870 0.0000 33.0080
#
#
#
# Elastic Compliance Matrix: (Units=1/GPa)
#
#
# Indices 1 2 3 4 5 6 
#
# 1 0.010026 -0.001652 -0.005604 0.000000 0.003180 0.000000
# 2 -0.001652 0.012866 -0.003772 0.000000 0.001391 0.000000
# 3 -0.005604 -0.003772 0.017199 0.000000 -0.001388 0.000000
# 4 0.000000 0.000000 0.000000 0.041151 0.000000 0.001729
# 5 0.003180 0.001391 -0.001388 0.000000 0.025767 0.000000
# 6 0.000000 0.000000 0.000000 0.001729 0.000000 0.030368
#
#
# Mechanical properties :
#
#
# Convention : Reuss Voigt Hill
#
# Bulk Modulus (GPa) = 55.44693 60.95877 58.20285
# Shear Modulus (GPa) = 30.22141 32.71993 31.47067
#
# Velocity S-wave (km/s) = 3.70919 3.85947 3.78507
# Velocity P-wave (km/s) = 6.60196 6.90012 6.75269
#
# Compressibility (1/GPa) = 0.01803526
#
# Stress axis : x y z
#
# Youngs Moduli (GPa) = 99.74194 77.72513 58.14180
#
# Poissons Ratio (x) = 0.12843 0.32581
# Poissons Ratio (y) = 0.16481 0.21930
# Poissons Ratio (z) = 0.55893 0.29316
#
# Static dielectric constant tensor:
#      x y z
#    x 3.834280 0.000000 -0.040630 
#    y 0.000000 4.015930 0.000000 
#    z -0.040630 0.000000 3.938130 
# 
# 
# High freq. dielectric constant tensor:
#      x y z
#    x 1.861190 0.000000 -0.005070 
#    y 0.000000 1.871650 0.000000 
#    z -0.005070 0.000000 1.864030 
# 
# From -- ./inp_files/12790.got.cif
#   From: 2010.03.12/outbox.cif.g09.slc.cpg/sg4_7_cif.got.tgz:12790.got - 2010.03.31 09:31:35.
