data_PCOD8047405
_publ_section_title
;
Structure prediction by ZEFSAII (Michael W. Deem and Ramdas Pophale) SiO2 
 PCOD8047405
Probable space group: P 21
;
_chemical_formula_sum "Si O2"
_cell_formula_units_Z 16
_cell_length_a 10.903877
_cell_length_b 8.260721
_cell_length_c 10.458316
_cell_angle_alpha 90.000000
_cell_angle_beta 35.367487
_cell_angle_gamma 90.000000
_cell_volume 545.259301
_symmetry_space_group_name_H-M "P 21"
_symmetry_group_IT_number 4
_symmetry_cell_setting 'monoclinic'
loop_
_space_group_symop_operation_xyz
x,y,z
-x,1/2+y,-z
loop_
_atom_site_type_symbol
_atom_site_label
_atom_site_fract_x
_atom_site_fract_y
_atom_site_fract_z
Si Si1 0.751925 0.769480 0.805625
Si Si2 0.781030 0.172490 0.265056
Si Si3 0.629224 0.850537 0.482420
Si Si4 0.825605 0.878299 0.028975
Si Si5 0.586226 0.248971 0.674625
Si Si6 0.952348 0.196257 0.803896
Si Si7 0.103006 0.978580 0.457342
Si Si8 0.577310 0.437714 0.083710
O O1 0.826492 0.841783 0.876803
O O2 0.788619 0.571918 0.757029
O O3 0.529643 0.836476 0.938537
O O4 0.935363 0.843457 0.553049
O O5 0.585587 0.268437 0.376530
O O6 0.764611 0.167113 0.435268
O O7 0.996609 0.269548 0.049421
O O8 0.749554 0.973881 0.273766
O O9 0.562702 0.942045 0.667924
O O10 0.804961 0.719976 0.363847
O O11 0.859456 0.079036 0.999721
O O12 0.594031 0.814885 0.270890
O O13 0.690756 0.402974 0.652026
O O14 0.456098 0.139594 0.897493
O O15 0.808778 0.358324 0.914265
O O16 0.965622 0.102199 0.659615
#
# Coordination Sequence:
#
# PCOD8047405 Si02
#       8
#     2   2   2   2   2   2   2   2
#     4  11  23  39  66 101 138 182 223 278 341 419
#     4  11  24  46  68 100 133 180 231 289 350 409
#     4  11  25  44  73  94 137 177 230 291 348 412
#     4  11  25  41  67 102 137 177 229 278 344 416
#     4  11  24  45  67 100 143 178 232 287 342 414
#     4  11  23  44  68 101 134 182 229 281 347 411
#     4  11  23  42  70  96 146 189 224 283 346 413
#     4  11  25  43  67 106 136 179 234 281 348 412
#
# _framework density 29.343836
#
# number of rings (size 3 to 8) (size 9 to 14) (size 15 to 20)
#    0.000    1.000    3.750    3.000    1.750    6.000 
#    0.000    0.000    0.000    0.000    0.000    0.000 
#    0.000    0.000    0.000    0.000    0.000    0.000 
#
# Total GULP energy -198303.758548 kJ/mol
# GULP energy per Si atom -12393.984909 kJ/mol
# Density = 2.927705 g / cm^3
# Si number density = 29.343836 Si / 1000 Ang^3
#
#
#
# Elastic Constant Matrix: (Units=GPa)
#
#
# Indices 1 2 3 4 5 6 
#
# 1 76.0761 39.7326 29.6323 0.0000 -28.8694 0.0000
# 2 39.7326 175.2820 39.1181 0.0000 -17.3977 0.0000
# 3 29.6323 39.1181 131.6341 0.0000 -28.5893 0.0000
# 4 0.0000 0.0000 0.0000 52.3871 0.0000 -2.7797
# 5 -28.8694 -17.3977 -28.5893 0.0000 61.5128 0.0000
# 6 0.0000 0.0000 0.0000 -2.7797 0.0000 57.9604
#
#
#
# Elastic Compliance Matrix: (Units=1/GPa)
#
#
# Indices 1 2 3 4 5 6 
#
# 1 0.017951 -0.003023 -0.001667 0.000000 0.006795 0.000000
# 2 -0.003023 0.006673 -0.001336 0.000000 -0.000152 0.000000
# 3 -0.001667 -0.001336 0.009028 0.000000 0.003036 0.000000
# 4 0.000000 0.000000 0.000000 0.019137 0.000000 0.000918
# 5 0.006795 -0.000152 0.003036 0.000000 0.020814 0.000000
# 6 0.000000 0.000000 0.000000 0.000918 0.000000 0.017297
#
#
# Mechanical properties :
#
#
# Convention : Reuss Voigt Hill
#
# Bulk Modulus (GPa) = 46.29109 66.66201 56.47655
# Shear Modulus (GPa) = 45.39136 52.67267 49.03201
#
# Velocity S-wave (km/s) = 3.93730 4.24136 4.09216
# Velocity P-wave (km/s) = 6.03982 6.83757 6.45104
#
# Compressibility (1/GPa) = 0.02160243
#
# Stress axis : x y z
#
# Youngs Moduli (GPa) = 55.70592 149.85147 110.76184
#
# Poissons Ratio (x) = 0.45296 0.18463
# Poissons Ratio (y) = 0.16838 0.14794
# Poissons Ratio (z) = 0.09286 0.20015
#
# Static dielectric constant tensor:
#      x y z
#    x 5.693840 0.000000 1.031360 
#    y 0.000000 6.058800 0.000000 
#    z 1.031360 0.000000 6.562360 
# 
# 
# High freq. dielectric constant tensor:
#      x y z
#    x 2.226710 0.000000 0.053340 
#    y 0.000000 2.222340 0.000000 
#    z 0.053340 0.000000 2.250470 
# 
# From -- ./inp_files/13948.got.cif
#   From: 2010.03.12/outbox.cif.g09.slc.cpg/sg4_7_cif.got.tgz:13948.got - 2010.03.31 09:31:35.
