data_PCOD8047780
_publ_section_title
;
Structure prediction by ZEFSAII (Michael W. Deem and Ramdas Pophale) SiO2 
 PCOD8047780
Probable space group: P 21
;
_chemical_formula_sum "Si O2"
_cell_formula_units_Z 12
_cell_length_a 12.175852
_cell_length_b 8.752569
_cell_length_c 4.779572
_cell_angle_alpha 90.000000
_cell_angle_beta 61.388440
_cell_angle_gamma 90.000000
_cell_volume 447.159252
_symmetry_space_group_name_H-M "P 21"
_symmetry_group_IT_number 4
_symmetry_cell_setting 'monoclinic'
loop_
_space_group_symop_operation_xyz
x,y,z
-x,1/2+y,-z
loop_
_atom_site_type_symbol
_atom_site_label
_atom_site_fract_x
_atom_site_fract_y
_atom_site_fract_z
Si Si1 0.594650 0.141730 0.302398
Si Si2 0.886918 0.687736 0.839989
Si Si3 0.118623 0.419638 0.609727
Si Si4 0.346212 0.309220 0.658920
Si Si5 0.071208 0.986557 0.706122
Si Si6 0.248505 0.723114 0.388444
O O1 0.456379 0.202975 0.407772
O O2 0.631926 0.176195 0.574885
O O3 0.598648 0.958952 0.251113
O O4 0.698201 0.229198 0.990006
O O5 0.943888 0.835596 0.590755
O O6 0.936613 0.537850 0.612522
O O7 0.736964 0.714770 0.013013
O O8 0.915019 0.645149 0.134224
O O9 0.257619 0.356413 0.505422
O O10 0.133285 0.601765 0.534886
O O11 0.043844 0.394981 0.998178
O O12 0.194479 0.882390 0.568055
#
# Coordination Sequence:
#
# PCOD8047780 Si02
#       6
#     2   2   2   2   2   2
#     4  11  27  46  77 101 153 193 252 317 379 445
#     4  12  26  47  72 113 148 196 251 311 377 456
#     4  11  26  52  75 108 156 201 252 316 386 457
#     4  11  27  50  76 110 148 204 257 316 382 455
#     4  12  28  44  80 111 150 196 256 312 384 457
#     4  11  26  47  70 111 147 196 252 312 380 452
#
# _framework density 26.836075000000001
#
# number of rings (size 3 to 8) (size 9 to 14) (size 15 to 20)
#    0.000    0.667    3.333    2.000    9.333    1.333 
#    0.000    0.000    0.000    0.000    0.000    0.000 
#    0.000    0.000    0.000    0.000    0.000    0.000 
#
# Total GULP energy -148765.793376 kJ/mol
# GULP energy per Si atom -12397.149448 kJ/mol
# Density = 2.677499 g / cm^3
# Si number density = 26.836075 Si / 1000 Ang^3
#
#
#
# Elastic Constant Matrix: (Units=GPa)
#
#
# Indices 1 2 3 4 5 6 
#
# 1 71.3677 27.3790 33.3410 0.0000 3.7478 0.0000
# 2 27.3790 123.4871 49.9247 0.0000 -10.3576 0.0000
# 3 33.3410 49.9247 169.7201 0.0000 0.6424 0.0000
# 4 0.0000 0.0000 0.0000 55.7273 0.0000 -15.0952
# 5 3.7478 -10.3576 0.6424 0.0000 55.1011 0.0000
# 6 0.0000 0.0000 0.0000 -15.0952 0.0000 44.9793
#
#
#
# Elastic Compliance Matrix: (Units=1/GPa)
#
#
# Indices 1 2 3 4 5 6 
#
# 1 0.016272 -0.002783 -0.002372 0.000000 -0.001602 0.000000
# 2 -0.002783 0.009841 -0.002356 0.000000 0.002067 0.000000
# 3 -0.002372 -0.002356 0.007052 0.000000 -0.000364 0.000000
# 4 0.000000 0.000000 0.000000 0.019739 0.000000 0.006624
# 5 -0.001602 0.002067 -0.000364 0.000000 0.018650 0.000000
# 6 0.000000 0.000000 0.000000 0.006624 0.000000 0.024456
#
#
# Mechanical properties :
#
#
# Convention : Reuss Voigt Hill
#
# Bulk Modulus (GPa) = 55.11652 65.09602 60.10627
# Shear Modulus (GPa) = 42.70609 48.09023 45.39816
#
# Velocity S-wave (km/s) = 3.99352 4.23779 4.11747
# Velocity P-wave (km/s) = 6.46894 6.94656 6.71200
#
# Compressibility (1/GPa) = 0.01814338
#
# Stress axis : x y z
#
# Youngs Moduli (GPa) = 61.45583 101.61688 141.79661
#
# Poissons Ratio (x) = 0.28282 0.33631
# Poissons Ratio (y) = 0.17105 0.33405
# Poissons Ratio (z) = 0.14576 0.23939
#
# Static dielectric constant tensor:
#      x y z
#    x 4.474930 0.000000 0.023510 
#    y 0.000000 5.176240 0.000000 
#    z 0.023510 0.000000 4.891240 
# 
# 
# High freq. dielectric constant tensor:
#      x y z
#    x 2.074120 0.000000 0.013250 
#    y 0.000000 2.111350 0.000000 
#    z 0.013250 0.000000 2.099100 
# 
# From -- ./inp_files/3674.got.cif
#   From: 2010.03.12/outbox.cif.g09.slc.cpg/sg4_2_cif.got.tgz:3674.got - 2010.03.31 09:31:35.
