data_PCOD8047492
_publ_section_title
;
Structure prediction by ZEFSAII (Michael W. Deem and Ramdas Pophale) SiO2 
 PCOD8047492
Probable space group: P 21
;
_chemical_formula_sum "Si O2"
_cell_formula_units_Z 14
_cell_length_a 10.745902
_cell_length_b 10.731574
_cell_length_c 11.338530
_cell_angle_alpha 90.000000
_cell_angle_beta 153.425586
_cell_angle_gamma 90.000000
_cell_volume 584.951637
_symmetry_space_group_name_H-M "P 21"
_symmetry_group_IT_number 4
_symmetry_cell_setting 'monoclinic'
loop_
_space_group_symop_operation_xyz
x,y,z
-x,1/2+y,-z
loop_
_atom_site_type_symbol
_atom_site_label
_atom_site_fract_x
_atom_site_fract_y
_atom_site_fract_z
Si Si1 0.549894 0.549100 0.457851
Si Si2 0.633785 0.790250 0.667437
Si Si3 0.121850 0.848838 0.925684
Si Si4 0.306328 0.461677 0.608849
Si Si5 0.409627 0.744905 0.730122
Si Si6 0.816159 0.867279 0.244940
Si Si7 0.827934 0.082246 0.085191
O O1 0.481783 0.672301 0.476990
O O2 0.503995 0.420933 0.491693
O O3 0.858089 0.550058 0.674444
O O4 0.350274 0.541835 0.177226
O O5 0.958716 0.797705 0.903457
O O6 0.605300 0.772175 0.783075
O O7 0.930869 0.941857 0.688995
O O8 0.206403 0.729190 0.917474
O O9 0.398018 0.922366 0.197241
O O10 0.303979 0.604199 0.644648
O O11 0.243453 0.373844 0.667035
O O12 0.137759 0.832102 0.496442
O O13 0.604415 0.767592 0.008624
O O14 0.741789 0.002160 0.125839
#
# Coordination Sequence:
#
# PCOD8047492 Si02
#       7
#     2   2   2   2   2   2   2
#     4  11  24  41  71 104 148 186 240 298 363 437
#     4  11  24  46  73 107 150 189 243 303 368 442
#     4  11  26  45  72 108 144 190 235 304 363 432
#     4  12  28  48  72 109 150 186 249 305 361 431
#     4  12  27  49  75 108 142 198 243 301 373 431
#     4  12  26  46  75  99 144 191 247 300 357 434
#     4  11  23  45  68 103 134 192 243 283 361 431
#
# _framework density 23.933603000000002
#
# number of rings (size 3 to 8) (size 9 to 14) (size 15 to 20)
#    0.000    0.571    2.857    4.286    4.000    9.143 
#    0.000    0.000    0.000    0.000    0.000    0.000 
#    0.000    0.000    0.000    0.000    0.000    0.000 
#
# Total GULP energy -173632.986580 kJ/mol
# GULP energy per Si atom -12402.356184 kJ/mol
# Density = 2.387913 g / cm^3
# Si number density = 23.933603 Si / 1000 Ang^3
#
#
#
# Elastic Constant Matrix: (Units=GPa)
#
#
# Indices 1 2 3 4 5 6 
#
# 1 97.6785 6.2505 25.7086 0.0000 -3.4557 0.0000
# 2 6.2505 126.2076 5.5586 0.0000 5.0248 0.0000
# 3 25.7086 5.5586 121.3804 0.0000 10.2642 0.0000
# 4 0.0000 0.0000 0.0000 37.7921 0.0000 -1.8180
# 5 -3.4557 5.0248 10.2642 0.0000 21.7793 0.0000
# 6 0.0000 0.0000 0.0000 -1.8180 0.0000 37.4131
#
#
#
# Elastic Compliance Matrix: (Units=1/GPa)
#
#
# Indices 1 2 3 4 5 6 
#
# 1 0.011062 -0.000558 -0.002580 0.000000 0.003100 0.000000
# 2 -0.000558 0.008031 -0.000089 0.000000 -0.001899 0.000000
# 3 -0.002580 -0.000089 0.009188 0.000000 -0.004719 0.000000
# 4 0.000000 0.000000 0.000000 0.026523 0.000000 0.001289
# 5 0.003100 -0.001899 -0.004719 0.000000 0.049069 0.000000
# 6 0.000000 0.000000 0.000000 0.001289 0.000000 0.026791
#
#
# Mechanical properties :
#
#
# Convention : Reuss Voigt Hill
#
# Bulk Modulus (GPa) = 45.81230 46.70019 46.25625
# Shear Modulus (GPa) = 34.62795 39.91347 37.27071
#
# Velocity S-wave (km/s) = 3.80785 4.08815 3.95049
# Velocity P-wave (km/s) = 6.20612 6.46828 6.33856
#
# Compressibility (1/GPa) = 0.02182820
#
# Stress axis : x y z
#
# Youngs Moduli (GPa) = 90.40015 124.52350 108.83726
#
# Poissons Ratio (x) = 0.06944 0.28075
# Poissons Ratio (y) = 0.05041 0.00969
# Poissons Ratio (z) = 0.23319 0.01109
#
# Static dielectric constant tensor:
#      x y z
#    x 4.220520 0.000000 0.065690 
#    y 0.000000 4.807010 0.000000 
#    z 0.065690 0.000000 4.171130 
# 
# 
# High freq. dielectric constant tensor:
#      x y z
#    x 1.944830 0.000000 0.003840 
#    y 0.000000 1.967650 0.000000 
#    z 0.003840 0.000000 1.950300 
# 
# From -- ./inp_files/12223.got.cif
#   From: 2010.03.12/outbox.cif.g09.slc.cpg/sg4_7_cif.got.tgz:12223.got - 2010.03.31 09:31:35.
