data_PCOD8047985
_publ_section_title
;
Structure prediction by ZEFSAII (Michael W. Deem and Ramdas Pophale) SiO2 
 PCOD8047985
Probable space group: P 21
;
_chemical_formula_sum "Si O2"
_cell_formula_units_Z 12
_cell_length_a 9.615229
_cell_length_b 5.528686
_cell_length_c 16.774462
_cell_angle_alpha 90.000000
_cell_angle_beta 33.781620
_cell_angle_gamma 90.000000
_cell_volume 495.824076
_symmetry_space_group_name_H-M "P 21"
_symmetry_group_IT_number 4
_symmetry_cell_setting 'monoclinic'
loop_
_space_group_symop_operation_xyz
x,y,z
-x,1/2+y,-z
loop_
_atom_site_type_symbol
_atom_site_label
_atom_site_fract_x
_atom_site_fract_y
_atom_site_fract_z
Si Si1 0.331034 0.089470 0.879894
Si Si2 0.342278 0.977725 0.325627
Si Si3 0.651408 0.164921 0.425098
Si Si4 0.204411 0.723911 0.818318
Si Si5 0.544332 0.948298 0.931973
Si Si6 0.974308 0.810511 0.631102
O O1 0.593395 0.239230 0.756039
O O2 0.335746 0.961678 0.791622
O O3 0.354691 0.919851 0.946972
O O4 0.070901 0.230695 0.013110
O O5 0.128770 0.966648 0.494209
O O6 0.613955 0.012342 0.237226
O O7 0.250451 0.174679 0.306821
O O8 0.489082 0.408983 0.517278
O O9 0.808531 0.220302 0.270590
O O10 0.836796 0.131795 0.411946
O O11 0.833282 0.972331 0.764550
O O12 0.514845 0.698944 0.994815
#
# Coordination Sequence:
#
# PCOD8047985 Si02
#       6
#     2   2   2   2   2   2
#     4  12  26  49  79 111 155 205 270 316 391 468
#     4  12  26  50  76 116 151 209 257 324 388 466
#     4  12  29  50  75 114 158 203 259 322 393 467
#     4  12  26  48  78 109 157 208 256 322 386 469
#     4  12  28  50  77 116 158 205 261 324 395 464
#     4  12  27  49  81 112 159 202 265 326 393 466
#
# _framework density 24.202131999999999
#
# number of rings (size 3 to 8) (size 9 to 14) (size 15 to 20)
#    0.000    0.000    5.000    4.000    2.333    5.333 
#    0.000    0.000    0.000    0.000    0.000    0.000 
#    0.000    0.000    0.000    0.000    0.000    0.000 
#
# Total GULP energy -148701.163339 kJ/mol
# GULP energy per Si atom -12391.763612 kJ/mol
# Density = 2.414705 g / cm^3
# Si number density = 24.202132 Si / 1000 Ang^3
#
#
#
# Elastic Constant Matrix: (Units=GPa)
#
#
# Indices 1 2 3 4 5 6 
#
# 1 109.8382 9.4956 23.2798 0.0000 4.1375 0.0000
# 2 9.4956 110.3224 51.3982 0.0000 3.4047 0.0000
# 3 23.2798 51.3982 163.4498 0.0000 -0.4028 0.0000
# 4 0.0000 0.0000 0.0000 39.4516 0.0000 0.1285
# 5 4.1375 3.4047 -0.4028 0.0000 39.5565 0.0000
# 6 0.0000 0.0000 0.0000 0.1285 0.0000 28.8456
#
#
#
# Elastic Compliance Matrix: (Units=1/GPa)
#
#
# Indices 1 2 3 4 5 6 
#
# 1 0.009430 -0.000181 -0.001289 0.000000 -0.000984 0.000000
# 2 -0.000181 0.010659 -0.003328 0.000000 -0.000932 0.000000
# 3 -0.001289 -0.003328 0.007350 0.000000 0.000496 0.000000
# 4 0.000000 0.000000 0.000000 0.025348 0.000000 -0.000113
# 5 -0.000984 -0.000932 0.000496 0.000000 0.025469 0.000000
# 6 0.000000 0.000000 0.000000 -0.000113 0.000000 0.034668
#
#
# Mechanical properties :
#
#
# Convention : Reuss Voigt Hill
#
# Bulk Modulus (GPa) = 56.04457 61.32865 58.68661
# Shear Modulus (GPa) = 38.92051 41.53320 40.22685
#
# Velocity S-wave (km/s) = 4.01452 4.14707 4.08133
# Velocity P-wave (km/s) = 6.68548 6.95170 6.81989
#
# Compressibility (1/GPa) = 0.01784294
#
# Stress axis : x y z
#
# Youngs Moduli (GPa) = 106.04313 93.81392 136.06337
#
# Poissons Ratio (x) = 0.01697 0.17534
# Poissons Ratio (y) = 0.01919 0.45288
# Poissons Ratio (z) = 0.13665 0.31226
#
# Static dielectric constant tensor:
#      x y z
#    x 4.575420 0.000000 0.009080 
#    y 0.000000 4.225290 0.000000 
#    z 0.009080 0.000000 4.529080 
# 
# 
# High freq. dielectric constant tensor:
#      x y z
#    x 1.978460 0.000000 0.003660 
#    y 0.000000 1.947040 0.000000 
#    z 0.003660 0.000000 1.979380 
# 
# From -- ./inp_files/5150.got.cif
#   From: 2010.03.12/outbox.cif.g09.slc.cpg/sg4_3_cif.got.tgz:5150.got - 2010.03.31 09:31:35.
