data_PCOD8047768
_publ_section_title
;
Structure prediction by ZEFSAII (Michael W. Deem and Ramdas Pophale) SiO2 
 PCOD8047768
Probable space group: P 21
;
_chemical_formula_sum "Si O2"
_cell_formula_units_Z 12
_cell_length_a 5.459250
_cell_length_b 9.826530
_cell_length_c 13.710012
_cell_angle_alpha 90.000000
_cell_angle_beta 39.127808
_cell_angle_gamma 90.000000
_cell_volume 464.126549
_symmetry_space_group_name_H-M "P 21"
_symmetry_group_IT_number 4
_symmetry_cell_setting 'monoclinic'
loop_
_space_group_symop_operation_xyz
x,y,z
-x,1/2+y,-z
loop_
_atom_site_type_symbol
_atom_site_label
_atom_site_fract_x
_atom_site_fract_y
_atom_site_fract_z
Si Si1 0.339602 0.484670 0.271514
Si Si2 0.555852 0.108294 0.569343
Si Si3 0.461620 0.909114 0.424171
Si Si4 0.329242 0.755289 0.169759
Si Si5 0.667197 0.526982 0.727569
Si Si6 0.793815 0.256028 0.022368
O O1 0.599986 0.544118 0.281025
O O2 0.147150 0.612006 0.268985
O O3 0.607575 0.394626 0.120247
O O4 0.006247 0.391843 0.423357
O O5 0.357003 0.256917 0.616803
O O6 0.556646 0.016548 0.475336
O O7 0.027543 0.119207 0.428763
O O8 0.599310 0.957599 0.274435
O O9 0.147491 0.899216 0.266365
O O10 0.280101 0.755017 0.069622
O O11 0.769581 0.751532 0.073085
O O12 0.411053 0.620296 0.875364
#
# Coordination Sequence:
#
# PCOD8047768 Si02
#       6
#     2   2   2   2   2   2
#     4  11  26  46  70 106 146 187 250 298 368 431
#     4  11  26  44  75 105 143 189 240 315 364 427
#     4  11  26  44  75 105 143 189 240 315 364 427
#     4  12  28  47  74 105 148 198 242 296 360 438
#     4  11  26  46  70 106 146 187 250 298 368 431
#     4  12  28  47  74 105 148 198 242 296 360 438
#
# _framework density 25.855018000000001
#
# number of rings (size 3 to 8) (size 9 to 14) (size 15 to 20)
#    0.000    0.667    3.333    2.000   14.000    0.000 
#    0.000    0.000    0.000    0.000    0.000    0.000 
#    0.000    0.000    0.000    0.000    0.000    0.000 
#
# Total GULP energy -148759.609344 kJ/mol
# GULP energy per Si atom -12396.634112 kJ/mol
# Density = 2.579617 g / cm^3
# Si number density = 25.855018 Si / 1000 Ang^3
#
#
#
# Elastic Constant Matrix: (Units=GPa)
#
#
# Indices 1 2 3 4 5 6 
#
# 1 137.5722 58.7498 43.4412 0.0000 55.3293 0.0000
# 2 58.7498 207.3990 60.8378 0.0000 30.2682 0.0000
# 3 43.4412 60.8378 102.9202 0.0000 37.5142 0.0000
# 4 0.0000 0.0000 0.0000 63.6848 0.0000 2.4263
# 5 55.3293 30.2682 37.5142 0.0000 53.0186 0.0000
# 6 0.0000 0.0000 0.0000 2.4263 0.0000 48.0528
#
#
#
# Elastic Compliance Matrix: (Units=1/GPa)
#
#
# Indices 1 2 3 4 5 6 
#
# 1 0.013171 -0.001935 0.000259 0.000000 -0.012823 0.000000
# 2 -0.001935 0.006175 -0.003078 0.000000 0.000673 0.000000
# 3 0.000259 -0.003078 0.014667 0.000000 -0.008891 0.000000
# 4 0.000000 0.000000 0.000000 0.015733 0.000000 -0.000794
# 5 -0.012823 0.000673 -0.008891 0.000000 0.038150 0.000000
# 6 0.000000 0.000000 0.000000 -0.000794 0.000000 0.020851
#
#
# Mechanical properties :
#
#
# Convention : Reuss Voigt Hill
#
# Bulk Modulus (GPa) = 40.81092 85.99434 63.40263
# Shear Modulus (GPa) = 39.54955 51.94209 45.74582
#
# Velocity S-wave (km/s) = 3.91534 4.48702 4.21089
# Velocity P-wave (km/s) = 6.02151 7.75738 6.94390
#
# Compressibility (1/GPa) = 0.02450324
#
# Stress axis : x y z
#
# Youngs Moduli (GPa) = 75.92437 161.95258 68.17892
#
# Poissons Ratio (x) = 0.31344 -0.01764
# Poissons Ratio (y) = 0.14694 0.20987
# Poissons Ratio (z) = -0.01965 0.49853
#
# Static dielectric constant tensor:
#      x y z
#    x 5.093440 0.000000 -0.517350 
#    y 0.000000 5.884150 0.000000 
#    z -0.517350 0.000000 5.235590 
# 
# 
# High freq. dielectric constant tensor:
#      x y z
#    x 2.061550 0.000000 -0.012270 
#    y 0.000000 2.056690 0.000000 
#    z -0.012270 0.000000 2.053030 
# 
# From -- ./inp_files/1011.got.cif
#   From: 2010.03.12/outbox.cif.g09.slc.cpg/sg4_1_cif.got.tgz:1011.got - 2010.03.31 09:31:35.
