data_PCOD8047236
_publ_section_title
;
Structure prediction by ZEFSAII (Michael W. Deem and Ramdas Pophale) SiO2 
 PCOD8047236
Probable space group: P 21
;
_chemical_formula_sum "Si O2"
_cell_formula_units_Z 16
_cell_length_a 17.456308
_cell_length_b 9.331588
_cell_length_c 6.355976
_cell_angle_alpha 90.000000
_cell_angle_beta 136.499279
_cell_angle_gamma 90.000000
_cell_volume 712.702305
_symmetry_space_group_name_H-M "P 21"
_symmetry_group_IT_number 4
_symmetry_cell_setting 'monoclinic'
loop_
_space_group_symop_operation_xyz
x,y,z
-x,1/2+y,-z
loop_
_atom_site_type_symbol
_atom_site_label
_atom_site_fract_x
_atom_site_fract_y
_atom_site_fract_z
Si Si1 0.534262 0.051530 0.834517
Si Si2 0.553186 0.314614 0.635141
Si Si3 0.896156 0.324655 0.356825
Si Si4 0.113614 0.043167 0.310435
Si Si5 0.354931 0.969643 0.794779
Si Si6 0.792466 0.080574 0.444872
Si Si7 0.036583 0.342988 0.265520
Si Si8 0.730975 0.244994 0.691675
O O1 0.483674 0.198348 0.631217
O O2 0.466071 0.037865 0.916403
O O3 0.521502 0.911041 0.665252
O O4 0.664156 0.071736 0.127570
O O5 0.630776 0.207151 0.650211
O O6 0.623492 0.424622 0.921188
O O7 0.903680 0.472852 0.495494
O O8 0.860323 0.194779 0.437829
O O9 0.013549 0.305706 0.466487
O O10 0.812418 0.340987 0.993664
O O11 0.246764 0.071538 0.552978
O O12 0.050088 0.194072 0.165468
O O13 0.063467 0.934834 0.037744
O O14 0.322290 0.825178 0.611912
O O15 0.797165 0.115347 0.707486
O O16 0.847610 0.927160 0.519804
#
# Coordination Sequence:
#
# PCOD8047236 Si02
#       8
#     2   2   2   2   2   2   2   2
#     4  11  26  43  71 106 140 189 236 290 352 425
#     4  11  24  44  70 103 139 189 231 282 361 417
#     4  12  21  45  73  94 135 186 232 285 355 418
#     4  12  24  46  66 105 136 179 237 286 357 422
#     4  11  23  43  72 100 141 184 231 292 348 421
#     4  12  25  47  70 106 139 188 242 286 355 424
#     4  12  28  43  71 102 140 185 232 297 349 423
#     4  11  19  43  75  90 136 186 225 282 353 418
#
# _framework density 22.449767999999999
#
# number of rings (size 3 to 8) (size 9 to 14) (size 15 to 20)
#    0.000    0.500    6.250    2.250    1.750    2.000 
#    0.000    0.000    0.000    0.000    0.000    0.000 
#    0.000    0.000    0.000    0.000    0.000    0.000 
#
# Total GULP energy -198240.652977 kJ/mol
# GULP energy per Si atom -12390.040811 kJ/mol
# Density = 2.239867 g / cm^3
# Si number density = 22.449768 Si / 1000 Ang^3
#
#
#
# Elastic Constant Matrix: (Units=GPa)
#
#
# Indices 1 2 3 4 5 6 
#
# 1 134.5237 64.9240 42.0974 0.0000 -9.2215 0.0000
# 2 64.9240 122.7608 31.4778 0.0000 -1.2340 0.0000
# 3 42.0974 31.4778 73.4598 0.0000 -12.7005 0.0000
# 4 0.0000 0.0000 0.0000 30.9707 0.0000 -0.7166
# 5 -9.2215 -1.2340 -12.7005 0.0000 29.3409 0.0000
# 6 0.0000 0.0000 0.0000 -0.7166 0.0000 35.6575
#
#
#
# Elastic Compliance Matrix: (Units=1/GPa)
#
#
# Indices 1 2 3 4 5 6 
#
# 1 0.011141 -0.004840 -0.004043 0.000000 0.001548 0.000000
# 2 -0.004840 0.011309 -0.002435 0.000000 -0.002100 0.000000
# 3 -0.004043 -0.002435 0.018090 0.000000 0.006457 0.000000
# 4 0.000000 0.000000 0.000000 0.032304 0.000000 0.000649
# 5 0.001548 -0.002100 0.006457 0.000000 0.037275 0.000000
# 6 0.000000 0.000000 0.000000 0.000649 0.000000 0.028058
#
#
# Mechanical properties :
#
#
# Convention : Reuss Voigt Hill
#
# Bulk Modulus (GPa) = 55.85602 67.52699 61.69150
# Shear Modulus (GPa) = 29.97968 32.01015 30.99491
#
# Velocity S-wave (km/s) = 3.65829 3.78015 3.71972
# Velocity P-wave (km/s) = 6.54053 7.01407 6.78144
#
# Compressibility (1/GPa) = 0.01790317
#
# Stress axis : x y z
#
# Youngs Moduli (GPa) = 89.76135 88.42633 55.27994
#
# Poissons Ratio (x) = 0.42796 0.22349
# Poissons Ratio (y) = 0.43442 0.13463
# Poissons Ratio (z) = 0.36290 0.21536
#
# Static dielectric constant tensor:
#      x y z
#    x 4.778710 0.000000 -0.230010 
#    y 0.000000 3.893130 0.000000 
#    z -0.230010 0.000000 4.034270 
# 
# 
# High freq. dielectric constant tensor:
#      x y z
#    x 1.903590 0.000000 -0.011340 
#    y 0.000000 1.862650 0.000000 
#    z -0.011340 0.000000 1.883920 
# 
# From -- ./inp_files/3706.got.cif
#   From: 2010.03.12/outbox.cif.g09.slc.cpg/sg4_2_cif.got.tgz:3706.got - 2010.03.31 09:31:35.
