data_PCOD8047030
_publ_section_title
;
Structure prediction by ZEFSAII (Michael W. Deem and Ramdas Pophale) SiO2 
 PCOD8047030
Probable space group: P 21
;
_chemical_formula_sum "Si O2"
_cell_formula_units_Z 16
_cell_length_a 11.035805
_cell_length_b 8.855694
_cell_length_c 10.565099
_cell_angle_alpha 90.000000
_cell_angle_beta 44.535304
_cell_angle_gamma 90.000000
_cell_volume 724.159337
_symmetry_space_group_name_H-M "P 21"
_symmetry_group_IT_number 4
_symmetry_cell_setting 'monoclinic'
loop_
_space_group_symop_operation_xyz
x,y,z
-x,1/2+y,-z
loop_
_atom_site_type_symbol
_atom_site_label
_atom_site_fract_x
_atom_site_fract_y
_atom_site_fract_z
Si Si1 0.154323 0.839750 0.302796
Si Si2 0.429137 0.622721 0.881347
Si Si3 0.550108 0.431679 0.562602
Si Si4 0.039398 0.639010 0.179947
Si Si5 0.186928 0.121340 0.097671
Si Si6 0.908136 0.335873 0.370872
Si Si7 0.529588 0.830814 0.002158
Si Si8 0.715300 0.662795 0.255831
O O1 0.029752 0.723305 0.322706
O O2 0.061973 0.877996 0.503282
O O3 0.205753 0.975348 0.170213
O O4 0.343971 0.773238 0.195859
O O5 0.530824 0.553386 0.688856
O O6 0.524585 0.777736 0.857160
O O7 0.233617 0.659812 0.981815
O O8 0.438535 0.508848 0.996409
O O9 0.709067 0.324082 0.480117
O O10 0.594640 0.532593 0.406750
O O11 0.384860 0.323280 0.673235
O O12 0.004839 0.462827 0.219150
O O13 0.890805 0.705249 0.200284
O O14 0.317474 0.251449 0.038564
O O15 0.991822 0.177586 0.268611
O O16 0.224586 0.091907 0.922274
#
# Coordination Sequence:
#
# PCOD8047030 Si02
#       8
#     2   2   2   2   2   2   2   2
#     4  11  23  38  63  98 125 160 225 272 336 400
#     4  11  21  42  68  94 134 167 220 280 340 390
#     4  11  24  45  66  93 134 179 225 280 322 396
#     4  10  24  40  62  95 131 173 213 275 327 402
#     4  12  23  40  66  93 130 174 220 269 334 407
#     4  11  21  41  65  90 128 168 211 285 342 373
#     4  11  20  39  66  94 128 168 215 277 344 397
#     4  11  26  45  64  93 134 183 229 264 337 395
#
# _framework density 22.094584000000001
#
# number of rings (size 3 to 8) (size 9 to 14) (size 15 to 20)
#    0.000    1.000    5.000    0.750    0.000    8.000 
#    0.000    1.250    0.000    0.000    0.000    0.000 
#    0.000    0.000    0.000    0.000    0.000    0.000 
#
# Total GULP energy -198294.230567 kJ/mol
# GULP energy per Si atom -12393.389410 kJ/mol
# Density = 2.204430 g / cm^3
# Si number density = 22.094584 Si / 1000 Ang^3
#
#
#
# Elastic Constant Matrix: (Units=GPa)
#
#
# Indices 1 2 3 4 5 6 
#
# 1 84.0369 13.7470 47.4459 0.0000 -11.9892 0.0000
# 2 13.7470 59.0642 33.5391 0.0000 7.3705 0.0000
# 3 47.4459 33.5391 114.1887 0.0000 15.6112 0.0000
# 4 0.0000 0.0000 0.0000 34.8943 0.0000 0.2461
# 5 -11.9892 7.3705 15.6112 0.0000 39.9663 0.0000
# 6 0.0000 0.0000 0.0000 0.2461 0.0000 36.0552
#
#
#
# Elastic Compliance Matrix: (Units=1/GPa)
#
#
# Indices 1 2 3 4 5 6 
#
# 1 0.018092 -0.000432 -0.008603 0.000000 0.008867 0.000000
# 2 -0.000432 0.020415 -0.005582 0.000000 -0.001714 0.000000
# 3 -0.008603 -0.005582 0.014984 0.000000 -0.007404 0.000000
# 4 0.000000 0.000000 0.000000 0.028659 0.000000 -0.000196
# 5 0.008867 -0.001714 -0.007404 0.000000 0.030889 0.000000
# 6 0.000000 0.000000 0.000000 -0.000196 0.000000 0.027737
#
#
# Mechanical properties :
#
#
# Convention : Reuss Voigt Hill
#
# Bulk Modulus (GPa) = 41.22633 49.63931 45.43282
# Shear Modulus (GPa) = 28.07463 33.02033 30.54748
#
# Velocity S-wave (km/s) = 3.56849 3.87007 3.72234
# Velocity P-wave (km/s) = 5.97314 6.51808 6.25155
#
# Compressibility (1/GPa) = 0.02425634
#
# Stress axis : x y z
#
# Youngs Moduli (GPa) = 55.27205 48.98330 66.73914
#
# Poissons Ratio (x) = 0.02118 0.57414
# Poissons Ratio (y) = 0.02390 0.37255
# Poissons Ratio (z) = 0.47549 0.27343
#
# Static dielectric constant tensor:
#      x y z
#    x 4.200130 0.000000 -0.095000 
#    y 0.000000 3.881030 0.000000 
#    z -0.095000 0.000000 4.005420 
# 
# 
# High freq. dielectric constant tensor:
#      x y z
#    x 1.877020 0.000000 -0.011550 
#    y 0.000000 1.861480 0.000000 
#    z -0.011550 0.000000 1.864220 
# 
# From -- ./inp_files/11971.got.cif
#   From: 2010.03.12/outbox.cif.g09.slc.cpg/sg4_6_cif.got.tgz:11971.got - 2010.03.31 09:31:35.
