data_PCOD8047863
_publ_section_title
;
Structure prediction by ZEFSAII (Michael W. Deem and Ramdas Pophale) SiO2 
 PCOD8047863
Probable space group: P 21
;
_chemical_formula_sum "Si O2"
_cell_formula_units_Z 14
_cell_length_a 8.274217
_cell_length_b 6.867827
_cell_length_c 16.447511
_cell_angle_alpha 90.000000
_cell_angle_beta 139.842313
_cell_angle_gamma 90.000000
_cell_volume 602.746092
_symmetry_space_group_name_H-M "P 21"
_symmetry_group_IT_number 4
_symmetry_cell_setting 'monoclinic'
loop_
_space_group_symop_operation_xyz
x,y,z
-x,1/2+y,-z
loop_
_atom_site_type_symbol
_atom_site_label
_atom_site_fract_x
_atom_site_fract_y
_atom_site_fract_z
Si Si1 0.730874 0.136370 0.914013
Si Si2 0.284628 0.330815 0.358552
Si Si3 0.065806 0.973965 0.908727
Si Si4 0.602848 0.820848 0.987036
Si Si5 0.836307 0.085215 0.206670
Si Si6 0.250681 0.357998 0.670276
Si Si7 0.239455 0.595838 0.499872
O O1 0.508003 0.242313 0.781208
O O2 0.959394 0.097020 0.942773
O O3 0.644144 0.932980 0.919180
O O4 0.839847 0.261014 0.030288
O O5 0.156667 0.465391 0.241683
O O6 0.282359 0.455417 0.439755
O O7 0.555952 0.268634 0.428868
O O8 0.130787 0.129384 0.312626
O O9 0.310266 0.095261 0.977026
O O10 0.301190 0.787385 0.876724
O O11 0.753036 0.904209 0.120558
O O12 0.770575 0.035013 0.274228
O O13 0.262696 0.457185 0.586913
O O14 0.027223 0.203642 0.597809
#
# Coordination Sequence:
#
# PCOD8047863 Si02
#       7
#     2   2   2   2   2   2   2
#     4  12  26  45  76 114 151 191 242 313 387 448
#     4  12  28  49  77 107 150 199 255 311 370 446
#     4  12  26  45  76 114 151 191 242 313 387 448
#     4  12  24  44  72 114 156 188 238 298 394 464
#     4  12  24  45  76 108 151 194 242 308 380 454
#     4  12  28  49  77 107 150 199 255 311 370 446
#     4  12  30  51  76 106 149 206 262 306 368 440
#
# _framework density 23.227029999999999
#
# number of rings (size 3 to 8) (size 9 to 14) (size 15 to 20)
#    0.000    0.000    4.286    5.143   10.000    0.000 
#    0.000    0.000    0.000    0.000    0.000    0.000 
#    0.000    0.000    0.000    0.000    0.000    0.000 
#
# Total GULP energy -173626.388678 kJ/mol
# GULP energy per Si atom -12401.884906 kJ/mol
# Density = 2.317416 g / cm^3
# Si number density = 23.227030 Si / 1000 Ang^3
#
#
#
# Elastic Constant Matrix: (Units=GPa)
#
#
# Indices 1 2 3 4 5 6 
#
# 1 74.0668 12.7834 25.2281 0.0000 1.2691 0.0000
# 2 12.7834 85.7406 27.7130 0.0000 -8.1041 0.0000
# 3 25.2281 27.7130 103.4706 0.0000 -10.8159 0.0000
# 4 0.0000 0.0000 0.0000 56.1687 0.0000 -1.5163
# 5 1.2691 -8.1041 -10.8159 0.0000 42.9829 0.0000
# 6 0.0000 0.0000 0.0000 -1.5163 0.0000 46.8542
#
#
#
# Elastic Compliance Matrix: (Units=1/GPa)
#
#
# Indices 1 2 3 4 5 6 
#
# 1 0.014924 -0.001251 -0.003466 0.000000 -0.001549 0.000000
# 2 -0.001251 0.012980 -0.002990 0.000000 0.001732 0.000000
# 3 -0.003466 -0.002990 0.011566 0.000000 0.002449 0.000000
# 4 0.000000 0.000000 0.000000 0.017819 0.000000 0.000577
# 5 -0.001549 0.001732 0.002449 0.000000 0.024254 0.000000
# 6 0.000000 0.000000 0.000000 0.000577 0.000000 0.021361
#
#
# Mechanical properties :
#
#
# Convention : Reuss Voigt Hill
#
# Bulk Modulus (GPa) = 41.56948 43.85856 42.71402
# Shear Modulus (GPa) = 39.57643 42.37139 40.97391
#
# Velocity S-wave (km/s) = 4.13230 4.27573 4.20463
# Velocity P-wave (km/s) = 6.37995 6.58023 6.48086
#
# Compressibility (1/GPa) = 0.02405611
#
# Stress axis : x y z
#
# Youngs Moduli (GPa) = 67.00512 77.04237 86.45687
#
# Poissons Ratio (x) = 0.09641 0.29962
# Poissons Ratio (y) = 0.08385 0.25854
# Poissons Ratio (z) = 0.23221 0.23038
#
# Static dielectric constant tensor:
#      x y z
#    x 4.355660 0.000000 0.021780 
#    y 0.000000 4.174930 0.000000 
#    z 0.021780 0.000000 4.262960 
# 
# 
# High freq. dielectric constant tensor:
#      x y z
#    x 1.939670 0.000000 -0.000300 
#    y 0.000000 1.929960 0.000000 
#    z -0.000300 0.000000 1.928560 
# 
# From -- ./inp_files/8984.got.cif
#   From: 2010.03.12/outbox.cif.g09.slc.cpg/sg4_5_cif.got.tgz:8984.got - 2010.03.31 09:31:35.
