data_PCOD8047004
_publ_section_title
;
Structure prediction by ZEFSAII (Michael W. Deem and Ramdas Pophale) SiO2 
 PCOD8047004
Probable space group: P 21
;
_chemical_formula_sum "Si O2"
_cell_formula_units_Z 16
_cell_length_a 11.260010
_cell_length_b 8.916976
_cell_length_c 11.199239
_cell_angle_alpha 90.000000
_cell_angle_beta 140.484920
_cell_angle_gamma 90.000000
_cell_volume 715.474298
_symmetry_space_group_name_H-M "P 21"
_symmetry_group_IT_number 4
_symmetry_cell_setting 'monoclinic'
loop_
_space_group_symop_operation_xyz
x,y,z
-x,1/2+y,-z
loop_
_atom_site_type_symbol
_atom_site_label
_atom_site_fract_x
_atom_site_fract_y
_atom_site_fract_z
Si Si1 0.502258 0.401270 0.472652
Si Si2 0.996893 0.315143 0.264197
Si Si3 0.097407 0.449123 0.101571
Si Si4 0.116465 0.759714 0.238368
Si Si5 0.679785 0.244804 0.182145
Si Si6 0.619979 0.688889 0.442157
Si Si7 0.027523 0.618741 0.410781
Si Si8 0.371997 0.085346 0.808111
O O1 0.304426 0.375293 0.251549
O O2 0.671828 0.298310 0.557274
O O3 0.559234 0.574432 0.500704
O O4 0.460331 0.352807 0.579054
O O5 0.977092 0.381211 0.116698
O O6 0.155767 0.188382 0.390796
O O7 0.055205 0.444385 0.403205
O O8 0.799809 0.248585 0.152944
O O9 0.114450 0.628144 0.136128
O O10 0.984703 0.407398 0.894234
O O11 0.009844 0.713297 0.275238
O O12 0.794822 0.166132 0.375539
O O13 0.617941 0.406891 0.179958
O O14 0.496116 0.149116 0.012078
O O15 0.544358 0.639568 0.254258
O O16 0.838548 0.645490 0.338748
#
# Coordination Sequence:
#
# PCOD8047004 Si02
#       8
#     2   2   2   2   2   2   2   2
#     4  11  24  44  67 101 141 184 230 291 353 420
#     4   9  22  43  69  96 139 186 227 289 349 412
#     4  10  24  42  64 102 134 182 235 283 352 415
#     4  11  24  43  69  98 140 184 235 288 351 420
#     4  11  24  45  72 104 142 186 239 287 351 419
#     4  11  23  46  71 102 142 183 238 290 356 416
#     4  10  23  47  68 101 141 187 236 291 351 418
#     4  11  26  44  70 108 137 190 238 291 355 416
#
# _framework density 22.362787999999998
#
# number of rings (size 3 to 8) (size 9 to 14) (size 15 to 20)
#    0.000    1.500    2.500    0.750    7.000    2.000 
#    2.250    0.000    0.000    0.000    0.000    0.000 
#    0.000    0.000    0.000    0.000    0.000    0.000 
#
# Total GULP energy -198357.275569 kJ/mol
# GULP energy per Si atom -12397.329723 kJ/mol
# Density = 2.231189 g / cm^3
# Si number density = 22.362788 Si / 1000 Ang^3
#
#
#
# Elastic Constant Matrix: (Units=GPa)
#
#
# Indices 1 2 3 4 5 6 
#
# 1 96.8172 39.0183 34.5806 0.0000 1.7203 0.0000
# 2 39.0183 70.3232 48.7023 0.0000 -4.3924 0.0000
# 3 34.5806 48.7023 109.9974 0.0000 1.9445 0.0000
# 4 0.0000 0.0000 0.0000 39.6662 0.0000 4.8507
# 5 1.7203 -4.3924 1.9445 0.0000 24.1473 0.0000
# 6 0.0000 0.0000 0.0000 4.8507 0.0000 40.0730
#
#
#
# Elastic Compliance Matrix: (Units=1/GPa)
#
#
# Indices 1 2 3 4 5 6 
#
# 1 0.013541 -0.006811 -0.001204 0.000000 -0.002107 0.000000
# 2 -0.006811 0.024427 -0.008774 0.000000 0.005635 0.000000
# 3 -0.001204 -0.008774 0.013400 0.000000 -0.002589 0.000000
# 4 0.000000 0.000000 0.000000 0.025589 0.000000 -0.003097
# 5 -0.002107 0.005635 -0.002589 0.000000 0.042796 0.000000
# 6 0.000000 0.000000 0.000000 -0.003097 0.000000 0.025329
#
#
# Mechanical properties :
#
#
# Convention : Reuss Voigt Hill
#
# Bulk Modulus (GPa) = 56.20873 57.97112 57.08993
# Shear Modulus (GPa) = 27.08689 31.09974 29.09332
#
# Velocity S-wave (km/s) = 3.48408 3.73324 3.61081
# Velocity P-wave (km/s) = 6.43230 6.67549 6.55502
#
# Compressibility (1/GPa) = 0.01779083
#
# Stress axis : x y z
#
# Youngs Moduli (GPa) = 73.84924 40.93787 74.62581
#
# Poissons Ratio (x) = 0.27882 0.08987
# Poissons Ratio (y) = 0.50297 0.65476
# Poissons Ratio (z) = 0.08893 0.35918
#
# Static dielectric constant tensor:
#      x y z
#    x 4.166240 0.000000 0.141330 
#    y 0.000000 4.011000 0.000000 
#    z 0.141330 0.000000 3.746360 
# 
# 
# High freq. dielectric constant tensor:
#      x y z
#    x 1.887330 0.000000 0.010150 
#    y 0.000000 1.878080 0.000000 
#    z 0.010150 0.000000 1.866120 
# 
# From -- ./inp_files/12041.got.cif
#   From: 2010.03.12/outbox.cif.g09.slc.cpg/sg4_7_cif.got.tgz:12041.got - 2010.03.31 09:31:35.
