data_PCOD8047314
_publ_section_title
;
Structure prediction by ZEFSAII (Michael W. Deem and Ramdas Pophale) SiO2 
 PCOD8047314
Probable space group: P 21
;
_chemical_formula_sum "Si O2"
_cell_formula_units_Z 14
_cell_length_a 8.487111
_cell_length_b 10.678201
_cell_length_c 6.046821
_cell_angle_alpha 90.000000
_cell_angle_beta 74.229139
_cell_angle_gamma 90.000000
_cell_volume 527.376774
_symmetry_space_group_name_H-M "P 21"
_symmetry_group_IT_number 4
_symmetry_cell_setting 'monoclinic'
loop_
_space_group_symop_operation_xyz
x,y,z
-x,1/2+y,-z
loop_
_atom_site_type_symbol
_atom_site_label
_atom_site_fract_x
_atom_site_fract_y
_atom_site_fract_z
Si Si1 0.576817 0.416800 0.584633
Si Si2 0.957290 0.679107 0.431817
Si Si3 0.485997 0.134841 0.709904
Si Si4 0.764870 0.096605 0.956784
Si Si5 0.237475 0.044432 0.139317
Si Si6 0.917180 0.891627 0.129776
Si Si7 0.150452 0.786280 0.730517
O O1 0.493799 0.277704 0.613993
O O2 0.485700 0.533235 0.498390
O O3 0.621986 0.449616 0.822721
O O4 0.745173 0.407293 0.377158
O O5 0.805008 0.624177 0.623880
O O6 0.878936 0.803843 0.352503
O O7 0.048678 0.592521 0.214963
O O8 0.115577 0.705791 0.525810
O O9 0.625039 0.100310 0.831644
O O10 0.311260 0.123214 0.904993
O O11 0.743353 0.215240 0.124395
O O12 0.757105 0.972258 0.118787
O O13 0.072324 0.977787 0.130046
O O14 0.969712 0.813505 0.894071
#
# Coordination Sequence:
#
# PCOD8047314 Si02
#       7
#     2   2   2   2   2   2   2
#     4  12  27  55  80 112 168 217 268 333 408 481
#     4  11  24  46  79 111 153 210 262 330 414 466
#     4  12  30  52  84 116 166 222 267 335 410 483
#     4  11  25  47  76 113 153 206 267 325 404 475
#     4  12  26  50  79 116 159 211 273 332 405 486
#     4  11  23  44  77 114 151 199 270 338 390 482
#     4  11  21  46  77 108 154 199 263 331 397 469
#
# _framework density 26.546486999999999
#
# number of rings (size 3 to 8) (size 9 to 14) (size 15 to 20)
#    0.000    0.571    5.714    1.714    2.000    0.000 
#    7.714    0.000    0.000    0.000    0.000    0.000 
#    0.000    0.000    0.000    0.000    0.000    0.000 
#
# Total GULP energy -173513.222806 kJ/mol
# GULP energy per Si atom -12393.801629 kJ/mol
# Density = 2.648607 g / cm^3
# Si number density = 26.546487 Si / 1000 Ang^3
#
#
#
# Elastic Constant Matrix: (Units=GPa)
#
#
# Indices 1 2 3 4 5 6 
#
# 1 51.6023 15.5709 -0.8122 0.0000 21.2045 0.0000
# 2 15.5709 119.4606 41.5546 0.0000 4.5933 0.0000
# 3 -0.8122 41.5546 94.1708 0.0000 -3.4727 0.0000
# 4 0.0000 0.0000 0.0000 47.9869 0.0000 2.8944
# 5 21.2045 4.5933 -3.4727 0.0000 58.2925 0.0000
# 6 0.0000 0.0000 0.0000 2.8944 0.0000 42.9988
#
#
#
# Elastic Compliance Matrix: (Units=1/GPa)
#
#
# Indices 1 2 3 4 5 6 
#
# 1 0.023799 -0.003245 0.001330 0.000000 -0.008322 0.000000
# 2 -0.003245 0.010395 -0.004612 0.000000 0.000086 0.000000
# 3 0.001330 -0.004612 0.012689 0.000000 0.000635 0.000000
# 4 0.000000 0.000000 0.000000 0.020924 0.000000 -0.001408
# 5 -0.008322 0.000086 0.000635 0.000000 0.020213 0.000000
# 6 0.000000 0.000000 0.000000 -0.001408 0.000000 0.023351
#
#
# Mechanical properties :
#
#
# Convention : Reuss Voigt Hill
#
# Bulk Modulus (GPa) = 29.55965 41.98450 35.77207
# Shear Modulus (GPa) = 36.84601 43.78367 40.31484
#
# Velocity S-wave (km/s) = 3.72960 4.06559 3.90121
# Velocity P-wave (km/s) = 5.45030 6.15536 5.81353
#
# Compressibility (1/GPa) = 0.03382990
#
# Stress axis : x y z
#
# Youngs Moduli (GPa) = 42.01904 96.20251 78.80907
#
# Poissons Ratio (x) = 0.31215 -0.10483
# Poissons Ratio (y) = 0.13634 0.36344
# Poissons Ratio (z) = -0.05589 0.44365
#
# Static dielectric constant tensor:
#      x y z
#    x 4.559760 0.000000 -0.096360 
#    y 0.000000 5.037130 0.000000 
#    z -0.096360 0.000000 5.257150 
# 
# 
# High freq. dielectric constant tensor:
#      x y z
#    x 2.055490 0.000000 0.006230 
#    y 0.000000 2.064240 0.000000 
#    z 0.006230 0.000000 2.087020 
# 
# From -- ./inp_files/1279.got.cif
#   From: 2010.03.12/outbox.cif.g09.slc.cpg/sg4_1_cif.got.tgz:1279.got - 2010.03.31 09:31:35.
