data_PCOD8047505
_publ_section_title
;
Structure prediction by ZEFSAII (Michael W. Deem and Ramdas Pophale) SiO2 
 PCOD8047505
Probable space group: P 21
;
_chemical_formula_sum "Si O2"
_cell_formula_units_Z 16
_cell_length_a 8.988528
_cell_length_b 6.151234
_cell_length_c 26.165626
_cell_angle_alpha 90.000000
_cell_angle_beta 150.247448
_cell_angle_gamma 90.000000
_cell_volume 717.938099
_symmetry_space_group_name_H-M "P 21"
_symmetry_group_IT_number 4
_symmetry_cell_setting 'monoclinic'
loop_
_space_group_symop_operation_xyz
x,y,z
-x,1/2+y,-z
loop_
_atom_site_type_symbol
_atom_site_label
_atom_site_fract_x
_atom_site_fract_y
_atom_site_fract_z
Si Si1 0.099965 0.851310 0.456726
Si Si2 0.789392 0.806948 0.769939
Si Si3 0.622045 0.574394 0.909108
Si Si4 0.340678 0.498935 0.589637
Si Si5 0.684829 0.112811 0.648917
Si Si6 0.789286 0.754527 0.262507
Si Si7 0.735159 0.930976 0.867500
Si Si8 0.577495 0.178031 0.044308
O O1 0.213382 0.604505 0.499161
O O2 0.897238 0.875865 0.346164
O O3 0.382286 0.010924 0.535372
O O4 0.920515 0.890037 0.455787
O O5 0.482539 0.679760 0.669004
O O6 0.765533 0.931882 0.815978
O O7 0.067809 0.641807 0.852658
O O8 0.841716 0.976868 0.740179
O O9 0.339757 0.412866 0.819543
O O10 0.613956 0.706652 0.853958
O O11 0.558655 0.719027 0.940250
O O12 0.945528 0.464282 0.010177
O O13 0.602749 0.341261 0.649502
O O14 0.926057 0.128593 0.675465
O O15 0.505603 0.611226 0.191592
O O16 0.531118 0.428863 0.005725
#
# Coordination Sequence:
#
# PCOD8047505 Si02
#       8
#     2   2   2   2   2   2   2   2
#     4  11  25  45  73 105 139 196 246 314 386 465
#     4  11  26  45  75 109 142 206 247 319 382 468
#     4  12  27  46  74 108 152 199 257 319 383 467
#     4  11  23  45  74 101 145 188 257 314 381 468
#     4  11  26  47  73 108 149 188 259 310 390 467
#     4  12  28  46  74 107 153 198 243 325 389 463
#     4  12  26  46  75 108 151 197 258 309 390 464
#     4  12  29  48  80 112 159 208 263 322 389 462
#
# _framework density 22.286045999999999
#
# number of rings (size 3 to 8) (size 9 to 14) (size 15 to 20)
#    0.000    0.500    3.750    3.000   10.500    3.000 
#    0.000    0.000    0.000    0.000    0.000    0.000 
#    0.000    0.000    0.000    0.000    0.000    0.000 
#
# Total GULP energy -198257.242208 kJ/mol
# GULP energy per Si atom -12391.077638 kJ/mol
# Density = 2.223532 g / cm^3
# Si number density = 22.286046 Si / 1000 Ang^3
#
#
#
# Elastic Constant Matrix: (Units=GPa)
#
#
# Indices 1 2 3 4 5 6 
#
# 1 132.6105 33.1196 49.4679 0.0000 20.3847 0.0000
# 2 33.1196 96.7551 40.8379 0.0000 -0.7392 0.0000
# 3 49.4679 40.8379 125.4213 0.0000 -1.0718 0.0000
# 4 0.0000 0.0000 0.0000 21.1694 0.0000 8.2118
# 5 20.3847 -0.7392 -1.0718 0.0000 44.8822 0.0000
# 6 0.0000 0.0000 0.0000 8.2118 0.0000 34.7178
#
#
#
# Elastic Compliance Matrix: (Units=1/GPa)
#
#
# Indices 1 2 3 4 5 6 
#
# 1 0.010009 -0.002062 -0.003316 0.000000 -0.004659 0.000000
# 2 -0.002062 0.012407 -0.003218 0.000000 0.001064 0.000000
# 3 -0.003316 -0.003218 0.010343 0.000000 0.001700 0.000000
# 4 0.000000 0.000000 0.000000 0.052010 0.000000 -0.012302
# 5 -0.004659 0.001064 0.001700 0.000000 0.024455 0.000000
# 6 0.000000 0.000000 0.000000 -0.012302 0.000000 0.031713
#
#
# Mechanical properties :
#
#
# Convention : Reuss Voigt Hill
#
# Bulk Modulus (GPa) = 64.23319 66.84864 65.54091
# Shear Modulus (GPa) = 30.61499 35.57799 33.09649
#
# Velocity S-wave (km/s) = 3.71041 3.99986 3.85785
# Velocity P-wave (km/s) = 6.87320 7.16887 7.02259
#
# Compressibility (1/GPa) = 0.01556828
#
# Stress axis : x y z
#
# Youngs Moduli (GPa) = 99.90907 80.59710 96.68177
#
# Poissons Ratio (x) = 0.16620 0.32061
# Poissons Ratio (y) = 0.20602 0.31107
# Poissons Ratio (z) = 0.33131 0.25932
#
# Static dielectric constant tensor:
#      x y z
#    x 3.981600 0.000000 -0.011670 
#    y 0.000000 4.305890 0.000000 
#    z -0.011670 0.000000 4.282580 
# 
# 
# High freq. dielectric constant tensor:
#      x y z
#    x 1.884680 0.000000 0.009740 
#    y 0.000000 1.878660 0.000000 
#    z 0.009740 0.000000 1.894960 
# 
# From -- ./inp_files/7356.got.cif
#   From: 2010.03.12/outbox.cif.g09.slc.cpg/sg4_4_cif.got.tgz:7356.got - 2010.03.31 09:31:35.
