data_PCOD8047991
_publ_section_title
;
Structure prediction by ZEFSAII (Michael W. Deem and Ramdas Pophale) SiO2 
 PCOD8047991
Probable space group: P 21
;
_chemical_formula_sum "Si O2"
_cell_formula_units_Z 16
_cell_length_a 27.066000
_cell_length_b 5.492459
_cell_length_c 9.482628
_cell_angle_alpha 90.000000
_cell_angle_beta 153.134903
_cell_angle_gamma 90.000000
_cell_volume 637.020868
_symmetry_space_group_name_H-M "P 21"
_symmetry_group_IT_number 4
_symmetry_cell_setting 'monoclinic'
loop_
_space_group_symop_operation_xyz
x,y,z
-x,1/2+y,-z
loop_
_atom_site_type_symbol
_atom_site_label
_atom_site_fract_x
_atom_site_fract_y
_atom_site_fract_z
Si Si1 0.724207 0.638650 0.282032
Si Si2 0.959559 0.265858 0.216263
Si Si3 0.459559 0.765858 0.216264
Si Si4 0.345248 0.492751 0.146476
Si Si5 0.460639 0.000528 0.829681
Si Si6 0.039361 0.000513 0.170319
Si Si7 0.154751 0.492753 0.853523
Si Si8 0.775793 0.638650 0.717967
O O1 0.828644 0.485804 0.489468
O O2 0.750001 0.765354 0.500000
O O3 0.623332 0.458862 0.064468
O O4 0.694316 0.830083 0.085487
O O5 0.911651 0.214254 0.249100
O O6 0.979834 0.027313 0.171216
O O7 0.080671 0.363418 0.548953
O O8 0.876667 0.458856 0.935524
O O9 0.411652 0.714250 0.249103
O O10 0.580671 0.863411 0.548955
O O11 0.479834 0.527314 0.171216
O O12 0.250001 0.602378 0.000005
O O13 0.328644 0.985806 0.489471
O O14 0.492361 0.253153 0.988167
O O15 0.007632 0.253121 0.011801
O O16 0.194312 0.330078 0.085477
#
# Coordination Sequence:
#
# PCOD8047991 Si02
#       8
#     2   2   2   2   2   2   2   2
#     4  12  26  49  79 113 150 211 262 325 396 472
#     4  12  27  47  78 112 161 210 263 328 398 475
#     4  12  27  47  78 112 161 210 263 328 398 475
#     4  12  27  47  75 112 156 207 263 325 398 473
#     4  12  28  51  82 119 163 209 266 332 398 469
#     4  12  28  51  82 119 163 209 266 332 398 469
#     4  12  27  47  75 112 156 207 263 325 398 473
#     4  12  26  49  79 113 150 211 262 325 396 472
#
# _framework density 25.116917000000001
#
# number of rings (size 3 to 8) (size 9 to 14) (size 15 to 20)
#    0.000    0.000    7.500    1.500    3.500    4.000 
#    0.000    0.000    0.000    0.000    0.000    0.000 
#    0.000    0.000    0.000    0.000    0.000    0.000 
#
# Total GULP energy -198338.573302 kJ/mol
# GULP energy per Si atom -12396.160831 kJ/mol
# Density = 2.505975 g / cm^3
# Si number density = 25.116917 Si / 1000 Ang^3
#
#
#
# Elastic Constant Matrix: (Units=GPa)
#
#
# Indices 1 2 3 4 5 6 
#
# 1 145.1248 4.7309 32.5536 0.0000 16.4693 0.0000
# 2 4.7309 57.4698 8.0394 0.0000 -7.2506 0.0000
# 3 32.5536 8.0394 112.4068 0.0000 -1.0321 0.0000
# 4 0.0000 0.0000 0.0000 24.7680 0.0000 -7.0395
# 5 16.4693 -7.2506 -1.0321 0.0000 33.5489 0.0000
# 6 0.0000 0.0000 0.0000 -7.0395 0.0000 48.1535
#
#
#
# Elastic Compliance Matrix: (Units=1/GPa)
#
#
# Indices 1 2 3 4 5 6 
#
# 1 0.007895 -0.000854 -0.002263 0.000000 -0.004130 0.000000
# 2 -0.000854 0.018156 -0.001012 0.000000 0.004312 0.000000
# 3 -0.002263 -0.001012 0.009635 0.000000 0.001189 0.000000
# 4 0.000000 0.000000 0.000000 0.042125 0.000000 0.006158
# 5 -0.004130 0.004312 0.001189 0.000000 0.032803 0.000000
# 6 0.000000 0.000000 0.000000 0.006158 0.000000 0.021667
#
#
# Mechanical properties :
#
#
# Convention : Reuss Voigt Hill
#
# Bulk Modulus (GPa) = 36.45917 45.07212 40.76564
# Shear Modulus (GPa) = 33.40413 39.27259 36.33836
#
# Velocity S-wave (km/s) = 3.65080 3.95852 3.80777
# Velocity P-wave (km/s) = 5.68493 6.23514 5.96638
#
# Compressibility (1/GPa) = 0.02742794
#
# Stress axis : x y z
#
# Youngs Moduli (GPa) = 126.66547 55.07726 103.78884
#
# Poissons Ratio (x) = 0.04705 0.23489
# Poissons Ratio (y) = 0.10821 0.10499
# Poissons Ratio (z) = 0.28667 0.05571
#
# Static dielectric constant tensor:
#      x y z
#    x 5.157200 0.000000 0.192630 
#    y 0.000000 4.117850 0.000000 
#    z 0.192630 0.000000 4.762850 
# 
# 
# High freq. dielectric constant tensor:
#      x y z
#    x 2.036540 0.000000 0.008390 
#    y 0.000000 1.971180 0.000000 
#    z 0.008390 0.000000 2.018680 
# 
# From -- ./inp_files/7416.got.cif
#   From: 2010.03.12/outbox.cif.g09.slc.cpg/sg4_4_cif.got.tgz:7416.got - 2010.03.31 09:31:35.
