data_PCOD8047749
_publ_section_title
;
Structure prediction by ZEFSAII (Michael W. Deem and Ramdas Pophale) SiO2 
 PCOD8047749
Probable space group: P 21
;
_chemical_formula_sum "Si O2"
_cell_formula_units_Z 10
_cell_length_a 5.064491
_cell_length_b 10.763219
_cell_length_c 9.020997
_cell_angle_alpha 90.000000
_cell_angle_beta 56.258493
_cell_angle_gamma 90.000000
_cell_volume 408.904517
_symmetry_space_group_name_H-M "P 21"
_symmetry_group_IT_number 4
_symmetry_cell_setting 'monoclinic'
loop_
_space_group_symop_operation_xyz
x,y,z
-x,1/2+y,-z
loop_
_atom_site_type_symbol
_atom_site_label
_atom_site_fract_x
_atom_site_fract_y
_atom_site_fract_z
Si Si1 0.536086 0.243800 0.899106
Si Si2 0.819942 0.739546 0.691586
Si Si3 0.966911 0.581797 0.110951
Si Si4 0.517969 0.487581 0.738254
Si Si5 0.586140 0.379626 0.407249
O O1 0.829407 0.149156 0.824235
O O2 0.652938 0.370021 0.786303
O O3 0.272588 0.182395 0.878213
O O4 0.397776 0.279074 0.102266
O O5 0.785531 0.593837 0.667658
O O6 0.711409 0.822227 0.585873
O O7 0.188670 0.766848 0.607687
O O8 0.788699 0.465737 0.235461
O O9 0.184970 0.534173 0.908552
O O10 0.454651 0.456498 0.586889
#
# Coordination Sequence:
#
# PCOD8047749 Si02
#       5
#     2   2   2   2   2
#     4  11  25  47  76  98 145 187 237 289 365 408
#     4  11  26  49  69 110 142 184 242 292 347 432
#     4  11  26  47  72 105 138 190 238 295 348 424
#     4  11  28  45  78 102 145 192 233 295 359 416
#     4  12  27  46  73 103 148 181 244 293 349 420
#
# _framework density 24.455587999999999
#
# number of rings (size 3 to 8) (size 9 to 14) (size 15 to 20)
#    0.000    0.800    2.000    3.600    8.400    6.400 
#    0.000    0.000    0.000    0.000    0.000    0.000 
#    0.000    0.000    0.000    0.000    0.000    0.000 
#
# Total GULP energy -124093.844723 kJ/mol
# GULP energy per Si atom -12409.384472 kJ/mol
# Density = 2.439993 g / cm^3
# Si number density = 24.455588 Si / 1000 Ang^3
#
#
#
# Elastic Constant Matrix: (Units=GPa)
#
#
# Indices 1 2 3 4 5 6 
#
# 1 79.7431 17.6730 7.4610 0.0000 10.3155 0.0000
# 2 17.6730 124.4398 33.7935 0.0000 1.4133 0.0000
# 3 7.4610 33.7935 74.4449 0.0000 16.0286 0.0000
# 4 0.0000 0.0000 0.0000 30.7366 0.0000 13.9783
# 5 10.3155 1.4133 16.0286 0.0000 24.5948 0.0000
# 6 0.0000 0.0000 0.0000 13.9783 0.0000 24.0394
#
#
#
# Elastic Compliance Matrix: (Units=1/GPa)
#
#
# Indices 1 2 3 4 5 6 
#
# 1 0.013734 -0.002134 0.000938 0.000000 -0.006249 0.000000
# 2 -0.002134 0.009636 -0.004925 0.000000 0.003551 0.000000
# 3 0.000938 -0.004925 0.018144 0.000000 -0.011935 0.000000
# 4 0.000000 0.000000 0.000000 0.044231 0.000000 -0.025719
# 5 -0.006249 0.003551 -0.011935 0.000000 0.050854 0.000000
# 6 0.000000 0.000000 0.000000 -0.025719 0.000000 0.056553
#
#
# Mechanical properties :
#
#
# Convention : Reuss Voigt Hill
#
# Bulk Modulus (GPa) = 34.16296 44.05365 39.10831
# Shear Modulus (GPa) = 23.23936 30.52084 26.88010
#
# Velocity S-wave (km/s) = 3.08599 3.53655 3.31892
# Velocity P-wave (km/s) = 5.16696 5.89314 5.54196
#
# Compressibility (1/GPa) = 0.02927147
#
# Stress axis : x y z
#
# Youngs Moduli (GPa) = 72.81279 103.77514 55.11435
#
# Poissons Ratio (x) = 0.22148 -0.05168
# Poissons Ratio (y) = 0.15540 0.27143
# Poissons Ratio (z) = -0.06828 0.51109
#
# Static dielectric constant tensor:
#      x y z
#    x 4.383770 0.000000 0.253250 
#    y 0.000000 4.616840 0.000000 
#    z 0.253250 0.000000 4.571790 
# 
# 
# High freq. dielectric constant tensor:
#      x y z
#    x 1.971550 0.000000 0.011050 
#    y 0.000000 1.985730 0.000000 
#    z 0.011050 0.000000 1.977890 
# 
# From -- ./inp_files/915.got.cif
#   From: 2010.03.12/outbox.cif.g09.slc.cpg/sg4_1_cif.got.tgz:915.got - 2010.03.31 09:31:35.
