data_PCOD8047143
_publ_section_title
;
Structure prediction by ZEFSAII (Michael W. Deem and Ramdas Pophale) SiO2 
 PCOD8047143
Probable space group: P 21
;
_chemical_formula_sum "Si O2"
_cell_formula_units_Z 16
_cell_length_a 8.682314
_cell_length_b 7.805103
_cell_length_c 9.630855
_cell_angle_alpha 90.000000
_cell_angle_beta 104.032970
_cell_angle_gamma 90.000000
_cell_volume 633.170546
_symmetry_space_group_name_H-M "P 21"
_symmetry_group_IT_number 4
_symmetry_cell_setting 'monoclinic'
loop_
_space_group_symop_operation_xyz
x,y,z
-x,1/2+y,-z
loop_
_atom_site_type_symbol
_atom_site_label
_atom_site_fract_x
_atom_site_fract_y
_atom_site_fract_z
Si Si1 0.581581 0.978840 0.259828
Si Si2 0.089322 0.137041 0.414036
Si Si3 0.108358 0.152813 0.983009
Si Si4 0.949889 0.240862 0.660631
Si Si5 0.849350 0.095255 0.150523
Si Si6 0.358846 0.870626 0.004648
Si Si7 0.695521 0.943941 0.584982
Si Si8 0.408610 0.331834 0.166980
O O1 0.591780 0.945818 0.424639
O O2 0.751516 0.944653 0.214386
O O3 0.518805 0.169759 0.220969
O O4 0.438322 0.858900 0.174069
O O5 0.229042 0.253544 0.383777
O O6 0.079216 0.181636 0.574845
O O7 0.930771 0.198437 0.296395
O O8 0.112236 0.934062 0.385396
O O9 0.225623 0.292913 0.079452
O O10 0.986928 0.062269 0.065646
O O11 0.018712 0.241143 0.832718
O O12 0.213470 0.998415 0.950885
O O13 0.811623 0.104253 0.611446
O O14 0.708613 0.185564 0.039030
O O15 0.501081 0.933343 0.934980
O O16 0.587928 0.955686 0.698612
#
# Coordination Sequence:
#
# PCOD8047143 Si02
#       8
#     2   2   2   2   2   2   2   2
#     4  10  24  49  71 110 156 204 248 323 388 466
#     4  12  25  46  74 115 159 191 264 335 371 462
#     4  11  26  44  77 113 145 204 261 318 386 453
#     4  12  27  43  78 118 150 204 261 321 399 441
#     4  11  23  46  75 103 154 191 256 328 366 457
#     4  10  25  47  74 106 150 205 252 316 401 450
#     4  12  25  51  77 109 159 208 256 314 398 464
#     4  10  25  48  72 108 157 199 260 321 379 483
#
# _framework density 25.269656000000001
#
# number of rings (size 3 to 8) (size 9 to 14) (size 15 to 20)
#    0.000    1.000    3.750    0.750    7.000    0.000 
#    6.750    0.000    0.000    0.000    0.000    0.000 
#    0.000    0.000    0.000    0.000    0.000    0.000 
#
# Total GULP energy -198211.104816 kJ/mol
# GULP energy per Si atom -12388.194051 kJ/mol
# Density = 2.521214 g / cm^3
# Si number density = 25.269656 Si / 1000 Ang^3
#
#
#
# Elastic Constant Matrix: (Units=GPa)
#
#
# Indices 1 2 3 4 5 6 
#
# 1 83.0661 32.9960 42.5576 0.0000 -4.4007 0.0000
# 2 32.9960 95.2759 52.3362 0.0000 4.1990 0.0000
# 3 42.5576 52.3362 180.2442 0.0000 6.9251 0.0000
# 4 0.0000 0.0000 0.0000 40.2658 0.0000 -3.8703
# 5 -4.4007 4.1990 6.9251 0.0000 36.2713 0.0000
# 6 0.0000 0.0000 0.0000 -3.8703 0.0000 24.4035
#
#
#
# Elastic Compliance Matrix: (Units=1/GPa)
#
#
# Indices 1 2 3 4 5 6 
#
# 1 0.015041 -0.003952 -0.002510 0.000000 0.002762 0.000000
# 2 -0.003952 0.013547 -0.002943 0.000000 -0.001486 0.000000
# 3 -0.002510 -0.002943 0.007046 0.000000 -0.001309 0.000000
# 4 0.000000 0.000000 0.000000 0.025219 0.000000 0.004000
# 5 0.002762 -0.001486 -0.001309 0.000000 0.028327 0.000000
# 6 0.000000 0.000000 0.000000 0.004000 0.000000 0.041612
#
#
# Mechanical properties :
#
#
# Convention : Reuss Voigt Hill
#
# Bulk Modulus (GPa) = 59.44321 68.26286 63.85303
# Shear Modulus (GPa) = 32.21465 35.56790 33.89127
#
# Velocity S-wave (km/s) = 3.57436 3.75578 3.66619
# Velocity P-wave (km/s) = 6.37254 6.77350 6.57608
#
# Compressibility (1/GPa) = 0.01682278
#
# Stress axis : x y z
#
# Youngs Moduli (GPa) = 66.48685 73.81861 141.93353
#
# Poissons Ratio (x) = 0.29172 0.35623
# Poissons Ratio (y) = 0.26275 0.41775
# Poissons Ratio (z) = 0.16687 0.21727
#
# Static dielectric constant tensor:
#      x y z
#    x 4.850190 0.000000 -0.213030 
#    y 0.000000 4.487680 0.000000 
#    z -0.213030 0.000000 5.167810 
# 
# 
# High freq. dielectric constant tensor:
#      x y z
#    x 2.012050 0.000000 -0.004090 
#    y 0.000000 1.995270 0.000000 
#    z -0.004090 0.000000 2.030420 
# 
# From -- ./inp_files/5500.got.cif
#   From: 2010.03.12/outbox.cif.g09.slc.cpg/sg4_3_cif.got.tgz:5500.got - 2010.03.31 09:31:35.
