data_PCOD8047233
_publ_section_title
;
Structure prediction by ZEFSAII (Michael W. Deem and Ramdas Pophale) SiO2 
 PCOD8047233
Probable space group: P 21
;
_chemical_formula_sum "Si O2"
_cell_formula_units_Z 16
_cell_length_a 19.887652
_cell_length_b 6.436279
_cell_length_c 8.161367
_cell_angle_alpha 90.000000
_cell_angle_beta 40.271448
_cell_angle_gamma 90.000000
_cell_volume 675.288116
_symmetry_space_group_name_H-M "P 21"
_symmetry_group_IT_number 4
_symmetry_cell_setting 'monoclinic'
loop_
_space_group_symop_operation_xyz
x,y,z
-x,1/2+y,-z
loop_
_atom_site_type_symbol
_atom_site_label
_atom_site_fract_x
_atom_site_fract_y
_atom_site_fract_z
Si Si1 0.645453 0.396290 0.682738
Si Si2 0.969721 0.114743 0.774614
Si Si3 0.398812 0.440209 0.696969
Si Si4 0.495429 0.208654 0.231941
Si Si5 0.761066 0.617692 0.959659
Si Si6 0.746179 0.236357 0.205091
Si Si7 0.838562 0.359820 0.521382
Si Si8 0.904472 0.964039 0.565113
O O1 0.595832 0.615141 0.715272
O O2 0.655855 0.239482 0.510053
O O3 0.769266 0.415756 0.492577
O O4 0.584700 0.290726 0.944888
O O5 0.971097 0.094765 0.572723
O O6 0.024598 0.338216 0.695793
O O7 0.853000 0.121186 0.065051
O O8 0.041759 0.937721 0.724407
O O9 0.461348 0.401008 0.410502
O O10 0.467329 0.519365 0.721068
O O11 0.305727 0.605828 0.845301
O O12 0.354935 0.212756 0.825197
O O13 0.775496 0.479604 0.775932
O O14 0.838554 0.812426 0.806364
O O15 0.775531 0.470479 0.091715
O O16 0.837683 0.117280 0.573199
#
# Coordination Sequence:
#
# PCOD8047233 Si02
#       8
#     2   2   2   2   2   2   2   2
#     4  12  28  50  68 110 153 192 236 322 392 444
#     4  11  21  38  70 104 144 195 246 299 362 449
#     4  12  26  48  79 110 135 197 256 310 353 463
#     4  12  28  48  81 107 151 195 257 315 388 445
#     4  11  21  40  74 102 139 186 247 305 358 440
#     4  12  24  47  70 107 152 192 248 305 378 452
#     4  11  25  43  69 106 149 188 247 305 376 444
#     4  11  19  38  69 106 137 187 253 313 347 429
#
# _framework density 23.693587999999998
#
# number of rings (size 3 to 8) (size 9 to 14) (size 15 to 20)
#    0.000    0.500    5.000    3.750    3.500    0.000 
#    6.750    0.000    0.000    0.000    0.000    0.000 
#    0.000    0.000    0.000    0.000    0.000    0.000 
#
# Total GULP energy -198272.680994 kJ/mol
# GULP energy per Si atom -12392.042562 kJ/mol
# Density = 2.363966 g / cm^3
# Si number density = 23.693588 Si / 1000 Ang^3
#
#
#
# Elastic Constant Matrix: (Units=GPa)
#
#
# Indices 1 2 3 4 5 6 
#
# 1 110.7288 42.0109 13.3302 0.0000 -17.8100 0.0000
# 2 42.0109 113.8033 37.8872 0.0000 -4.3291 0.0000
# 3 13.3302 37.8872 102.3863 0.0000 -1.1101 0.0000
# 4 0.0000 0.0000 0.0000 45.5957 0.0000 -8.2123
# 5 -17.8100 -4.3291 -1.1101 0.0000 32.3529 0.0000
# 6 0.0000 0.0000 0.0000 -8.2123 0.0000 33.6504
#
#
#
# Elastic Compliance Matrix: (Units=1/GPa)
#
#
# Indices 1 2 3 4 5 6 
#
# 1 0.011487 -0.004041 0.000063 0.000000 0.005785 0.000000
# 2 -0.004041 0.011491 -0.003735 0.000000 -0.000815 0.000000
# 3 0.000063 -0.003735 0.011140 0.000000 -0.000083 0.000000
# 4 0.000000 0.000000 0.000000 0.022940 0.000000 0.005598
# 5 0.005785 -0.000815 -0.000083 0.000000 0.033982 0.000000
# 6 0.000000 0.000000 0.000000 0.005598 0.000000 0.031084
#
#
# Mechanical properties :
#
#
# Convention : Reuss Voigt Hill
#
# Bulk Modulus (GPa) = 53.50098 57.04166 55.27132
# Shear Modulus (GPa) = 34.77478 37.89913 36.33696
#
# Velocity S-wave (km/s) = 3.83520 4.00378 3.92039
# Velocity P-wave (km/s) = 6.49931 6.74542 6.62351
#
# Compressibility (1/GPa) = 0.01869125
#
# Stress axis : x y z
#
# Youngs Moduli (GPa) = 87.05240 87.02148 89.76674
#
# Poissons Ratio (x) = 0.35169 -0.00562
# Poissons Ratio (y) = 0.35181 0.33528
# Poissons Ratio (z) = -0.00545 0.32502
#
# Static dielectric constant tensor:
#      x y z
#    x 4.186070 0.000000 -0.114700 
#    y 0.000000 4.567410 0.000000 
#    z -0.114700 0.000000 4.339730 
# 
# 
# High freq. dielectric constant tensor:
#      x y z
#    x 1.921210 0.000000 -0.017020 
#    y 0.000000 1.942650 0.000000 
#    z -0.017020 0.000000 1.942170 
# 
# From -- ./inp_files/9781.got.cif
#   From: 2010.03.12/outbox.cif.g09.slc.cpg/sg4_5_cif.got.tgz:9781.got - 2010.03.31 09:31:35.
