data_PCOD8047096
_publ_section_title
;
Structure prediction by ZEFSAII (Michael W. Deem and Ramdas Pophale) SiO2 
 PCOD8047096
Probable space group: P 21
;
_chemical_formula_sum "Si O2"
_cell_formula_units_Z 16
_cell_length_a 8.262358
_cell_length_b 12.161980
_cell_length_c 11.899588
_cell_angle_alpha 90.000000
_cell_angle_beta 38.709231
_cell_angle_gamma 90.000000
_cell_volume 747.783951
_symmetry_space_group_name_H-M "P 21"
_symmetry_group_IT_number 4
_symmetry_cell_setting 'monoclinic'
loop_
_space_group_symop_operation_xyz
x,y,z
-x,1/2+y,-z
loop_
_atom_site_type_symbol
_atom_site_label
_atom_site_fract_x
_atom_site_fract_y
_atom_site_fract_z
Si Si1 0.069753 0.648200 0.657713
Si Si2 0.175647 0.345709 0.837899
Si Si3 0.813714 0.921588 0.913962
Si Si4 0.115566 0.051512 0.028638
Si Si5 0.664743 0.803141 0.788587
Si Si6 0.360403 0.846864 0.568893
Si Si7 0.595623 0.971598 0.644551
Si Si8 0.819197 0.154723 0.002612
O O1 0.300346 0.716377 0.593200
O O2 0.185517 0.543154 0.533422
O O3 0.858605 0.612300 0.866278
O O4 0.913090 0.722870 0.654508
O O5 0.450444 0.378467 0.635930
O O6 0.949607 0.424229 0.913659
O O7 0.193314 0.355872 0.963922
O O8 0.085796 0.224997 0.843292
O O9 0.611991 0.860008 0.939752
O O10 0.091657 0.911644 0.702690
O O11 0.769383 0.052940 0.944752
O O12 0.863268 0.100079 0.100799
O O13 0.377592 0.054726 0.812734
O O14 0.730664 0.903065 0.669751
O O15 0.421120 0.735789 0.874743
O O16 0.481739 0.880665 0.621806
#
# Coordination Sequence:
#
# PCOD8047096 Si02
#       8
#     2   2   2   2   2   2   2   2
#     4  11  26  44  67  99 137 183 218 275 345 395
#     4  11  21  40  71 100 124 177 231 274 327 386
#     4  10  24  45  64  98 142 169 223 280 330 407
#     4  11  22  42  71  96 127 176 231 278 324 392
#     4  11  25  45  65 100 144 178 216 276 339 415
#     4  11  22  44  69 100 130 166 231 288 317 394
#     4  12  23  47  69  98 139 172 228 286 323 403
#     4  11  21  41  72  97 127 183 220 269 343 384
#
# _framework density 21.396553999999998
#
# number of rings (size 3 to 8) (size 9 to 14) (size 15 to 20)
#    0.000    1.000    5.000    3.000    1.750    0.000 
#   11.250    1.250    0.000    0.000    0.000    0.000 
#    0.000    0.000    0.000    0.000    0.000    0.000 
#
# Total GULP energy -198292.194091 kJ/mol
# GULP energy per Si atom -12393.262131 kJ/mol
# Density = 2.134785 g / cm^3
# Si number density = 21.396554 Si / 1000 Ang^3
#
#
#
# Elastic Constant Matrix: (Units=GPa)
#
#
# Indices 1 2 3 4 5 6 
#
# 1 102.9953 54.9773 32.8401 0.0000 7.9488 0.0000
# 2 54.9773 107.5626 32.3299 0.0000 11.3024 0.0000
# 3 32.8401 32.3299 114.9209 0.0000 3.9184 0.0000
# 4 0.0000 0.0000 0.0000 30.8056 0.0000 3.0129
# 5 7.9488 11.3024 3.9184 0.0000 19.3924 0.0000
# 6 0.0000 0.0000 0.0000 3.0129 0.0000 48.8662
#
#
#
# Elastic Compliance Matrix: (Units=1/GPa)
#
#
# Indices 1 2 3 4 5 6 
#
# 1 0.013865 -0.006275 -0.002142 0.000000 -0.001593 0.000000
# 2 -0.006275 0.013585 -0.001859 0.000000 -0.004970 0.000000
# 3 -0.002142 -0.001859 0.009838 0.000000 -0.000026 0.000000
# 4 0.000000 0.000000 0.000000 0.032659 0.000000 -0.002014
# 5 -0.001593 -0.004970 -0.000026 0.000000 0.055122 0.000000
# 6 0.000000 0.000000 0.000000 -0.002014 0.000000 0.020588
#
#
# Mechanical properties :
#
#
# Convention : Reuss Voigt Hill
#
# Bulk Modulus (GPa) = 59.75734 62.86369 61.31052
# Shear Modulus (GPa) = 29.10562 33.50160 31.30361
#
# Velocity S-wave (km/s) = 3.69222 3.96125 3.82910
# Velocity P-wave (km/s) = 6.79454 7.09690 6.94737
#
# Compressibility (1/GPa) = 0.01673435
#
# Stress axis : x y z
#
# Youngs Moduli (GPa) = 72.12477 73.60853 101.64914
#
# Poissons Ratio (x) = 0.46192 0.21777
# Poissons Ratio (y) = 0.45260 0.18898
# Poissons Ratio (z) = 0.15452 0.13685
#
# Static dielectric constant tensor:
#      x y z
#    x 3.908960 0.000000 0.084830 
#    y 0.000000 4.228770 0.000000 
#    z 0.084830 0.000000 3.683100 
# 
# 
# High freq. dielectric constant tensor:
#      x y z
#    x 1.829130 0.000000 0.004760 
#    y 0.000000 1.860500 0.000000 
#    z 0.004760 0.000000 1.820810 
# 
# From -- ./inp_files/11341.got.cif
#   From: 2010.03.12/outbox.cif.g09.slc.cpg/sg4_6_cif.got.tgz:11341.got - 2010.03.31 09:31:35.
