data_PCOD8047659
_publ_section_title
;
Structure prediction by ZEFSAII (Michael W. Deem and Ramdas Pophale) SiO2 
 PCOD8047659
Probable space group: P 21
;
_chemical_formula_sum "Si O2"
_cell_formula_units_Z 16
_cell_length_a 11.875887
_cell_length_b 5.337557
_cell_length_c 11.139674
_cell_angle_alpha 90.000000
_cell_angle_beta 72.689281
_cell_angle_gamma 90.000000
_cell_volume 674.140361
_symmetry_space_group_name_H-M "P 21"
_symmetry_group_IT_number 4
_symmetry_cell_setting 'monoclinic'
loop_
_space_group_symop_operation_xyz
x,y,z
-x,1/2+y,-z
loop_
_atom_site_type_symbol
_atom_site_label
_atom_site_fract_x
_atom_site_fract_y
_atom_site_fract_z
Si Si1 0.986854 0.098900 0.929119
Si Si2 0.267928 0.632097 0.092572
Si Si3 0.322578 0.521873 0.819447
Si Si4 0.617336 0.623188 0.351874
Si Si5 0.164340 0.833647 0.716918
Si Si6 0.262158 0.124815 0.238759
Si Si7 0.451284 0.228437 0.369078
Si Si8 0.993470 0.636309 0.579402
O O1 0.865284 0.170393 0.905384
O O2 0.076723 0.049872 0.791037
O O3 0.030570 0.338035 0.991786
O O4 0.283888 0.386693 0.166891
O O5 0.308508 0.886401 0.146883
O O6 0.349696 0.578912 0.949463
O O7 0.301495 0.238301 0.782537
O O8 0.205009 0.672963 0.820301
O O9 0.441882 0.542749 0.699535
O O10 0.713243 0.430436 0.379758
O O11 0.507019 0.497452 0.316333
O O12 0.570989 0.770900 0.482345
O O13 0.101040 0.660002 0.638278
O O14 0.333667 0.144918 0.339523
O O15 0.125626 0.082446 0.310356
O O16 0.020912 0.396317 0.488408
#
# Coordination Sequence:
#
# PCOD8047659 Si02
#       8
#     2   2   2   2   2   2   2   2
#     4  12  24  43  74 108 148 193 245 306 359 439
#     4  12  27  48  73 110 155 197 250 301 372 461
#     4  11  26  46  76 105 143 192 256 312 377 430
#     4  11  24  47  76 109 141 187 259 325 375 434
#     4  11  26  41  73 105 142 192 244 308 379 438
#     4  12  29  48  75 108 158 203 241 304 382 455
#     4  11  26  46  76 107 143 194 253 317 378 441
#     4  12  28  47  71 108 152 198 248 303 376 458
#
# _framework density 23.733927999999999
#
# number of rings (size 3 to 8) (size 9 to 14) (size 15 to 20)
#    0.000    0.500    3.750    3.000    8.750    1.000 
#    0.000    0.000    0.000    0.000    0.000    0.000 
#    0.000    0.000    0.000    0.000    0.000    0.000 
#
# Total GULP energy -198241.639693 kJ/mol
# GULP energy per Si atom -12390.102481 kJ/mol
# Density = 2.367991 g / cm^3
# Si number density = 23.733928 Si / 1000 Ang^3
#
#
#
# Elastic Constant Matrix: (Units=GPa)
#
#
# Indices 1 2 3 4 5 6 
#
# 1 68.2438 18.5383 19.4444 0.0000 -0.2449 0.0000
# 2 18.5383 116.4750 43.2249 0.0000 6.8297 0.0000
# 3 19.4444 43.2249 114.9950 0.0000 0.5753 0.0000
# 4 0.0000 0.0000 0.0000 47.0581 0.0000 0.3117
# 5 -0.2449 6.8297 0.5753 0.0000 32.4572 0.0000
# 6 0.0000 0.0000 0.0000 0.3117 0.0000 22.2268
#
#
#
# Elastic Compliance Matrix: (Units=1/GPa)
#
#
# Indices 1 2 3 4 5 6 
#
# 1 0.015708 -0.001795 -0.001984 0.000000 0.000531 0.000000
# 2 -0.001795 0.010318 -0.003564 0.000000 -0.002122 0.000000
# 3 -0.001984 -0.003564 0.010369 0.000000 0.000551 0.000000
# 4 0.000000 0.000000 0.000000 0.021252 0.000000 -0.000298
# 5 0.000531 -0.002122 0.000551 0.000000 0.031250 0.000000
# 6 0.000000 0.000000 0.000000 -0.000298 0.000000 0.044995
#
#
# Mechanical properties :
#
#
# Convention : Reuss Voigt Hill
#
# Bulk Modulus (GPa) = 46.06541 51.34769 48.70655
# Shear Modulus (GPa) = 32.08919 34.91551 33.50235
#
# Velocity S-wave (km/s) = 3.68100 3.83968 3.76118
# Velocity P-wave (km/s) = 6.12516 6.42956 6.27920
#
# Compressibility (1/GPa) = 0.02170826
#
# Stress axis : x y z
#
# Youngs Moduli (GPa) = 63.66116 96.91413 96.44545
#
# Poissons Ratio (x) = 0.17396 0.19135
# Poissons Ratio (y) = 0.11427 0.34377
# Poissons Ratio (z) = 0.12631 0.34544
#
# Static dielectric constant tensor:
#      x y z
#    x 4.201650 0.000000 -0.037080 
#    y 0.000000 4.532990 0.000000 
#    z -0.037080 0.000000 4.285060 
# 
# 
# High freq. dielectric constant tensor:
#      x y z
#    x 1.943170 0.000000 -0.009700 
#    y 0.000000 1.953200 0.000000 
#    z -0.009700 0.000000 1.942750 
# 
# From -- ./inp_files/7365.got.cif
#   From: 2010.03.12/outbox.cif.g09.slc.cpg/sg4_4_cif.got.tgz:7365.got - 2010.03.31 09:31:35.
