data_PCOD8047569
_publ_section_title
;
Structure prediction by ZEFSAII (Michael W. Deem and Ramdas Pophale) SiO2 
 PCOD8047569
Probable space group: P 21
;
_chemical_formula_sum "Si O2"
_cell_formula_units_Z 16
_cell_length_a 21.920956
_cell_length_b 6.662592
_cell_length_c 13.762547
_cell_angle_alpha 90.000000
_cell_angle_beta 158.923469
_cell_angle_gamma 90.000000
_cell_volume 722.834505
_symmetry_space_group_name_H-M "P 21"
_symmetry_group_IT_number 4
_symmetry_cell_setting 'monoclinic'
loop_
_space_group_symop_operation_xyz
x,y,z
-x,1/2+y,-z
loop_
_atom_site_type_symbol
_atom_site_label
_atom_site_fract_x
_atom_site_fract_y
_atom_site_fract_z
Si Si1 0.438346 0.139310 0.795771
Si Si2 0.717758 0.857880 0.138984
Si Si3 0.039112 0.608751 0.382791
Si Si4 0.313707 0.297404 0.127320
Si Si5 0.208963 0.291581 0.290303
Si Si6 0.945148 0.443069 0.051934
Si Si7 0.291031 0.966868 0.762031
Si Si8 0.675126 0.103919 0.685411
O O1 0.337145 0.165135 0.546035
O O2 0.305371 0.090475 0.683232
O O3 0.537533 0.343294 0.966042
O O4 0.564857 0.952158 0.973860
O O5 0.733293 0.622218 0.185692
O O6 0.891002 0.973164 0.425132
O O7 0.678628 0.893942 0.968107
O O8 0.128018 0.825327 0.513810
O O9 0.072117 0.492145 0.330080
O O10 0.838569 0.636940 0.097348
O O11 0.483886 0.180596 0.407385
O O12 0.282378 0.475601 0.156294
O O13 0.304059 0.479079 0.383139
O O14 0.049346 0.365112 0.115150
O O15 0.147333 0.150100 0.111991
O O16 0.805542 0.286020 0.878603
#
# Coordination Sequence:
#
# PCOD8047569 Si02
#       8
#     2   2   2   2   2   2   2   2
#     4  11  24  42  74 105 139 185 237 298 376 436
#     4  11  26  47  71 104 144 191 239 304 365 442
#     4  11  28  45  71 107 142 192 245 296 372 433
#     4  12  28  49  75 101 149 201 247 295 364 443
#     4  12  26  44  76 110 146 192 244 310 374 442
#     4  12  26  48  74 112 146 190 247 312 381 437
#     4  11  24  46  71 107 142 183 239 304 373 437
#     4  12  28  51  72 108 150 196 252 309 359 444
#
# _framework density 22.135079000000001
#
# number of rings (size 3 to 8) (size 9 to 14) (size 15 to 20)
#    0.000    0.500    3.750    3.000   10.500    1.000 
#    2.250    0.000    0.000    0.000    0.000    0.000 
#    0.000    0.000    0.000    0.000    0.000    0.000 
#
# Total GULP energy -198540.581889 kJ/mol
# GULP energy per Si atom -12408.786368 kJ/mol
# Density = 2.208470 g / cm^3
# Si number density = 22.135079 Si / 1000 Ang^3
#
#
#
# Elastic Constant Matrix: (Units=GPa)
#
#
# Indices 1 2 3 4 5 6 
#
# 1 97.2596 33.4417 25.3943 0.0000 -4.8857 0.0000
# 2 33.4417 118.8518 37.2640 0.0000 5.7235 0.0000
# 3 25.3943 37.2640 86.8400 0.0000 -3.0450 0.0000
# 4 0.0000 0.0000 0.0000 38.5612 0.0000 -2.1388
# 5 -4.8857 5.7235 -3.0450 0.0000 42.6586 0.0000
# 6 0.0000 0.0000 0.0000 -2.1388 0.0000 41.2824
#
#
#
# Elastic Compliance Matrix: (Units=1/GPa)
#
#
# Indices 1 2 3 4 5 6 
#
# 1 0.011882 -0.002711 -0.002256 0.000000 0.001563 0.000000
# 2 -0.002711 0.010451 -0.003762 0.000000 -0.001981 0.000000
# 3 -0.002256 -0.003762 0.013833 0.000000 0.001234 0.000000
# 4 0.000000 0.000000 0.000000 0.026008 0.000000 0.001347
# 5 0.001563 -0.001981 0.001234 0.000000 0.023975 0.000000
# 6 0.000000 0.000000 0.000000 0.001347 0.000000 0.024293
#
#
# Mechanical properties :
#
#
# Convention : Reuss Voigt Hill
#
# Bulk Modulus (GPa) = 53.45345 55.01683 54.23514
# Shear Modulus (GPa) = 37.27589 38.29053 37.78321
#
# Velocity S-wave (km/s) = 4.10813 4.16367 4.13599
# Velocity P-wave (km/s) = 6.83400 6.92992 6.88213
#
# Compressibility (1/GPa) = 0.01870787
#
# Stress axis : x y z
#
# Youngs Moduli (GPa) = 84.16390 95.68084 72.29289
#
# Poissons Ratio (x) = 0.25939 0.16312
# Poissons Ratio (y) = 0.22817 0.27193
# Poissons Ratio (z) = 0.18990 0.35991
#
# Static dielectric constant tensor:
#      x y z
#    x 4.010420 0.000000 -0.078300 
#    y 0.000000 4.015890 0.000000 
#    z -0.078300 0.000000 3.992910 
# 
# 
# High freq. dielectric constant tensor:
#      x y z
#    x 1.879290 0.000000 -0.005240 
#    y 0.000000 1.881320 0.000000 
#    z -0.005240 0.000000 1.879350 
# 
# From -- ./inp_files/9079.got.cif
#   From: 2010.03.12/outbox.cif.g09.slc.cpg/sg4_5_cif.got.tgz:9079.got - 2010.03.31 09:31:35.
