data_PCOD8047884
_publ_section_title
;
Structure prediction by ZEFSAII (Michael W. Deem and Ramdas Pophale) SiO2 
 PCOD8047884
Probable space group: P 21
;
_chemical_formula_sum "Si O2"
_cell_formula_units_Z 12
_cell_length_a 25.103800
_cell_length_b 4.897547
_cell_length_c 12.325582
_cell_angle_alpha 90.000000
_cell_angle_beta 160.265960
_cell_angle_gamma 90.000000
_cell_volume 511.679600
_symmetry_space_group_name_H-M "P 21"
_symmetry_group_IT_number 4
_symmetry_cell_setting 'monoclinic'
loop_
_space_group_symop_operation_xyz
x,y,z
-x,1/2+y,-z
loop_
_atom_site_type_symbol
_atom_site_label
_atom_site_fract_x
_atom_site_fract_y
_atom_site_fract_z
Si Si1 0.928031 0.130820 0.309147
Si Si2 0.410539 0.406962 0.366071
Si Si3 0.770902 0.197074 0.392745
Si Si4 0.445000 0.313865 0.676534
Si Si5 0.712788 0.309175 0.526985
Si Si6 0.021947 0.195408 0.248124
O O1 0.947979 0.391204 0.425875
O O2 0.950677 0.239115 0.230622
O O3 0.754464 0.013176 0.997029
O O4 0.533084 0.658877 0.602207
O O5 0.390924 0.286429 0.448728
O O6 0.702108 0.255954 0.379224
O O7 0.920323 0.385856 0.652737
O O8 0.829071 0.887902 0.490402
O O9 0.629460 0.244530 0.037239
O O10 0.415283 0.620945 0.659068
O O11 0.335241 0.118998 0.539262
O O12 0.889279 0.250475 0.904574
#
# Coordination Sequence:
#
# PCOD8047884 Si02
#       6
#     2   2   2   2   2   2
#     4  12  28  48  73 104 141 187 235 296 356 416
#     4  12  28  48  73 104 139 188 238 293 353 419
#     4  12  26  44  74 106 140 186 234 288 347 429
#     4  12  26  46  71 104 142 184 236 292 350 414
#     4  12  24  48  72 101 144 187 234 286 357 412
#     4  12  26  46  69 107 142 184 233 291 351 416
#
# _framework density 23.452178
#
# number of rings (size 3 to 8) (size 9 to 14) (size 15 to 20)
#    0.000    0.000    1.667    8.000    9.333    0.000 
#    0.000    0.000    0.000    0.000    0.000    0.000 
#    0.000    0.000    0.000    0.000    0.000    0.000 
#
# Total GULP energy -148948.311701 kJ/mol
# GULP energy per Si atom -12412.359308 kJ/mol
# Density = 2.339880 g / cm^3
# Si number density = 23.452178 Si / 1000 Ang^3
#
#
#
# Elastic Constant Matrix: (Units=GPa)
#
#
# Indices 1 2 3 4 5 6 
#
# 1 86.9935 19.0945 -0.4750 0.0000 2.0911 0.0000
# 2 19.0945 96.6678 9.7076 0.0000 0.1612 0.0000
# 3 -0.4750 9.7076 91.9757 0.0000 -1.6262 0.0000
# 4 0.0000 0.0000 0.0000 46.5008 0.0000 13.1581
# 5 2.0911 0.1612 -1.6262 0.0000 32.3733 0.0000
# 6 0.0000 0.0000 0.0000 13.1581 0.0000 50.7368
#
#
#
# Elastic Compliance Matrix: (Units=1/GPa)
#
#
# Indices 1 2 3 4 5 6 
#
# 1 0.012043 -0.002408 0.000303 0.000000 -0.000751 0.000000
# 2 -0.002408 0.010937 -0.001166 0.000000 0.000042 0.000000
# 3 0.000303 -0.001166 0.011007 0.000000 0.000539 0.000000
# 4 0.000000 0.000000 0.000000 0.023208 0.000000 -0.006019
# 5 -0.000751 0.000042 0.000539 0.000000 0.030965 0.000000
# 6 0.000000 0.000000 0.000000 -0.006019 0.000000 0.021270
#
#
# Mechanical properties :
#
#
# Convention : Reuss Voigt Hill
#
# Bulk Modulus (GPa) = 36.43619 36.92124 36.67871
# Shear Modulus (GPa) = 39.96114 42.40950 41.18532
#
# Velocity S-wave (km/s) = 4.13236 4.25707 4.19518
# Velocity P-wave (km/s) = 6.19182 6.31988 6.25618
#
# Compressibility (1/GPa) = 0.02744524
#
# Stress axis : x y z
#
# Youngs Moduli (GPa) = 83.03325 91.42948 90.85456
#
# Poissons Ratio (x) = 0.22017 -0.02754
# Poissons Ratio (y) = 0.19995 0.10594
# Poissons Ratio (z) = -0.02517 0.10661
#
# Static dielectric constant tensor:
#      x y z
#    x 4.105640 0.000000 -0.073990 
#    y 0.000000 4.358880 0.000000 
#    z -0.073990 0.000000 4.167360 
# 
# 
# High freq. dielectric constant tensor:
#      x y z
#    x 1.930250 0.000000 -0.001400 
#    y 0.000000 1.944560 0.000000 
#    z -0.001400 0.000000 1.937160 
# 
# From -- ./inp_files/13082.got.cif
#   From: 2010.03.12/outbox.cif.g09.slc.cpg/sg4_7_cif.got.tgz:13082.got - 2010.03.31 09:31:35.
