data_PCOD8047210
_publ_section_title
;
Structure prediction by ZEFSAII (Michael W. Deem and Ramdas Pophale) SiO2 
 PCOD8047210
Probable space group: P 21
;
_chemical_formula_sum "Si O2"
_cell_formula_units_Z 14
_cell_length_a 6.102160
_cell_length_b 15.808826
_cell_length_c 7.847407
_cell_angle_alpha 90.000000
_cell_angle_beta 50.017745
_cell_angle_gamma 90.000000
_cell_volume 580.064359
_symmetry_space_group_name_H-M "P 21"
_symmetry_group_IT_number 4
_symmetry_cell_setting 'monoclinic'
loop_
_space_group_symop_operation_xyz
x,y,z
-x,1/2+y,-z
loop_
_atom_site_type_symbol
_atom_site_label
_atom_site_fract_x
_atom_site_fract_y
_atom_site_fract_z
Si Si1 0.295033 0.689600 0.154807
Si Si2 0.413365 0.975566 0.292765
Si Si3 0.251937 0.313606 0.948213
Si Si4 0.297429 0.047188 0.997150
Si Si5 0.294332 0.261887 0.550886
Si Si6 0.253484 0.637850 0.799071
Si Si7 0.702294 0.404010 0.296247
O O1 0.548957 0.757599 0.030577
O O2 0.396050 0.596595 0.173748
O O3 0.000200 0.725703 0.391232
O O4 0.230275 0.681587 0.990655
O O5 0.619830 0.905934 0.115684
O O6 0.236317 0.942986 0.545857
O O7 0.613596 0.046165 0.268684
O O8 0.237388 0.007234 0.214990
O O9 0.229132 0.269347 0.780080
O O10 0.928435 0.326811 0.173156
O O11 0.271732 0.975847 0.862881
O O12 0.070018 0.124070 0.102136
O O13 0.549821 0.194458 0.420095
O O14 0.394850 0.355087 0.431978
#
# Coordination Sequence:
#
# PCOD8047210 Si02
#       7
#     2   2   2   2   2   2   2
#     4  11  26  46  73 108 152 199 252 311 378 449
#     4  10  26  44  74 116 142 194 254 308 382 446
#     4  11  25  49  73 109 151 198 252 313 377 445
#     4  11  25  51  77 108 154 197 250 319 375 447
#     4  11  26  46  73 108 152 199 252 311 378 449
#     4  11  25  49  73 109 151 198 252 313 377 445
#     4  11  25  51  77 108 154 197 250 319 375 447
#
# _framework density 24.135255999999998
#
# number of rings (size 3 to 8) (size 9 to 14) (size 15 to 20)
#    0.000    1.143    1.429    2.571    8.000    4.571 
#    5.143    0.000    0.000    0.000    0.000    0.000 
#    0.000    0.000    0.000    0.000    0.000    0.000 
#
# Total GULP energy -173455.854732 kJ/mol
# GULP energy per Si atom -12389.703909 kJ/mol
# Density = 2.408032 g / cm^3
# Si number density = 24.135256 Si / 1000 Ang^3
#
#
#
# Elastic Constant Matrix: (Units=GPa)
#
#
# Indices 1 2 3 4 5 6 
#
# 1 -156.2437 29.2891 338.8066 0.0000 -9.5502 0.0000
# 2 29.2891 130.4112 95.0947 0.0000 -13.7197 0.0000
# 3 338.8066 95.0947 -144.9891 0.0000 -14.0277 0.0000
# 4 0.0000 0.0000 0.0000 55.1973 0.0000 -0.2365
# 5 -9.5502 -13.7197 -14.0277 0.0000 32.0706 0.0000
# 6 0.0000 0.0000 0.0000 -0.2365 0.0000 55.4338
#
#
#
# Elastic Compliance Matrix: (Units=1/GPa)
#
#
# Indices 1 2 3 4 5 6 
#
# 1 0.003308 -0.004156 0.004874 0.000000 0.001339 0.000000
# 2 -0.004156 0.010870 -0.002795 0.000000 0.002190 0.000000
# 3 0.004874 -0.002795 0.002528 0.000000 0.001361 0.000000
# 4 0.000000 0.000000 0.000000 0.018117 0.000000 0.000077
# 5 0.001339 0.002190 0.001361 0.000000 0.033112 0.000000
# 6 0.000000 0.000000 0.000000 0.000077 0.000000 0.018040
#
#
# Mechanical properties :
#
#
# Convention : Reuss Voigt Hill
#
# Bulk Modulus (GPa) = 79.67090 83.95101 81.81096
# Shear Modulus (GPa) = 53.01586 -13.72713 19.64437
#
# Velocity S-wave (km/s) = 4.69189 -2.38745 2.85604
# Velocity P-wave (km/s) = 7.90149 5.22103 6.69674
#
# Compressibility (1/GPa) = 0.01255163
#
# Stress axis : x y z
#
# Youngs Moduli (GPa) = 302.32649 91.99981 395.63063
#
# Poissons Ratio (x) = 0.38235 -1.92827
# Poissons Ratio (y) = 1.25648 1.10559
# Poissons Ratio (z) = -1.47352 0.25709
#
# Static dielectric constant tensor:
#      x y z
#    x 4.510610 0.000000 -0.365170 
#    y 0.000000 4.714410 0.000000 
#    z -0.365170 0.000000 4.483350 
# 
# 
# High freq. dielectric constant tensor:
#      x y z
#    x 1.951920 0.000000 -0.007440 
#    y 0.000000 1.988950 0.000000 
#    z -0.007440 0.000000 1.951710 
# 
# From -- ./inp_files/285.got.cif
#   From: 2010.03.12/outbox.cif.g09.slc.cpg/sg4_1_cif.got.tgz:285.got - 2010.03.31 09:31:35.
