data_PCOD8047050
_publ_section_title
;
Structure prediction by ZEFSAII (Michael W. Deem and Ramdas Pophale) SiO2 
 PCOD8047050
Probable space group: P 21
;
_chemical_formula_sum "Si O2"
_cell_formula_units_Z 16
_cell_length_a 16.500415
_cell_length_b 8.306843
_cell_length_c 5.359157
_cell_angle_alpha 90.000000
_cell_angle_beta 123.678181
_cell_angle_gamma 90.000000
_cell_volume 611.275487
_symmetry_space_group_name_H-M "P 21"
_symmetry_group_IT_number 4
_symmetry_cell_setting 'monoclinic'
loop_
_space_group_symop_operation_xyz
x,y,z
-x,1/2+y,-z
loop_
_atom_site_type_symbol
_atom_site_label
_atom_site_fract_x
_atom_site_fract_y
_atom_site_fract_z
Si Si1 0.193182 0.025900 0.927189
Si Si2 0.891456 0.751272 0.837744
Si Si3 0.944767 0.090698 0.104500
Si Si4 0.145907 0.728695 0.557670
Si Si5 0.511544 0.666521 0.835929
Si Si6 0.291400 0.286602 0.768823
Si Si7 0.645577 0.120109 0.064926
Si Si8 0.399757 0.902045 0.357393
O O1 0.237231 0.177525 0.869867
O O2 0.132862 0.912919 0.631802
O O3 0.117864 0.093820 0.001667
O O4 0.284851 0.932535 0.215222
O O5 0.784469 0.820881 0.584436
O O6 0.948395 0.898399 0.068431
O O7 0.949162 0.678258 0.694311
O O8 0.909434 0.181888 0.789017
O O9 0.884260 0.119435 0.253959
O O10 0.258839 0.712724 0.677196
O O11 0.428118 0.572458 0.839448
O O12 0.464244 0.845015 0.702558
O O13 0.545173 0.555130 0.662678
O O14 0.610284 0.699538 0.165404
O O15 0.318400 0.446596 0.972771
O O16 0.589925 0.235534 0.780815
#
# Coordination Sequence:
#
# PCOD8047050 Si02
#       8
#     2   2   2   2   2   2   2   2
#     4  10  26  45  75 109 160 201 264 330 400 472
#     4  12  28  48  80 113 158 208 267 340 400 491
#     4  12  29  51  84 115 158 208 271 330 415 472
#     4  11  27  50  81 118 153 208 261 336 396 485
#     4  11  24  43  71 107 152 203 258 321 391 478
#     4  11  25  44  69 110 150 201 261 324 394 471
#     4  11  23  43  73 102 153 202 260 312 395 470
#     4  10  24  42  69 108 150 209 260 323 391 475
#
# _framework density 26.174776000000001
#
# number of rings (size 3 to 8) (size 9 to 14) (size 15 to 20)
#    0.000    1.000    1.250    3.000    8.750    8.000 
#    0.000    0.000    0.000    0.000    0.000    0.000 
#    0.000    0.000    0.000    0.000    0.000    0.000 
#
# Total GULP energy -198250.122757 kJ/mol
# GULP energy per Si atom -12390.632672 kJ/mol
# Density = 2.611520 g / cm^3
# Si number density = 26.174776 Si / 1000 Ang^3
#
#
#
# Elastic Constant Matrix: (Units=GPa)
#
#
# Indices 1 2 3 4 5 6 
#
# 1 108.9749 19.1049 20.8295 0.0000 10.6604 0.0000
# 2 19.1049 119.3359 14.1492 0.0000 18.3258 0.0000
# 3 20.8295 14.1492 71.9920 0.0000 6.2711 0.0000
# 4 0.0000 0.0000 0.0000 38.9505 0.0000 5.5692
# 5 10.6604 18.3258 6.2711 0.0000 26.2842 0.0000
# 6 0.0000 0.0000 0.0000 5.5692 0.0000 48.5835
#
#
#
# Elastic Compliance Matrix: (Units=1/GPa)
#
#
# Indices 1 2 3 4 5 6 
#
# 1 0.010089 -0.000876 -0.002496 0.000000 -0.002886 0.000000
# 2 -0.000876 0.009582 -0.001102 0.000000 -0.006062 0.000000
# 3 -0.002496 -0.001102 0.014985 0.000000 -0.001795 0.000000
# 4 0.000000 0.000000 0.000000 0.026101 0.000000 -0.002992
# 5 -0.002886 -0.006062 -0.001795 0.000000 0.043871 0.000000
# 6 0.000000 0.000000 0.000000 -0.002992 0.000000 0.020926
#
#
# Mechanical properties :
#
#
# Convention : Reuss Voigt Hill
#
# Bulk Modulus (GPa) = 38.89606 45.38556 42.14081
# Shear Modulus (GPa) = 34.94761 39.17827 37.06294
#
# Velocity S-wave (km/s) = 3.65795 3.87304 3.76703
# Velocity P-wave (km/s) = 5.72130 6.11373 5.92076
#
# Compressibility (1/GPa) = 0.02570954
#
# Stress axis : x y z
#
# Youngs Moduli (GPa) = 99.11453 104.36739 66.73186
#
# Poissons Ratio (x) = 0.09145 0.16653
# Poissons Ratio (y) = 0.08684 0.07351
# Poissons Ratio (z) = 0.24735 0.11497
#
# Static dielectric constant tensor:
#      x y z
#    x 4.878620 0.000000 0.550410 
#    y 0.000000 4.875360 0.000000 
#    z 0.550410 0.000000 4.780940 
# 
# 
# High freq. dielectric constant tensor:
#      x y z
#    x 2.054400 0.000000 0.033590 
#    y 0.000000 2.069600 0.000000 
#    z 0.033590 0.000000 2.030380 
# 
# From -- ./inp_files/3590.got.cif
#   From: 2010.03.12/outbox.cif.g09.slc.cpg/sg4_2_cif.got.tgz:3590.got - 2010.03.31 09:31:35.
