data_PCOD8047788
_publ_section_title
;
Structure prediction by ZEFSAII (Michael W. Deem and Ramdas Pophale) SiO2 
 PCOD8047788
Probable space group: P 21
;
_chemical_formula_sum "Si O2"
_cell_formula_units_Z 14
_cell_length_a 12.340806
_cell_length_b 8.646662
_cell_length_c 4.781354
_cell_angle_alpha 90.000000
_cell_angle_beta 76.113126
_cell_angle_gamma 90.000000
_cell_volume 495.290411
_symmetry_space_group_name_H-M "P 21"
_symmetry_group_IT_number 4
_symmetry_cell_setting 'monoclinic'
loop_
_space_group_symop_operation_xyz
x,y,z
-x,1/2+y,-z
loop_
_atom_site_type_symbol
_atom_site_label
_atom_site_fract_x
_atom_site_fract_y
_atom_site_fract_z
Si Si1 0.474007 0.118860 0.349057
Si Si2 0.748973 0.685802 0.747438
Si Si3 0.836094 0.021359 0.775566
Si Si4 0.347779 0.940547 0.826462
Si Si5 0.963295 0.141202 0.207368
Si Si6 0.874416 0.468731 0.268136
Si Si7 0.613428 0.186346 0.768725
O O1 0.357547 0.214683 0.394095
O O2 0.612710 0.353163 0.919430
O O3 0.570636 0.207050 0.473131
O O4 0.527417 0.081839 0.009699
O O5 0.809442 0.841420 0.797815
O O6 0.843344 0.571995 0.557241
O O7 0.694917 0.610687 0.055691
O O8 0.945580 0.057576 0.518482
O O9 0.735143 0.114216 0.696482
O O10 0.863029 0.083551 0.066988
O O11 0.237382 0.870867 0.746627
O O12 0.447686 0.962219 0.538183
O O13 0.964184 0.328745 0.254593
O O14 0.081233 0.085426 0.002785
#
# Coordination Sequence:
#
# PCOD8047788 Si02
#       7
#     2   2   2   2   2   2   2
#     4  11  27  43  74 109 148 200 249 309 377 450
#     4  11  27  48  76 113 155 194 255 316 382 450
#     4  12  29  48  75 113 153 197 256 316 376 461
#     4  11  26  48  75 110 151 196 250 316 375 451
#     4  12  28  51  79 111 148 204 252 313 390 450
#     4  11  27  49  80 112 153 198 256 318 383 458
#     4  12  26  47  73 108 152 199 256 304 379 456
#
# _framework density 28.266247
#
# number of rings (size 3 to 8) (size 9 to 14) (size 15 to 20)
#    0.000    0.571    2.857    2.571   14.000    1.143 
#    0.000    0.000    0.000    0.000    0.000    0.000 
#    0.000    0.000    0.000    0.000    0.000    0.000 
#
# Total GULP energy -173595.850514 kJ/mol
# GULP energy per Si atom -12399.703608 kJ/mol
# Density = 2.820191 g / cm^3
# Si number density = 28.266247 Si / 1000 Ang^3
#
#
#
# Elastic Constant Matrix: (Units=GPa)
#
#
# Indices 1 2 3 4 5 6 
#
# 1 87.0758 -18.6301 -25.9734 0.0000 -11.1122 0.0000
# 2 -18.6301 103.2779 -1.7254 0.0000 4.0230 0.0000
# 3 -25.9734 -1.7254 110.3531 0.0000 5.7785 0.0000
# 4 0.0000 0.0000 0.0000 42.1056 0.0000 0.1860
# 5 -11.1122 4.0230 5.7785 0.0000 44.9134 0.0000
# 6 0.0000 0.0000 0.0000 0.1860 0.0000 31.2104
#
#
#
# Elastic Compliance Matrix: (Units=1/GPa)
#
#
# Indices 1 2 3 4 5 6 
#
# 1 0.013222 0.002331 0.003008 0.000000 0.002675 0.000000
# 2 0.002331 0.010132 0.000729 0.000000 -0.000425 0.000000
# 3 0.003008 0.000729 0.009812 0.000000 -0.000583 0.000000
# 4 0.000000 0.000000 0.000000 0.023750 0.000000 -0.000142
# 5 0.002675 -0.000425 -0.000583 0.000000 0.023040 0.000000
# 6 0.000000 0.000000 0.000000 -0.000142 0.000000 0.032041
#
#
# Mechanical properties :
#
#
# Convention : Reuss Voigt Hill
#
# Bulk Modulus (GPa) = 22.07368 23.11655 22.59512
# Shear Modulus (GPa) = 43.49305 46.78159 45.13732
#
# Velocity S-wave (km/s) = 3.92687 4.07262 4.00041
# Velocity P-wave (km/s) = 5.32791 5.50554 5.41745
#
# Compressibility (1/GPa) = 0.04530282
#
# Stress axis : x y z
#
# Youngs Moduli (GPa) = 75.63295 98.69877 101.91779
#
# Poissons Ratio (x) = -0.23008 -0.30660
# Poissons Ratio (y) = -0.17631 -0.07433
# Poissons Ratio (z) = -0.22753 -0.07198
#
# Static dielectric constant tensor:
#      x y z
#    x 5.590420 0.000000 -0.089000 
#    y 0.000000 4.981330 0.000000 
#    z -0.089000 0.000000 5.258700 
# 
# 
# High freq. dielectric constant tensor:
#      x y z
#    x 2.181320 0.000000 0.002860 
#    y 0.000000 2.137280 0.000000 
#    z 0.002860 0.000000 2.154930 
# 
# From -- ./inp_files/2371.got.cif
#   From: 2010.03.12/outbox.cif.g09.slc.cpg/sg4_2_cif.got.tgz:2371.got - 2010.03.31 09:31:35.
