data_PCOD8047692
_publ_section_title
;
Structure prediction by ZEFSAII (Michael W. Deem and Ramdas Pophale) SiO2 
 PCOD8047692
Probable space group: P 21
;
_chemical_formula_sum "Si O2"
_cell_formula_units_Z 16
_cell_length_a 22.998196
_cell_length_b 4.949490
_cell_length_c 10.003046
_cell_angle_alpha 90.000000
_cell_angle_beta 35.591587
_cell_angle_gamma 90.000000
_cell_volume 662.692627
_symmetry_space_group_name_H-M "P 21"
_symmetry_group_IT_number 4
_symmetry_cell_setting 'monoclinic'
loop_
_space_group_symop_operation_xyz
x,y,z
-x,1/2+y,-z
loop_
_atom_site_type_symbol
_atom_site_label
_atom_site_fract_x
_atom_site_fract_y
_atom_site_fract_z
Si Si1 0.303753 0.065980 0.562309
Si Si2 0.771877 0.049164 0.155549
Si Si3 0.971379 0.997083 0.475943
Si Si4 0.247637 0.292646 0.087371
Si Si5 0.494199 0.695983 0.927200
Si Si6 0.297926 0.770864 0.147386
Si Si7 0.968591 0.228706 0.883298
Si Si8 0.150620 0.905439 0.637864
O O1 0.271921 0.373040 0.644205
O O2 0.423336 0.059774 0.324384
O O3 0.267833 0.856617 0.746059
O O4 0.249530 0.018300 0.522795
O O5 0.893494 0.041599 0.935302
O O6 0.731407 0.892031 0.101937
O O7 0.866589 0.847698 0.665958
O O8 0.037536 0.800557 0.450209
O O9 0.017144 0.996722 0.237571
O O10 0.317235 0.477665 0.049578
O O11 0.276335 0.983966 0.067105
O O12 0.454306 0.447674 0.092040
O O13 0.400855 0.838673 0.028808
O O14 0.199186 0.736213 0.425912
O O15 0.916612 0.256654 0.125308
O O16 0.079207 0.120574 0.700191
#
# Coordination Sequence:
#
# PCOD8047692 Si02
#       8
#     2   2   2   2   2   2   2   2
#     4  11  25  46  73 104 140 183 239 295 364 431
#     4  11  25  45  71 102 142 194 236 284 353 432
#     4  12  26  43  68  99 137 194 249 285 338 425
#     4  12  26  46  71 102 149 188 243 300 354 421
#     4  12  25  47  78 108 145 186 242 302 377 446
#     4  12  27  46  73 109 142 184 245 306 363 429
#     4  11  25  39  68 101 149 189 236 286 355 430
#     4  11  25  42  66 109 146 186 232 296 362 422
#
# _framework density 24.143923000000001
#
# number of rings (size 3 to 8) (size 9 to 14) (size 15 to 20)
#    0.000    0.500    3.750    3.750    7.000    0.000 
#    0.000    2.500    0.000    0.000    0.000    0.000 
#    0.000    0.000    0.000    0.000    0.000    0.000 
#
# Total GULP energy -198234.828614 kJ/mol
# GULP energy per Si atom -12389.676788 kJ/mol
# Density = 2.408897 g / cm^3
# Si number density = 24.143923 Si / 1000 Ang^3
#
#
#
# Elastic Constant Matrix: (Units=GPa)
#
#
# Indices 1 2 3 4 5 6 
#
# 1 76.4169 11.5994 15.5533 0.0000 -3.3812 0.0000
# 2 11.5994 76.3478 7.4557 0.0000 -0.9186 0.0000
# 3 15.5533 7.4557 61.8859 0.0000 -9.1583 0.0000
# 4 0.0000 0.0000 0.0000 35.1598 0.0000 0.7914
# 5 -3.3812 -0.9186 -9.1583 0.0000 40.4090 0.0000
# 6 0.0000 0.0000 0.0000 0.7914 0.0000 33.4594
#
#
#
# Elastic Compliance Matrix: (Units=1/GPa)
#
#
# Indices 1 2 3 4 5 6 
#
# 1 0.014040 -0.001811 -0.003252 0.000000 0.000397 0.000000
# 2 -0.001811 0.013488 -0.001187 0.000000 -0.000114 0.000000
# 3 -0.003252 -0.001187 0.017667 0.000000 0.003705 0.000000
# 4 0.000000 0.000000 0.000000 0.028457 0.000000 -0.000673
# 5 0.000397 -0.000114 0.003705 0.000000 0.025617 0.000000
# 6 0.000000 0.000000 0.000000 -0.000673 0.000000 0.029903
#
#
# Mechanical properties :
#
#
# Convention : Reuss Voigt Hill
#
# Bulk Modulus (GPa) = 30.58414 31.54082 31.06248
# Shear Modulus (GPa) = 32.77193 33.80845 33.29019
#
# Velocity S-wave (km/s) = 3.68823 3.74610 3.71728
# Velocity P-wave (km/s) = 5.55269 5.63942 5.59622
#
# Compressibility (1/GPa) = 0.03269669
#
# Stress axis : x y z
#
# Youngs Moduli (GPa) = 71.22323 74.14225 56.60179
#
# Poissons Ratio (x) = 0.13426 0.18406
# Poissons Ratio (y) = 0.12897 0.06717
# Poissons Ratio (z) = 0.23160 0.08798
#
# Static dielectric constant tensor:
#      x y z
#    x 4.503100 0.000000 0.161170 
#    y 0.000000 4.293640 0.000000 
#    z 0.161170 0.000000 4.217730 
# 
# 
# High freq. dielectric constant tensor:
#      x y z
#    x 1.963480 0.000000 0.007500 
#    y 0.000000 1.954680 0.000000 
#    z 0.007500 0.000000 1.953170 
# 
# From -- ./inp_files/9850.got.cif
#   From: 2010.03.12/outbox.cif.g09.slc.cpg/sg4_5_cif.got.tgz:9850.got - 2010.03.31 09:31:35.
