data_PCOD8047637
_publ_section_title
;
Structure prediction by ZEFSAII (Michael W. Deem and Ramdas Pophale) SiO2 
 PCOD8047637
Probable space group: P 21
;
_chemical_formula_sum "Si O2"
_cell_formula_units_Z 16
_cell_length_a 5.284744
_cell_length_b 12.444358
_cell_length_c 10.593350
_cell_angle_alpha 90.000000
_cell_angle_beta 74.157645
_cell_angle_gamma 90.000000
_cell_volume 670.212111
_symmetry_space_group_name_H-M "P 21"
_symmetry_group_IT_number 4
_symmetry_cell_setting 'monoclinic'
loop_
_space_group_symop_operation_xyz
x,y,z
-x,1/2+y,-z
loop_
_atom_site_type_symbol
_atom_site_label
_atom_site_fract_x
_atom_site_fract_y
_atom_site_fract_z
Si Si1 0.538336 0.629340 0.249083
Si Si2 0.296510 0.457242 0.451587
Si Si3 0.250610 0.792485 0.896486
Si Si4 0.827345 0.795817 0.731669
Si Si5 0.037548 0.442354 0.897778
Si Si6 0.120561 0.053556 0.315694
Si Si7 0.488286 0.362756 0.667104
Si Si8 0.863331 0.103001 0.919981
O O1 0.508980 0.532539 0.352829
O O2 0.419210 0.740538 0.321934
O O3 0.845101 0.635524 0.168675
O O4 0.353416 0.601605 0.157659
O O5 0.113201 0.385144 0.384147
O O6 0.439852 0.372818 0.524334
O O7 0.127093 0.537565 0.560159
O O8 0.541663 0.827559 0.820870
O O9 0.054421 0.806041 0.804584
O O10 0.192747 0.862378 0.029352
O O11 0.234729 0.671928 0.947862
O O12 0.792492 0.676474 0.676517
O O13 0.232649 0.371282 0.788837
O O14 0.939244 0.541219 0.825058
O O15 0.142821 0.484608 0.018260
O O16 0.325020 0.959936 0.318835
#
# Coordination Sequence:
#
# PCOD8047637 Si02
#       8
#     2   2   2   2   2   2   2   2
#     4  12  28  49  76 113 149 196 250 305 377 438
#     4  11  30  48  76 112 146 203 252 314 362 441
#     4  12  25  46  76 109 150 191 240 306 369 446
#     4  12  28  49  76 113 149 196 250 305 377 438
#     4  11  24  46  72 114 148 195 246 298 380 443
#     4  11  27  47  76 104 152 200 249 307 369 445
#     4  11  27  47  76 104 152 200 249 307 369 445
#     4  12  25  46  76 109 150 191 240 306 369 446
#
# _framework density 23.873037
#
# number of rings (size 3 to 8) (size 9 to 14) (size 15 to 20)
#    0.000    0.500    2.500    3.750   14.000    0.000 
#    0.000    0.000    0.000    0.000    0.000    0.000 
#    0.000    0.000    0.000    0.000    0.000    0.000 
#
# Total GULP energy -198337.624431 kJ/mol
# GULP energy per Si atom -12396.101527 kJ/mol
# Density = 2.381870 g / cm^3
# Si number density = 23.873037 Si / 1000 Ang^3
#
#
#
# Elastic Constant Matrix: (Units=GPa)
#
#
# Indices 1 2 3 4 5 6 
#
# 1 87.3804 -13.0183 30.1470 0.0000 8.1371 0.0000
# 2 -13.0183 96.7020 22.8963 0.0000 4.8357 0.0000
# 3 30.1470 22.8963 106.8218 0.0000 16.0390 0.0000
# 4 0.0000 0.0000 0.0000 35.1708 0.0000 3.3307
# 5 8.1371 4.8357 16.0390 0.0000 13.5974 0.0000
# 6 0.0000 0.0000 0.0000 3.3307 0.0000 33.9778
#
#
#
# Elastic Compliance Matrix: (Units=1/GPa)
#
#
# Indices 1 2 3 4 5 6 
#
# 1 0.013629 0.002965 -0.003766 0.000000 -0.004768 0.000000
# 2 0.002965 0.011560 -0.002954 0.000000 -0.002401 0.000000
# 3 -0.003766 -0.002954 0.012834 0.000000 -0.011835 0.000000
# 4 0.000000 0.000000 0.000000 0.028699 0.000000 -0.002813
# 5 -0.004768 -0.002401 -0.011835 0.000000 0.091210 0.000000
# 6 0.000000 0.000000 0.000000 -0.002813 0.000000 0.029707
#
#
# Mechanical properties :
#
#
# Convention : Reuss Voigt Hill
#
# Bulk Modulus (GPa) = 32.77270 41.21714 36.99492
# Shear Modulus (GPa) = 24.35216 33.27449 28.81332
#
# Velocity S-wave (km/s) = 3.19732 3.73743 3.47787
# Velocity P-wave (km/s) = 5.23337 5.99392 5.62651
#
# Compressibility (1/GPa) = 0.03051320
#
# Stress axis : x y z
#
# Youngs Moduli (GPa) = 73.37152 86.50768 77.91609
#
# Poissons Ratio (x) = -0.25649 0.29343
# Poissons Ratio (y) = -0.21754 0.23016
# Poissons Ratio (z) = 0.27632 0.25554
#
# Static dielectric constant tensor:
#      x y z
#    x 4.177380 0.000000 -0.016540 
#    y 0.000000 4.540330 0.000000 
#    z -0.016540 0.000000 4.690000 
# 
# 
# High freq. dielectric constant tensor:
#      x y z
#    x 1.934170 0.000000 -0.000680 
#    y 0.000000 1.966130 0.000000 
#    z -0.000680 0.000000 1.963380 
# 
# From -- ./inp_files/4632.got.cif
#   From: 2010.03.12/outbox.cif.g09.slc.cpg/sg4_3_cif.got.tgz:4632.got - 2010.03.31 09:31:35.
