data_PCOD8047111
_publ_section_title
;
Structure prediction by ZEFSAII (Michael W. Deem and Ramdas Pophale) SiO2 
 PCOD8047111
Probable space group: P 21
;
_chemical_formula_sum "Si O2"
_cell_formula_units_Z 16
_cell_length_a 9.236552
_cell_length_b 9.228113
_cell_length_c 9.219371
_cell_angle_alpha 90.000000
_cell_angle_beta 119.047073
_cell_angle_gamma 90.000000
_cell_volume 686.982005
_symmetry_space_group_name_H-M "P 21"
_symmetry_group_IT_number 4
_symmetry_cell_setting 'monoclinic'
loop_
_space_group_symop_operation_xyz
x,y,z
-x,1/2+y,-z
loop_
_atom_site_type_symbol
_atom_site_label
_atom_site_fract_x
_atom_site_fract_y
_atom_site_fract_z
Si Si1 0.500501 0.863870 0.371562
Si Si2 0.190315 0.878929 0.044459
Si Si3 0.905328 0.700235 0.344964
Si Si4 0.553916 0.816163 0.720062
Si Si5 0.345368 0.686214 0.872898
Si Si6 0.567021 0.595483 0.219011
Si Si7 0.814537 0.999882 0.419726
Si Si8 0.110611 0.203713 0.985918
O O1 0.316336 0.917712 0.239056
O O2 0.508776 0.784536 0.531063
O O3 0.540576 0.755364 0.263109
O O4 0.639282 0.989884 0.422230
O O5 0.059014 0.758227 0.027205
O O6 0.274244 0.813510 0.940070
O O7 0.100195 0.029729 0.967673
O O8 0.765530 0.578074 0.313890
O O9 0.899851 0.840927 0.448188
O O10 0.874577 0.764335 0.169617
O O11 0.075827 0.612963 0.436353
O O12 0.416743 0.755586 0.761608
O O13 0.536535 0.989203 0.728541
O O14 0.736888 0.760116 0.843378
O O15 0.209484 0.569526 0.752809
O O16 0.491129 0.593274 0.019922
#
# Coordination Sequence:
#
# PCOD8047111 Si02
#       8
#     2   2   2   2   2   2   2   2
#     4  10  27  48  71 111 148 193 250 307 374 451
#     4  11  29  49  76 111 153 193 252 312 377 452
#     4  11  26  47  71 112 148 193 249 311 379 443
#     4  12  26  45  81 102 146 199 245 309 380 440
#     4  11  25  47  78 103 145 199 246 301 377 454
#     4  10  24  45  73 105 145 190 250 302 372 453
#     4  11  27  46  76 108 153 190 250 315 375 452
#     4  12  28  47  76 108 152 191 256 311 376 447
#
# _framework density 23.290275000000001
#
# number of rings (size 3 to 8) (size 9 to 14) (size 15 to 20)
#    0.000    1.000    1.250    2.250   19.250    1.000 
#    0.000    0.000    0.000    0.000    0.000    0.000 
#    0.000    0.000    0.000    0.000    0.000    0.000 
#
# Total GULP energy -198363.831241 kJ/mol
# GULP energy per Si atom -12397.739453 kJ/mol
# Density = 2.323727 g / cm^3
# Si number density = 23.290275 Si / 1000 Ang^3
#
#
#
# Elastic Constant Matrix: (Units=GPa)
#
#
# Indices 1 2 3 4 5 6 
#
# 1 113.3274 47.7271 44.5837 0.0000 8.2450 0.0000
# 2 47.7271 94.8613 33.4374 0.0000 18.4343 0.0000
# 3 44.5837 33.4374 132.3069 0.0000 -0.2815 0.0000
# 4 0.0000 0.0000 0.0000 34.8362 0.0000 3.9390
# 5 8.2450 18.4343 -0.2815 0.0000 37.5868 0.0000
# 6 0.0000 0.0000 0.0000 3.9390 0.0000 42.1047
#
#
#
# Elastic Compliance Matrix: (Units=1/GPa)
#
#
# Indices 1 2 3 4 5 6 
#
# 1 0.012061 -0.005048 -0.002789 0.000000 -0.000191 0.000000
# 2 -0.005048 0.015050 -0.002116 0.000000 -0.006289 0.000000
# 3 -0.002789 -0.002116 0.009036 0.000000 0.001717 0.000000
# 4 0.000000 0.000000 0.000000 0.029013 0.000000 -0.002714
# 5 -0.000191 -0.006289 0.001717 0.000000 0.029744 0.000000
# 6 0.000000 0.000000 0.000000 -0.002714 0.000000 0.024004
#
#
# Mechanical properties :
#
#
# Convention : Reuss Voigt Hill
#
# Bulk Modulus (GPa) = 61.57063 65.77689 63.67376
# Shear Modulus (GPa) = 34.66751 37.22204 35.94477
#
# Velocity S-wave (km/s) = 3.86229 4.00206 3.93280
# Velocity P-wave (km/s) = 6.81053 7.04690 6.92972
#
# Compressibility (1/GPa) = 0.01624151
#
# Stress axis : x y z
#
# Youngs Moduli (GPa) = 82.91198 66.44734 110.66487
#
# Poissons Ratio (x) = 0.33543 0.30863
# Poissons Ratio (y) = 0.41855 0.23414
# Poissons Ratio (z) = 0.23123 0.14058
#
# Static dielectric constant tensor:
#      x y z
#    x 4.255340 0.000000 0.251140 
#    y 0.000000 4.230420 0.000000 
#    z 0.251140 0.000000 4.250750 
# 
# 
# High freq. dielectric constant tensor:
#      x y z
#    x 1.914380 0.000000 0.005980 
#    y 0.000000 1.928410 0.000000 
#    z 0.005980 0.000000 1.925580 
# 
# From -- ./inp_files/5507.got.cif
#   From: 2010.03.12/outbox.cif.g09.slc.cpg/sg4_3_cif.got.tgz:5507.got - 2010.03.31 09:31:35.
