data_PCOD8047308
_publ_section_title
;
Structure prediction by ZEFSAII (Michael W. Deem and Ramdas Pophale) SiO2 
 PCOD8047308
Probable space group: P 21
;
_chemical_formula_sum "Si O2"
_cell_formula_units_Z 14
_cell_length_a 11.371130
_cell_length_b 11.054178
_cell_length_c 10.912124
_cell_angle_alpha 90.000000
_cell_angle_beta 25.044800
_cell_angle_gamma 90.000000
_cell_volume 580.650916
_symmetry_space_group_name_H-M "P 21"
_symmetry_group_IT_number 4
_symmetry_cell_setting 'monoclinic'
loop_
_space_group_symop_operation_xyz
x,y,z
-x,1/2+y,-z
loop_
_atom_site_type_symbol
_atom_site_label
_atom_site_fract_x
_atom_site_fract_y
_atom_site_fract_z
Si Si1 0.724661 0.562560 0.166403
Si Si2 0.448236 0.205764 0.261864
Si Si3 0.294664 0.559803 0.367917
Si Si4 0.243141 0.186205 0.190237
Si Si5 0.161470 0.313768 0.036438
Si Si6 0.626827 0.473413 0.523567
Si Si7 0.004735 0.856847 0.239904
O O1 0.425777 0.569955 0.380916
O O2 0.902953 0.683012 0.965613
O O3 0.675772 0.551586 0.356057
O O4 0.900802 0.444959 0.958116
O O5 0.277685 0.223107 0.297023
O O6 0.262289 0.273366 0.542218
O O7 0.465435 0.065437 0.281228
O O8 0.746341 0.266490 0.960400
O O9 0.081078 0.665028 0.534224
O O10 0.114605 0.436027 0.531978
O O11 0.557444 0.569069 0.026797
O O12 0.315358 0.292185 0.023384
O O13 0.369795 0.383120 0.748690
O O14 0.890730 0.394494 0.312005
#
# Coordination Sequence:
#
# PCOD8047308 Si02
#       7
#     2   2   2   2   2   2   2
#     4  11  27  46  79 104 143 193 259 302 368 452
#     4  12  28  47  69 115 148 189 241 314 372 438
#     4  11  21  45  73 108 129 195 248 290 362 446
#     4  11  24  46  75 104 152 185 250 304 372 444
#     4  11  26  49  70 106 141 202 239 301 378 437
#     4  12  30  45  73 110 151 187 247 311 372 429
#     4  12  24  46  73 105 140 191 246 292 374 438
#
# _framework density 24.110870999999999
#
# number of rings (size 3 to 8) (size 9 to 14) (size 15 to 20)
#    0.000    0.571    4.286    3.429    6.000    3.429 
#    0.000    0.000    0.000    0.000    0.000    0.000 
#    0.000    0.000    0.000    0.000    0.000    0.000 
#
# Total GULP energy -173490.826476 kJ/mol
# GULP energy per Si atom -12392.201891 kJ/mol
# Density = 2.405599 g / cm^3
# Si number density = 24.110871 Si / 1000 Ang^3
#
#
#
# Elastic Constant Matrix: (Units=GPa)
#
#
# Indices 1 2 3 4 5 6 
#
# 1 64.3850 33.3244 15.5103 0.0000 15.9375 0.0000
# 2 33.3244 130.1606 49.5934 0.0000 1.3904 0.0000
# 3 15.5103 49.5934 138.6985 0.0000 -18.7291 0.0000
# 4 0.0000 0.0000 0.0000 65.7245 0.0000 -4.8548
# 5 15.9375 1.3904 -18.7291 0.0000 27.4307 0.0000
# 6 0.0000 0.0000 0.0000 -4.8548 0.0000 14.1609
#
#
#
# Elastic Compliance Matrix: (Units=1/GPa)
#
#
# Indices 1 2 3 4 5 6 
#
# 1 0.022116 -0.004416 -0.002863 0.000000 -0.014581 0.000000
# 2 -0.004416 0.009989 -0.003084 0.000000 -0.000047 0.000000
# 3 -0.002863 -0.003084 0.009780 0.000000 0.008498 0.000000
# 4 0.000000 0.000000 0.000000 0.015610 0.000000 0.005352
# 5 -0.014581 -0.000047 0.008498 0.000000 0.050732 0.000000
# 6 0.000000 0.000000 0.000000 0.005352 0.000000 0.072452
#
#
# Mechanical properties :
#
#
# Convention : Reuss Voigt Hill
#
# Bulk Modulus (GPa) = 47.26057 58.90005 53.08031
# Shear Modulus (GPa) = 23.98564 37.11762 30.55163
#
# Velocity S-wave (km/s) = 3.15748 3.92785 3.56354
# Velocity P-wave (km/s) = 5.73906 6.71212 6.24457
#
# Compressibility (1/GPa) = 0.02115929
#
# Stress axis : x y z
#
# Youngs Moduli (GPa) = 45.21616 100.11071 102.24589
#
# Poissons Ratio (x) = 0.44205 0.29275
# Poissons Ratio (y) = 0.19965 0.31535
# Poissons Ratio (z) = 0.12946 0.30876
#
# Static dielectric constant tensor:
#      x y z
#    x 3.902350 0.000000 -0.038750 
#    y 0.000000 4.527660 0.000000 
#    z -0.038750 0.000000 4.625720 
# 
# 
# High freq. dielectric constant tensor:
#      x y z
#    x 1.919260 0.000000 -0.002070 
#    y 0.000000 1.965110 0.000000 
#    z -0.002070 0.000000 1.979950 
# 
# From -- ./inp_files/12241.got.cif
#   From: 2010.03.12/outbox.cif.g09.slc.cpg/sg4_7_cif.got.tgz:12241.got - 2010.03.31 09:31:35.
