data_PCOD8047193
_publ_section_title
;
Structure prediction by ZEFSAII (Michael W. Deem and Ramdas Pophale) SiO2 
 PCOD8047193
Probable space group: P 21
;
_chemical_formula_sum "Si O2"
_cell_formula_units_Z 14
_cell_length_a 8.717780
_cell_length_b 5.301335
_cell_length_c 13.240721
_cell_angle_alpha 90.000000
_cell_angle_beta 79.530229
_cell_angle_gamma 90.000000
_cell_volume 601.743372
_symmetry_space_group_name_H-M "P 21"
_symmetry_group_IT_number 4
_symmetry_cell_setting 'monoclinic'
loop_
_space_group_symop_operation_xyz
x,y,z
-x,1/2+y,-z
loop_
_atom_site_type_symbol
_atom_site_label
_atom_site_fract_x
_atom_site_fract_y
_atom_site_fract_z
Si Si1 0.643854 0.266190 0.391825
Si Si2 0.540005 0.263240 0.625461
Si Si3 0.089956 0.002015 0.753652
Si Si4 0.402999 0.605076 0.006038
Si Si5 0.223317 0.749642 0.220268
Si Si6 0.901419 0.631463 0.898975
Si Si7 0.805734 0.844312 0.102347
O O1 0.646077 0.278723 0.512600
O O2 0.541712 0.493315 0.360507
O O3 0.821880 0.313140 0.333449
O O4 0.581985 0.996803 0.359064
O O5 0.650649 0.273428 0.708066
O O6 0.021335 0.851622 0.856603
O O7 0.218682 0.196828 0.788349
O O8 0.941438 0.136642 0.717538
O O9 0.284056 0.583791 0.116762
O O10 0.470930 0.884874 0.997121
O O11 0.315859 0.572174 0.905779
O O12 0.194732 0.036977 0.187182
O O13 0.010527 0.402492 0.923075
O O14 0.777849 0.682691 0.002842
#
# Coordination Sequence:
#
# PCOD8047193 Si02
#       7
#     2   2   2   2   2   2   2
#     4  10  25  50  75 106 133 189 237 288 368 433
#     4  10  25  51  75  99 147 179 233 302 359 429
#     4  11  25  42  72 104 136 190 242 288 352 421
#     4  12  28  43  65 102 147 189 237 282 345 422
#     4  11  26  45  67 107 142 184 236 299 353 408
#     4  11  21  40  66  93 141 184 224 286 343 408
#     4  11  22  41  62  95 142 187 229 279 338 413
#
# _framework density 23.265732
#
# number of rings (size 3 to 8) (size 9 to 14) (size 15 to 20)
#    0.000    1.143    2.857    1.714   10.000    0.000 
#    2.571    0.000    0.000    0.000    0.000    0.000 
#    0.000    0.000    0.000    0.000    0.000    0.000 
#
# Total GULP energy -173487.481032 kJ/mol
# GULP energy per Si atom -12391.962931 kJ/mol
# Density = 2.321278 g / cm^3
# Si number density = 23.265732 Si / 1000 Ang^3
#
#
#
# Elastic Constant Matrix: (Units=GPa)
#
#
# Indices 1 2 3 4 5 6 
#
# 1 71.5718 14.9148 27.8683 0.0000 6.7973 0.0000
# 2 14.9148 89.2660 11.3176 0.0000 1.0662 0.0000
# 3 27.8683 11.3176 67.6520 0.0000 1.8082 0.0000
# 4 0.0000 0.0000 0.0000 33.1079 0.0000 -5.6190
# 5 6.7973 1.0662 1.8082 0.0000 42.8629 0.0000
# 6 0.0000 0.0000 0.0000 -5.6190 0.0000 32.7580
#
#
#
# Elastic Compliance Matrix: (Units=1/GPa)
#
#
# Indices 1 2 3 4 5 6 
#
# 1 0.017224 -0.002000 -0.006696 0.000000 -0.002399 0.000000
# 2 -0.002000 0.011679 -0.001132 0.000000 0.000074 0.000000
# 3 -0.006696 -0.001132 0.017720 0.000000 0.000343 0.000000
# 4 0.000000 0.000000 0.000000 0.031110 0.000000 0.005336
# 5 -0.002399 0.000074 0.000343 0.000000 0.023694 0.000000
# 6 0.000000 0.000000 0.000000 0.005336 0.000000 0.031442
#
#
# Mechanical properties :
#
#
# Convention : Reuss Voigt Hill
#
# Bulk Modulus (GPa) = 37.08299 37.41012 37.24655
# Shear Modulus (GPa) = 30.95667 33.37172 32.16420
#
# Velocity S-wave (km/s) = 3.65165 3.79142 3.72219
# Velocity P-wave (km/s) = 5.80973 5.93977 5.87511
#
# Compressibility (1/GPa) = 0.02696654
#
# Stress axis : x y z
#
# Youngs Moduli (GPa) = 58.05819 85.62170 56.43257
#
# Poissons Ratio (x) = 0.17126 0.37790
# Poissons Ratio (y) = 0.11613 0.06388
# Poissons Ratio (z) = 0.38879 0.09691
#
# Static dielectric constant tensor:
#      x y z
#    x 4.234950 0.000000 -0.105670 
#    y 0.000000 4.398550 0.000000 
#    z -0.105670 0.000000 4.053820 
# 
# 
# High freq. dielectric constant tensor:
#      x y z
#    x 1.924400 0.000000 -0.003780 
#    y 0.000000 1.936990 0.000000 
#    z -0.003780 0.000000 1.896010 
# 
# From -- ./inp_files/7400.got.cif
#   From: 2010.03.12/outbox.cif.g09.slc.cpg/sg4_4_cif.got.tgz:7400.got - 2010.03.31 09:31:35.
