data_PCOD8047322
_publ_section_title
;
Structure prediction by ZEFSAII (Michael W. Deem and Ramdas Pophale) SiO2 
 PCOD8047322
Probable space group: P 21
;
_chemical_formula_sum "Si O2"
_cell_formula_units_Z 12
_cell_length_a 9.873841
_cell_length_b 4.982246
_cell_length_c 16.684822
_cell_angle_alpha 90.000000
_cell_angle_beta 138.661610
_cell_angle_gamma 90.000000
_cell_volume 542.136830
_symmetry_space_group_name_H-M "P 21"
_symmetry_group_IT_number 4
_symmetry_cell_setting 'monoclinic'
loop_
_space_group_symop_operation_xyz
x,y,z
-x,1/2+y,-z
loop_
_atom_site_type_symbol
_atom_site_label
_atom_site_fract_x
_atom_site_fract_y
_atom_site_fract_z
Si Si1 0.654044 0.058280 0.279613
Si Si2 0.005785 0.546058 0.230500
Si Si3 0.724858 0.568988 0.620463
Si Si4 0.901302 0.553689 0.355932
Si Si5 0.421225 0.118968 0.013511
Si Si6 0.644337 0.915498 0.442846
O O1 0.759627 0.348473 0.343776
O O2 0.492029 0.085001 0.136264
O O3 0.539887 0.925546 0.307824
O O4 0.835156 0.859293 0.335652
O O5 0.147549 0.292378 0.273357
O O6 0.876452 0.469738 0.252342
O O7 0.159174 0.791116 0.315406
O O8 0.827410 0.598655 0.086937
O O9 0.497665 0.577140 0.557976
O O10 0.697767 0.635300 0.512852
O O11 0.140355 0.552675 0.484530
O O12 0.476298 0.405123 0.000448
#
# Coordination Sequence:
#
# PCOD8047322 Si02
#       6
#     2   2   2   2   2   2
#     4  12  24  40  64 100 130 166 213 277 323 389
#     4  11  22  41  67  95 128 172 225 257 323 388
#     4  11  25  42  64  92 128 180 218 268 309 397
#     4  11  22  38  63  97 131 163 210 271 332 384
#     4  12  22  42  67  97 133 170 216 265 335 392
#     4  11  25  43  65  95 132 175 218 262 332 382
#
# _framework density 22.134634999999999
#
# number of rings (size 3 to 8) (size 9 to 14) (size 15 to 20)
#    0.000    0.667    3.333    6.000    0.000    6.667 
#    0.000    1.667    0.000    0.000    0.000    0.000 
#    0.000    0.000    0.000    0.000    0.000    0.000 
#
# Total GULP energy -148680.058861 kJ/mol
# GULP energy per Si atom -12390.004905 kJ/mol
# Density = 2.208426 g / cm^3
# Si number density = 22.134635 Si / 1000 Ang^3
#
#
#
# Elastic Constant Matrix: (Units=GPa)
#
#
# Indices 1 2 3 4 5 6 
#
# 1 74.1772 8.0996 54.0535 0.0000 -2.5815 0.0000
# 2 8.0996 67.5552 4.5399 0.0000 11.2577 0.0000
# 3 54.0535 4.5399 118.1948 0.0000 -7.9529 0.0000
# 4 0.0000 0.0000 0.0000 25.7457 0.0000 8.8636
# 5 -2.5815 11.2577 -7.9529 0.0000 34.5927 0.0000
# 6 0.0000 0.0000 0.0000 8.8636 0.0000 35.5065
#
#
#
# Elastic Compliance Matrix: (Units=1/GPa)
#
#
# Indices 1 2 3 4 5 6 
#
# 1 0.020442 -0.001825 -0.009280 0.000000 -0.000014 0.000000
# 2 -0.001825 0.015922 -0.000137 0.000000 -0.005349 0.000000
# 3 -0.009280 -0.000137 0.012865 0.000000 0.002310 0.000000
# 4 0.000000 0.000000 0.000000 0.042493 0.000000 -0.010608
# 5 -0.000014 -0.005349 0.002310 0.000000 0.031179 0.000000
# 6 0.000000 0.000000 0.000000 -0.010608 0.000000 0.030812
#
#
# Mechanical properties :
#
#
# Convention : Reuss Voigt Hill
#
# Bulk Modulus (GPa) = 37.38814 43.70149 40.54481
# Shear Modulus (GPa) = 27.01075 32.05126 29.53101
#
# Velocity S-wave (km/s) = 3.49706 3.80941 3.65657
# Velocity P-wave (km/s) = 5.76488 6.25581 6.01535
#
# Compressibility (1/GPa) = 0.02674645
#
# Stress axis : x y z
#
# Youngs Moduli (GPa) = 48.91868 62.80556 77.72997
#
# Poissons Ratio (x) = 0.11462 0.72130
# Poissons Ratio (y) = 0.08928 0.01064
# Poissons Ratio (z) = 0.45394 0.00860
#
# Static dielectric constant tensor:
#      x y z
#    x 3.936880 0.000000 -0.059190 
#    y 0.000000 3.989210 0.000000 
#    z -0.059190 0.000000 4.413550 
# 
# 
# High freq. dielectric constant tensor:
#      x y z
#    x 1.847400 0.000000 0.008720 
#    y 0.000000 1.881860 0.000000 
#    z 0.008720 0.000000 1.874470 
# 
# From -- ./inp_files/13489.got.cif
#   From: 2010.03.12/outbox.cif.g09.slc.cpg/sg4_7_cif.got.tgz:13489.got - 2010.03.31 09:31:35.
