data_PCOD8047348
_publ_section_title
;
Structure prediction by ZEFSAII (Michael W. Deem and Ramdas Pophale) SiO2 
 PCOD8047348
Probable space group: P 21
;
_chemical_formula_sum "Si O2"
_cell_formula_units_Z 14
_cell_length_a 18.592136
_cell_length_b 6.811341
_cell_length_c 13.507881
_cell_angle_alpha 90.000000
_cell_angle_beta 21.386827
_cell_angle_gamma 90.000000
_cell_volume 623.792999
_symmetry_space_group_name_H-M "P 21"
_symmetry_group_IT_number 4
_symmetry_cell_setting 'monoclinic'
loop_
_space_group_symop_operation_xyz
x,y,z
-x,1/2+y,-z
loop_
_atom_site_type_symbol
_atom_site_label
_atom_site_fract_x
_atom_site_fract_y
_atom_site_fract_z
Si Si1 0.405190 0.799950 0.514819
Si Si2 0.762717 0.009180 0.114655
Si Si3 0.691994 0.960071 0.700770
Si Si4 0.156528 0.187910 0.829520
Si Si5 0.736180 0.306326 0.796012
Si Si6 0.994740 0.642703 0.376099
Si Si7 0.227619 0.524391 0.611493
O O1 0.369038 0.671656 0.659974
O O2 0.409323 0.661210 0.411365
O O3 0.621303 0.886249 0.225115
O O4 0.262089 0.983810 0.709670
O O5 0.849682 0.844626 0.074649
O O6 0.927813 0.108864 0.834557
O O7 0.804835 0.782982 0.609375
O O8 0.819819 0.039985 0.443674
O O9 0.681345 0.128473 0.794693
O O10 0.477771 0.913640 0.924290
O O11 0.242236 0.293166 0.621039
O O12 0.929942 0.124109 0.110487
O O13 0.909528 0.442294 0.530743
O O14 0.825805 0.229680 0.786082
#
# Coordination Sequence:
#
# PCOD8047348 Si02
#       7
#     2   2   2   2   2   2   2
#     4  11  23  42  63 101 143 181 227 280 342 439
#     4  11  25  42  70  98 144 184 229 288 356 417
#     4  12  27  49  74 106 143 190 239 309 369 423
#     4  11  22  43  63 101 141 178 229 280 340 441
#     4  12  27  50  76 105 144 184 254 306 361 426
#     4  12  27  48  76 107 139 194 243 305 362 431
#     4  11  25  40  70  98 140 183 229 286 358 427
#
# _framework density 22.443342000000001
#
# number of rings (size 3 to 8) (size 9 to 14) (size 15 to 20)
#    0.000    0.571    5.714    1.714    4.000    3.429 
#    2.571    0.000    0.000    0.000    0.000    0.000 
#    0.000    0.000    0.000    0.000    0.000    0.000 
#
# Total GULP energy -173445.377356 kJ/mol
# GULP energy per Si atom -12388.955525 kJ/mol
# Density = 2.239226 g / cm^3
# Si number density = 22.443342 Si / 1000 Ang^3
#
#
#
# Elastic Constant Matrix: (Units=GPa)
#
#
# Indices 1 2 3 4 5 6 
#
# 1 101.2558 34.9639 15.1394 0.0000 -1.6190 0.0000
# 2 34.9639 114.7878 19.4035 0.0000 -3.1350 0.0000
# 3 15.1394 19.4035 52.5074 0.0000 -10.2431 0.0000
# 4 0.0000 0.0000 0.0000 38.0854 0.0000 -9.8420
# 5 -1.6190 -3.1350 -10.2431 0.0000 38.8117 0.0000
# 6 0.0000 0.0000 0.0000 -9.8420 0.0000 31.9375
#
#
#
# Elastic Compliance Matrix: (Units=1/GPa)
#
#
# Indices 1 2 3 4 5 6 
#
# 1 0.011256 -0.003070 -0.002180 0.000000 -0.000354 0.000000
# 2 -0.003070 0.010130 -0.002872 0.000000 -0.000068 0.000000
# 3 -0.002180 -0.002872 0.021794 0.000000 0.005429 0.000000
# 4 0.000000 0.000000 0.000000 0.028529 0.000000 0.008792
# 5 -0.000354 -0.000068 0.005429 0.000000 0.027178 0.000000
# 6 0.000000 0.000000 0.000000 0.008792 0.000000 0.034020
#
#
# Mechanical properties :
#
#
# Convention : Reuss Voigt Hill
#
# Bulk Modulus (GPa) = 37.12323 45.28496 41.20410
# Shear Modulus (GPa) = 31.61963 35.03652 33.32808
#
# Velocity S-wave (km/s) = 3.75756 3.95537 3.85773
# Velocity P-wave (km/s) = 5.94999 6.40947 6.18400
#
# Compressibility (1/GPa) = 0.02693731
#
# Stress axis : x y z
#
# Youngs Moduli (GPa) = 88.83925 98.71342 45.88467
#
# Poissons Ratio (x) = 0.30303 0.10003
# Poissons Ratio (y) = 0.27272 0.13176
# Poissons Ratio (z) = 0.19368 0.28347
#
# Static dielectric constant tensor:
#      x y z
#    x 4.217180 0.000000 -0.358390 
#    y 0.000000 4.464750 0.000000 
#    z -0.358390 0.000000 4.133480 
# 
# 
# High freq. dielectric constant tensor:
#      x y z
#    x 1.890460 0.000000 -0.013990 
#    y 0.000000 1.910250 0.000000 
#    z -0.013990 0.000000 1.872100 
# 
# From -- ./inp_files/7141.got.cif
#   From: 2010.03.12/outbox.cif.g09.slc.cpg/sg4_4_cif.got.tgz:7141.got - 2010.03.31 09:31:35.
