data_PCOD8047061
_publ_section_title
;
Structure prediction by ZEFSAII (Michael W. Deem and Ramdas Pophale) SiO2 
 PCOD8047061
Probable space group: P 21
;
_chemical_formula_sum "Si O2"
_cell_formula_units_Z 14
_cell_length_a 10.919347
_cell_length_b 11.628076
_cell_length_c 8.404142
_cell_angle_alpha 90.000000
_cell_angle_beta 140.171870
_cell_angle_gamma 90.000000
_cell_volume 683.452140
_symmetry_space_group_name_H-M "P 21"
_symmetry_group_IT_number 4
_symmetry_cell_setting 'monoclinic'
loop_
_space_group_symop_operation_xyz
x,y,z
-x,1/2+y,-z
loop_
_atom_site_type_symbol
_atom_site_label
_atom_site_fract_x
_atom_site_fract_y
_atom_site_fract_z
Si Si1 0.908869 0.974910 0.149653
Si Si2 0.248637 0.888706 0.697502
Si Si3 0.413266 0.301511 0.175094
Si Si4 0.785607 0.234008 0.054515
Si Si5 0.457507 0.361036 0.583102
Si Si6 0.033170 0.414943 0.155410
Si Si7 0.705911 0.542242 0.974947
O O1 0.094048 0.955306 0.439487
O O2 0.747660 0.887708 0.046588
O O3 0.959794 0.958208 0.017196
O O4 0.823616 0.100402 0.093114
O O5 0.395380 0.825019 0.729497
O O6 0.156992 0.789312 0.717802
O O7 0.347064 0.985761 0.907236
O O8 0.453513 0.315569 0.400547
O O9 0.333848 0.175629 0.060138
O O10 0.561302 0.262778 0.794022
O O11 0.912318 0.296413 0.044456
O O12 0.575896 0.480492 0.710346
O O13 0.244347 0.387728 0.433991
O O14 0.929309 0.514470 0.156754
#
# Coordination Sequence:
#
# PCOD8047061 Si02
#       7
#     2   2   2   2   2   2   2
#     4  11  25  40  68  97 125 169 217 260 322 384
#     4  10  24  44  60  94 132 172 208 260 324 380
#     4  11  25  40  68  97 125 169 217 260 322 384
#     4  10  24  43  65  96 129 164 218 263 316 388
#     4   9  21  42  66  94 123 168 207 266 322 367
#     4   9  21  42  66  94 123 168 207 266 322 367
#     4  10  24  43  65  96 129 164 218 263 316 388
#
# _framework density 20.484242999999999
#
# number of rings (size 3 to 8) (size 9 to 14) (size 15 to 20)
#    0.000    2.286    0.000    1.714   12.000    6.857 
#    0.000    0.000    0.000    0.000    0.000    0.000 
#    0.000    0.000    0.000    0.000    0.000    0.000 
#
# Total GULP energy -173575.164617 kJ/mol
# GULP energy per Si atom -12398.226044 kJ/mol
# Density = 2.043762 g / cm^3
# Si number density = 20.484243 Si / 1000 Ang^3
#
#
#
# Elastic Constant Matrix: (Units=GPa)
#
#
# Indices 1 2 3 4 5 6 
#
# 1 43.2437 29.0215 55.7691 0.0000 13.0248 0.0000
# 2 29.0215 190.9913 70.2228 0.0000 10.4988 0.0000
# 3 55.7691 70.2228 107.9528 0.0000 21.3975 0.0000
# 4 0.0000 0.0000 0.0000 -35.0793 0.0000 134.8627
# 5 13.0248 10.4988 21.3975 0.0000 26.2060 0.0000
# 6 0.0000 0.0000 0.0000 134.8627 0.0000 -222.2437
#
#
#
# Elastic Compliance Matrix: (Units=1/GPa)
#
#
# Indices 1 2 3 4 5 6 
#
# 1 0.071826 0.003448 -0.038177 0.000000 -0.005907 0.000000
# 2 0.003448 0.007073 -0.006539 0.000000 0.000792 0.000000
# 3 -0.038177 -0.006539 0.034551 0.000000 -0.006617 0.000000
# 4 0.000000 0.000000 0.000000 0.021386 0.000000 0.012978
# 5 -0.005907 0.000792 -0.006617 0.000000 0.046181 0.000000
# 6 0.000000 0.000000 0.000000 0.012978 0.000000 0.003376
#
#
# Mechanical properties :
#
#
# Convention : Reuss Voigt Hill
#
# Bulk Modulus (GPa) = 32.34965 72.46830 52.40897
# Shear Modulus (GPa) = 18.03539 -33.74511 -7.85486
#
# Velocity S-wave (km/s) = 2.97046 -4.06318 -1.96033
# Velocity P-wave (km/s) = 5.25277 3.66630 4.52953
#
# Compressibility (1/GPa) = 0.03091223
#
# Stress axis : x y z
#
# Youngs Moduli (GPa) = 13.92262 141.39171 28.94289
#
# Poissons Ratio (x) = -0.48745 1.10496
# Poissons Ratio (y) = -0.04800 0.18925
# Poissons Ratio (z) = 0.53153 0.92451
#
# Static dielectric constant tensor:
#      x y z
#    x 3.819350 0.000000 0.147530 
#    y 0.000000 3.644020 0.000000 
#    z 0.147530 0.000000 3.926460 
# 
# 
# High freq. dielectric constant tensor:
#      x y z
#    x 1.804030 0.000000 0.002220 
#    y 0.000000 1.798700 0.000000 
#    z 0.002220 0.000000 1.805310 
# 
# From -- ./inp_files/8457.got.cif
#   From: 2010.03.12/outbox.cif.g09.slc.cpg/sg4_5_cif.got.tgz:8457.got - 2010.03.31 09:31:35.
