data_PCOD8047418
_publ_section_title
;
Structure prediction by ZEFSAII (Michael W. Deem and Ramdas Pophale) SiO2 
 PCOD8047418
Probable space group: P 21
;
_chemical_formula_sum "Si O2"
_cell_formula_units_Z 8
_cell_length_a 9.496883
_cell_length_b 8.333479
_cell_length_c 9.496727
_cell_angle_alpha 90.000000
_cell_angle_beta 30.076614
_cell_angle_gamma 90.000000
_cell_volume 376.665361
_symmetry_space_group_name_H-M "P 21"
_symmetry_group_IT_number 4
_symmetry_cell_setting 'monoclinic'
loop_
_space_group_symop_operation_xyz
x,y,z
-x,1/2+y,-z
loop_
_atom_site_type_symbol
_atom_site_label
_atom_site_fract_x
_atom_site_fract_y
_atom_site_fract_z
Si Si1 0.102319 0.458700 0.832499
Si Si2 0.667467 0.615564 0.397678
Si Si3 0.295610 0.178058 0.314528
Si Si4 0.185326 0.896083 0.204561
O O1 0.338995 0.593852 0.649414
O O2 0.241738 0.287139 0.741711
O O3 0.987795 0.473797 0.773374
O O4 0.850552 0.480424 0.160982
O O5 0.726567 0.600430 0.512222
O O6 0.021771 0.287120 0.521458
O O7 0.318262 0.037035 0.181767
O O8 0.570403 0.287000 0.070070
#
# Coordination Sequence:
#
# PCOD8047418 Si02
#       4
#     2   2   2   2
#     4  11  23  41  63  91 125 161 203 253 302 360
#     4  11  23  41  63  91 125 161 203 253 302 360
#     4  11  24  43  63  91 125 161 204 253 302 362
#     4  11  24  43  63  91 125 161 204 253 302 362
#
# _framework density 21.239011000000001
#
# number of rings (size 3 to 8) (size 9 to 14) (size 15 to 20)
#    0.000    1.000    0.000    9.000    0.000    6.000 
#    0.000    0.000    0.000    0.000    0.000    0.000 
#    0.000    0.000    0.000    0.000    0.000    0.000 
#
# Total GULP energy -99263.633050 kJ/mol
# GULP energy per Si atom -12407.954131 kJ/mol
# Density = 2.119067 g / cm^3
# Si number density = 21.239011 Si / 1000 Ang^3
#
#
#
# Elastic Constant Matrix: (Units=GPa)
#
#
# Indices 1 2 3 4 5 6 
#
# 1 93.3946 49.8859 23.6123 0.0000 8.1382 0.0000
# 2 49.8859 74.7068 15.0050 0.0000 10.0794 0.0000
# 3 23.6123 15.0050 97.0130 0.0000 -9.1838 0.0000
# 4 0.0000 0.0000 0.0000 58.3126 0.0000 -9.5862
# 5 8.1382 10.0794 -9.1838 0.0000 25.8418 0.0000
# 6 0.0000 0.0000 0.0000 -9.5862 0.0000 25.1647
#
#
#
# Elastic Compliance Matrix: (Units=1/GPa)
#
#
# Indices 1 2 3 4 5 6 
#
# 1 0.017325 -0.010705 -0.002775 0.000000 -0.002267 0.000000
# 2 -0.010705 0.021520 -0.001240 0.000000 -0.005463 0.000000
# 3 -0.002775 -0.001240 0.011697 0.000000 0.005515 0.000000
# 4 0.000000 0.000000 0.000000 0.018295 0.000000 0.006969
# 5 -0.002267 -0.005463 0.005515 0.000000 0.043502 0.000000
# 6 0.000000 0.000000 0.000000 0.006969 0.000000 0.042393
#
#
# Mechanical properties :
#
#
# Convention : Reuss Voigt Hill
#
# Bulk Modulus (GPa) = 47.39240 49.12452 48.25846
# Shear Modulus (GPa) = 26.14968 33.63790 29.89379
#
# Velocity S-wave (km/s) = 3.51267 3.98399 3.75573
# Velocity P-wave (km/s) = 6.23009 6.65902 6.44812
#
# Compressibility (1/GPa) = 0.02110043
#
# Stress axis : x y z
#
# Youngs Moduli (GPa) = 57.72125 46.46761 85.48976
#
# Poissons Ratio (x) = 0.49745 0.23728
# Poissons Ratio (y) = 0.61792 0.10602
# Poissons Ratio (z) = 0.16021 0.05763
#
# Static dielectric constant tensor:
#      x y z
#    x 3.670910 0.000000 -0.116350 
#    y 0.000000 3.912470 0.000000 
#    z -0.116350 0.000000 4.074080 
# 
# 
# High freq. dielectric constant tensor:
#      x y z
#    x 1.828730 0.000000 -0.007800 
#    y 0.000000 1.834490 0.000000 
#    z -0.007800 0.000000 1.855710 
# 
# From -- ./inp_files/36.got.cif
#   From: 2010.03.12/outbox.cif.g09.slc.cpg/sg4_1_cif.got.tgz:36.got - 2010.03.31 09:31:35.
