data_PCOD8047068
_publ_section_title
;
Structure prediction by ZEFSAII (Michael W. Deem and Ramdas Pophale) SiO2 
 PCOD8047068
Probable space group: P 21
;
_chemical_formula_sum "Si O2"
_cell_formula_units_Z 16
_cell_length_a 8.798403
_cell_length_b 11.202537
_cell_length_c 9.593298
_cell_angle_alpha 90.000000
_cell_angle_beta 47.628781
_cell_angle_gamma 90.000000
_cell_volume 698.572543
_symmetry_space_group_name_H-M "P 21"
_symmetry_group_IT_number 4
_symmetry_cell_setting 'monoclinic'
loop_
_space_group_symop_operation_xyz
x,y,z
-x,1/2+y,-z
loop_
_atom_site_type_symbol
_atom_site_label
_atom_site_fract_x
_atom_site_fract_y
_atom_site_fract_z
Si Si1 0.596930 0.954400 0.282319
Si Si2 0.070964 0.640265 0.985164
Si Si3 0.714530 0.824048 0.468400
Si Si4 0.349062 0.849371 0.883304
Si Si5 0.752241 0.600890 0.965975
Si Si6 0.164393 0.059020 0.612218
Si Si7 0.455212 0.810278 0.117875
Si Si8 0.930280 0.454230 0.610919
O O1 0.703526 0.852034 0.310391
O O2 0.576002 0.905538 0.138328
O O3 0.381124 0.990526 0.486983
O O4 0.732195 0.072441 0.196368
O O5 0.957954 0.553372 0.166647
O O6 0.150085 0.762224 0.009300
O O7 0.927131 0.674862 0.941598
O O8 0.482495 0.824310 0.665867
O O9 0.809659 0.696966 0.439690
O O10 0.848684 0.925383 0.461678
O O11 0.492755 0.833781 0.931372
O O12 0.272219 0.984311 0.923899
O O13 0.820399 0.560353 0.768436
O O14 0.539762 0.676751 0.094465
O O15 0.033154 0.999446 0.568610
O O16 0.212043 0.833538 0.298631
#
# Coordination Sequence:
#
# PCOD8047068 Si02
#       8
#     2   2   2   2   2   2   2   2
#     4  11  25  46  69 105 137 184 233 294 342 420
#     4  12  25  45  71  99 141 185 233 285 353 412
#     4  12  23  45  68 101 145 177 236 293 345 418
#     4  11  26  43  73 105 137 189 233 286 359 417
#     4  11  23  45  69 102 139 186 234 288 350 419
#     4  11  24  45  69  99 143 182 228 292 348 415
#     4  10  24  43  70  99 142 177 237 283 345 419
#     4  10  24  44  67 106 136 186 236 283 358 416
#
# _framework density 22.903848
#
# number of rings (size 3 to 8) (size 9 to 14) (size 15 to 20)
#    0.000    1.000    2.500    3.750    7.000    1.000 
#    0.000    3.750    0.000    0.000    0.000    0.000 
#    0.000    0.000    0.000    0.000    0.000    0.000 
#
# Total GULP energy -198386.948190 kJ/mol
# GULP energy per Si atom -12399.184262 kJ/mol
# Density = 2.285172 g / cm^3
# Si number density = 22.903848 Si / 1000 Ang^3
#
#
#
# Elastic Constant Matrix: (Units=GPa)
#
#
# Indices 1 2 3 4 5 6 
#
# 1 130.7513 40.1207 31.0124 0.0000 13.1401 0.0000
# 2 40.1207 99.5072 15.8531 0.0000 0.4619 0.0000
# 3 31.0124 15.8531 69.8601 0.0000 1.9356 0.0000
# 4 0.0000 0.0000 0.0000 32.3329 0.0000 0.7485
# 5 13.1401 0.4619 1.9356 0.0000 31.3223 0.0000
# 6 0.0000 0.0000 0.0000 0.7485 0.0000 35.0773
#
#
#
# Elastic Compliance Matrix: (Units=1/GPa)
#
#
# Indices 1 2 3 4 5 6 
#
# 1 0.009925 -0.003423 -0.003521 0.000000 -0.003896 0.000000
# 2 -0.003423 0.011607 -0.001152 0.000000 0.001336 0.000000
# 3 -0.003521 -0.001152 0.016125 0.000000 0.000498 0.000000
# 4 0.000000 0.000000 0.000000 0.030944 0.000000 -0.000660
# 5 -0.003896 0.001336 0.000498 0.000000 0.033510 0.000000
# 6 0.000000 0.000000 0.000000 -0.000660 0.000000 0.028523
#
#
# Mechanical properties :
#
#
# Convention : Reuss Voigt Hill
#
# Bulk Modulus (GPa) = 46.58551 52.67678 49.63114
# Shear Modulus (GPa) = 32.47195 33.95534 33.21364
#
# Velocity S-wave (km/s) = 3.76939 3.85452 3.81219
# Velocity P-wave (km/s) = 6.27121 6.54667 6.41042
#
# Compressibility (1/GPa) = 0.02146590
#
# Stress axis : x y z
#
# Youngs Moduli (GPa) = 100.75526 86.15667 62.01545
#
# Poissons Ratio (x) = 0.29488 0.21838
# Poissons Ratio (y) = 0.34485 0.07141
# Poissons Ratio (z) = 0.35479 0.09921
#
# Static dielectric constant tensor:
#      x y z
#    x 4.223150 0.000000 -0.002420 
#    y 0.000000 3.954990 0.000000 
#    z -0.002420 0.000000 4.079790 
# 
# 
# High freq. dielectric constant tensor:
#      x y z
#    x 1.918610 0.000000 0.006800 
#    y 0.000000 1.895530 0.000000 
#    z 0.006800 0.000000 1.896360 
# 
# From -- ./inp_files/6380.got.cif
#   From: 2010.03.12/outbox.cif.g09.slc.cpg/sg4_4_cif.got.tgz:6380.got - 2010.03.31 09:31:35.
