data_PCOD8047729
_publ_section_title
;
Structure prediction by ZEFSAII (Michael W. Deem and Ramdas Pophale) SiO2 
 PCOD8047729
Probable space group: P 21
;
_chemical_formula_sum "Si O2"
_cell_formula_units_Z 16
_cell_length_a 21.986415
_cell_length_b 5.158381
_cell_length_c 15.439416
_cell_angle_alpha 90.000000
_cell_angle_beta 159.221663
_cell_angle_gamma 90.000000
_cell_volume 621.191323
_symmetry_space_group_name_H-M "P 21"
_symmetry_group_IT_number 4
_symmetry_cell_setting 'monoclinic'
loop_
_space_group_symop_operation_xyz
x,y,z
-x,1/2+y,-z
loop_
_atom_site_type_symbol
_atom_site_label
_atom_site_fract_x
_atom_site_fract_y
_atom_site_fract_z
Si Si1 0.249247 0.280950 0.492689
Si Si2 0.221181 0.131130 0.770989
Si Si3 0.613199 0.905697 0.147429
Si Si4 0.085092 0.457789 0.924840
Si Si5 0.406507 0.744563 0.131482
Si Si6 0.582348 0.270547 0.650805
Si Si7 0.981824 0.101190 0.923240
Si Si8 0.073398 0.398798 0.716580
O O1 0.264551 0.418147 0.606681
O O2 0.414714 0.135701 0.670287
O O3 0.195112 0.518083 0.357967
O O4 0.101137 0.067742 0.301237
O O5 0.116082 0.010599 0.550251
O O6 0.291450 0.394739 0.819082
O O7 0.083267 0.154302 0.665515
O O8 0.376495 0.975074 0.021452
O O9 0.515288 0.637407 0.027128
O O10 0.091249 0.319237 0.839506
O O11 0.120446 0.227195 0.040649
O O12 0.223140 0.687761 0.112909
O O13 0.436636 0.830263 0.271541
O O14 0.241504 0.558856 0.909321
O O15 0.538852 0.531767 0.540428
O O16 0.936814 0.333295 0.930738
#
# Coordination Sequence:
#
# PCOD8047729 Si02
#       8
#     2   2   2   2   2   2   2   2
#     4  12  27  49  82 118 165 202 269 335 397 473
#     4  12  24  45  78 110 160 213 261 326 386 478
#     4  12  28  49  78 119 165 213 266 323 400 473
#     4  11  28  50  83 118 158 206 269 327 403 477
#     4  11  27  49  73 117 152 212 262 327 394 473
#     4  11  30  53  80 114 159 210 266 328 392 468
#     4  12  29  51  81 120 155 205 265 334 404 472
#     4  11  25  46  75 112 158 209 266 318 396 470
#
# _framework density 25.756959999999999
#
# number of rings (size 3 to 8) (size 9 to 14) (size 15 to 20)
#    0.000    0.500    5.000    0.750    8.750    4.000 
#    0.000    0.000    0.000    0.000    0.000    0.000 
#    0.000    0.000    0.000    0.000    0.000    0.000 
#
# Total GULP energy -198248.010365 kJ/mol
# GULP energy per Si atom -12390.500648 kJ/mol
# Density = 2.569834 g / cm^3
# Si number density = 25.756960 Si / 1000 Ang^3
#
#
#
# Elastic Constant Matrix: (Units=GPa)
#
#
# Indices 1 2 3 4 5 6 
#
# 1 160.6619 26.1696 56.0596 0.0000 -16.2765 0.0000
# 2 26.1696 91.0465 24.3078 0.0000 -9.4458 0.0000
# 3 56.0596 24.3078 120.2551 0.0000 -8.4621 0.0000
# 4 0.0000 0.0000 0.0000 27.8930 0.0000 4.8217
# 5 -16.2765 -9.4458 -8.4621 0.0000 50.6895 0.0000
# 6 0.0000 0.0000 0.0000 4.8217 0.0000 38.8286
#
#
#
# Elastic Compliance Matrix: (Units=1/GPa)
#
#
# Indices 1 2 3 4 5 6 
#
# 1 0.007721 -0.001176 -0.003241 0.000000 0.001719 0.000000
# 2 -0.001176 0.011952 -0.001758 0.000000 0.001556 0.000000
# 3 -0.003241 -0.001758 0.010205 0.000000 0.000335 0.000000
# 4 0.000000 0.000000 0.000000 0.036638 0.000000 -0.004550
# 5 0.001719 0.001556 0.000335 0.000000 0.020626 0.000000
# 6 0.000000 0.000000 0.000000 -0.004550 0.000000 0.026319
#
#
# Mechanical properties :
#
#
# Convention : Reuss Voigt Hill
#
# Bulk Modulus (GPa) = 57.04824 65.00419 61.02621
# Shear Modulus (GPa) = 37.97854 41.17732 39.57793
#
# Velocity S-wave (km/s) = 3.84408 4.00270 3.92419
# Velocity P-wave (km/s) = 6.47297 6.83040 6.65409
#
# Compressibility (1/GPa) = 0.01752902
#
# Stress axis : x y z
#
# Youngs Moduli (GPa) = 129.52337 83.66643 97.98785
#
# Poissons Ratio (x) = 0.09836 0.31753
# Poissons Ratio (y) = 0.15227 0.17230
# Poissons Ratio (z) = 0.41972 0.14712
#
# Static dielectric constant tensor:
#      x y z
#    x 5.458850 0.000000 -0.271660 
#    y 0.000000 4.484030 0.000000 
#    z -0.271660 0.000000 4.791620 
# 
# 
# High freq. dielectric constant tensor:
#      x y z
#    x 2.060420 0.000000 -0.012140 
#    y 0.000000 2.010370 0.000000 
#    z -0.012140 0.000000 2.037850 
# 
# From -- ./inp_files/14417.got.cif
#   From: 2010.03.12/outbox.cif.g09.slc.cpg/sg4_8_cif.got.tgz:14417.got - 2010.03.31 09:31:35.
