data_PCOD8047199
_publ_section_title
;
Structure prediction by ZEFSAII (Michael W. Deem and Ramdas Pophale) SiO2 
 PCOD8047199
Probable space group: P 21
;
_chemical_formula_sum "Si O2"
_cell_formula_units_Z 16
_cell_length_a 16.037791
_cell_length_b 5.453310
_cell_length_c 12.228869
_cell_angle_alpha 90.000000
_cell_angle_beta 140.554112
_cell_angle_gamma 90.000000
_cell_volume 679.521979
_symmetry_space_group_name_H-M "P 21"
_symmetry_group_IT_number 4
_symmetry_cell_setting 'monoclinic'
loop_
_space_group_symop_operation_xyz
x,y,z
-x,1/2+y,-z
loop_
_atom_site_type_symbol
_atom_site_label
_atom_site_fract_x
_atom_site_fract_y
_atom_site_fract_z
Si Si1 0.444977 0.191650 0.599186
Si Si2 0.649623 0.359366 0.323547
Si Si3 0.331357 0.366035 0.263896
Si Si4 0.216882 0.996708 0.751598
Si Si5 0.031588 0.341671 0.975460
Si Si6 0.076339 0.692265 0.359997
Si Si7 0.592481 0.580782 0.864458
Si Si8 0.998214 0.697071 0.599308
O O1 0.359254 0.318483 0.419259
O O2 0.497737 0.350471 0.754184
O O3 0.342391 0.015773 0.556392
O O4 0.576397 0.089237 0.676516
O O5 0.673128 0.493563 0.231578
O O6 0.767449 0.165306 0.460046
O O7 0.499548 0.272656 0.165785
O O8 0.178885 0.427590 0.094837
O O9 0.365125 0.144257 0.216309
O O10 0.108748 0.202412 0.607940
O O11 0.279205 0.051057 0.932266
O O12 0.140972 0.732507 0.686265
O O13 0.962572 0.600210 0.939467
O O14 0.951491 0.224492 0.795039
O O15 0.013431 0.436592 0.335199
O O16 0.017069 0.939886 0.354649
#
# Coordination Sequence:
#
# PCOD8047199 Si02
#       8
#     2   2   2   2   2   2   2   2
#     4  11  24  45  70 101 139 196 244 305 374 430
#     4  10  26  42  67 106 141 197 234 312 367 441
#     4  11  25  46  74 102 143 190 253 298 372 446
#     4  11  25  47  73 107 150 188 253 301 374 447
#     4  12  28  44  76 114 148 196 248 319 369 443
#     4  11  25  47  73 105 153 195 255 299 381 441
#     4  11  26  44  72 104 142 195 242 309 361 446
#     4  11  25  47  73 105 142 207 237 311 368 452
#
# _framework density 23.545964000000001
#
# number of rings (size 3 to 8) (size 9 to 14) (size 15 to 20)
#    0.000    1.000    1.250    3.750   10.500    0.000 
#    9.000    0.000    0.000    0.000    0.000    0.000 
#    0.000    0.000    0.000    0.000    0.000    0.000 
#
# Total GULP energy -198214.996133 kJ/mol
# GULP energy per Si atom -12388.437258 kJ/mol
# Density = 2.349237 g / cm^3
# Si number density = 23.545964 Si / 1000 Ang^3
#
#
#
# Elastic Constant Matrix: (Units=GPa)
#
#
# Indices 1 2 3 4 5 6 
#
# 1 101.0422 22.0256 20.0869 0.0000 1.6884 0.0000
# 2 22.0256 82.6110 3.7746 0.0000 -8.2073 0.0000
# 3 20.0869 3.7746 123.5509 0.0000 -15.7818 0.0000
# 4 0.0000 0.0000 0.0000 30.4844 0.0000 -4.9478
# 5 1.6884 -8.2073 -15.7818 0.0000 37.7719 0.0000
# 6 0.0000 0.0000 0.0000 -4.9478 0.0000 22.0285
#
#
#
# Elastic Compliance Matrix: (Units=1/GPa)
#
#
# Indices 1 2 3 4 5 6 
#
# 1 0.010977 -0.003033 -0.001942 0.000000 -0.001961 0.000000
# 2 -0.003033 0.013210 0.000500 0.000000 0.003215 0.000000
# 3 -0.001942 0.000500 0.008894 0.000000 0.003912 0.000000
# 4 0.000000 0.000000 0.000000 0.034045 0.000000 0.007647
# 5 -0.001961 0.003215 0.003912 0.000000 0.028895 0.000000
# 6 0.000000 0.000000 0.000000 0.007647 0.000000 0.047113
#
#
# Mechanical properties :
#
#
# Convention : Reuss Voigt Hill
#
# Bulk Modulus (GPa) = 41.44087 44.33093 42.88590
# Shear Modulus (GPa) = 31.22504 35.47811 33.35157
#
# Velocity S-wave (km/s) = 3.64556 3.88591 3.76765
# Velocity P-wave (km/s) = 5.94629 6.24516 6.09755
#
# Compressibility (1/GPa) = 0.02413077
#
# Stress axis : x y z
#
# Youngs Moduli (GPa) = 91.10066 75.69999 112.43529
#
# Poissons Ratio (x) = 0.22958 0.21840
# Poissons Ratio (y) = 0.27628 -0.05623
# Poissons Ratio (z) = 0.17696 -0.03786
#
# Static dielectric constant tensor:
#      x y z
#    x 4.512690 0.000000 -0.045460 
#    y 0.000000 4.165420 0.000000 
#    z -0.045460 0.000000 4.190890 
# 
# 
# High freq. dielectric constant tensor:
#      x y z
#    x 1.953360 0.000000 -0.002070 
#    y 0.000000 1.920100 0.000000 
#    z -0.002070 0.000000 1.934410 
# 
# From -- ./inp_files/12464.got.cif
#   From: 2010.03.12/outbox.cif.g09.slc.cpg/sg4_7_cif.got.tgz:12464.got - 2010.03.31 09:31:35.
