data_PCOD8047682
_publ_section_title
;
Structure prediction by ZEFSAII (Michael W. Deem and Ramdas Pophale) SiO2 
 PCOD8047682
Probable space group: P 21
;
_chemical_formula_sum "Si O2"
_cell_formula_units_Z 16
_cell_length_a 10.114098
_cell_length_b 5.277500
_cell_length_c 22.657903
_cell_angle_alpha 90.000000
_cell_angle_beta 33.617899
_cell_angle_gamma 90.000000
_cell_volume 669.594333
_symmetry_space_group_name_H-M "P 21"
_symmetry_group_IT_number 4
_symmetry_cell_setting 'monoclinic'
loop_
_space_group_symop_operation_xyz
x,y,z
-x,1/2+y,-z
loop_
_atom_site_type_symbol
_atom_site_label
_atom_site_fract_x
_atom_site_fract_y
_atom_site_fract_z
Si Si1 0.862517 0.537100 0.069472
Si Si2 0.391351 0.283552 0.242755
Si Si3 0.044614 0.662275 0.415985
Si Si4 0.503975 0.799602 0.035771
Si Si5 0.143975 0.486384 0.745547
Si Si6 0.868494 0.423287 0.737695
Si Si7 0.607036 0.490400 0.643695
Si Si8 0.001951 0.499143 0.141741
O O1 0.592109 0.487364 0.147358
O O2 0.832580 0.571533 0.150496
O O3 0.032077 0.294849 0.995473
O O4 0.142947 0.388825 0.361188
O O5 0.314935 0.148546 0.210649
O O6 0.501362 0.112617 0.255473
O O7 0.781964 0.672994 0.541320
O O8 0.032830 0.820503 0.360218
O O9 0.232077 0.756583 0.395284
O O10 0.301426 0.738978 0.160166
O O11 0.426329 0.038213 0.022957
O O12 0.745196 0.902157 0.976975
O O13 0.404346 0.400900 0.672503
O O14 0.963763 0.261930 0.834533
O O15 0.100611 0.501015 0.690852
O O16 0.111042 0.772916 0.778866
#
# Coordination Sequence:
#
# PCOD8047682 Si02
#       8
#     2   2   2   2   2   2   2   2
#     4  12  27  44  69 110 147 186 242 305 366 429
#     4  11  25  46  75 101 147 189 245 301 366 438
#     4  11  25  47  77 105 144 187 254 302 379 434
#     4  12  24  43  71  99 148 203 243 285 358 444
#     4  12  26  47  74 105 149 188 244 298 367 429
#     4  11  27  45  70 111 143 194 240 307 360 443
#     4  11  24  49  77 107 135 198 244 309 368 447
#     4  12  24  45  69 104 145 197 244 293 358 442
#
# _framework density 23.895064000000001
#
# number of rings (size 3 to 8) (size 9 to 14) (size 15 to 20)
#    0.000    0.500    5.000    2.250    8.750    0.000 
#    2.250    0.000    0.000    0.000    0.000    0.000 
#    0.000    0.000    0.000    0.000    0.000    0.000 
#
# Total GULP energy -198245.547377 kJ/mol
# GULP energy per Si atom -12390.346711 kJ/mol
# Density = 2.384068 g / cm^3
# Si number density = 23.895064 Si / 1000 Ang^3
#
#
#
# Elastic Constant Matrix: (Units=GPa)
#
#
# Indices 1 2 3 4 5 6 
#
# 1 177.2813 11.8424 23.8364 0.0000 9.1407 0.0000
# 2 11.8424 87.6169 3.8561 0.0000 17.0023 0.0000
# 3 23.8364 3.8561 77.9106 0.0000 6.2274 0.0000
# 4 0.0000 0.0000 0.0000 35.7369 0.0000 -4.0411
# 5 9.1407 17.0023 6.2274 0.0000 27.6919 0.0000
# 6 0.0000 0.0000 0.0000 -4.0411 0.0000 30.5516
#
#
#
# Elastic Compliance Matrix: (Units=1/GPa)
#
#
# Indices 1 2 3 4 5 6 
#
# 1 0.005968 -0.000481 -0.001699 0.000000 -0.001293 0.000000
# 2 -0.000481 0.012996 0.000131 0.000000 -0.007850 0.000000
# 3 -0.001699 0.000131 0.013554 0.000000 -0.002568 0.000000
# 4 0.000000 0.000000 0.000000 0.028407 0.000000 0.003757
# 5 -0.001293 -0.007850 -0.002568 0.000000 0.041936 0.000000
# 6 0.000000 0.000000 0.000000 0.003757 0.000000 0.033229
#
#
# Mechanical properties :
#
#
# Convention : Reuss Voigt Hill
#
# Bulk Modulus (GPa) = 35.18557 46.87541 41.03049
# Shear Modulus (GPa) = 33.40927 39.01433 36.21180
#
# Velocity S-wave (km/s) = 3.74326 4.04510 3.89710
# Velocity P-wave (km/s) = 5.78271 6.44025 6.12032
#
# Compressibility (1/GPa) = 0.02842074
#
# Stress axis : x y z
#
# Youngs Moduli (GPa) = 167.56209 76.94757 73.78060
#
# Poissons Ratio (x) = 0.03702 0.12533
# Poissons Ratio (y) = 0.08061 -0.00970
# Poissons Ratio (z) = 0.28464 -0.01011
#
# Static dielectric constant tensor:
#      x y z
#    x 4.609240 0.000000 -0.061120 
#    y 0.000000 4.312030 0.000000 
#    z -0.061120 0.000000 4.161790 
# 
# 
# High freq. dielectric constant tensor:
#      x y z
#    x 1.965480 0.000000 -0.002120 
#    y 0.000000 1.947720 0.000000 
#    z -0.002120 0.000000 1.927140 
# 
# From -- ./inp_files/8854.got.cif
#   From: 2010.03.12/outbox.cif.g09.slc.cpg/sg4_5_cif.got.tgz:8854.got - 2010.03.31 09:31:35.
