data_PCOD8047898
_publ_section_title
;
Structure prediction by ZEFSAII (Michael W. Deem and Ramdas Pophale) SiO2 
 PCOD8047898
Probable space group: P 21
;
_chemical_formula_sum "Si O2"
_cell_formula_units_Z 16
_cell_length_a 25.086653
_cell_length_b 5.271551
_cell_length_c 27.551144
_cell_angle_alpha 90.000000
_cell_angle_beta 9.788264
_cell_angle_gamma 90.000000
_cell_volume 619.425732
_symmetry_space_group_name_H-M "P 21"
_symmetry_group_IT_number 4
_symmetry_cell_setting 'monoclinic'
loop_
_space_group_symop_operation_xyz
x,y,z
-x,1/2+y,-z
loop_
_atom_site_type_symbol
_atom_site_label
_atom_site_fract_x
_atom_site_fract_y
_atom_site_fract_z
Si Si1 0.854725 0.573700 0.853633
Si Si2 0.032318 0.975645 0.093283
Si Si3 0.258532 0.962828 0.614431
Si Si4 0.607108 0.238469 0.928810
Si Si5 0.158384 0.428639 0.842287
Si Si6 0.328003 0.236827 0.282270
Si Si7 0.627822 0.728713 0.578014
Si Si8 0.613756 0.395900 0.678712
O O1 0.025721 0.341736 0.727074
O O2 0.091975 0.730328 0.605559
O O3 0.556082 0.467779 0.092344
O O4 0.710076 0.740406 0.026912
O O5 0.935255 0.718634 0.206351
O O6 0.854657 0.010750 0.201749
O O7 0.408938 0.954237 0.752377
O O8 0.957337 0.217510 0.192931
O O9 0.498174 0.942285 0.443929
O O10 0.407674 0.989495 0.427108
O O11 0.969027 0.330958 0.603592
O O12 0.415605 0.488792 0.084543
O O13 0.464508 0.145389 0.108208
O O14 0.955509 0.638296 0.052819
O O15 0.321328 0.002570 0.325825
O O16 0.531454 0.629163 0.717354
#
# Coordination Sequence:
#
# PCOD8047898 Si02
#       8
#     2   2   2   2   2   2   2   2
#     4  12  29  51  85 118 171 228 286 352 429 500
#     4  12  29  49  80 110 157 208 268 342 429 513
#     4  12  29  49  80 110 157 208 268 342 429 513
#     4  12  29  52  88 132 178 229 286 352 418 494
#     4  12  24  50  76 112 150 206 264 340 426 516
#     4  12  28  54  80 128 170 232 286 350 418 504
#     4  12  31  50  72 128 156 211 282 354 422 520
#     4  12  29  51  85 118 171 228 286 352 429 500
#
# _framework density 25.830375
#
# number of rings (size 3 to 8) (size 9 to 14) (size 15 to 20)
#    0.000    0.000    1.250    6.750   14.000    0.000 
#    0.000    0.000    0.000    0.000    0.000    0.000 
#    0.000    0.000    0.000    0.000    0.000    0.000 
#
# Total GULP energy -198408.417757 kJ/mol
# GULP energy per Si atom -12400.526110 kJ/mol
# Density = 2.577158 g / cm^3
# Si number density = 25.830375 Si / 1000 Ang^3
#
#
#
# Elastic Constant Matrix: (Units=GPa)
#
#
# Indices 1 2 3 4 5 6 
#
# 1 142.8117 56.7464 72.8630 0.0000 2.4249 0.0000
# 2 56.7464 167.4320 67.0506 0.0000 0.3008 0.0000
# 3 72.8630 67.0506 185.2782 0.0000 -1.9843 0.0000
# 4 0.0000 0.0000 0.0000 54.6061 0.0000 17.6136
# 5 2.4249 0.3008 -1.9843 0.0000 50.0130 0.0000
# 6 0.0000 0.0000 0.0000 17.6136 0.0000 28.9120
#
#
#
# Elastic Compliance Matrix: (Units=1/GPa)
#
#
# Indices 1 2 3 4 5 6 
#
# 1 0.009299 -0.001969 -0.002950 0.000000 -0.000556 0.000000
# 2 -0.001969 0.007403 -0.001905 0.000000 -0.000025 0.000000
# 3 -0.002950 -0.001905 0.007252 0.000000 0.000442 0.000000
# 4 0.000000 0.000000 0.000000 0.022792 0.000000 -0.013885
# 5 -0.000556 -0.000025 0.000442 0.000000 0.020039 0.000000
# 6 0.000000 0.000000 0.000000 -0.013885 0.000000 0.043047
#
#
# Mechanical properties :
#
#
# Convention : Reuss Voigt Hill
#
# Bulk Modulus (GPa) = 97.04109 98.76023 97.90066
# Shear Modulus (GPa) = 39.39615 46.63033 43.01324
#
# Velocity S-wave (km/s) = 3.90960 4.25343 4.08514
# Velocity P-wave (km/s) = 7.61775 7.90186 7.76111
#
# Compressibility (1/GPa) = 0.01030491
#
# Stress axis : x y z
#
# Youngs Moduli (GPa) = 107.53289 135.08269 137.89912
#
# Poissons Ratio (x) = 0.26601 0.40686
# Poissons Ratio (y) = 0.21176 0.26268
# Poissons Ratio (z) = 0.31727 0.25731
#
# Static dielectric constant tensor:
#      x y z
#    x 4.796520 0.000000 -0.047830 
#    y 0.000000 4.723780 0.000000 
#    z -0.047830 0.000000 4.749210 
# 
# 
# High freq. dielectric constant tensor:
#      x y z
#    x 2.045870 0.000000 -0.002950 
#    y 0.000000 2.044260 0.000000 
#    z -0.002950 0.000000 2.042560 
# 
# From -- ./inp_files/16237.got.cif
#   From: 2010.03.12/outbox.cif.g09.slc.cpg/sg4_9_cif.got.tgz:16237.got - 2010.03.31 09:31:35.
