data_PCOD8047834
_publ_section_title
;
Structure prediction by ZEFSAII (Michael W. Deem and Ramdas Pophale) SiO2 
 PCOD8047834
Probable space group: P 21
;
_chemical_formula_sum "Si O2"
_cell_formula_units_Z 14
_cell_length_a 15.092278
_cell_length_b 4.987718
_cell_length_c 16.116100
_cell_angle_alpha 90.000000
_cell_angle_beta 31.698632
_cell_angle_gamma 90.000000
_cell_volume 637.454428
_symmetry_space_group_name_H-M "P 21"
_symmetry_group_IT_number 4
_symmetry_cell_setting 'monoclinic'
loop_
_space_group_symop_operation_xyz
x,y,z
-x,1/2+y,-z
loop_
_atom_site_type_symbol
_atom_site_label
_atom_site_fract_x
_atom_site_fract_y
_atom_site_fract_z
Si Si1 0.863580 0.770390 0.340193
Si Si2 0.644272 0.784206 0.183937
Si Si3 0.386868 0.358463 0.604184
Si Si4 0.395923 0.824050 0.058715
Si Si5 0.245660 0.795442 0.999514
Si Si6 0.887773 0.322095 0.587693
Si Si7 0.261252 0.759949 0.468264
O O1 0.772991 0.869682 0.329030
O O2 0.773895 0.501248 0.441207
O O3 0.851892 0.002356 0.418821
O O4 0.058050 0.701183 0.170405
O O5 0.688202 0.788803 0.245990
O O6 0.766225 0.575658 0.040225
O O7 0.455027 0.676826 0.322525
O O8 0.664703 0.077635 0.129541
O O9 0.473472 0.648332 0.537622
O O10 0.226092 0.899534 0.242982
O O11 0.455329 0.530879 0.039591
O O12 0.358511 0.830923 0.991247
O O13 0.775028 0.351287 0.595875
O O14 0.045446 0.520949 0.455951
#
# Coordination Sequence:
#
# PCOD8047834 Si02
#       7
#     2   2   2   2   2   2   2
#     4  12  25  44  70  97 138 172 217 283 330 396
#     4  12  25  43  70  98 133 171 224 272 323 410
#     4  12  23  46  70 102 129 171 225 270 337 396
#     4  12  25  45  66  94 137 182 220 272 330 398
#     4  12  26  43  65 103 136 173 219 275 342 381
#     4  12  25  42  66  98 133 172 226 280 325 387
#     4  12  23  43  69  98 126 181 227 268 327 392
#
# _framework density 21.962354000000001
#
# number of rings (size 3 to 8) (size 9 to 14) (size 15 to 20)
#    0.000    0.000    2.857    8.571    0.000    1.143 
#    0.000    0.000    0.000    0.000    0.000    0.000 
#    0.000    0.000    0.000    0.000    0.000    0.000 
#
# Total GULP energy -173771.479559 kJ/mol
# GULP energy per Si atom -12412.248540 kJ/mol
# Density = 2.191237 g / cm^3
# Si number density = 21.962354 Si / 1000 Ang^3
#
#
#
# Elastic Constant Matrix: (Units=GPa)
#
#
# Indices 1 2 3 4 5 6 
#
# 1 75.6547 8.9132 11.7057 0.0000 9.9940 0.0000
# 2 8.9132 87.8303 17.9465 0.0000 2.2093 0.0000
# 3 11.7057 17.9465 75.9623 0.0000 3.4589 0.0000
# 4 0.0000 0.0000 0.0000 34.9917 0.0000 1.2613
# 5 9.9940 2.2093 3.4589 0.0000 29.1373 0.0000
# 6 0.0000 0.0000 0.0000 1.2613 0.0000 29.7301
#
#
#
# Elastic Compliance Matrix: (Units=1/GPa)
#
#
# Indices 1 2 3 4 5 6 
#
# 1 0.014210 -0.000969 -0.001752 0.000000 -0.004593 0.000000
# 2 -0.000969 0.012039 -0.002683 0.000000 -0.000262 0.000000
# 3 -0.001752 -0.002683 0.014108 0.000000 -0.000870 0.000000
# 4 0.000000 0.000000 0.000000 0.028622 0.000000 -0.001214
# 5 -0.004593 -0.000262 -0.000870 0.000000 0.036019 0.000000
# 6 0.000000 0.000000 0.000000 -0.001214 0.000000 0.033687
#
#
# Mechanical properties :
#
#
# Convention : Reuss Voigt Hill
#
# Bulk Modulus (GPa) = 33.84133 35.17533 34.50833
# Shear Modulus (GPa) = 31.37924 32.16396 31.77160
#
# Velocity S-wave (km/s) = 3.78401 3.83104 3.80760
# Velocity P-wave (km/s) = 5.87656 5.96826 5.92258
#
# Compressibility (1/GPa) = 0.02954966
#
# Stress axis : x y z
#
# Youngs Moduli (GPa) = 70.37408 83.06543 70.88232
#
# Poissons Ratio (x) = 0.08045 0.12417
# Poissons Ratio (y) = 0.06816 0.19018
# Poissons Ratio (z) = 0.12328 0.22287
#
# Static dielectric constant tensor:
#      x y z
#    x 4.027980 0.000000 0.166090 
#    y 0.000000 3.987650 0.000000 
#    z 0.166090 0.000000 3.841460 
# 
# 
# High freq. dielectric constant tensor:
#      x y z
#    x 1.875400 0.000000 0.008560 
#    y 0.000000 1.876590 0.000000 
#    z 0.008560 0.000000 1.866090 
# 
# From -- ./inp_files/8915.got.cif
#   From: 2010.03.12/outbox.cif.g09.slc.cpg/sg4_5_cif.got.tgz:8915.got - 2010.03.31 09:31:35.
