data_PCOD8047974
_publ_section_title
;
Structure prediction by ZEFSAII (Michael W. Deem and Ramdas Pophale) SiO2 
 PCOD8047974
Probable space group: P 21
;
_chemical_formula_sum "Si O2"
_cell_formula_units_Z 12
_cell_length_a 23.652107
_cell_length_b 4.855044
_cell_length_c 5.281069
_cell_angle_alpha 90.000000
_cell_angle_beta 51.925195
_cell_angle_gamma 90.000000
_cell_volume 477.390087
_symmetry_space_group_name_H-M "P 21"
_symmetry_group_IT_number 4
_symmetry_cell_setting 'monoclinic'
loop_
_space_group_symop_operation_xyz
x,y,z
-x,1/2+y,-z
loop_
_atom_site_type_symbol
_atom_site_label
_atom_site_fract_x
_atom_site_fract_y
_atom_site_fract_z
Si Si1 0.332774 0.191590 0.190044
Si Si2 0.862029 0.473817 0.852723
Si Si3 0.641385 0.188169 0.183377
Si Si4 0.455949 0.957776 0.179984
Si Si5 0.766258 0.960402 0.171803
Si Si6 0.048811 0.989057 0.884962
O O1 0.257560 0.312992 0.499972
O O2 0.380313 0.028766 0.261354
O O3 0.379437 0.454331 0.964995
O O4 0.314063 0.954669 0.037131
O O5 0.902934 0.380351 0.484131
O O6 0.818317 0.745621 0.888160
O O7 0.912075 0.538513 0.955250
O O8 0.808335 0.240435 0.103266
O O9 0.565891 0.298579 0.502790
O O10 0.692503 0.017985 0.229594
O O11 0.501236 0.740593 0.885433
O O12 0.014884 0.275153 0.888817
#
# Coordination Sequence:
#
# PCOD8047974 Si02
#       6
#     2   2   2   2   2   2
#     4  12  26  47  74 102 146 196 238 320 385 441
#     4  12  27  45  80 111 149 208 252 312 374 458
#     4  12  26  47  74 102 146 196 238 320 385 441
#     4  12  26  48  70 104 144 188 256 304 376 470
#     4  12  27  47  70 111 147 184 254 310 374 454
#     4  12  26  50  74 112 156 200 252 310 374 442
#
# _framework density 25.136676000000001
#
# number of rings (size 3 to 8) (size 9 to 14) (size 15 to 20)
#    0.000    0.000    0.000   11.000    7.000    2.667 
#    0.000    3.333    0.000    0.000    0.000    0.000 
#    0.000    0.000    0.000    0.000    0.000    0.000 
#
# Total GULP energy -148808.005180 kJ/mol
# GULP energy per Si atom -12400.667098 kJ/mol
# Density = 2.507946 g / cm^3
# Si number density = 25.136676 Si / 1000 Ang^3
#
#
#
# Elastic Constant Matrix: (Units=GPa)
#
#
# Indices 1 2 3 4 5 6 
#
# 1 51.8968 21.9990 26.8691 0.0000 -0.4713 0.0000
# 2 21.9990 148.0585 19.5620 0.0000 -0.9884 0.0000
# 3 26.8691 19.5620 90.2670 0.0000 12.8226 0.0000
# 4 0.0000 0.0000 0.0000 60.3430 0.0000 -5.4142
# 5 -0.4713 -0.9884 12.8226 0.0000 30.2982 0.0000
# 6 0.0000 0.0000 0.0000 -5.4142 0.0000 47.8135
#
#
#
# Elastic Compliance Matrix: (Units=1/GPa)
#
#
# Indices 1 2 3 4 5 6 
#
# 1 0.024066 -0.002621 -0.007061 0.000000 0.003277 0.000000
# 2 -0.002621 0.007263 -0.000874 0.000000 0.000566 0.000000
# 3 -0.007061 -0.000874 0.014246 0.000000 -0.006167 0.000000
# 4 0.000000 0.000000 0.000000 0.016742 0.000000 0.001896
# 5 0.003277 0.000566 -0.006167 0.000000 0.035685 0.000000
# 6 0.000000 0.000000 0.000000 0.001896 0.000000 0.021129
#
#
# Mechanical properties :
#
#
# Convention : Reuss Voigt Hill
#
# Bulk Modulus (GPa) = 40.88026 47.45363 44.16695
# Shear Modulus (GPa) = 33.69361 42.47709 38.08535
#
# Velocity S-wave (km/s) = 3.66514 4.11523 3.89669
# Velocity P-wave (km/s) = 5.84889 6.44200 6.15260
#
# Compressibility (1/GPa) = 0.02446168
#
# Stress axis : x y z
#
# Youngs Moduli (GPa) = 41.55323 137.68796 70.19734
#
# Poissons Ratio (x) = 0.36087 0.49566
# Poissons Ratio (y) = 0.10891 0.06137
# Poissons Ratio (z) = 0.29341 0.12037
#
# Static dielectric constant tensor:
#      x y z
#    x 4.245480 0.000000 0.029910 
#    y 0.000000 4.883450 0.000000 
#    z 0.029910 0.000000 4.501280 
# 
# 
# High freq. dielectric constant tensor:
#      x y z
#    x 1.985180 0.000000 -0.001530 
#    y 0.000000 2.034260 0.000000 
#    z -0.001530 0.000000 2.004260 
# 
# From -- ./inp_files/4425.got.cif
#   From: 2010.03.12/outbox.cif.g09.slc.cpg/sg4_3_cif.got.tgz:4425.got - 2010.03.31 09:31:35.
