data_PCOD8047305
_publ_section_title
;
Structure prediction by ZEFSAII (Michael W. Deem and Ramdas Pophale) SiO2 
 PCOD8047305
Probable space group: P 21
;
_chemical_formula_sum "Si O2"
_cell_formula_units_Z 14
_cell_length_a 9.503906
_cell_length_b 8.113223
_cell_length_c 14.880316
_cell_angle_alpha 90.000000
_cell_angle_beta 149.264219
_cell_angle_gamma 90.000000
_cell_volume 586.403305
_symmetry_space_group_name_H-M "P 21"
_symmetry_group_IT_number 4
_symmetry_cell_setting 'monoclinic'
loop_
_space_group_symop_operation_xyz
x,y,z
-x,1/2+y,-z
loop_
_atom_site_type_symbol
_atom_site_label
_atom_site_fract_x
_atom_site_fract_y
_atom_site_fract_z
Si Si1 0.729932 0.936920 0.605873
Si Si2 0.830054 0.029751 0.055446
Si Si3 0.970545 0.174218 0.867681
Si Si4 0.460907 0.192948 0.720856
Si Si5 0.524088 0.058910 0.218134
Si Si6 0.629253 0.668022 0.689282
Si Si7 0.964737 0.159692 0.323541
O O1 0.591563 0.828738 0.608321
O O2 0.956533 0.841412 0.670490
O O3 0.854011 0.107973 0.709478
O O4 0.466377 0.992337 0.404571
O O5 0.896683 0.050445 0.198229
O O6 0.046259 0.139954 0.116877
O O7 0.533843 0.092674 0.853546
O O8 0.853708 0.838716 0.047133
O O9 0.725950 0.195231 0.803131
O O10 0.198748 0.036253 0.018951
O O11 0.362394 0.376532 0.696122
O O12 0.216442 0.105285 0.528158
O O13 0.540205 0.186483 0.311448
O O14 0.687119 0.150667 0.228563
#
# Coordination Sequence:
#
# PCOD8047305 Si02
#       7
#     2   2   2   2   2   2   2
#     4  11  24  45  75 107 149 192 254 309 374 442
#     4  11  24  45  78 107 146 193 248 301 373 441
#     4  12  24  45  79 109 142 195 254 310 364 446
#     4  12  24  49  76 107 150 196 249 309 367 450
#     4  12  26  46  71 109 150 191 247 304 380 440
#     4  11  21  45  72 107 142 191 251 308 362 442
#     4  11  27  49  69 110 157 192 243 309 378 447
#
# _framework density 23.874355999999999
#
# number of rings (size 3 to 8) (size 9 to 14) (size 15 to 20)
#    0.000    0.571    4.286    4.286    2.000    3.429 
#   10.286    0.000    0.000    0.000    0.000    0.000 
#    0.000    0.000    0.000    0.000    0.000    0.000 
#
# Total GULP energy -173456.779776 kJ/mol
# GULP energy per Si atom -12389.769984 kJ/mol
# Density = 2.382002 g / cm^3
# Si number density = 23.874356 Si / 1000 Ang^3
#
#
#
# Elastic Constant Matrix: (Units=GPa)
#
#
# Indices 1 2 3 4 5 6 
#
# 1 128.2582 31.7761 40.9498 0.0000 -0.7631 0.0000
# 2 31.7761 64.3583 15.1845 0.0000 -2.3575 0.0000
# 3 40.9498 15.1845 104.9083 0.0000 -20.1671 0.0000
# 4 0.0000 0.0000 0.0000 37.1299 0.0000 -4.2110
# 5 -0.7631 -2.3575 -20.1671 0.0000 37.6983 0.0000
# 6 0.0000 0.0000 0.0000 -4.2110 0.0000 23.2328
#
#
#
# Elastic Compliance Matrix: (Units=1/GPa)
#
#
# Indices 1 2 3 4 5 6 
#
# 1 0.009987 -0.004135 -0.003690 0.000000 -0.002031 0.000000
# 2 -0.004135 0.017802 -0.000852 0.000000 0.000574 0.000000
# 3 -0.003690 -0.000852 0.012340 0.000000 0.006474 0.000000
# 4 0.000000 0.000000 0.000000 0.027498 0.000000 0.004984
# 5 -0.002031 0.000574 0.006474 0.000000 0.029984 0.000000
# 6 0.000000 0.000000 0.000000 0.004984 0.000000 0.043946
#
#
# Mechanical properties :
#
#
# Convention : Reuss Voigt Hill
#
# Bulk Modulus (GPa) = 43.90900 52.59395 48.25148
# Shear Modulus (GPa) = 30.02932 33.58649 31.80791
#
# Velocity S-wave (km/s) = 3.55040 3.75480 3.65403
# Velocity P-wave (km/s) = 5.93623 6.39339 6.16904
#
# Compressibility (1/GPa) = 0.02277437
#
# Stress axis : x y z
#
# Youngs Moduli (GPa) = 100.12693 56.17462 81.03433
#
# Poissons Ratio (x) = 0.23227 0.29904
# Poissons Ratio (y) = 0.41401 0.06907
# Poissons Ratio (z) = 0.36950 0.04788
#
# Static dielectric constant tensor:
#      x y z
#    x 4.226870 0.000000 -0.414200 
#    y 0.000000 4.086260 0.000000 
#    z -0.414200 0.000000 4.633830 
# 
# 
# High freq. dielectric constant tensor:
#      x y z
#    x 1.932540 0.000000 -0.026610 
#    y 0.000000 1.937120 0.000000 
#    z -0.026610 0.000000 1.960300 
# 
# From -- ./inp_files/5298.got.cif
#   From: 2010.03.12/outbox.cif.g09.slc.cpg/sg4_3_cif.got.tgz:5298.got - 2010.03.31 09:31:35.
