data_PCOD8047226
_publ_section_title
;
Structure prediction by ZEFSAII (Michael W. Deem and Ramdas Pophale) SiO2 
 PCOD8047226
Probable space group: P 21
;
_chemical_formula_sum "Si O2"
_cell_formula_units_Z 16
_cell_length_a 11.329933
_cell_length_b 5.255936
_cell_length_c 12.499292
_cell_angle_alpha 90.000000
_cell_angle_beta 109.717084
_cell_angle_gamma 90.000000
_cell_volume 700.685570
_symmetry_space_group_name_H-M "P 21"
_symmetry_group_IT_number 4
_symmetry_cell_setting 'monoclinic'
loop_
_space_group_symop_operation_xyz
x,y,z
-x,1/2+y,-z
loop_
_atom_site_type_symbol
_atom_site_label
_atom_site_fract_x
_atom_site_fract_y
_atom_site_fract_z
Si Si1 0.187849 0.026290 0.374274
Si Si2 0.349986 0.374343 0.696346
Si Si3 0.427443 0.437726 0.952229
Si Si4 0.904397 0.242753 0.840596
Si Si5 0.158789 0.553245 0.950551
Si Si6 0.209086 0.868670 0.610867
Si Si7 0.965741 0.348536 0.262970
Si Si8 0.566137 0.790963 0.494244
O O1 0.293856 0.244149 0.416985
O O2 0.045248 0.119203 0.335482
O O3 0.198568 0.901971 0.259075
O O4 0.189429 0.835816 0.477166
O O5 0.425121 0.367563 0.827751
O O6 0.243018 0.591802 0.669237
O O7 0.437412 0.435761 0.621654
O O8 0.309707 0.087426 0.658398
O O9 0.290420 0.412343 0.966324
O O10 0.480525 0.724401 0.972024
O O11 0.037379 0.372334 0.909492
O O12 0.934340 0.013116 0.770936
O O13 0.834693 0.168887 0.928532
O O14 0.142775 0.766938 0.854255
O O15 0.094290 0.973908 0.649223
O O16 0.500631 0.513653 0.458087
#
# Coordination Sequence:
#
# PCOD8047226 Si02
#       8
#     2   2   2   2   2   2   2   2
#     4  10  27  41  67 110 135 179 243 286 351 429
#     4  11  24  48  70 102 137 185 237 283 353 418
#     4  12  28  48  74 106 142 192 248 298 347 429
#     4  11  24  44  73 105 142 185 238 307 364 428
#     4  11  24  47  71 104 143 191 240 296 376 421
#     4  11  24  43  75 100 146 181 220 294 355 426
#     4  11  24  42  73  99 144 180 232 293 362 427
#     4  11  25  47  73  96 143 191 230 287 354 426
#
# _framework density 22.834781
#
# number of rings (size 3 to 8) (size 9 to 14) (size 15 to 20)
#    0.000    1.000    2.500    3.000   10.500    1.000 
#    2.250    0.000    0.000    0.000    0.000    0.000 
#    0.000    0.000    0.000    0.000    0.000    0.000 
#
# Total GULP energy -198234.521299 kJ/mol
# GULP energy per Si atom -12389.657581 kJ/mol
# Density = 2.278281 g / cm^3
# Si number density = 22.834781 Si / 1000 Ang^3
#
#
#
# Elastic Constant Matrix: (Units=GPa)
#
#
# Indices 1 2 3 4 5 6 
#
# 1 88.4821 22.3557 56.8700 0.0000 -12.3211 0.0000
# 2 22.3557 85.9384 32.1904 0.0000 -4.4115 0.0000
# 3 56.8700 32.1904 155.5599 0.0000 -15.5092 0.0000
# 4 0.0000 0.0000 0.0000 32.9080 0.0000 -4.7386
# 5 -12.3211 -4.4115 -15.5092 0.0000 25.3988 0.0000
# 6 0.0000 0.0000 0.0000 -4.7386 0.0000 27.0373
#
#
#
# Elastic Compliance Matrix: (Units=1/GPa)
#
#
# Indices 1 2 3 4 5 6 
#
# 1 0.015502 -0.002006 -0.004831 0.000000 0.004221 0.000000
# 2 -0.002006 0.012883 -0.001924 0.000000 0.000090 0.000000
# 3 -0.004831 -0.001924 0.008865 0.000000 0.002736 0.000000
# 4 0.000000 0.000000 0.000000 0.031175 0.000000 0.005464
# 5 0.004221 0.000090 0.002736 0.000000 0.043106 0.000000
# 6 0.000000 0.000000 0.000000 0.005464 0.000000 0.037943
#
#
# Mechanical properties :
#
#
# Convention : Reuss Voigt Hill
#
# Bulk Modulus (GPa) = 50.68825 61.42363 56.05594
# Shear Modulus (GPa) = 28.80652 31.63978 30.22315
#
# Velocity S-wave (km/s) = 3.55564 3.72640 3.64202
# Velocity P-wave (km/s) = 6.25322 6.74331 6.50289
#
# Compressibility (1/GPa) = 0.01972844
#
# Stress axis : x y z
#
# Youngs Moduli (GPa) = 64.50985 77.62002 112.79875
#
# Poissons Ratio (x) = 0.15572 0.54494
# Poissons Ratio (y) = 0.12942 0.21698
# Poissons Ratio (z) = 0.31165 0.14931
#
# Static dielectric constant tensor:
#      x y z
#    x 3.993660 0.000000 -0.227330 
#    y 0.000000 4.064960 0.000000 
#    z -0.227330 0.000000 4.425600 
# 
# 
# High freq. dielectric constant tensor:
#      x y z
#    x 1.895970 0.000000 -0.015520 
#    y 0.000000 1.899050 0.000000 
#    z -0.015520 0.000000 1.914070 
# 
# From -- ./inp_files/11787.got.cif
#   From: 2010.03.12/outbox.cif.g09.slc.cpg/sg4_6_cif.got.tgz:11787.got - 2010.03.31 09:31:35.
