data_PCOD8047377
_publ_section_title
;
Structure prediction by ZEFSAII (Michael W. Deem and Ramdas Pophale) SiO2 
 PCOD8047377
Probable space group: P 21
;
_chemical_formula_sum "Si O2"
_cell_formula_units_Z 16
_cell_length_a 7.864148
_cell_length_b 9.416692
_cell_length_c 16.587832
_cell_angle_alpha 90.000000
_cell_angle_beta 146.516830
_cell_angle_gamma 90.000000
_cell_volume 677.698262
_symmetry_space_group_name_H-M "P 21"
_symmetry_group_IT_number 4
_symmetry_cell_setting 'monoclinic'
loop_
_space_group_symop_operation_xyz
x,y,z
-x,1/2+y,-z
loop_
_atom_site_type_symbol
_atom_site_label
_atom_site_fract_x
_atom_site_fract_y
_atom_site_fract_z
Si Si1 0.137624 0.788090 0.559918
Si Si2 0.678446 0.578304 0.405753
Si Si3 0.413980 0.984496 0.885596
Si Si4 0.364222 0.233873 0.129439
Si Si5 0.597194 0.963701 0.140867
Si Si6 0.324557 0.702929 0.118570
Si Si7 0.692066 0.446134 0.576033
Si Si8 0.811072 0.141574 0.585592
O O1 0.484325 0.748118 0.722596
O O2 0.058999 0.719433 0.442160
O O3 0.886209 0.711548 0.517956
O O4 0.099886 0.958850 0.549580
O O5 0.420633 0.632766 0.241917
O O6 0.545100 0.493800 0.430494
O O7 0.685177 0.081337 0.954134
O O8 0.085029 0.058988 0.739208
O O9 0.441249 0.832823 0.853856
O O10 0.457842 0.954653 0.996731
O O11 0.396278 0.076068 0.109715
O O12 0.007167 0.273613 0.998353
O O13 0.562187 0.819341 0.178098
O O14 0.958240 0.001676 0.278386
O O15 0.679999 0.275663 0.587290
O O16 0.465178 0.531578 0.546426
#
# Coordination Sequence:
#
# PCOD8047377 Si02
#       8
#     2   2   2   2   2   2   2   2
#     4  11  22  45  70 101 141 185 240 300 349 427
#     4  11  23  45  73  97 145 183 242 299 353 421
#     4  12  26  50  71 103 151 191 236 305 362 426
#     4  12  27  43  74 108 135 197 245 290 366 427
#     4  12  27  47  71 106 148 187 243 299 362 436
#     4  12  25  49  71 104 144 193 242 299 357 427
#     4  11  26  45  70 107 140 193 240 296 364 429
#     4  11  26  46  72 104 144 191 240 298 365 425
#
# _framework density 23.609325999999999
#
# number of rings (size 3 to 8) (size 9 to 14) (size 15 to 20)
#    0.000    0.500    5.000    2.250    5.250    2.000 
#    0.000    0.000    0.000    0.000    0.000    0.000 
#    0.000    0.000    0.000    0.000    0.000    0.000 
#
# Total GULP energy -198335.234861 kJ/mol
# GULP energy per Si atom -12395.952179 kJ/mol
# Density = 2.355559 g / cm^3
# Si number density = 23.609326 Si / 1000 Ang^3
#
#
#
# Elastic Constant Matrix: (Units=GPa)
#
#
# Indices 1 2 3 4 5 6 
#
# 1 20.5766 2.4832 39.4512 0.0000 0.1773 0.0000
# 2 2.4832 106.1422 36.1378 0.0000 -0.7588 0.0000
# 3 39.4512 36.1378 121.9585 0.0000 -0.6128 0.0000
# 4 0.0000 0.0000 0.0000 37.2815 0.0000 4.3814
# 5 0.1773 -0.7588 -0.6128 0.0000 41.4672 0.0000
# 6 0.0000 0.0000 0.0000 4.3814 0.0000 38.5967
#
#
#
# Elastic Compliance Matrix: (Units=1/GPa)
#
#
# Indices 1 2 3 4 5 6 
#
# 1 0.144419 0.013926 -0.050849 0.000000 -0.001114 0.000000
# 2 0.013926 0.011822 -0.008008 0.000000 0.000038 0.000000
# 3 -0.050849 -0.008008 0.027023 0.000000 0.000470 0.000000
# 4 0.000000 0.000000 0.000000 0.027186 0.000000 -0.003086
# 5 -0.001114 0.000038 0.000470 0.000000 0.024128 0.000000
# 6 0.000000 0.000000 0.000000 -0.003086 0.000000 0.026259
#
#
# Mechanical properties :
#
#
# Convention : Reuss Voigt Hill
#
# Bulk Modulus (GPa) = 10.70626 44.98019 27.84323
# Shear Modulus (GPa) = 13.09473 34.84275 23.96874
#
# Velocity S-wave (km/s) = 2.35764 3.84579 3.18971
# Velocity P-wave (km/s) = 3.45773 6.23004 5.03831
#
# Compressibility (1/GPa) = 0.09340330
#
# Stress axis : x y z
#
# Youngs Moduli (GPa) = 6.92428 84.58737 37.00530
#
# Poissons Ratio (x) = -1.17793 1.88167
# Poissons Ratio (y) = -0.09642 0.29632
# Poissons Ratio (z) = 0.35209 0.67733
#
# Static dielectric constant tensor:
#      x y z
#    x 4.036250 0.000000 -0.122290 
#    y 0.000000 4.691990 0.000000 
#    z -0.122290 0.000000 4.125610 
# 
# 
# High freq. dielectric constant tensor:
#      x y z
#    x 1.918300 0.000000 -0.000760 
#    y 0.000000 1.957530 0.000000 
#    z -0.000760 0.000000 1.932320 
# 
# From -- ./inp_files/5755.got.cif
#   From: 2010.03.12/outbox.cif.g09.slc.cpg/sg4_3_cif.got.tgz:5755.got - 2010.03.31 09:31:35.
