data_PCOD8047636
_publ_section_title
;
Structure prediction by ZEFSAII (Michael W. Deem and Ramdas Pophale) SiO2 
 PCOD8047636
Probable space group: P 21
;
_chemical_formula_sum "Si O2"
_cell_formula_units_Z 16
_cell_length_a 11.482891
_cell_length_b 8.810900
_cell_length_c 8.671988
_cell_angle_alpha 90.000000
_cell_angle_beta 48.680916
_cell_angle_gamma 90.000000
_cell_volume 658.954933
_symmetry_space_group_name_H-M "P 21"
_symmetry_group_IT_number 4
_symmetry_cell_setting 'monoclinic'
loop_
_space_group_symop_operation_xyz
x,y,z
-x,1/2+y,-z
loop_
_atom_site_type_symbol
_atom_site_label
_atom_site_fract_x
_atom_site_fract_y
_atom_site_fract_z
Si Si1 0.335847 0.946700 0.499766
Si Si2 0.132496 0.686642 0.741799
Si Si3 0.596507 0.286205 0.862095
Si Si4 0.190513 0.153604 0.839561
Si Si5 0.166839 0.559869 0.218502
Si Si6 0.309472 0.471885 0.772123
Si Si7 0.331408 0.066866 0.017711
Si Si8 0.057606 0.227468 0.397570
O O1 0.262229 0.813239 0.669601
O O2 0.320825 0.890662 0.338472
O O3 0.222060 0.087820 0.640736
O O4 0.507903 0.006880 0.387000
O O5 0.226829 0.531606 0.688642
O O6 0.072196 0.701572 0.621144
O O7 0.988778 0.698074 0.986010
O O8 0.684224 0.132324 0.829457
O O9 0.582150 0.407813 0.015141
O O10 0.436370 0.220574 0.935105
O O11 0.299910 0.293965 0.776634
O O12 0.255156 0.039529 0.916063
O O13 0.120217 0.399915 0.339107
O O14 0.027187 0.682581 0.367032
O O15 0.211616 0.539446 0.001313
O O16 0.193695 0.105579 0.256901
#
# Coordination Sequence:
#
# PCOD8047636 Si02
#       8
#     2   2   2   2   2   2   2   2
#     4  12  25  48  71 107 145 198 248 315 378 457
#     4  11  25  47  74 104 148 195 253 309 386 454
#     4  12  25  47  75 107 155 202 251 314 386 450
#     4  11  25  47  73 103 152 192 255 316 373 459
#     4  12  25  48  76 108 152 197 252 318 380 463
#     4  12  25  49  72 108 148 197 252 318 377 456
#     4  11  24  46  72 109 150 198 255 314 375 457
#     4  11  24  48  71 110 148 195 250 314 383 454
#
# _framework density 24.280871000000001
#
# number of rings (size 3 to 8) (size 9 to 14) (size 15 to 20)
#    0.000    0.500    5.000    3.750    1.750    0.000 
#    6.750    0.000    0.000    0.000    0.000    0.000 
#    0.000    0.000    0.000    0.000    0.000    0.000 
#
# Total GULP energy -198223.212570 kJ/mol
# GULP energy per Si atom -12388.950786 kJ/mol
# Density = 2.422561 g / cm^3
# Si number density = 24.280871 Si / 1000 Ang^3
#
#
#
# Elastic Constant Matrix: (Units=GPa)
#
#
# Indices 1 2 3 4 5 6 
#
# 1 56.7411 55.9984 19.5505 0.0000 4.7052 0.0000
# 2 55.9984 105.9159 49.2046 0.0000 1.1169 0.0000
# 3 19.5505 49.2046 122.7699 0.0000 -8.2443 0.0000
# 4 0.0000 0.0000 0.0000 41.3383 0.0000 -11.9960
# 5 4.7052 1.1169 -8.2443 0.0000 24.2170 0.0000
# 6 0.0000 0.0000 0.0000 -11.9960 0.0000 50.1370
#
#
#
# Elastic Compliance Matrix: (Units=1/GPa)
#
#
# Indices 1 2 3 4 5 6 
#
# 1 0.038198 -0.021047 0.001964 0.000000 -0.005782 0.000000
# 2 -0.021047 0.023311 -0.005924 0.000000 0.000997 0.000000
# 3 0.001964 -0.005924 0.010438 0.000000 0.003445 0.000000
# 4 0.000000 0.000000 0.000000 0.025996 0.000000 0.006220
# 5 -0.005782 0.000997 0.003445 0.000000 0.043544 0.000000
# 6 0.000000 0.000000 0.000000 0.006220 0.000000 0.021434
#
#
# Mechanical properties :
#
#
# Convention : Reuss Voigt Hill
#
# Bulk Modulus (GPa) = 45.59273 59.43712 52.51493
# Shear Modulus (GPa) = 22.70195 33.85002 28.27598
#
# Velocity S-wave (km/s) = 3.06105 3.73782 3.41623
# Velocity P-wave (km/s) = 5.59565 6.56967 6.10213
#
# Compressibility (1/GPa) = 0.02193332
#
# Stress axis : x y z
#
# Youngs Moduli (GPa) = 26.17906 42.89844 95.80261
#
# Poissons Ratio (x) = 0.90290 -0.18818
# Poissons Ratio (y) = 0.55100 0.56754
# Poissons Ratio (z) = -0.05142 0.25413
#
# Static dielectric constant tensor:
#      x y z
#    x 4.149070 0.000000 -0.228730 
#    y 0.000000 4.360380 0.000000 
#    z -0.228730 0.000000 4.505330 
# 
# 
# High freq. dielectric constant tensor:
#      x y z
#    x 1.959210 0.000000 -0.019770 
#    y 0.000000 1.964880 0.000000 
#    z -0.019770 0.000000 1.966690 
# 
# From -- ./inp_files/8000.got.cif
#   From: 2010.03.12/outbox.cif.g09.slc.cpg/sg4_4_cif.got.tgz:8000.got - 2010.03.31 09:31:35.
