data_PCOD8047544
_publ_section_title
;
Structure prediction by ZEFSAII (Michael W. Deem and Ramdas Pophale) SiO2 
 PCOD8047544
Probable space group: P 21
;
_chemical_formula_sum "Si O2"
_cell_formula_units_Z 16
_cell_length_a 18.738675
_cell_length_b 8.970385
_cell_length_c 9.320754
_cell_angle_alpha 90.000000
_cell_angle_beta 153.343178
_cell_angle_gamma 90.000000
_cell_volume 702.917649
_symmetry_space_group_name_H-M "P 21"
_symmetry_group_IT_number 4
_symmetry_cell_setting 'monoclinic'
loop_
_space_group_symop_operation_xyz
x,y,z
-x,1/2+y,-z
loop_
_atom_site_type_symbol
_atom_site_label
_atom_site_fract_x
_atom_site_fract_y
_atom_site_fract_z
Si Si1 0.649540 0.419030 0.661859
Si Si2 0.535985 0.211521 0.245376
Si Si3 0.376454 0.474428 0.363961
Si Si4 0.325502 0.765316 0.796476
Si Si5 0.220519 0.104717 0.553264
Si Si6 0.015100 0.768247 0.681326
Si Si7 0.667682 0.711861 0.543546
Si Si8 0.847240 0.066506 0.291124
O O1 0.558711 0.377001 0.349833
O O2 0.540712 0.394380 0.607463
O O3 0.675141 0.594255 0.686473
O O4 0.809014 0.323250 0.963855
O O5 0.649202 0.186192 0.311863
O O6 0.584367 0.109489 0.463407
O O7 0.353117 0.196830 0.876283
O O8 0.265816 0.359211 0.255657
O O9 0.293372 0.537615 0.073428
O O10 0.204687 0.664178 0.666668
O O11 0.251291 0.929910 0.638462
O O12 0.495169 0.769009 0.180139
O O13 0.224920 0.148960 0.393081
O O14 0.052425 0.164909 0.311018
O O15 0.016159 0.661700 0.543487
O O16 0.907943 0.910699 0.459602
#
# Coordination Sequence:
#
# PCOD8047544 Si02
#       8
#     2   2   2   2   2   2   2   2
#     4  12  24  48  67 110 140 186 244 303 365 438
#     4  11  24  43  78 105 138 185 247 313 357 436
#     4  12  24  44  79 104 140 185 254 307 360 430
#     4  11  23  48  75 106 144 189 252 304 363 431
#     4  11  25  46  72 104 151 192 237 298 377 438
#     4  12  29  46  69 107 150 197 233 297 380 451
#     4  11  24  43  74 110 137 190 246 308 360 427
#     4  12  27  48  72 106 146 194 245 302 378 437
#
# _framework density 22.762269
#
# number of rings (size 3 to 8) (size 9 to 14) (size 15 to 20)
#    0.000    0.500    5.000    3.000    5.250    0.000 
#    4.500    0.000    0.000    0.000    0.000    0.000 
#    0.000    0.000    0.000    0.000    0.000    0.000 
#
# Total GULP energy -198362.317234 kJ/mol
# GULP energy per Si atom -12397.644827 kJ/mol
# Density = 2.271046 g / cm^3
# Si number density = 22.762269 Si / 1000 Ang^3
#
#
#
# Elastic Constant Matrix: (Units=GPa)
#
#
# Indices 1 2 3 4 5 6 
#
# 1 170.5364 59.8907 35.7631 0.0000 3.7977 0.0000
# 2 59.8907 90.5846 26.3499 0.0000 9.9606 0.0000
# 3 35.7631 26.3499 54.4859 0.0000 1.6226 0.0000
# 4 0.0000 0.0000 0.0000 39.5604 0.0000 -0.3080
# 5 3.7977 9.9606 1.6226 0.0000 31.9614 0.0000
# 6 0.0000 0.0000 0.0000 -0.3080 0.0000 49.6621
#
#
#
# Elastic Compliance Matrix: (Units=1/GPa)
#
#
# Indices 1 2 3 4 5 6 
#
# 1 0.008092 -0.004499 -0.003153 0.000000 0.000601 0.000000
# 2 -0.004499 0.015798 -0.004564 0.000000 -0.004157 0.000000
# 3 -0.003153 -0.004564 0.022611 0.000000 0.000649 0.000000
# 4 0.000000 0.000000 0.000000 0.025279 0.000000 0.000157
# 5 0.000601 -0.004157 0.000649 0.000000 0.032479 0.000000
# 6 0.000000 0.000000 0.000000 0.000157 0.000000 0.020137
#
#
# Mechanical properties :
#
#
# Convention : Reuss Voigt Hill
#
# Bulk Modulus (GPa) = 45.31147 62.17935 53.74541
# Shear Modulus (GPa) = 32.01353 37.14366 34.57860
#
# Velocity S-wave (km/s) = 3.75431 4.04395 3.90182
# Velocity P-wave (km/s) = 6.22436 7.01290 6.63037
#
# Compressibility (1/GPa) = 0.02206947
#
# Stress axis : x y z
#
# Youngs Moduli (GPa) = 123.58425 63.29780 44.22637
#
# Poissons Ratio (x) = 0.28475 0.13947
# Poissons Ratio (y) = 0.55596 0.20183
# Poissons Ratio (z) = 0.38972 0.28887
#
# Static dielectric constant tensor:
#      x y z
#    x 4.313770 0.000000 -0.112800 
#    y 0.000000 4.316910 0.000000 
#    z -0.112800 0.000000 4.029340 
# 
# 
# High freq. dielectric constant tensor:
#      x y z
#    x 1.914850 0.000000 -0.011800 
#    y 0.000000 1.920670 0.000000 
#    z -0.011800 0.000000 1.872290 
# 
# From -- ./inp_files/5490.got.cif
#   From: 2010.03.12/outbox.cif.g09.slc.cpg/sg4_3_cif.got.tgz:5490.got - 2010.03.31 09:31:35.
