data_PCOD8047320
_publ_section_title
;
Structure prediction by ZEFSAII (Michael W. Deem and Ramdas Pophale) SiO2 
 PCOD8047320
Probable space group: P 21
;
_chemical_formula_sum "Si O2"
_cell_formula_units_Z 10
_cell_length_a 9.078431
_cell_length_b 4.904072
_cell_length_c 13.505171
_cell_angle_alpha 90.000000
_cell_angle_beta 50.419830
_cell_angle_gamma 90.000000
_cell_volume 463.417182
_symmetry_space_group_name_H-M "P 21"
_symmetry_group_IT_number 4
_symmetry_cell_setting 'monoclinic'
loop_
_space_group_symop_operation_xyz
x,y,z
-x,1/2+y,-z
loop_
_atom_site_type_symbol
_atom_site_label
_atom_site_fract_x
_atom_site_fract_y
_atom_site_fract_z
Si Si1 0.606111 0.589960 0.416548
Si Si2 0.020959 0.513171 0.892843
Si Si3 0.982894 0.008642 0.776383
Si Si4 0.683529 0.398127 0.166649
Si Si5 0.434540 0.483273 0.088304
O O1 0.459052 0.398587 0.537838
O O2 0.602949 0.536883 0.300125
O O3 0.821011 0.553586 0.369908
O O4 0.231762 0.595937 0.844086
O O5 0.001343 0.204521 0.864084
O O6 0.977048 0.700249 0.816827
O O7 0.860788 0.573543 0.045409
O O8 0.788649 0.061270 0.798701
O O9 0.516348 0.375356 0.157348
O O10 0.546196 0.750167 0.003249
#
# Coordination Sequence:
#
# PCOD8047320 Si02
#       5
#     2   2   2   2   2
#     4  11  25  42  63  88 126 180 234 265 303 374
#     4  11  22  37  66  98 130 164 211 275 340 381
#     4  11  22  43  63  97 135 168 209 277 329 398
#     4  11  23  40  67  97 133 166 222 269 329 390
#     4  12  24  40  65 104 140 166 202 268 361 407
#
# _framework density 21.57883
#
# number of rings (size 3 to 8) (size 9 to 14) (size 15 to 20)
#    0.000    0.800    4.000    4.800    0.000    6.400 
#    0.000    2.000    0.000    0.000    0.000    0.000 
#    0.000    0.000    0.000    0.000    0.000    0.000 
#
# Total GULP energy -123949.465084 kJ/mol
# GULP energy per Si atom -12394.946508 kJ/mol
# Density = 2.152972 g / cm^3
# Si number density = 21.578830 Si / 1000 Ang^3
#
#
#
# Elastic Constant Matrix: (Units=GPa)
#
#
# Indices 1 2 3 4 5 6 
#
# 1 176.4330 2.6754 34.4979 0.0000 -22.5061 0.0000
# 2 2.6754 50.9948 8.6649 0.0000 -6.9724 0.0000
# 3 34.4979 8.6649 94.6537 0.0000 -13.5777 0.0000
# 4 0.0000 0.0000 0.0000 39.1105 0.0000 -4.1231
# 5 -22.5061 -6.9724 -13.5777 0.0000 37.1417 0.0000
# 6 0.0000 0.0000 0.0000 -4.1231 0.0000 26.7966
#
#
#
# Elastic Compliance Matrix: (Units=1/GPa)
#
#
# Indices 1 2 3 4 5 6 
#
# 1 0.006457 0.000438 -0.001921 0.000000 0.003292 0.000000
# 2 0.000438 0.020326 -0.001514 0.000000 0.003527 0.000000
# 3 -0.001921 -0.001514 0.011815 0.000000 0.002871 0.000000
# 4 0.000000 0.000000 0.000000 0.025990 0.000000 0.003999
# 5 0.003292 0.003527 0.002871 0.000000 0.030631 0.000000
# 6 0.000000 0.000000 0.000000 0.003999 0.000000 0.037933
#
#
# Mechanical properties :
#
#
# Convention : Reuss Voigt Hill
#
# Bulk Modulus (GPa) = 30.67141 45.97309 38.32225
# Shear Modulus (GPa) = 33.32976 39.02599 36.17787
#
# Velocity S-wave (km/s) = 3.93435 4.25730 4.09901
# Velocity P-wave (km/s) = 5.90621 6.74663 6.34036
#
# Compressibility (1/GPa) = 0.03260365
#
# Stress axis : x y z
#
# Youngs Moduli (GPa) = 154.87413 49.19694 84.63500
#
# Poissons Ratio (x) = -0.02154 0.16259
# Poissons Ratio (y) = -0.06781 0.12816
# Poissons Ratio (z) = 0.29753 0.07450
#
# Static dielectric constant tensor:
#      x y z
#    x 3.927060 0.000000 -0.363110 
#    y 0.000000 3.953590 0.000000 
#    z -0.363110 0.000000 3.789470 
# 
# 
# High freq. dielectric constant tensor:
#      x y z
#    x 1.840550 0.000000 -0.018600 
#    y 0.000000 1.863510 0.000000 
#    z -0.018600 0.000000 1.822920 
# 
# From -- ./inp_files/5096.got.cif
#   From: 2010.03.12/outbox.cif.g09.slc.cpg/sg4_3_cif.got.tgz:5096.got - 2010.03.31 09:31:35.
