data_PCOD8047870
_publ_section_title
;
Structure prediction by ZEFSAII (Michael W. Deem and Ramdas Pophale) SiO2 
 PCOD8047870
Probable space group: P 21
;
_chemical_formula_sum "Si O2"
_cell_formula_units_Z 16
_cell_length_a 13.345373
_cell_length_b 5.577407
_cell_length_c 11.134749
_cell_angle_alpha 90.000000
_cell_angle_beta 127.096763
_cell_angle_gamma 90.000000
_cell_volume 661.056280
_symmetry_space_group_name_H-M "P 21"
_symmetry_group_IT_number 4
_symmetry_cell_setting 'monoclinic'
loop_
_space_group_symop_operation_xyz
x,y,z
-x,1/2+y,-z
loop_
_atom_site_type_symbol
_atom_site_label
_atom_site_fract_x
_atom_site_fract_y
_atom_site_fract_z
Si Si1 0.708751 0.241210 0.425333
Si Si2 0.076731 0.070404 0.045986
Si Si3 0.019253 0.708301 0.446360
Si Si4 0.521072 0.867976 0.344050
Si Si5 0.317841 0.055469 0.370751
Si Si6 0.186190 0.224114 0.892174
Si Si7 0.636209 0.468231 0.142926
Si Si8 0.379925 0.575536 0.046114
O O1 0.689875 0.327744 0.547421
O O2 0.693996 0.454195 0.318244
O O3 0.845926 0.129818 0.507136
O O4 0.599435 0.049136 0.316355
O O5 0.177871 0.114458 0.224400
O O6 0.146396 0.036373 0.967095
O O7 0.995854 0.319198 0.981947
O O8 0.935655 0.789215 0.272916
O O9 0.968883 0.455702 0.466653
O O10 0.621319 0.776468 0.514226
O O11 0.460922 0.666636 0.217604
O O12 0.405960 0.003155 0.322019
O O13 0.298796 0.190149 0.876231
O O14 0.259096 0.437924 0.014727
O O15 0.485256 0.448806 0.037648
O O16 0.686526 0.266130 0.088068
#
# Coordination Sequence:
#
# PCOD8047870 Si02
#       8
#     2   2   2   2   2   2   2   2
#     4  12  27  48  78 114 159 207 266 337 404 484
#     4  12  33  57  83 116 159 220 280 334 400 483
#     4  12  29  51  80 116 163 214 272 328 404 490
#     4  12  28  47  80 118 158 211 271 338 413 487
#     4  12  28  50  82 112 159 212 270 341 408 481
#     4  12  29  50  78 112 163 210 264 339 400 490
#     4  12  24  45  71 115 153 200 253 326 411 476
#     4  12  26  44  76 113 160 204 262 325 410 489
#
# _framework density 24.203689000000001
#
# number of rings (size 3 to 8) (size 9 to 14) (size 15 to 20)
#    0.000    0.000    5.000    3.000   14.000    0.000 
#    0.000    0.000    0.000    0.000    0.000    0.000 
#    0.000    0.000    0.000    0.000    0.000    0.000 
#
# Total GULP energy -198221.652324 kJ/mol
# GULP energy per Si atom -12388.853270 kJ/mol
# Density = 2.414860 g / cm^3
# Si number density = 24.203689 Si / 1000 Ang^3
#
#
#
# Elastic Constant Matrix: (Units=GPa)
#
#
# Indices 1 2 3 4 5 6 
#
# 1 117.3683 27.4089 33.2259 0.0000 3.0699 0.0000
# 2 27.4089 91.3168 25.0278 0.0000 4.5366 0.0000
# 3 33.2259 25.0278 142.5158 0.0000 8.7613 0.0000
# 4 0.0000 0.0000 0.0000 37.6411 0.0000 1.4873
# 5 3.0699 4.5366 8.7613 0.0000 30.9377 0.0000
# 6 0.0000 0.0000 0.0000 1.4873 0.0000 32.4114
#
#
#
# Elastic Compliance Matrix: (Units=1/GPa)
#
#
# Indices 1 2 3 4 5 6 
#
# 1 0.009591 -0.002377 -0.001813 0.000000 -0.000090 0.000000
# 2 -0.002377 0.012133 -0.001508 0.000000 -0.001116 0.000000
# 3 -0.001813 -0.001508 0.007816 0.000000 -0.001812 0.000000
# 4 0.000000 0.000000 0.000000 0.026615 0.000000 -0.001221
# 5 -0.000090 -0.001116 -0.001812 0.000000 0.033009 0.000000
# 6 0.000000 0.000000 0.000000 -0.001221 0.000000 0.030909
#
#
# Mechanical properties :
#
#
# Convention : Reuss Voigt Hill
#
# Bulk Modulus (GPa) = 55.11681 58.05844 56.58762
# Shear Modulus (GPa) = 36.35906 37.90059 37.12983
#
# Velocity S-wave (km/s) = 3.88004 3.96144 3.92095
# Velocity P-wave (km/s) = 6.54939 6.70548 6.62790
#
# Compressibility (1/GPa) = 0.01814329
#
# Stress axis : x y z
#
# Youngs Moduli (GPa) = 104.26471 82.41849 127.94817
#
# Poissons Ratio (x) = 0.19594 0.23197
# Poissons Ratio (y) = 0.24788 0.19293
# Poissons Ratio (z) = 0.18903 0.12428
#
# Static dielectric constant tensor:
#      x y z
#    x 4.995950 0.000000 0.034270 
#    y 0.000000 4.257110 0.000000 
#    z 0.034270 0.000000 4.376650 
# 
# 
# High freq. dielectric constant tensor:
#      x y z
#    x 1.978540 0.000000 0.007080 
#    y 0.000000 1.949190 0.000000 
#    z 0.007080 0.000000 1.974380 
# 
# From -- ./inp_files/11582.got.cif
#   From: 2010.03.12/outbox.cif.g09.slc.cpg/sg4_6_cif.got.tgz:11582.got - 2010.03.31 09:31:35.
