data_PCOD8047103
_publ_section_title
;
Structure prediction by ZEFSAII (Michael W. Deem and Ramdas Pophale) SiO2 
 PCOD8047103
Probable space group: P 21
;
_chemical_formula_sum "Si O2"
_cell_formula_units_Z 14
_cell_length_a 11.853222
_cell_length_b 7.720929
_cell_length_c 10.542431
_cell_angle_alpha 90.000000
_cell_angle_beta 37.243300
_cell_angle_gamma 90.000000
_cell_volume 583.910535
_symmetry_space_group_name_H-M "P 21"
_symmetry_group_IT_number 4
_symmetry_cell_setting 'monoclinic'
loop_
_space_group_symop_operation_xyz
x,y,z
-x,1/2+y,-z
loop_
_atom_site_type_symbol
_atom_site_label
_atom_site_fract_x
_atom_site_fract_y
_atom_site_fract_z
Si Si1 0.789165 0.635850 0.262160
Si Si2 0.886204 0.552152 0.462719
Si Si3 0.574882 0.170819 0.292834
Si Si4 0.380835 0.522708 0.380014
Si Si5 0.234970 0.374015 0.264440
Si Si6 0.514407 0.367318 0.800835
Si Si7 0.878849 0.013660 0.167690
O O1 0.877492 0.617220 0.324486
O O2 0.569878 0.589319 0.471816
O O3 0.806153 0.827540 0.190004
O O4 0.899556 0.520296 0.059490
O O5 0.857025 0.714081 0.580917
O O6 0.731583 0.407193 0.632721
O O7 0.086085 0.469452 0.308881
O O8 0.509231 0.362470 0.311802
O O9 0.576621 0.043293 0.171560
O O10 0.778496 0.165414 0.173894
O O11 0.322884 0.506005 0.286210
O O12 0.496361 0.702793 0.286511
O O13 0.183414 0.540082 0.631387
O O14 0.405033 0.310985 0.024597
#
# Coordination Sequence:
#
# PCOD8047103 Si02
#       7
#     2   2   2   2   2   2   2
#     4  10  24  45  69 102 140 181 234 293 346 419
#     4  11  24  47  70 103 146 179 237 291 342 423
#     4  10  24  48  65 104 144 177 236 292 341 416
#     4  11  25  44  72 105 138 180 237 290 344 421
#     4  12  23  48  69 104 143 185 228 290 354 409
#     4  11  24  45  73 100 138 185 233 286 350 418
#     4  11  24  45  70  98 141 183 229 294 353 402
#
# _framework density 23.976277
#
# number of rings (size 3 to 8) (size 9 to 14) (size 15 to 20)
#    0.000    1.143    4.286    2.571    8.000    0.000 
#   10.286    1.429    0.000    0.000    0.000    0.000 
#    0.000    0.000    0.000    0.000    0.000    0.000 
#
# Total GULP energy -173541.403353 kJ/mol
# GULP energy per Si atom -12395.814525 kJ/mol
# Density = 2.392171 g / cm^3
# Si number density = 23.976277 Si / 1000 Ang^3
#
#
#
# Elastic Constant Matrix: (Units=GPa)
#
#
# Indices 1 2 3 4 5 6 
#
# 1 33.0124 14.6807 -0.5181 0.0000 -7.2817 0.0000
# 2 14.6807 118.1787 29.8631 0.0000 6.3684 0.0000
# 3 -0.5181 29.8631 131.5352 0.0000 14.7879 0.0000
# 4 0.0000 0.0000 0.0000 34.6163 0.0000 4.1461
# 5 -7.2817 6.3684 14.7879 0.0000 33.1813 0.0000
# 6 0.0000 0.0000 0.0000 4.1461 0.0000 31.9645
#
#
#
# Elastic Compliance Matrix: (Units=1/GPa)
#
#
# Indices 1 2 3 4 5 6 
#
# 1 0.034251 -0.004774 0.000285 0.000000 0.008306 0.000000
# 2 -0.004774 0.009666 -0.001986 0.000000 -0.002018 0.000000
# 3 0.000285 -0.001986 0.008427 0.000000 -0.003312 0.000000
# 4 0.000000 0.000000 0.000000 0.029344 0.000000 -0.003806
# 5 0.008306 -0.002018 -0.003312 0.000000 0.033823 0.000000
# 6 0.000000 0.000000 0.000000 -0.003806 0.000000 0.031778
#
#
# Mechanical properties :
#
#
# Convention : Reuss Voigt Hill
#
# Bulk Modulus (GPa) = 25.38562 41.19752 33.29157
# Shear Modulus (GPa) = 28.83967 35.86576 32.35272
#
# Velocity S-wave (km/s) = 3.47196 3.87186 3.67735
# Velocity P-wave (km/s) = 5.16561 6.09987 5.65207
#
# Compressibility (1/GPa) = 0.03939239
#
# Stress axis : x y z
#
# Youngs Moduli (GPa) = 29.19583 103.46026 118.66664
#
# Poissons Ratio (x) = 0.49397 -0.03383
# Poissons Ratio (y) = 0.13940 0.23572
# Poissons Ratio (z) = -0.00832 0.20551
#
# Static dielectric constant tensor:
#      x y z
#    x 4.044200 0.000000 0.041150 
#    y 0.000000 4.371980 0.000000 
#    z 0.041150 0.000000 4.468220 
# 
# 
# High freq. dielectric constant tensor:
#      x y z
#    x 1.930940 0.000000 0.003910 
#    y 0.000000 1.961320 0.000000 
#    z 0.003910 0.000000 1.961510 
# 
# From -- ./inp_files/12612.got.cif
#   From: 2010.03.12/outbox.cif.g09.slc.cpg/sg4_7_cif.got.tgz:12612.got - 2010.03.31 09:31:35.
