data_PCOD8047138
_publ_section_title
;
Structure prediction by ZEFSAII (Michael W. Deem and Ramdas Pophale) SiO2 
 PCOD8047138
Probable space group: P 21
;
_chemical_formula_sum "Si O2"
_cell_formula_units_Z 16
_cell_length_a 8.502110
_cell_length_b 5.515603
_cell_length_c 19.536951
_cell_angle_alpha 90.000000
_cell_angle_beta 43.595834
_cell_angle_gamma 90.000000
_cell_volume 631.761134
_symmetry_space_group_name_H-M "P 21"
_symmetry_group_IT_number 4
_symmetry_cell_setting 'monoclinic'
loop_
_space_group_symop_operation_xyz
x,y,z
-x,1/2+y,-z
loop_
_atom_site_type_symbol
_atom_site_label
_atom_site_fract_x
_atom_site_fract_y
_atom_site_fract_z
Si Si1 0.405416 0.736300 0.686340
Si Si2 0.208188 0.991003 0.504089
Si Si3 0.106738 0.333563 0.807677
Si Si4 0.380830 0.697809 0.191958
Si Si5 0.290557 0.628191 0.366985
Si Si6 0.921976 0.494004 0.302127
Si Si7 0.618236 0.467194 0.939535
Si Si8 0.118013 0.085151 0.939497
O O1 0.628782 0.714034 0.567232
O O2 0.327874 0.502788 0.755346
O O3 0.490895 0.948774 0.709599
O O4 0.176122 0.778689 0.713655
O O5 0.325727 0.767511 0.427248
O O6 0.210480 0.972891 0.584693
O O7 0.954967 0.001317 0.553221
O O8 0.137338 0.241052 0.720039
O O9 0.112833 0.108732 0.858607
O O10 0.871465 0.481270 0.891517
O O11 0.305101 0.786579 0.292145
O O12 0.372733 0.933945 0.145730
O O13 0.626959 0.571822 0.110539
O O14 0.196624 0.491670 0.225004
O O15 0.492877 0.715622 0.997176
O O16 0.004894 0.334269 0.003657
#
# Coordination Sequence:
#
# PCOD8047138 Si02
#       8
#     2   2   2   2   2   2   2   2
#     4  12  25  43  77  98 152 189 245 316 366 454
#     4  11  24  46  69 107 139 200 247 307 369 448
#     4  11  27  47  72 111 148 196 251 307 393 437
#     4  10  24  48  71 107 149 193 250 308 381 444
#     4  11  24  48  71 106 149 191 255 305 376 452
#     4  10  26  45  72 103 150 193 249 301 374 450
#     4  11  25  49  78 110 152 196 252 315 381 462
#     4  12  27  48  80 114 153 198 257 317 386 457
#
# _framework density 25.326029999999999
#
# number of rings (size 3 to 8) (size 9 to 14) (size 15 to 20)
#    0.000    1.000    1.250    3.750   10.500    0.000 
#    6.750    0.000    0.000    0.000    0.000    0.000 
#    0.000    0.000    0.000    0.000    0.000    0.000 
#
# Total GULP energy -198267.646100 kJ/mol
# GULP energy per Si atom -12391.727881 kJ/mol
# Density = 2.526839 g / cm^3
# Si number density = 25.326030 Si / 1000 Ang^3
#
#
#
# Elastic Constant Matrix: (Units=GPa)
#
#
# Indices 1 2 3 4 5 6 
#
# 1 126.3710 30.9549 51.1525 0.0000 -18.6926 0.0000
# 2 30.9549 107.3057 55.4543 0.0000 5.5422 0.0000
# 3 51.1525 55.4543 126.0956 0.0000 -4.5985 0.0000
# 4 0.0000 0.0000 0.0000 42.7615 0.0000 -10.0623
# 5 -18.6926 5.5422 -4.5985 0.0000 56.6110 0.0000
# 6 0.0000 0.0000 0.0000 -10.0623 0.0000 32.2088
#
#
#
# Elastic Compliance Matrix: (Units=1/GPa)
#
#
# Indices 1 2 3 4 5 6 
#
# 1 0.010080 -0.001319 -0.003393 0.000000 0.003182 0.000000
# 2 -0.001319 0.012382 -0.004985 0.000000 -0.002053 0.000000
# 3 -0.003393 -0.004985 0.011510 0.000000 0.000303 0.000000
# 4 0.000000 0.000000 0.000000 0.025241 0.000000 0.007885
# 5 0.003182 -0.002053 0.000303 0.000000 0.018941 0.000000
# 6 0.000000 0.000000 0.000000 0.007885 0.000000 0.033511
#
#
# Mechanical properties :
#
#
# Convention : Reuss Voigt Hill
#
# Bulk Modulus (GPa) = 68.59464 70.54396 69.56930
# Shear Modulus (GPa) = 36.78656 41.13030 38.95843
#
# Velocity S-wave (km/s) = 3.81533 4.03430 3.92634
# Velocity P-wave (km/s) = 6.82293 7.04383 6.93426
#
# Compressibility (1/GPa) = 0.01457840
#
# Stress axis : x y z
#
# Youngs Moduli (GPa) = 99.20208 80.76318 86.87742
#
# Poissons Ratio (x) = 0.10650 0.29480
# Poissons Ratio (y) = 0.13081 0.43310
# Poissons Ratio (z) = 0.33662 0.40262
#
# Static dielectric constant tensor:
#      x y z
#    x 4.821500 0.000000 -0.117220 
#    y 0.000000 4.209940 0.000000 
#    z -0.117220 0.000000 4.855860 
# 
# 
# High freq. dielectric constant tensor:
#      x y z
#    x 2.024410 0.000000 -0.010960 
#    y 0.000000 1.982860 0.000000 
#    z -0.010960 0.000000 2.035270 
# 
# From -- ./inp_files/13595.got.cif
#   From: 2010.03.12/outbox.cif.g09.slc.cpg/sg4_7_cif.got.tgz:13595.got - 2010.03.31 09:31:35.
