data_PCOD8047962
_publ_section_title
;
Structure prediction by ZEFSAII (Michael W. Deem and Ramdas Pophale) SiO2 
 PCOD8047962
Probable space group: P 21
;
_chemical_formula_sum "Si O2"
_cell_formula_units_Z 16
_cell_length_a 10.328320
_cell_length_b 6.816981
_cell_length_c 11.756318
_cell_angle_alpha 90.000000
_cell_angle_beta 64.382418
_cell_angle_gamma 90.000000
_cell_volume 746.371610
_symmetry_space_group_name_H-M "P 21"
_symmetry_group_IT_number 4
_symmetry_cell_setting 'monoclinic'
loop_
_space_group_symop_operation_xyz
x,y,z
-x,1/2+y,-z
loop_
_atom_site_type_symbol
_atom_site_label
_atom_site_fract_x
_atom_site_fract_y
_atom_site_fract_z
Si Si1 0.929468 0.891660 0.902911
Si Si2 0.520488 0.781128 0.825867
Si Si3 0.305051 0.745398 0.501213
Si Si4 0.964184 0.042895 0.291240
Si Si5 0.742695 0.449378 0.718988
Si Si6 0.418039 0.005868 0.653607
Si Si7 0.663990 0.112303 0.912851
Si Si8 0.154136 0.224981 0.829857
O O1 0.975975 0.693016 0.824490
O O2 0.817052 0.008202 0.868026
O O3 0.853570 0.843759 0.050488
O O4 0.069463 0.020994 0.872785
O O5 0.664053 0.658150 0.749378
O O6 0.449184 0.836426 0.733277
O O7 0.558307 0.978801 0.878855
O O8 0.405610 0.651478 0.937980
O O9 0.161493 0.630207 0.585173
O O10 0.287091 0.839030 0.385703
O O11 0.329681 0.914386 0.583557
O O12 0.435734 0.593678 0.450715
O O13 0.909197 0.849606 0.249188
O O14 0.088229 0.984772 0.332224
O O15 0.684071 0.320395 0.845073
O O16 0.321443 0.178155 0.744680
#
# Coordination Sequence:
#
# PCOD8047962 Si02
#       8
#     2   2   2   2   2   2   2   2
#     4  12  26  45  73 111 148 186 237 300 371 433
#     4  12  27  45  75 109 147 187 238 301 370 432
#     4  12  28  50  72 104 144 198 248 292 356 430
#     4  12  27  48  74 107 144 193 244 298 362 429
#     4  12  27  48  74 107 144 193 244 298 362 429
#     4  12  28  48  74 106 146 194 246 300 360 434
#     4  12  26  45  73 111 148 186 237 300 371 433
#     4  12  27  45  75 109 147 187 238 301 370 432
#
# _framework density 21.437041000000001
#
# number of rings (size 3 to 8) (size 9 to 14) (size 15 to 20)
#    0.000    0.000    7.500    1.500    8.750    3.000 
#    0.000    0.000    0.000    0.000    0.000    0.000 
#    0.000    0.000    0.000    0.000    0.000    0.000 
#
# Total GULP energy -198562.780303 kJ/mol
# GULP energy per Si atom -12410.173769 kJ/mol
# Density = 2.138825 g / cm^3
# Si number density = 21.437041 Si / 1000 Ang^3
#
#
#
# Elastic Constant Matrix: (Units=GPa)
#
#
# Indices 1 2 3 4 5 6 
#
# 1 102.0566 31.1048 28.0174 0.0000 -10.3216 0.0000
# 2 31.1048 81.6892 15.7604 0.0000 -7.9112 0.0000
# 3 28.0174 15.7604 87.8320 0.0000 -12.3251 0.0000
# 4 0.0000 0.0000 0.0000 33.2607 0.0000 -2.4347
# 5 -10.3216 -7.9112 -12.3251 0.0000 39.0918 0.0000
# 6 0.0000 0.0000 0.0000 -2.4347 0.0000 48.9006
#
#
#
# Elastic Compliance Matrix: (Units=1/GPa)
#
#
# Indices 1 2 3 4 5 6 
#
# 1 0.011912 -0.003834 -0.002908 0.000000 0.001452 0.000000
# 2 -0.003834 0.014056 -0.001090 0.000000 0.001488 0.000000
# 3 -0.002908 -0.001090 0.012943 0.000000 0.003092 0.000000
# 4 0.000000 0.000000 0.000000 0.030175 0.000000 0.001502
# 5 0.001452 0.001488 0.003092 0.000000 0.027240 0.000000
# 6 0.000000 0.000000 0.000000 0.001502 0.000000 0.020524
#
#
# Mechanical properties :
#
#
# Convention : Reuss Voigt Hill
#
# Bulk Modulus (GPa) = 43.01844 46.81592 44.91718
# Shear Modulus (GPa) = 35.64689 37.36363 36.50526
#
# Velocity S-wave (km/s) = 4.08225 4.17939 4.13110
# Velocity P-wave (km/s) = 6.50619 6.72131 6.61462
#
# Compressibility (1/GPa) = 0.02324585
#
# Stress axis : x y z
#
# Youngs Moduli (GPa) = 83.94684 71.14435 77.26452
#
# Poissons Ratio (x) = 0.27278 0.22469
# Poissons Ratio (y) = 0.32186 0.08424
# Poissons Ratio (z) = 0.24412 0.07757
#
# Static dielectric constant tensor:
#      x y z
#    x 3.970210 0.000000 -0.070110 
#    y 0.000000 3.990830 0.000000 
#    z -0.070110 0.000000 3.930090 
# 
# 
# High freq. dielectric constant tensor:
#      x y z
#    x 1.854610 0.000000 -0.002200 
#    y 0.000000 1.853910 0.000000 
#    z -0.002200 0.000000 1.849190 
# 
# From -- ./inp_files/9097.got.cif
#   From: 2010.03.12/outbox.cif.g09.slc.cpg/sg4_5_cif.got.tgz:9097.got - 2010.03.31 09:31:35.
