data_PCOD8047452
_publ_section_title
;
Structure prediction by ZEFSAII (Michael W. Deem and Ramdas Pophale) SiO2 
 PCOD8047452
Probable space group: P 21
;
_chemical_formula_sum "Si O2"
_cell_formula_units_Z 14
_cell_length_a 9.986095
_cell_length_b 12.873216
_cell_length_c 9.453340
_cell_angle_alpha 90.000000
_cell_angle_beta 150.772629
_cell_angle_gamma 90.000000
_cell_volume 593.381427
_symmetry_space_group_name_H-M "P 21"
_symmetry_group_IT_number 4
_symmetry_cell_setting 'monoclinic'
loop_
_space_group_symop_operation_xyz
x,y,z
-x,1/2+y,-z
loop_
_atom_site_type_symbol
_atom_site_label
_atom_site_fract_x
_atom_site_fract_y
_atom_site_fract_z
Si Si1 0.157811 0.617990 0.045369
Si Si2 0.306850 0.014549 0.544062
Si Si3 0.409275 0.385298 0.842690
Si Si4 0.070365 0.675300 0.273806
Si Si5 0.569071 0.803848 0.829926
Si Si6 0.063161 0.777543 0.739250
Si Si7 0.955694 0.077735 0.468761
O O1 0.470364 0.603072 0.282105
O O2 0.145352 0.611463 0.202860
O O3 0.067073 0.730792 0.901589
O O4 0.958899 0.528335 0.800415
O O5 0.203828 0.019369 0.612838
O O6 0.453785 0.905890 0.645918
O O7 0.313279 0.504098 0.772968
O O8 0.232336 0.326311 0.560669
O O9 0.365625 0.323581 0.947140
O O10 0.724162 0.372856 0.084617
O O11 0.346981 0.714844 0.601764
O O12 0.938784 0.601737 0.274408
O O13 0.858603 0.765826 0.032707
O O14 0.128383 0.682126 0.692640
#
# Coordination Sequence:
#
# PCOD8047452 Si02
#       7
#     2   2   2   2   2   2   2
#     4  11  25  47  69 102 143 191 225 285 366 426
#     4  11  24  46  74  98 138 188 240 280 354 440
#     4  12  23  40  71 107 132 179 244 286 352 410
#     4  12  26  45  72 103 147 178 235 296 360 407
#     4  12  23  44  72 105 134 188 234 294 347 432
#     4  11  23  43  68  97 144 182 228 290 349 425
#     4  11  24  45  74 106 136 188 236 309 344 410
#
# _framework density 23.593592000000001
#
# number of rings (size 3 to 8) (size 9 to 14) (size 15 to 20)
#    0.000    0.571    2.857    6.857    0.000    3.429 
#    7.714    0.000    0.000    0.000    0.000    0.000 
#    0.000    0.000    0.000    0.000    0.000    0.000 
#
# Total GULP energy -173619.047941 kJ/mol
# GULP energy per Si atom -12401.360567 kJ/mol
# Density = 2.353989 g / cm^3
# Si number density = 23.593592 Si / 1000 Ang^3
#
#
#
# Elastic Constant Matrix: (Units=GPa)
#
#
# Indices 1 2 3 4 5 6 
#
# 1 113.6040 31.2925 29.0001 0.0000 -18.2487 0.0000
# 2 31.2925 51.0528 27.3169 0.0000 -13.6227 0.0000
# 3 29.0001 27.3169 90.1154 0.0000 6.3717 0.0000
# 4 0.0000 0.0000 0.0000 45.5186 0.0000 11.2149
# 5 -18.2487 -13.6227 6.3717 0.0000 29.9378 0.0000
# 6 0.0000 0.0000 0.0000 11.2149 0.0000 27.6128
#
#
#
# Elastic Compliance Matrix: (Units=1/GPa)
#
#
# Indices 1 2 3 4 5 6 
#
# 1 0.011591 -0.003955 -0.002948 0.000000 0.005893 0.000000
# 2 -0.003955 0.030278 -0.008842 0.000000 0.013249 0.000000
# 3 -0.002948 -0.008842 0.015369 0.000000 -0.009091 0.000000
# 4 0.000000 0.000000 0.000000 0.024412 0.000000 -0.009915
# 5 0.005893 0.013249 -0.009091 0.000000 0.044958 0.000000
# 6 0.000000 0.000000 0.000000 -0.009915 0.000000 0.040242
#
#
# Mechanical properties :
#
#
# Convention : Reuss Voigt Hill
#
# Bulk Modulus (GPa) = 38.83833 47.77681 43.30757
# Shear Modulus (GPa) = 24.16357 31.75803 27.96080
#
# Velocity S-wave (km/s) = 3.20372 3.67283 3.44626
# Velocity P-wave (km/s) = 5.49383 6.18709 5.85074
#
# Compressibility (1/GPa) = 0.02574776
#
# Stress axis : x y z
#
# Youngs Moduli (GPa) = 86.27347 33.02713 65.06685
#
# Poissons Ratio (x) = 0.13061 0.19182
# Poissons Ratio (y) = 0.34119 0.57535
# Poissons Ratio (z) = 0.25433 0.29204
#
# Static dielectric constant tensor:
#      x y z
#    x 4.034350 0.000000 0.039040 
#    y 0.000000 4.131880 0.000000 
#    z 0.039040 0.000000 4.300890 
# 
# 
# High freq. dielectric constant tensor:
#      x y z
#    x 1.908560 0.000000 0.006970 
#    y 0.000000 1.926960 0.000000 
#    z 0.006970 0.000000 1.951700 
# 
# From -- ./inp_files/6530.got.cif
#   From: 2010.03.12/outbox.cif.g09.slc.cpg/sg4_4_cif.got.tgz:6530.got - 2010.03.31 09:31:35.
