data_PCOD8047013
_publ_section_title
;
Structure prediction by ZEFSAII (Michael W. Deem and Ramdas Pophale) SiO2 
 PCOD8047013
Probable space group: P 21
;
_chemical_formula_sum "Si O2"
_cell_formula_units_Z 16
_cell_length_a 8.436403
_cell_length_b 4.814204
_cell_length_c 19.610580
_cell_angle_alpha 90.000000
_cell_angle_beta 43.548543
_cell_angle_gamma 90.000000
_cell_volume 548.746620
_symmetry_space_group_name_H-M "P 21"
_symmetry_group_IT_number 4
_symmetry_cell_setting 'monoclinic'
loop_
_space_group_symop_operation_xyz
x,y,z
-x,1/2+y,-z
loop_
_atom_site_type_symbol
_atom_site_label
_atom_site_fract_x
_atom_site_fract_y
_atom_site_fract_z
Si Si1 0.903696 0.789550 0.449878
Si Si2 0.250739 0.473495 0.266515
Si Si3 0.802964 0.276290 0.995440
Si Si4 0.171357 0.503787 0.750416
Si Si5 0.303869 0.280461 0.885018
Si Si6 0.876807 0.991537 0.842786
Si Si7 0.342735 0.715995 0.558920
Si Si8 0.340983 0.045579 0.352332
O O1 0.830479 0.087719 0.442601
O O2 0.698418 0.714981 0.565357
O O3 0.985177 0.570520 0.365236
O O4 0.145688 0.806277 0.416604
O O5 0.445681 0.706871 0.226196
O O6 0.307372 0.203748 0.291915
O O7 0.270837 0.412505 0.178799
O O8 0.084608 0.240454 0.902471
O O9 0.719804 0.157108 0.947806
O O10 0.732600 0.588094 0.036250
O O11 0.693420 0.096792 0.090628
O O12 0.075056 0.207901 0.757632
O O13 0.226539 0.696282 0.668124
O O14 0.392584 0.449125 0.729824
O O15 0.979575 0.706696 0.845278
O O16 0.418427 0.030664 0.515123
#
# Coordination Sequence:
#
# PCOD8047013 Si02
#       8
#     2   2   2   2   2   2   2   2
#     4  12  27  44  68 101 146 192 247 303 361 418
#     4  12  28  46  71 108 146 193 242 309 362 435
#     4  10  23  47  74 107 141 185 232 297 364 447
#     4  12  27  45  73 105 141 200 243 295 361 434
#     4  10  24  45  76 105 142 183 237 291 367 442
#     4  12  27  48  75 110 150 184 246 303 368 440
#     4  12  26  45  71  98 143 195 249 300 360 424
#     4  12  28  44  72 100 149 198 250 304 359 426
#
# _framework density 29.157357000000001
#
# number of rings (size 3 to 8) (size 9 to 14) (size 15 to 20)
#    0.000    0.500    3.750    3.000    8.750    2.000 
#    0.000    0.000    0.000    0.000    0.000    0.000 
#    0.000    0.000    0.000    0.000    0.000    0.000 
#
# Total GULP energy -198416.693030 kJ/mol
# GULP energy per Si atom -12401.043314 kJ/mol
# Density = 2.909099 g / cm^3
# Si number density = 29.157357 Si / 1000 Ang^3
#
#
#
# Elastic Constant Matrix: (Units=GPa)
#
#
# Indices 1 2 3 4 5 6 
#
# 1 91.0280 -8.9155 -11.4378 0.0000 11.4955 0.0000
# 2 -8.9155 51.4394 -21.1356 0.0000 -4.4891 0.0000
# 3 -11.4378 -21.1356 88.2481 0.0000 -10.8934 0.0000
# 4 0.0000 0.0000 0.0000 29.3832 0.0000 -6.5574
# 5 11.4955 -4.4891 -10.8934 0.0000 49.5091 0.0000
# 6 0.0000 0.0000 0.0000 -6.5574 0.0000 35.6106
#
#
#
# Elastic Compliance Matrix: (Units=1/GPa)
#
#
# Indices 1 2 3 4 5 6 
#
# 1 0.011744 0.002634 0.001897 0.000000 -0.002070 0.000000
# 2 0.002634 0.022651 0.006110 0.000000 0.002787 0.000000
# 3 0.001897 0.006110 0.013420 0.000000 0.003066 0.000000
# 4 0.000000 0.000000 0.000000 0.035492 0.000000 0.006536
# 5 -0.002070 0.002787 0.003066 0.000000 0.021606 0.000000
# 6 0.000000 0.000000 0.000000 0.006536 0.000000 0.029285
#
#
# Mechanical properties :
#
#
# Convention : Reuss Voigt Hill
#
# Bulk Modulus (GPa) = 14.47220 16.41529 15.44375
# Shear Modulus (GPa) = 36.77953 41.04755 38.91354
#
# Velocity S-wave (km/s) = 3.55549 3.75613 3.65719
# Velocity P-wave (km/s) = 4.67222 4.94504 4.81057
#
# Compressibility (1/GPa) = 0.06909800
#
# Stress axis : x y z
#
# Youngs Moduli (GPa) = 85.15339 44.14864 74.51823
#
# Poissons Ratio (x) = -0.11630 -0.14139
# Poissons Ratio (y) = -0.22432 -0.45533
# Poissons Ratio (z) = -0.16157 -0.26976
#
# Static dielectric constant tensor:
#      x y z
#    x 5.314250 0.000000 -0.248150 
#    y 0.000000 5.093380 0.000000 
#    z -0.248150 0.000000 5.594960 
# 
# 
# High freq. dielectric constant tensor:
#      x y z
#    x 2.194680 0.000000 0.000350 
#    y 0.000000 2.186340 0.000000 
#    z 0.000350 0.000000 2.209190 
# 
# From -- ./inp_files/13445.got.cif
#   From: 2010.03.12/outbox.cif.g09.slc.cpg/sg4_7_cif.got.tgz:13445.got - 2010.03.31 09:31:35.
