data_PCOD8047093
_publ_section_title
;
Structure prediction by ZEFSAII (Michael W. Deem and Ramdas Pophale) SiO2 
 PCOD8047093
Probable space group: P 21
;
_chemical_formula_sum "Si O2"
_cell_formula_units_Z 14
_cell_length_a 19.731100
_cell_length_b 5.088985
_cell_length_c 13.047132
_cell_angle_alpha 90.000000
_cell_angle_beta 150.875844
_cell_angle_gamma 90.000000
_cell_volume 637.620382
_symmetry_space_group_name_H-M "P 21"
_symmetry_group_IT_number 4
_symmetry_cell_setting 'monoclinic'
loop_
_space_group_symop_operation_xyz
x,y,z
-x,1/2+y,-z
loop_
_atom_site_type_symbol
_atom_site_label
_atom_site_fract_x
_atom_site_fract_y
_atom_site_fract_z
Si Si1 0.419902 0.966630 0.928356
Si Si2 0.858482 0.075705 0.250389
Si Si3 0.839264 0.200948 0.852791
Si Si4 0.319993 0.066305 0.014822
Si Si5 0.523459 0.108394 0.467847
Si Si6 0.011388 0.201242 0.877269
Si Si7 0.886952 0.332483 0.502131
O O1 0.264181 0.958867 0.676099
O O2 0.491992 0.683021 0.015339
O O3 0.417851 0.035231 0.045469
O O4 0.877121 0.126949 0.395755
O O5 0.763039 0.297264 0.071594
O O6 0.007805 0.066972 0.390983
O O7 0.792621 0.790450 0.151197
O O8 0.674787 0.180685 0.626378
O O9 0.894308 0.190373 0.809773
O O10 0.878954 0.467722 0.963279
O O11 0.902617 0.969592 0.004857
O O12 0.415431 0.146597 0.234397
O O13 0.479008 0.308022 0.498450
O O14 0.937229 0.178912 0.669576
#
# Coordination Sequence:
#
# PCOD8047093 Si02
#       7
#     2   2   2   2   2   2   2
#     4  11  25  44  68 101 139 175 224 269 345 422
#     4  11  25  44  71 104 138 173 238 276 338 412
#     4  10  24  47  64 107 128 178 232 280 326 417
#     4  11  26  47  68 101 143 177 222 294 331 402
#     4  12  27  45  73 100 137 185 227 276 352 402
#     4  10  24  44  74  93 139 173 229 283 337 386
#     4  11  25  45  72 102 134 187 218 288 341 403
#
# _framework density 21.956636
#
# number of rings (size 3 to 8) (size 9 to 14) (size 15 to 20)
#    0.000    1.143    0.000    5.143    8.000    5.714 
#    5.143    0.000    0.000    0.000    0.000    0.000 
#    0.000    0.000    0.000    0.000    0.000    0.000 
#
# Total GULP energy -173693.250831 kJ/mol
# GULP energy per Si atom -12406.660774 kJ/mol
# Density = 2.190666 g / cm^3
# Si number density = 21.956636 Si / 1000 Ang^3
#
#
#
# Elastic Constant Matrix: (Units=GPa)
#
#
# Indices 1 2 3 4 5 6 
#
# 1 72.2425 29.5663 67.4949 0.0000 12.0019 0.0000
# 2 29.5663 93.6377 20.4875 0.0000 9.3470 0.0000
# 3 67.4949 20.4875 133.9650 0.0000 0.0374 0.0000
# 4 0.0000 0.0000 0.0000 31.4335 0.0000 2.2484
# 5 12.0019 9.3470 0.0374 0.0000 45.5829 0.0000
# 6 0.0000 0.0000 0.0000 2.2484 0.0000 31.9700
#
#
#
# Elastic Compliance Matrix: (Units=1/GPa)
#
#
# Indices 1 2 3 4 5 6 
#
# 1 0.031343 -0.005940 -0.014881 0.000000 -0.007022 0.000000
# 2 -0.005940 0.012414 0.001094 0.000000 -0.000982 0.000000
# 3 -0.014881 0.001094 0.014794 0.000000 0.003682 0.000000
# 4 0.000000 0.000000 0.000000 0.031974 0.000000 -0.002249
# 5 -0.007022 -0.000982 0.003682 0.000000 0.023985 0.000000
# 6 0.000000 0.000000 0.000000 -0.002249 0.000000 0.031437
#
#
# Mechanical properties :
#
#
# Convention : Reuss Voigt Hill
#
# Bulk Modulus (GPa) = 52.36285 59.43806 55.90045
# Shear Modulus (GPa) = 26.07355 33.95038 30.01196
#
# Velocity S-wave (km/s) = 3.44975 3.93650 3.70114
# Velocity P-wave (km/s) = 6.30617 6.91309 6.61659
#
# Compressibility (1/GPa) = 0.01909751
#
# Stress axis : x y z
#
# Youngs Moduli (GPa) = 31.90524 80.55715 67.59671
#
# Poissons Ratio (x) = 0.47849 1.00590
# Poissons Ratio (y) = 0.18951 -0.07398
# Poissons Ratio (z) = 0.47478 -0.08816
#
# Static dielectric constant tensor:
#      x y z
#    x 4.077400 0.000000 0.120860 
#    y 0.000000 4.034210 0.000000 
#    z 0.120860 0.000000 4.005560 
# 
# 
# High freq. dielectric constant tensor:
#      x y z
#    x 1.869390 0.000000 0.006730 
#    y 0.000000 1.874930 0.000000 
#    z 0.006730 0.000000 1.872900 
# 
# From -- ./inp_files/7091.got.cif
#   From: 2010.03.12/outbox.cif.g09.slc.cpg/sg4_4_cif.got.tgz:7091.got - 2010.03.31 09:31:35.
