data_PCOD8047848
_publ_section_title
;
Structure prediction by ZEFSAII (Michael W. Deem and Ramdas Pophale) SiO2 
 PCOD8047848
Probable space group: P 21
;
_chemical_formula_sum "Si O2"
_cell_formula_units_Z 16
_cell_length_a 7.805951
_cell_length_b 17.844172
_cell_length_c 7.966998
_cell_angle_alpha 90.000000
_cell_angle_beta 144.680313
_cell_angle_gamma 90.000000
_cell_volume 641.576516
_symmetry_space_group_name_H-M "P 21"
_symmetry_group_IT_number 4
_symmetry_cell_setting 'monoclinic'
loop_
_space_group_symop_operation_xyz
x,y,z
-x,1/2+y,-z
loop_
_atom_site_type_symbol
_atom_site_label
_atom_site_fract_x
_atom_site_fract_y
_atom_site_fract_z
Si Si1 0.547891 0.986060 0.662342
Si Si2 0.776796 0.835159 0.306655
Si Si3 0.112733 0.212748 0.320236
Si Si4 0.404652 0.833574 0.688948
Si Si5 0.076116 0.553860 0.789573
Si Si6 0.932410 0.055827 0.729115
Si Si7 0.562207 0.992208 0.188236
Si Si8 0.746401 0.210713 0.709084
O O1 0.584713 0.898478 0.736006
O O2 0.638984 0.001235 0.541576
O O3 0.240157 0.015855 0.487212
O O4 0.833962 0.038982 0.944430
O O5 0.830647 0.772635 0.489953
O O6 0.097794 0.867297 0.513340
O O7 0.590153 0.902844 0.239099
O O8 0.604083 0.802440 0.003936
O O9 0.429693 0.180300 0.517158
O O10 0.929014 0.142891 0.249094
O O11 0.933340 0.246340 0.015146
O O12 0.316147 0.769678 0.487247
O O13 0.369705 0.508526 0.954435
O O14 0.847584 0.046495 0.465422
O O15 0.934096 0.142028 0.785076
O O16 0.251820 0.020094 0.012778
#
# Coordination Sequence:
#
# PCOD8047848 Si02
#       8
#     2   2   2   2   2   2   2   2
#     4  12  23  48  78 104 144 203 252 308 374 451
#     4  12  27  50  74 113 152 202 251 315 381 460
#     4  12  26  50  76 109 155 199 254 313 386 456
#     4  12  26  50  76 109 155 199 254 313 386 456
#     4  12  23  48  78 104 144 203 252 308 374 451
#     4  12  26  46  76 110 151 193 261 317 372 446
#     4  12  26  46  76 110 151 193 261 317 372 446
#     4  12  27  50  74 113 152 202 251 315 381 460
#
# _framework density 24.938568
#
# number of rings (size 3 to 8) (size 9 to 14) (size 15 to 20)
#    0.000    0.000    5.000    4.500    3.500    0.000 
#    0.000    0.000    0.000    0.000    0.000    0.000 
#    0.000    0.000    0.000    0.000    0.000    0.000 
#
# Total GULP energy -198248.068919 kJ/mol
# GULP energy per Si atom -12390.504307 kJ/mol
# Density = 2.488181 g / cm^3
# Si number density = 24.938568 Si / 1000 Ang^3
#
#
#
# Elastic Constant Matrix: (Units=GPa)
#
#
# Indices 1 2 3 4 5 6 
#
# 1 71.3278 52.2200 28.6107 0.0000 25.6956 0.0000
# 2 52.2200 162.5562 55.1520 0.0000 -6.6190 0.0000
# 3 28.6107 55.1520 172.7886 0.0000 -6.8109 0.0000
# 4 0.0000 0.0000 0.0000 42.9708 0.0000 2.0747
# 5 25.6956 -6.6190 -6.8109 0.0000 46.9512 0.0000
# 6 0.0000 0.0000 0.0000 2.0747 0.0000 24.4716
#
#
#
# Elastic Compliance Matrix: (Units=1/GPa)
#
#
# Indices 1 2 3 4 5 6 
#
# 1 0.027200 -0.008590 -0.002410 0.000000 -0.016447 0.000000
# 2 -0.008590 0.009632 -0.001421 0.000000 0.005853 0.000000
# 3 -0.002410 -0.001421 0.006723 0.000000 0.002094 0.000000
# 4 0.000000 0.000000 0.000000 0.023367 0.000000 -0.001981
# 5 -0.016447 0.005853 0.002094 0.000000 0.031429 0.000000
# 6 0.000000 0.000000 0.000000 -0.001981 0.000000 0.041032
#
#
# Mechanical properties :
#
#
# Convention : Reuss Voigt Hill
#
# Bulk Modulus (GPa) = 53.44257 75.40422 64.42340
# Shear Modulus (GPa) = 29.33200 40.92471 35.12836
#
# Velocity S-wave (km/s) = 3.43325 4.05535 3.75720
# Velocity P-wave (km/s) = 6.09857 7.22699 6.68663
#
# Compressibility (1/GPa) = 0.01871167
#
# Stress axis : x y z
#
# Youngs Moduli (GPa) = 36.76440 103.82452 148.74879
#
# Poissons Ratio (x) = 0.89183 0.35855
# Poissons Ratio (y) = 0.31580 0.21142
# Poissons Ratio (z) = 0.08862 0.14757
#
# Static dielectric constant tensor:
#      x y z
#    x 4.617420 0.000000 -0.215350 
#    y 0.000000 4.059340 0.000000 
#    z -0.215350 0.000000 4.796140 
# 
# 
# High freq. dielectric constant tensor:
#      x y z
#    x 2.011570 0.000000 -0.017760 
#    y 0.000000 1.982750 0.000000 
#    z -0.017760 0.000000 2.026850 
# 
# From -- ./inp_files/6956.got.cif
#   From: 2010.03.12/outbox.cif.g09.slc.cpg/sg4_4_cif.got.tgz:6956.got - 2010.03.31 09:31:35.
