data_PCOD8047741
_publ_section_title
;
Structure prediction by ZEFSAII (Michael W. Deem and Ramdas Pophale) SiO2 
 PCOD8047741
Probable space group: P 21
;
_chemical_formula_sum "Si O2"
_cell_formula_units_Z 16
_cell_length_a 12.253618
_cell_length_b 6.502541
_cell_length_c 9.126188
_cell_angle_alpha 90.000000
_cell_angle_beta 76.803053
_cell_angle_gamma 90.000000
_cell_volume 707.967675
_symmetry_space_group_name_H-M "P 21"
_symmetry_group_IT_number 4
_symmetry_cell_setting 'monoclinic'
loop_
_space_group_symop_operation_xyz
x,y,z
-x,1/2+y,-z
loop_
_atom_site_type_symbol
_atom_site_label
_atom_site_fract_x
_atom_site_fract_y
_atom_site_fract_z
Si Si1 0.800670 0.043710 0.425717
Si Si2 0.715579 0.699903 0.259790
Si Si3 0.502447 0.853443 0.196479
Si Si4 0.774199 0.791807 0.723064
Si Si5 0.149800 0.866933 0.957289
Si Si6 0.987144 0.631235 0.790067
Si Si7 0.317577 0.957644 0.446879
Si Si8 0.347082 0.605692 0.039440
O O1 0.750020 0.269539 0.461115
O O2 0.935370 0.053333 0.367301
O O3 0.757922 0.931293 0.288101
O O4 0.769804 0.930771 0.582494
O O5 0.607490 0.702430 0.187867
O O6 0.808246 0.565016 0.147880
O O7 0.677574 0.620271 0.427152
O O8 0.447137 0.909139 0.369803
O O9 0.398522 0.753311 0.144500
O O10 0.550193 0.054659 0.100848
O O11 0.898626 0.791558 0.751103
O O12 0.737316 0.561263 0.683666
O O13 0.695377 0.893530 0.871803
O O14 0.066072 0.739331 0.883532
O O15 0.249900 0.721350 0.980634
O O16 0.080866 0.942320 0.119026
#
# Coordination Sequence:
#
# PCOD8047741 Si02
#       8
#     2   2   2   2   2   2   2   2
#     4  11  25  47  68 103 141 183 236 299 344 428
#     4  11  26  44  71 102 141 181 239 287 359 424
#     4  12  25  42  74  98 139 189 229 287 367 410
#     4  11  26  44  71 102 141 181 239 287 359 424
#     4  12  25  46  70 105 145 183 242 297 351 440
#     4  12  25  42  74  98 139 189 229 287 367 410
#     4  11  25  47  68 103 141 183 236 299 344 428
#     4  12  25  46  70 105 145 183 242 297 351 440
#
# _framework density 22.599902
#
# number of rings (size 3 to 8) (size 9 to 14) (size 15 to 20)
#    0.000    0.500    2.500    5.250    3.500    0.000 
#    0.000    0.000    0.000    0.000    0.000    0.000 
#    0.000    0.000    0.000    0.000    0.000    0.000 
#
# Total GULP energy -198366.100257 kJ/mol
# GULP energy per Si atom -12397.881266 kJ/mol
# Density = 2.254846 g / cm^3
# Si number density = 22.599902 Si / 1000 Ang^3
#
#
#
# Elastic Constant Matrix: (Units=GPa)
#
#
# Indices 1 2 3 4 5 6 
#
# 1 105.6309 33.4296 27.9609 0.0000 2.3961 0.0000
# 2 33.4296 102.0034 32.2847 0.0000 -0.3173 0.0000
# 3 27.9609 32.2847 83.9098 0.0000 -20.6756 0.0000
# 4 0.0000 0.0000 0.0000 48.0398 0.0000 -4.1282
# 5 2.3961 -0.3173 -20.6756 0.0000 56.7096 0.0000
# 6 0.0000 0.0000 0.0000 -4.1282 0.0000 46.0004
#
#
#
# Elastic Compliance Matrix: (Units=1/GPa)
#
#
# Indices 1 2 3 4 5 6 
#
# 1 0.011171 -0.002690 -0.003085 0.000000 -0.001612 0.000000
# 2 -0.002690 0.011953 -0.004019 0.000000 -0.001285 0.000000
# 3 -0.003085 -0.004019 0.015952 0.000000 0.005924 0.000000
# 4 0.000000 0.000000 0.000000 0.020978 0.000000 0.001883
# 5 -0.001612 -0.001285 0.005924 0.000000 0.019854 0.000000
# 6 0.000000 0.000000 0.000000 0.001883 0.000000 0.021908
#
#
# Mechanical properties :
#
#
# Convention : Reuss Voigt Hill
#
# Bulk Modulus (GPa) = 51.31311 53.21049 52.26180
# Shear Modulus (GPa) = 39.09298 43.34122 41.21710
#
# Velocity S-wave (km/s) = 4.16358 4.38398 4.27520
# Velocity P-wave (km/s) = 6.77261 7.01579 6.89527
#
# Compressibility (1/GPa) = 0.01948820
#
# Stress axis : x y z
#
# Youngs Moduli (GPa) = 89.51501 83.65891 62.68984
#
# Poissons Ratio (x) = 0.22503 0.19338
# Poissons Ratio (y) = 0.24078 0.25197
# Poissons Ratio (z) = 0.27613 0.33626
#
# Static dielectric constant tensor:
#      x y z
#    x 4.120610 0.000000 -0.080500 
#    y 0.000000 4.213310 0.000000 
#    z -0.080500 0.000000 4.390320 
# 
# 
# High freq. dielectric constant tensor:
#      x y z
#    x 1.896780 0.000000 -0.007730 
#    y 0.000000 1.893500 0.000000 
#    z -0.007730 0.000000 1.910720 
# 
# From -- ./inp_files/7372.got.cif
#   From: 2010.03.12/outbox.cif.g09.slc.cpg/sg4_4_cif.got.tgz:7372.got - 2010.03.31 09:31:35.
