data_PCOD8047350
_publ_section_title
;
Structure prediction by ZEFSAII (Michael W. Deem and Ramdas Pophale) SiO2 
 PCOD8047350
Probable space group: P 21
;
_chemical_formula_sum "Si O2"
_cell_formula_units_Z 16
_cell_length_a 18.446817
_cell_length_b 8.276997
_cell_length_c 7.537580
_cell_angle_alpha 90.000000
_cell_angle_beta 41.629541
_cell_angle_gamma 90.000000
_cell_volume 764.536211
_symmetry_space_group_name_H-M "P 21"
_symmetry_group_IT_number 4
_symmetry_cell_setting 'monoclinic'
loop_
_space_group_symop_operation_xyz
x,y,z
-x,1/2+y,-z
loop_
_atom_site_type_symbol
_atom_site_label
_atom_site_fract_x
_atom_site_fract_y
_atom_site_fract_z
Si Si1 0.610808 0.875000 0.624910
Si Si2 0.198430 0.598816 0.783547
Si Si3 0.450629 0.172210 0.940934
Si Si4 0.850026 0.413975 0.276563
Si Si5 0.915224 0.601091 0.821490
Si Si6 0.005870 0.939575 0.669865
Si Si7 0.647232 0.369495 0.460791
Si Si8 0.330944 0.165840 0.801097
O O1 0.611414 0.805664 0.422588
O O2 0.727355 0.962951 0.449208
O O3 0.510220 0.998722 0.836139
O O4 0.601206 0.721608 0.774912
O O5 0.138047 0.716855 0.751553
O O6 0.282241 0.715113 0.742153
O O7 0.109389 0.521036 0.074067
O O8 0.534484 0.315769 0.748209
O O9 0.359272 0.181990 0.955810
O O10 0.897578 0.488042 0.369948
O O11 0.720920 0.455541 0.482988
O O12 0.917317 0.492163 0.992224
O O13 0.958164 0.485347 0.590192
O O14 0.997432 0.747693 0.696997
O O15 0.798353 0.676229 0.986282
O O16 0.625240 0.491048 0.340604
#
# Coordination Sequence:
#
# PCOD8047350 Si02
#       8
#     2   2   2   2   2   2   2   2
#     4  11  23  42  65  94 134 163 216 271 310 393
#     4   9  20  41  65  89 128 168 203 271 318 365
#     4  11  23  41  68  97 124 177 208 262 329 383
#     4   9  21  43  66  89 124 173 206 268 320 371
#     4  11  25  39  64  98 123 163 219 262 311 396
#     4  12  22  42  65  93 130 169 211 260 329 381
#     4   8  20  41  65  92 128 159 219 257 315 382
#     4  11  22  43  64  96 127 170 210 271 324 371
#
# _framework density 20.927719
#
# number of rings (size 3 to 8) (size 9 to 14) (size 15 to 20)
#    0.750    1.000    1.250    3.000    0.000    3.000 
#    6.750    0.000    0.000    0.000    0.000    0.000 
#    0.000    0.000    0.000    0.000    0.000    0.000 
#
# Total GULP energy -198280.004974 kJ/mol
# GULP energy per Si atom -12392.500311 kJ/mol
# Density = 2.088009 g / cm^3
# Si number density = 20.927719 Si / 1000 Ang^3
#
#
#
# Elastic Constant Matrix: (Units=GPa)
#
#
# Indices 1 2 3 4 5 6 
#
# 1 76.7146 13.7351 18.7552 0.0000 9.0442 0.0000
# 2 13.7351 79.8460 16.2017 0.0000 -5.5293 0.0000
# 3 18.7552 16.2017 36.4914 0.0000 -0.1287 0.0000
# 4 0.0000 0.0000 0.0000 45.3819 0.0000 -9.1428
# 5 9.0442 -5.5293 -0.1287 0.0000 25.0107 0.0000
# 6 0.0000 0.0000 0.0000 -9.1428 0.0000 24.9781
#
#
#
# Elastic Compliance Matrix: (Units=1/GPa)
#
#
# Indices 1 2 3 4 5 6 
#
# 1 0.015876 -0.001644 -0.007451 0.000000 -0.006143 0.000000
# 2 -0.001644 0.014165 -0.005431 0.000000 0.003698 0.000000
# 3 -0.007451 -0.005431 0.033650 0.000000 0.001667 0.000000
# 4 0.000000 0.000000 0.000000 0.023790 0.000000 0.008708
# 5 -0.006143 0.003698 0.001667 0.000000 0.043030 0.000000
# 6 0.000000 0.000000 0.000000 0.008708 0.000000 0.043222
#
#
# Mechanical properties :
#
#
# Convention : Reuss Voigt Hill
#
# Bulk Modulus (GPa) = 28.86971 32.27066 30.57018
# Shear Modulus (GPa) = 23.32829 28.69813 26.01321
#
# Velocity S-wave (km/s) = 3.34235 3.70712 3.52945
# Velocity P-wave (km/s) = 5.35910 5.81181 5.59004
#
# Compressibility (1/GPa) = 0.03463839
#
# Stress axis : x y z
#
# Youngs Moduli (GPa) = 62.98993 70.59615 29.71738
#
# Poissons Ratio (x) = 0.11609 0.22142
# Poissons Ratio (y) = 0.10358 0.16139
# Poissons Ratio (z) = 0.46934 0.38340
#
# Static dielectric constant tensor:
#      x y z
#    x 3.570610 0.000000 -0.138850 
#    y 0.000000 3.874210 0.000000 
#    z -0.138850 0.000000 3.615680 
# 
# 
# High freq. dielectric constant tensor:
#      x y z
#    x 1.802950 0.000000 -0.015000 
#    y 0.000000 1.832530 0.000000 
#    z -0.015000 0.000000 1.809500 
# 
# From -- ./inp_files/4097.got.cif
#   From: 2010.03.12/outbox.cif.g09.slc.cpg/sg4_3_cif.got.tgz:4097.got - 2010.03.31 09:31:35.
