data_PCOD8047242
_publ_section_title
;
Structure prediction by ZEFSAII (Michael W. Deem and Ramdas Pophale) SiO2 
 PCOD8047242
Probable space group: P 21
;
_chemical_formula_sum "Si O2"
_cell_formula_units_Z 16
_cell_length_a 11.423738
_cell_length_b 13.226662
_cell_length_c 11.967566
_cell_angle_alpha 90.000000
_cell_angle_beta 24.306431
_cell_angle_gamma 90.000000
_cell_volume 744.315835
_symmetry_space_group_name_H-M "P 21"
_symmetry_group_IT_number 4
_symmetry_cell_setting 'monoclinic'
loop_
_space_group_symop_operation_xyz
x,y,z
-x,1/2+y,-z
loop_
_atom_site_type_symbol
_atom_site_label
_atom_site_fract_x
_atom_site_fract_y
_atom_site_fract_z
Si Si1 0.501008 0.839530 0.732298
Si Si2 0.642678 0.164098 0.856185
Si Si3 0.650576 0.363844 0.733926
Si Si4 0.142552 0.066474 0.709716
Si Si5 0.623509 0.934551 0.248492
Si Si6 0.229892 0.155268 0.410943
Si Si7 0.733436 0.943968 0.746936
Si Si8 0.882491 0.803516 0.207497
O O1 0.532917 0.722585 0.736261
O O2 0.560969 0.903753 0.790559
O O3 0.720685 0.865523 0.444089
O O4 0.192985 0.850587 0.947890
O O5 0.556544 0.247369 0.840178
O O6 0.921845 0.212032 0.675342
O O7 0.783458 0.062998 0.680200
O O8 0.370079 0.132538 0.168265
O O9 0.575501 0.382543 0.671087
O O10 0.979770 0.383114 0.477672
O O11 0.465332 0.436698 0.972297
O O12 0.175327 0.061581 0.543527
O O13 0.140398 0.181171 0.760408
O O14 0.421620 0.003124 0.505784
O O15 0.858666 0.008538 0.991010
O O16 0.761295 0.840249 0.194223
#
# Coordination Sequence:
#
# PCOD8047242 Si02
#       8
#     2   2   2   2   2   2   2   2
#     4  11  21  41  65  91 126 165 220 270 315 373
#     4  12  22  38  61  97 133 170 203 263 341 387
#     4  12  24  42  63  99 134 170 210 273 328 389
#     4  11  23  42  72  98 121 178 228 266 317 379
#     4  12  25  45  66  98 134 171 221 269 328 389
#     4  11  20  38  66  93 127 163 217 269 300 388
#     4  12  24  39  66  95 131 171 211 264 336 395
#     4  11  25  43  69  95 128 170 222 276 315 378
#
# _framework density 21.496251000000001
#
# number of rings (size 3 to 8) (size 9 to 14) (size 15 to 20)
#    0.000    0.500    2.500    9.000    0.000    0.000 
#    4.500    0.000    0.000    0.000    0.000    0.000 
#    0.000    0.000    0.000    0.000    0.000    0.000 
#
# Total GULP energy -198249.405041 kJ/mol
# GULP energy per Si atom -12390.587815 kJ/mol
# Density = 2.144732 g / cm^3
# Si number density = 21.496251 Si / 1000 Ang^3
#
#
#
# Elastic Constant Matrix: (Units=GPa)
#
#
# Indices 1 2 3 4 5 6 
#
# 1 53.9445 63.6520 -33.7855 0.0000 -5.7321 0.0000
# 2 63.6520 92.4713 29.5034 0.0000 -6.4258 0.0000
# 3 -33.7855 29.5034 41.0743 0.0000 -9.7750 0.0000
# 4 0.0000 0.0000 0.0000 20.4468 0.0000 -2.3279
# 5 -5.7321 -6.4258 -9.7750 0.0000 28.9446 0.0000
# 6 0.0000 0.0000 0.0000 -2.3279 0.0000 22.1860
#
#
#
# Elastic Compliance Matrix: (Units=1/GPa)
#
#
# Indices 1 2 3 4 5 6 
#
# 1 -0.011087 0.013725 -0.020416 0.000000 -0.006043 0.000000
# 2 0.013725 -0.002960 0.015122 0.000000 0.007168 0.000000
# 3 -0.020416 0.015122 -0.003776 0.000000 -0.001961 0.000000
# 4 0.000000 0.000000 0.000000 0.049499 0.000000 0.005194
# 5 -0.006043 0.007168 -0.001961 0.000000 0.034281 0.000000
# 6 0.000000 0.000000 0.000000 0.005194 0.000000 0.045618
#
#
# Mechanical properties :
#
#
# Convention : Reuss Voigt Hill
#
# Bulk Modulus (GPa) = -1040.70014 34.02555 -503.33730
# Shear Modulus (GPa) = 52.97002 22.85685 37.91343
#
# Velocity S-wave (km/s) = 4.96941 3.26436 4.20423
# Velocity P-wave (km/s) = 21.26630 5.48370 14.52901
#
# Compressibility (1/GPa) = -0.00096089
#
# Stress axis : x y z
#
# Youngs Moduli (GPa) = -90.19875 -337.81397 -264.83878
#
# Poissons Ratio (x) = 4.63662 -5.40703
# Poissons Ratio (y) = 1.23801 4.00485
# Poissons Ratio (z) = -1.84153 5.10837
#
# Static dielectric constant tensor:
#      x y z
#    x 3.763780 0.000000 -0.008520 
#    y 0.000000 4.043360 0.000000 
#    z -0.008520 0.000000 4.212820 
# 
# 
# High freq. dielectric constant tensor:
#      x y z
#    x 1.818570 0.000000 -0.011180 
#    y 0.000000 1.842770 0.000000 
#    z -0.011180 0.000000 1.869130 
# 
# From -- ./inp_files/12338.got.cif
#   From: 2010.03.12/outbox.cif.g09.slc.cpg/sg4_7_cif.got.tgz:12338.got - 2010.03.31 09:31:35.
