data_PCOD8047760
_publ_section_title
;
Structure prediction by ZEFSAII (Michael W. Deem and Ramdas Pophale) SiO2 
 PCOD8047760
Probable space group: P 21
;
_chemical_formula_sum "Si O2"
_cell_formula_units_Z 16
_cell_length_a 22.779912
_cell_length_b 5.294072
_cell_length_c 16.565201
_cell_angle_alpha 90.000000
_cell_angle_beta 160.674058
_cell_angle_gamma 90.000000
_cell_volume 661.134882
_symmetry_space_group_name_H-M "P 21"
_symmetry_group_IT_number 4
_symmetry_cell_setting 'monoclinic'
loop_
_space_group_symop_operation_xyz
x,y,z
-x,1/2+y,-z
loop_
_atom_site_type_symbol
_atom_site_label
_atom_site_fract_x
_atom_site_fract_y
_atom_site_fract_z
Si Si1 0.570248 0.147170 0.128026
Si Si2 0.850763 0.294996 0.935328
Si Si3 0.771479 0.631576 0.549329
Si Si4 0.254421 0.296658 0.107614
Si Si5 0.902524 0.486404 0.393987
Si Si6 0.387982 0.785721 0.520115
Si Si7 0.472386 0.990703 0.156098
Si Si8 0.083924 0.843223 0.416454
O O1 0.504856 0.220596 0.134635
O O2 0.783636 0.104945 0.397257
O O3 0.529759 0.392745 0.023375
O O4 0.763271 0.557328 0.854574
O O5 0.778901 0.224302 0.753113
O O6 0.797818 0.060789 0.921374
O O7 0.065664 0.313831 0.209510
O O8 0.682059 0.497710 0.510465
O O9 0.850105 0.453622 0.582984
O O10 0.610396 0.784531 0.300860
O O11 0.450436 0.354793 0.329596
O O12 0.118667 0.249415 0.856379
O O13 0.885443 0.533689 0.468377
O O14 0.033799 0.248538 0.560482
O O15 0.730388 0.402861 0.118078
O O16 0.468325 0.551778 0.675675
#
# Coordination Sequence:
#
# PCOD8047760 Si02
#       8
#     2   2   2   2   2   2   2   2
#     4  12  25  44  72 103 142 194 243 305 366 445
#     4  11  28  51  79 112 157 203 261 317 402 467
#     4  11  28  47  79 114 154 199 260 325 394 457
#     4  11  27  51  77 111 151 211 257 318 390 472
#     4  12  31  48  75 109 155 206 257 310 379 460
#     4  12  28  47  81 113 158 199 263 326 390 465
#     4  12  28  45  75 111 154 193 260 310 389 449
#     4  11  25  49  76 105 155 197 255 309 384 455
#
# _framework density 24.200811999999999
#
# number of rings (size 3 to 8) (size 9 to 14) (size 15 to 20)
#    0.000    0.500    2.500    3.000   12.250    4.000 
#    0.000    0.000    0.000    0.000    0.000    0.000 
#    0.000    0.000    0.000    0.000    0.000    0.000 
#
# Total GULP energy -198216.971356 kJ/mol
# GULP energy per Si atom -12388.560710 kJ/mol
# Density = 2.414573 g / cm^3
# Si number density = 24.200812 Si / 1000 Ang^3
#
#
#
# Elastic Constant Matrix: (Units=GPa)
#
#
# Indices 1 2 3 4 5 6 
#
# 1 93.5848 22.0160 43.6977 0.0000 -0.8735 0.0000
# 2 22.0160 81.3413 24.3158 0.0000 8.9641 0.0000
# 3 43.6977 24.3158 157.1323 0.0000 -6.9825 0.0000
# 4 0.0000 0.0000 0.0000 25.4644 0.0000 2.6343
# 5 -0.8735 8.9641 -6.9825 0.0000 45.4545 0.0000
# 6 0.0000 0.0000 0.0000 2.6343 0.0000 28.1000
#
#
#
# Elastic Compliance Matrix: (Units=1/GPa)
#
#
# Indices 1 2 3 4 5 6 
#
# 1 0.012753 -0.002542 -0.003141 0.000000 0.000264 0.000000
# 2 -0.002542 0.013779 -0.001559 0.000000 -0.003006 0.000000
# 3 -0.003141 -0.001559 0.007541 0.000000 0.001406 0.000000
# 4 0.000000 0.000000 0.000000 0.039655 0.000000 -0.003718
# 5 0.000264 -0.003006 0.001406 0.000000 0.022814 0.000000
# 6 0.000000 0.000000 0.000000 -0.003718 0.000000 0.035936
#
#
# Mechanical properties :
#
#
# Convention : Reuss Voigt Hill
#
# Bulk Modulus (GPa) = 51.04911 56.90195 53.97553
# Shear Modulus (GPa) = 32.57507 35.93904 34.25705
#
# Velocity S-wave (km/s) = 3.67281 3.85779 3.76644
# Velocity P-wave (km/s) = 6.25506 6.58839 6.42389
#
# Compressibility (1/GPa) = 0.01958898
#
# Stress axis : x y z
#
# Youngs Moduli (GPa) = 78.41466 72.57376 132.60142
#
# Poissons Ratio (x) = 0.18446 0.41656
# Poissons Ratio (y) = 0.19930 0.20673
# Poissons Ratio (z) = 0.24633 0.11314
#
# Static dielectric constant tensor:
#      x y z
#    x 4.507590 0.000000 -0.098430 
#    y 0.000000 3.994880 0.000000 
#    z -0.098430 0.000000 5.351110 
# 
# 
# High freq. dielectric constant tensor:
#      x y z
#    x 1.971070 0.000000 -0.003430 
#    y 0.000000 1.935030 0.000000 
#    z -0.003430 0.000000 1.992360 
# 
# From -- ./inp_files/14416.got.cif
#   From: 2010.03.12/outbox.cif.g09.slc.cpg/sg4_8_cif.got.tgz:14416.got - 2010.03.31 09:31:35.
