data_PCOD8047299
_publ_section_title
;
Structure prediction by ZEFSAII (Michael W. Deem and Ramdas Pophale) SiO2 
 PCOD8047299
Probable space group: P 21
;
_chemical_formula_sum "Si O2"
_cell_formula_units_Z 16
_cell_length_a 8.640105
_cell_length_b 14.422544
_cell_length_c 6.554970
_cell_angle_alpha 90.000000
_cell_angle_beta 124.291045
_cell_angle_gamma 90.000000
_cell_volume 674.853683
_symmetry_space_group_name_H-M "P 21"
_symmetry_group_IT_number 4
_symmetry_cell_setting 'monoclinic'
loop_
_space_group_symop_operation_xyz
x,y,z
-x,1/2+y,-z
loop_
_atom_site_type_symbol
_atom_site_label
_atom_site_fract_x
_atom_site_fract_y
_atom_site_fract_z
Si Si1 0.151484 0.480760 0.006847
Si Si2 0.363596 0.487514 0.783504
Si Si3 0.181327 0.942131 0.541019
Si Si4 0.314525 0.106731 0.864852
Si Si5 0.352985 0.279593 0.633812
Si Si6 0.104892 0.606892 0.320952
Si Si7 0.011892 0.841784 0.805119
Si Si8 0.702514 0.282498 0.642929
O O1 0.145772 0.579038 0.116939
O O2 0.130921 0.403223 0.165320
O O3 0.339896 0.478535 0.011853
O O4 0.994732 0.466313 0.723683
O O5 0.406018 0.384350 0.737169
O O6 0.180202 0.530280 0.537019
O O7 0.536940 0.557896 0.870194
O O8 0.120446 0.900788 0.715238
O O9 0.311829 0.872948 0.508971
O O10 0.294504 0.036830 0.658823
O O11 0.386569 0.207145 0.843182
O O12 0.117151 0.118748 0.829873
O O13 0.493421 0.253904 0.554325
O O14 0.133370 0.269300 0.407047
O O15 0.208159 0.704025 0.435953
O O16 0.166692 0.793359 0.059862
#
# Coordination Sequence:
#
# PCOD8047299 Si02
#       8
#     2   2   2   2   2   2   2   2
#     4  11  21  44  75 100 141 196 227 299 361 416
#     4  12  27  48  73 104 157 185 240 310 357 435
#     4  11  23  48  72 105 145 191 241 303 359 425
#     4  12  27  45  76 104 146 197 238 302 368 428
#     4  12  26  47  71 111 143 189 245 299 363 434
#     4  12  26  49  70 112 146 193 249 292 361 442
#     4  11  23  48  72 103 145 190 240 295 364 430
#     4  11  29  43  75 105 149 193 242 302 361 436
#
# _framework density 23.708843999999999
#
# number of rings (size 3 to 8) (size 9 to 14) (size 15 to 20)
#    0.000    0.500    5.000    2.250    7.000    6.000 
#    0.000    0.000    0.000    0.000    0.000    0.000 
#    0.000    0.000    0.000    0.000    0.000    0.000 
#
# Total GULP energy -198369.812974 kJ/mol
# GULP energy per Si atom -12398.113311 kJ/mol
# Density = 2.365488 g / cm^3
# Si number density = 23.708844 Si / 1000 Ang^3
#
#
#
# Elastic Constant Matrix: (Units=GPa)
#
#
# Indices 1 2 3 4 5 6 
#
# 1 108.4963 16.1398 20.6266 0.0000 0.4674 0.0000
# 2 16.1398 105.3194 25.9853 0.0000 1.8776 0.0000
# 3 20.6266 25.9853 63.8031 0.0000 -16.8946 0.0000
# 4 0.0000 0.0000 0.0000 37.2509 0.0000 -2.0680
# 5 0.4674 1.8776 -16.8946 0.0000 29.0673 0.0000
# 6 0.0000 0.0000 0.0000 -2.0680 0.0000 37.6673
#
#
#
# Elastic Compliance Matrix: (Units=1/GPa)
#
#
# Indices 1 2 3 4 5 6 
#
# 1 0.009995 -0.000614 -0.003561 0.000000 -0.002191 0.000000
# 2 -0.000614 0.010953 -0.005256 0.000000 -0.003752 0.000000
# 3 -0.003561 -0.005256 0.022539 0.000000 0.013497 0.000000
# 4 0.000000 0.000000 0.000000 0.026927 0.000000 0.001478
# 5 -0.002191 -0.003752 0.013497 0.000000 0.042525 0.000000
# 6 0.000000 0.000000 0.000000 0.001478 0.000000 0.026629
#
#
# Mechanical properties :
#
#
# Convention : Reuss Voigt Hill
#
# Bulk Modulus (GPa) = 40.61035 44.79136 42.70085
# Shear Modulus (GPa) = 30.00506 35.12156 32.56331
#
# Velocity S-wave (km/s) = 3.56134 3.85303 3.71005
# Velocity P-wave (km/s) = 5.83753 6.22316 6.03343
#
# Compressibility (1/GPa) = 0.02462427
#
# Stress axis : x y z
#
# Youngs Moduli (GPa) = 100.05288 91.30173 44.36745
#
# Poissons Ratio (x) = 0.05605 0.15800
# Poissons Ratio (y) = 0.06143 0.23319
# Poissons Ratio (z) = 0.35631 0.47987
#
# Static dielectric constant tensor:
#      x y z
#    x 4.446910 0.000000 -0.118250 
#    y 0.000000 4.326340 0.000000 
#    z -0.118250 0.000000 4.431140 
# 
# 
# High freq. dielectric constant tensor:
#      x y z
#    x 1.945400 0.000000 0.001590 
#    y 0.000000 1.939540 0.000000 
#    z 0.001590 0.000000 1.935970 
# 
# From -- ./inp_files/1836.got.cif
#   From: 2010.03.12/outbox.cif.g09.slc.cpg/sg4_1_cif.got.tgz:1836.got - 2010.03.31 09:31:35.
