data_PCOD8047747
_publ_section_title
;
Structure prediction by ZEFSAII (Michael W. Deem and Ramdas Pophale) SiO2 
 PCOD8047747
Probable space group: P 21
;
_chemical_formula_sum "Si O2"
_cell_formula_units_Z 16
_cell_length_a 18.111476
_cell_length_b 8.895646
_cell_length_c 8.728897
_cell_angle_alpha 90.000000
_cell_angle_beta 150.557532
_cell_angle_gamma 90.000000
_cell_volume 691.286137
_symmetry_space_group_name_H-M "P 21"
_symmetry_group_IT_number 4
_symmetry_cell_setting 'monoclinic'
loop_
_space_group_symop_operation_xyz
x,y,z
-x,1/2+y,-z
loop_
_atom_site_type_symbol
_atom_site_label
_atom_site_fract_x
_atom_site_fract_y
_atom_site_fract_z
Si Si1 0.195395 0.093730 0.229123
Si Si2 0.345302 0.394979 0.579880
Si Si3 0.332633 0.554109 0.247014
Si Si4 0.436256 0.266135 0.251586
Si Si5 0.842040 0.107318 0.580938
Si Si6 0.618699 0.350975 0.284030
Si Si7 0.812237 0.552186 0.126495
Si Si8 0.891303 0.217272 0.341860
O O1 0.264283 0.258427 0.349737
O O2 0.290194 0.005476 0.528403
O O3 0.017442 0.100156 0.945737
O O4 0.228697 0.016721 0.124691
O O5 0.350772 0.522863 0.459931
O O6 0.238382 0.448650 0.527024
O O7 0.514123 0.361021 0.943686
O O8 0.363308 0.409536 0.199566
O O9 0.444044 0.694281 0.412997
O O10 0.171296 0.625694 0.916991
O O11 0.506356 0.314582 0.218432
O O12 0.320306 0.127454 0.015128
O O13 0.750495 0.229659 0.511887
O O14 0.817700 0.143966 0.359319
O O15 0.865083 0.396371 0.297173
O O16 0.933172 0.686090 0.341132
#
# Coordination Sequence:
#
# PCOD8047747 Si02
#       8
#     2   2   2   2   2   2   2   2
#     4  11  25  49  73 105 149 193 253 307 371 456
#     4  12  26  46  69 108 148 191 251 301 381 450
#     4  12  25  44  71 104 143 194 243 313 368 449
#     4  12  25  44  72 105 146 191 246 309 379 443
#     4  11  26  47  73 105 144 196 243 315 379 443
#     4  12  26  46  71 109 145 193 246 307 380 449
#     4  11  25  47  75 112 140 200 250 313 378 446
#     4  11  26  47  76 104 149 190 258 311 374 458
#
# _framework density 23.145265999999999
#
# number of rings (size 3 to 8) (size 9 to 14) (size 15 to 20)
#    0.000    0.500    2.500    5.250    5.250    1.000 
#    2.250    0.000    0.000    0.000    0.000    0.000 
#    0.000    0.000    0.000    0.000    0.000    0.000 
#
# Total GULP energy -198382.470254 kJ/mol
# GULP energy per Si atom -12398.904391 kJ/mol
# Density = 2.309259 g / cm^3
# Si number density = 23.145266 Si / 1000 Ang^3
#
#
#
# Elastic Constant Matrix: (Units=GPa)
#
#
# Indices 1 2 3 4 5 6 
#
# 1 95.2289 18.2194 33.9235 0.0000 7.4606 0.0000
# 2 18.2194 89.2654 36.7887 0.0000 -2.6382 0.0000
# 3 33.9235 36.7887 109.4654 0.0000 4.3092 0.0000
# 4 0.0000 0.0000 0.0000 52.1004 0.0000 2.2852
# 5 7.4606 -2.6382 4.3092 0.0000 29.3393 0.0000
# 6 0.0000 0.0000 0.0000 2.2852 0.0000 37.3716
#
#
#
# Elastic Compliance Matrix: (Units=1/GPa)
#
#
# Indices 1 2 3 4 5 6 
#
# 1 0.012098 -0.001217 -0.003234 0.000000 -0.002711 0.000000
# 2 -0.001217 0.013224 -0.004150 0.000000 0.002108 0.000000
# 3 -0.003234 -0.004150 0.011581 0.000000 -0.001252 0.000000
# 4 0.000000 0.000000 0.000000 0.019245 0.000000 -0.001177
# 5 -0.002711 0.002108 -0.001252 0.000000 0.035147 0.000000
# 6 0.000000 0.000000 0.000000 -0.001177 0.000000 0.026830
#
#
# Mechanical properties :
#
#
# Convention : Reuss Voigt Hill
#
# Bulk Modulus (GPa) = 50.75540 52.42475 51.59008
# Shear Modulus (GPa) = 35.23770 37.43080 36.33425
#
# Velocity S-wave (km/s) = 3.90610 4.02582 3.96641
# Velocity P-wave (km/s) = 6.50540 6.65651 6.58139
#
# Compressibility (1/GPa) = 0.01970234
#
# Stress axis : x y z
#
# Youngs Moduli (GPa) = 82.65771 75.62284 86.34533
#
# Poissons Ratio (x) = 0.09201 0.27920
# Poissons Ratio (y) = 0.10057 0.35833
# Poissons Ratio (z) = 0.26728 0.31384
#
# Static dielectric constant tensor:
#      x y z
#    x 4.169020 0.000000 0.109140 
#    y 0.000000 4.212790 0.000000 
#    z 0.109140 0.000000 4.218340 
# 
# 
# High freq. dielectric constant tensor:
#      x y z
#    x 1.907380 0.000000 0.007270 
#    y 0.000000 1.929910 0.000000 
#    z 0.007270 0.000000 1.925920 
# 
# From -- ./inp_files/5606.got.cif
#   From: 2010.03.12/outbox.cif.g09.slc.cpg/sg4_3_cif.got.tgz:5606.got - 2010.03.31 09:31:35.
