data_PCOD8047566
_publ_section_title
;
Structure prediction by ZEFSAII (Michael W. Deem and Ramdas Pophale) SiO2 
 PCOD8047566
Probable space group: P 21
;
_chemical_formula_sum "Si O2"
_cell_formula_units_Z 16
_cell_length_a 9.337426
_cell_length_b 5.220425
_cell_length_c 22.051933
_cell_angle_alpha 90.000000
_cell_angle_beta 141.008657
_cell_angle_gamma 90.000000
_cell_volume 676.348384
_symmetry_space_group_name_H-M "P 21"
_symmetry_group_IT_number 4
_symmetry_cell_setting 'monoclinic'
loop_
_space_group_symop_operation_xyz
x,y,z
-x,1/2+y,-z
loop_
_atom_site_type_symbol
_atom_site_label
_atom_site_fract_x
_atom_site_fract_y
_atom_site_fract_z
Si Si1 0.388477 0.407090 0.689956
Si Si2 0.567574 0.425045 0.368936
Si Si3 0.923247 0.950033 0.826943
Si Si4 0.235484 0.287590 0.002213
Si Si5 0.129286 0.332979 0.726290
Si Si6 0.259824 0.822555 0.839854
Si Si7 0.183788 0.071238 0.108465
Si Si8 0.369298 0.908471 0.473946
O O1 0.368537 0.686827 0.653239
O O2 0.209142 0.367783 0.684021
O O3 0.648072 0.372112 0.801114
O O4 0.325677 0.185788 0.621897
O O5 0.675514 0.368455 0.469523
O O6 0.297069 0.487508 0.288078
O O7 0.105699 0.783734 0.848930
O O8 0.821372 0.831937 0.854890
O O9 0.072529 0.197894 0.893582
O O10 0.476517 0.380911 0.054888
O O11 0.285339 0.091677 0.074024
O O12 0.083225 0.503197 0.984754
O O13 0.253905 0.549923 0.805711
O O14 0.859508 0.372442 0.639567
O O15 0.178974 0.051850 0.769588
O O16 0.547125 0.696904 0.509792
#
# Coordination Sequence:
#
# PCOD8047566 Si02
#       8
#     2   2   2   2   2   2   2   2
#     4  11  24  44  70 104 142 182 234 290 357 412
#     4  11  24  44  73 104 138 183 235 294 351 422
#     4  11  26  43  65 100 141 182 241 296 348 423
#     4  12  25  42  70  97 143 195 241 290 352 420
#     4  12  27  49  72 104 145 185 233 300 358 424
#     4  12  30  44  72 103 149 190 238 294 361 415
#     4  11  24  42  68  98 139 193 242 290 349 421
#     4  12  26  48  78 106 141 186 236 288 366 435
#
# _framework density 23.656448000000001
#
# number of rings (size 3 to 8) (size 9 to 14) (size 15 to 20)
#    0.000    0.500    3.750    3.750    8.750    2.000 
#    0.000    0.000    0.000    0.000    0.000    0.000 
#    0.000    0.000    0.000    0.000    0.000    0.000 
#
# Total GULP energy -198340.543274 kJ/mol
# GULP energy per Si atom -12396.283955 kJ/mol
# Density = 2.360261 g / cm^3
# Si number density = 23.656448 Si / 1000 Ang^3
#
#
#
# Elastic Constant Matrix: (Units=GPa)
#
#
# Indices 1 2 3 4 5 6 
#
# 1 79.0765 6.5999 -10.0662 0.0000 5.3108 0.0000
# 2 6.5999 91.3150 5.2698 0.0000 -2.7387 0.0000
# 3 -10.0662 5.2698 61.8429 0.0000 12.4223 0.0000
# 4 0.0000 0.0000 0.0000 30.6623 0.0000 -4.7471
# 5 5.3108 -2.7387 12.4223 0.0000 38.0508 0.0000
# 6 0.0000 0.0000 0.0000 -4.7471 0.0000 32.0509
#
#
#
# Elastic Compliance Matrix: (Units=1/GPa)
#
#
# Indices 1 2 3 4 5 6 
#
# 1 0.013302 -0.001212 0.002846 0.000000 -0.002873 0.000000
# 2 -0.001212 0.011165 -0.001438 0.000000 0.001442 0.000000
# 3 0.002846 -0.001438 0.018039 0.000000 -0.006390 0.000000
# 4 0.000000 0.000000 0.000000 0.033379 0.000000 0.004944
# 5 -0.002873 0.001442 -0.006390 0.000000 0.028872 0.000000
# 6 0.000000 0.000000 0.000000 0.004944 0.000000 0.031933
#
#
# Mechanical properties :
#
#
# Convention : Reuss Voigt Hill
#
# Bulk Modulus (GPa) = 23.31151 26.20459 24.75805
# Shear Modulus (GPa) = 33.20104 35.51485 34.35795
#
# Velocity S-wave (km/s) = 3.75035 3.87883 3.81513
# Velocity P-wave (km/s) = 5.35062 5.58226 5.46767
#
# Compressibility (1/GPa) = 0.04289726
#
# Stress axis : x y z
#
# Youngs Moduli (GPa) = 75.17504 89.56600 55.43461
#
# Poissons Ratio (x) = 0.10854 -0.15774
# Poissons Ratio (y) = 0.09110 0.07973
# Poissons Ratio (z) = -0.21391 0.12883
#
# Static dielectric constant tensor:
#      x y z
#    x 4.398730 0.000000 0.047800 
#    y 0.000000 4.042250 0.000000 
#    z 0.047800 0.000000 4.436670 
# 
# 
# High freq. dielectric constant tensor:
#      x y z
#    x 1.944980 0.000000 0.001250 
#    y 0.000000 1.931130 0.000000 
#    z 0.001250 0.000000 1.939960 
# 
# From -- ./inp_files/8841.got.cif
#   From: 2010.03.12/outbox.cif.g09.slc.cpg/sg4_5_cif.got.tgz:8841.got - 2010.03.31 09:31:35.
