data_PCOD8047201
_publ_section_title
;
Structure prediction by ZEFSAII (Michael W. Deem and Ramdas Pophale) SiO2 
 PCOD8047201
Probable space group: P 21
;
_chemical_formula_sum "Si O2"
_cell_formula_units_Z 14
_cell_length_a 9.375157
_cell_length_b 8.978587
_cell_length_c 12.913719
_cell_angle_alpha 90.000000
_cell_angle_beta 34.747161
_cell_angle_gamma 90.000000
_cell_volume 619.554112
_symmetry_space_group_name_H-M "P 21"
_symmetry_group_IT_number 4
_symmetry_cell_setting 'monoclinic'
loop_
_space_group_symop_operation_xyz
x,y,z
-x,1/2+y,-z
loop_
_atom_site_type_symbol
_atom_site_label
_atom_site_fract_x
_atom_site_fract_y
_atom_site_fract_z
Si Si1 0.288196 0.313470 0.824019
Si Si2 0.798020 0.867536 0.890302
Si Si3 0.908525 0.356582 0.875802
Si Si4 0.487163 0.536374 0.225783
Si Si5 0.670985 0.494066 0.468340
Si Si6 0.428921 0.637967 0.050518
Si Si7 0.359516 0.349632 0.483493
O O1 0.443804 0.160152 0.730987
O O2 0.482281 0.439153 0.670317
O O3 0.054940 0.288541 0.887082
O O4 0.170840 0.351725 0.005368
O O5 0.045638 0.932385 0.686501
O O6 0.559426 0.976730 0.011276
O O7 0.704344 0.713762 0.892654
O O8 0.764425 0.226187 0.904482
O O9 0.108845 0.426481 0.676832
O O10 0.735506 0.489843 0.015517
O O11 0.319141 0.610340 0.234235
O O12 0.373957 0.392287 0.352719
O O13 0.590532 0.425462 0.405668
O O14 0.657378 0.673151 0.483122
#
# Coordination Sequence:
#
# PCOD8047201 Si02
#       7
#     2   2   2   2   2   2   2
#     4  10  26  42  72 104 134 178 241 281 354 405
#     4  11  24  48  67 100 143 183 230 289 343 420
#     4  11  23  43  70  98 135 181 226 290 337 408
#     4  11  25  45  66 104 135 188 232 282 348 423
#     4  11  24  43  71 106 140 180 230 302 337 410
#     4  11  24  45  68  96 140 183 227 280 351 410
#     4  11  24  42  72 102 141 177 238 286 354 404
#
# _framework density 22.596896999999998
#
# number of rings (size 3 to 8) (size 9 to 14) (size 15 to 20)
#    0.000    1.143    2.857    2.571    4.000    8.000 
#    5.143    2.857    0.000    0.000    0.000    0.000 
#    0.000    0.000    0.000    0.000    0.000    0.000 
#
# Total GULP energy -173477.047142 kJ/mol
# GULP energy per Si atom -12391.217653 kJ/mol
# Density = 2.254547 g / cm^3
# Si number density = 22.596897 Si / 1000 Ang^3
#
#
#
# Elastic Constant Matrix: (Units=GPa)
#
#
# Indices 1 2 3 4 5 6 
#
# 1 124.6184 46.9495 36.9004 0.0000 15.7477 0.0000
# 2 46.9495 106.7512 35.2172 0.0000 6.3110 0.0000
# 3 36.9004 35.2172 89.9718 0.0000 -1.1481 0.0000
# 4 0.0000 0.0000 0.0000 31.9940 0.0000 10.1739
# 5 15.7477 6.3110 -1.1481 0.0000 18.0903 0.0000
# 6 0.0000 0.0000 0.0000 10.1739 0.0000 44.2386
#
#
#
# Elastic Compliance Matrix: (Units=1/GPa)
#
#
# Indices 1 2 3 4 5 6 
#
# 1 0.011468 -0.003353 -0.003506 0.000000 -0.009036 0.000000
# 2 -0.003353 0.012037 -0.003356 0.000000 -0.001494 0.000000
# 3 -0.003506 -0.003356 0.013931 0.000000 0.005107 0.000000
# 4 0.000000 0.000000 0.000000 0.033722 0.000000 -0.007755
# 5 -0.009036 -0.001494 0.005107 0.000000 0.063989 0.000000
# 6 0.000000 0.000000 0.000000 -0.007755 0.000000 0.024388
#
#
# Mechanical properties :
#
#
# Convention : Reuss Voigt Hill
#
# Bulk Modulus (GPa) = 58.79906 62.16396 60.48151
# Shear Modulus (GPa) = 26.93470 32.34952 29.64211
#
# Velocity S-wave (km/s) = 3.45623 3.78774 3.62578
# Velocity P-wave (km/s) = 6.48110 6.83367 6.65972
#
# Compressibility (1/GPa) = 0.01700707
#
# Stress axis : x y z
#
# Youngs Moduli (GPa) = 87.20222 83.07396 71.78061
#
# Poissons Ratio (x) = 0.27851 0.25168
# Poissons Ratio (y) = 0.29236 0.24088
# Poissons Ratio (z) = 0.30575 0.27878
#
# Static dielectric constant tensor:
#      x y z
#    x 4.311230 0.000000 0.035260 
#    y 0.000000 4.191000 0.000000 
#    z 0.035260 0.000000 3.910540 
# 
# 
# High freq. dielectric constant tensor:
#      x y z
#    x 1.904580 0.000000 0.007240 
#    y 0.000000 1.903170 0.000000 
#    z 0.007240 0.000000 1.868800 
# 
# From -- ./inp_files/11003.got.cif
#   From: 2010.03.12/outbox.cif.g09.slc.cpg/sg4_6_cif.got.tgz:11003.got - 2010.03.31 09:31:35.
