data_PCOD8047889
_publ_section_title
;
Structure prediction by ZEFSAII (Michael W. Deem and Ramdas Pophale) SiO2 
 PCOD8047889
Probable space group: P 21
;
_chemical_formula_sum "Si O2"
_cell_formula_units_Z 14
_cell_length_a 16.305924
_cell_length_b 7.742935
_cell_length_c 10.823260
_cell_angle_alpha 90.000000
_cell_angle_beta 154.677222
_cell_angle_gamma 90.000000
_cell_volume 584.474924
_symmetry_space_group_name_H-M "P 21"
_symmetry_group_IT_number 4
_symmetry_cell_setting 'monoclinic'
loop_
_space_group_symop_operation_xyz
x,y,z
-x,1/2+y,-z
loop_
_atom_site_type_symbol
_atom_site_label
_atom_site_fract_x
_atom_site_fract_y
_atom_site_fract_z
Si Si1 0.717559 0.421240 0.214280
Si Si2 0.441551 0.569100 0.046688
Si Si3 0.244277 0.188225 0.344775
Si Si4 0.728402 0.534700 0.962324
Si Si5 0.160565 0.407898 0.835851
Si Si6 0.896920 0.348438 0.984936
Si Si7 0.330298 0.523488 0.309794
O O1 0.592449 0.506426 0.150856
O O2 0.941572 0.472673 0.525191
O O3 0.688601 0.217688 0.190147
O O4 0.641658 0.477476 0.975686
O O5 0.556952 0.636608 0.322585
O O6 0.286811 0.426061 0.881895
O O7 0.273172 0.335942 0.282150
O O8 0.139782 0.019526 0.146880
O O9 0.112417 0.278989 0.268605
O O10 0.867207 0.391562 0.090007
O O11 0.557393 0.554053 0.629250
O O12 0.846549 0.709669 0.135136
O O13 0.264148 0.527915 0.077780
O O14 0.762746 0.191796 0.751926
#
# Coordination Sequence:
#
# PCOD8047889 Si02
#       7
#     2   2   2   2   2   2   2
#     4  12  28  49  76 109 155 205 256 313 384 459
#     4  12  27  50  75 109 156 200 261 317 380 457
#     4  12  25  47  73 116 151 195 253 318 377 455
#     4  12  25  48  74 109 149 206 251 316 388 450
#     4  12  27  49  77 111 152 202 259 317 383 453
#     4  12  26  43  76 113 154 195 253 322 381 454
#     4  12  24  48  75 109 153 191 255 315 381 450
#
# _framework density 23.953122
#
# number of rings (size 3 to 8) (size 9 to 14) (size 15 to 20)
#    0.000    0.000    4.286    6.000    0.000    3.429 
#    2.571    0.000    0.000    0.000    0.000    0.000 
#    0.000    0.000    0.000    0.000    0.000    0.000 
#
# Total GULP energy -173606.618883 kJ/mol
# GULP energy per Si atom -12400.472777 kJ/mol
# Density = 2.389860 g / cm^3
# Si number density = 23.953122 Si / 1000 Ang^3
#
#
#
# Elastic Constant Matrix: (Units=GPa)
#
#
# Indices 1 2 3 4 5 6 
#
# 1 136.2408 40.9003 51.5045 0.0000 20.7258 0.0000
# 2 40.9003 131.4896 26.1112 0.0000 6.3035 0.0000
# 3 51.5045 26.1112 110.0002 0.0000 16.1866 0.0000
# 4 0.0000 0.0000 0.0000 35.6662 0.0000 6.8006
# 5 20.7258 6.3035 16.1866 0.0000 42.8772 0.0000
# 6 0.0000 0.0000 0.0000 6.8006 0.0000 45.0924
#
#
#
# Elastic Compliance Matrix: (Units=1/GPa)
#
#
# Indices 1 2 3 4 5 6 
#
# 1 0.009838 -0.002191 -0.003636 0.000000 -0.003061 0.000000
# 2 -0.002191 0.008479 -0.001016 0.000000 0.000196 0.000000
# 3 -0.003636 -0.001016 0.011386 0.000000 -0.002392 0.000000
# 4 0.000000 0.000000 0.000000 0.028868 0.000000 -0.004354
# 5 -0.003061 0.000196 -0.002392 0.000000 0.025676 0.000000
# 6 0.000000 0.000000 0.000000 -0.004354 0.000000 0.022833
#
#
# Mechanical properties :
#
#
# Convention : Reuss Voigt Hill
#
# Bulk Modulus (GPa) = 62.43030 68.30697 65.36863
# Shear Modulus (GPa) = 39.64952 42.00812 40.82882
#
# Velocity S-wave (km/s) = 4.07295 4.19234 4.13307
# Velocity P-wave (km/s) = 6.94540 7.21201 7.07996
#
# Compressibility (1/GPa) = 0.01601786
#
# Stress axis : x y z
#
# Youngs Moduli (GPa) = 101.64792 117.93750 87.82548
#
# Poissons Ratio (x) = 0.25845 0.31931
# Poissons Ratio (y) = 0.22275 0.08919
# Poissons Ratio (z) = 0.36957 0.11977
#
# Static dielectric constant tensor:
#      x y z
#    x 4.397470 0.000000 0.128700 
#    y 0.000000 4.404490 0.000000 
#    z 0.128700 0.000000 4.169220 
# 
# 
# High freq. dielectric constant tensor:
#      x y z
#    x 1.956580 0.000000 0.013920 
#    y 0.000000 1.967500 0.000000 
#    z 0.013920 0.000000 1.941980 
# 
# From -- ./inp_files/12931.got.cif
#   From: 2010.03.12/outbox.cif.g09.slc.cpg/sg4_7_cif.got.tgz:12931.got - 2010.03.31 09:31:35.
