data_PCOD8047878
_publ_section_title
;
Structure prediction by ZEFSAII (Michael W. Deem and Ramdas Pophale) SiO2 
 PCOD8047878
Probable space group: P 21
;
_chemical_formula_sum "Si O2"
_cell_formula_units_Z 16
_cell_length_a 8.307124
_cell_length_b 10.826239
_cell_length_c 8.821049
_cell_angle_alpha 90.000000
_cell_angle_beta 118.091164
_cell_angle_gamma 90.000000
_cell_volume 699.866720
_symmetry_space_group_name_H-M "P 21"
_symmetry_group_IT_number 4
_symmetry_cell_setting 'monoclinic'
loop_
_space_group_symop_operation_xyz
x,y,z
-x,1/2+y,-z
loop_
_atom_site_type_symbol
_atom_site_label
_atom_site_fract_x
_atom_site_fract_y
_atom_site_fract_z
Si Si1 0.443733 0.563910 0.887415
Si Si2 0.709929 0.139182 0.870289
Si Si3 0.612313 0.823968 0.327575
Si Si4 0.966407 0.813885 0.999983
Si Si5 0.160357 0.988619 0.870290
Si Si6 0.048149 0.229077 0.682459
Si Si7 0.715261 0.303837 0.327604
Si Si8 0.365677 0.398717 0.317567
O O1 0.378895 0.443498 0.772429
O O2 0.393500 0.684271 0.772326
O O3 0.343964 0.563395 0.004551
O O4 0.660652 0.564456 0.004509
O O5 0.579418 0.255336 0.779463
O O6 0.698672 0.041089 0.728140
O O7 0.914698 0.190972 0.980392
O O8 0.776097 0.735820 0.347964
O O9 0.642177 0.862306 0.512155
O O10 0.769374 0.805122 0.831567
O O11 0.937807 0.822652 0.168405
O O12 0.065657 0.936801 0.980344
O O13 0.029453 0.086696 0.728108
O O14 0.200194 0.872484 0.779545
O O15 0.870095 0.265545 0.512148
O O16 0.571885 0.391951 0.348080
#
# Coordination Sequence:
#
# PCOD8047878 Si02
#       8
#     2   2   2   2   2   2   2   2
#     4  12  24  46  80 104 148 200 246 314 376 444
#     4  12  25  52  77 109 152 202 248 314 378 456
#     4  12  27  47  77 108 152 199 254 305 386 442
#     4  12  26  46  76 108 152 194 254 300 382 446
#     4  12  25  52  77 109 152 202 248 314 378 456
#     4  12  28  48  73 114 153 200 250 318 366 457
#     4  12  27  47  77 108 152 199 254 305 386 442
#     4  12  28  48  73 114 153 200 250 318 366 457
#
# _framework density 22.861495000000001
#
# number of rings (size 3 to 8) (size 9 to 14) (size 15 to 20)
#    0.000    0.000    5.000    3.750    7.000    0.000 
#    0.000    2.500    0.000    0.000    0.000    0.000 
#    0.000    0.000    0.000    0.000    0.000    0.000 
#
# Total GULP energy -198487.619946 kJ/mol
# GULP energy per Si atom -12405.476247 kJ/mol
# Density = 2.280946 g / cm^3
# Si number density = 22.861495 Si / 1000 Ang^3
#
#
#
# Elastic Constant Matrix: (Units=GPa)
#
#
# Indices 1 2 3 4 5 6 
#
# 1 78.9456 7.5732 24.7508 0.0000 -0.0116 0.0000
# 2 7.5732 122.8320 40.1248 0.0000 -0.0168 0.0000
# 3 24.7508 40.1248 141.0248 0.0000 -0.0301 0.0000
# 4 0.0000 0.0000 0.0000 46.5974 0.0000 -0.0048
# 5 -0.0116 -0.0168 -0.0301 0.0000 47.6751 0.0000
# 6 0.0000 0.0000 0.0000 -0.0048 0.0000 46.8425
#
#
#
# Elastic Compliance Matrix: (Units=1/GPa)
#
#
# Indices 1 2 3 4 5 6 
#
# 1 0.013405 -0.000064 -0.002334 0.000000 0.000002 0.000000
# 2 -0.000064 0.008976 -0.002543 0.000000 0.000002 0.000000
# 3 -0.002334 -0.002543 0.008224 0.000000 0.000004 0.000000
# 4 0.000000 0.000000 0.000000 0.021460 0.000000 0.000002
# 5 0.000002 0.000002 0.000004 0.000000 0.020975 0.000000
# 6 0.000000 0.000000 0.000000 0.000002 0.000000 0.021348
#
#
# Mechanical properties :
#
#
# Convention : Reuss Voigt Hill
#
# Bulk Modulus (GPa) = 48.25589 54.18891 51.22240
# Shear Modulus (GPa) = 44.97283 46.24656 45.60969
#
# Velocity S-wave (km/s) = 4.44011 4.50255 4.47144
# Velocity P-wave (km/s) = 6.88766 7.12637 7.00803
#
# Compressibility (1/GPa) = 0.02072286
#
# Stress axis : x y z
#
# Youngs Moduli (GPa) = 74.59911 111.41173 121.59391
#
# Poissons Ratio (x) = 0.00712 0.28386
# Poissons Ratio (y) = 0.00477 0.30916
# Poissons Ratio (z) = 0.17415 0.28327
#
# Static dielectric constant tensor:
#      x y z
#    x 4.434460 0.000000 0.000100 
#    y 0.000000 4.112740 0.000000 
#    z 0.000100 0.000000 4.202500 
# 
# 
# High freq. dielectric constant tensor:
#      x y z
#    x 1.925620 0.000000 0.000000 
#    y 0.000000 1.908380 0.000000 
#    z 0.000000 0.000000 1.904490 
# 
# From -- ./inp_files/6205.got.cif
#   From: 2010.03.12/outbox.cif.g09.slc.cpg/sg4_4_cif.got.tgz:6205.got - 2010.03.31 09:31:35.
