data_PCOD8047213
_publ_section_title
;
Structure prediction by ZEFSAII (Michael W. Deem and Ramdas Pophale) SiO2 
 PCOD8047213
Probable space group: P 21
;
_chemical_formula_sum "Si O2"
_cell_formula_units_Z 14
_cell_length_a 8.604618
_cell_length_b 7.825650
_cell_length_c 9.892703
_cell_angle_alpha 90.000000
_cell_angle_beta 61.624338
_cell_angle_gamma 90.000000
_cell_volume 586.105619
_symmetry_space_group_name_H-M "P 21"
_symmetry_group_IT_number 4
_symmetry_cell_setting 'monoclinic'
loop_
_space_group_symop_operation_xyz
x,y,z
-x,1/2+y,-z
loop_
_atom_site_type_symbol
_atom_site_label
_atom_site_fract_x
_atom_site_fract_y
_atom_site_fract_z
Si Si1 0.011319 0.650070 0.907294
Si Si2 0.773101 0.297223 0.405622
Si Si3 0.323073 0.088512 0.124705
Si Si4 0.133933 0.304810 0.777797
Si Si5 0.614944 0.968421 0.811320
Si Si6 0.454987 0.080363 0.607868
Si Si7 0.862611 0.280003 0.663171
O O1 0.097430 0.797567 0.777604
O O2 0.144443 0.492303 0.837181
O O3 0.817239 0.599867 0.937972
O O4 0.997416 0.698593 0.069710
O O5 0.639007 0.136258 0.464009
O O6 0.656450 0.467589 0.450411
O O7 0.895754 0.293372 0.488516
O O8 0.330603 0.270735 0.196697
O O9 0.268925 0.935761 0.247637
O O10 0.510605 0.035381 0.985543
O O11 0.335355 0.244732 0.691666
O O12 0.048657 0.301574 0.663235
O O13 0.493126 0.976182 0.728650
O O14 0.782445 0.094035 0.729268
#
# Coordination Sequence:
#
# PCOD8047213 Si02
#       7
#     2   2   2   2   2   2   2
#     4  11  25  44  69 106 140 183 235 294 352 421
#     4  11  26  47  67 101 144 184 232 287 366 416
#     4  11  23  43  70 106 138 183 236 293 350 416
#     4  11  24  45  75 102 138 180 245 286 349 424
#     4  11  23  42  71 101 140 179 237 290 349 416
#     4  11  25  46  70 104 137 188 235 291 356 425
#     4  10  26  45  68 102 139 189 230 289 354 426
#
# _framework density 23.886479999999999
#
# number of rings (size 3 to 8) (size 9 to 14) (size 15 to 20)
#    0.000    1.143    2.857    1.714    8.000    2.286 
#    5.143    0.000    0.000    0.000    0.000    0.000 
#    0.000    0.000    0.000    0.000    0.000    0.000 
#
# Total GULP energy -173629.837095 kJ/mol
# GULP energy per Si atom -12402.131221 kJ/mol
# Density = 2.383211 g / cm^3
# Si number density = 23.886480 Si / 1000 Ang^3
#
#
#
# Elastic Constant Matrix: (Units=GPa)
#
#
# Indices 1 2 3 4 5 6 
#
# 1 44.9854 4.7162 10.7244 0.0000 14.0607 0.0000
# 2 4.7162 103.3787 1.2631 0.0000 8.8008 0.0000
# 3 10.7244 1.2631 42.0588 0.0000 0.4864 0.0000
# 4 0.0000 0.0000 0.0000 28.8384 0.0000 2.2238
# 5 14.0607 8.8008 0.4864 0.0000 29.3065 0.0000
# 6 0.0000 0.0000 0.0000 2.2238 0.0000 39.7764
#
#
#
# Elastic Compliance Matrix: (Units=1/GPa)
#
#
# Indices 1 2 3 4 5 6 
#
# 1 0.028073 -0.000060 -0.007002 0.000000 -0.013335 0.000000
# 2 -0.000060 0.009930 -0.000249 0.000000 -0.002949 0.000000
# 3 -0.007002 -0.000249 0.025534 0.000000 0.003010 0.000000
# 4 0.000000 0.000000 0.000000 0.034826 0.000000 -0.001947
# 5 -0.013335 -0.002949 0.003010 0.000000 0.041355 0.000000
# 6 0.000000 0.000000 0.000000 -0.001947 0.000000 0.025249
#
#
# Mechanical properties :
#
#
# Convention : Reuss Voigt Hill
#
# Bulk Modulus (GPa) = 20.44346 24.87003 22.65675
# Shear Modulus (GPa) = 25.52385 31.16555 28.34470
#
# Velocity S-wave (km/s) = 3.27241 3.61603 3.44850
# Velocity P-wave (km/s) = 4.78073 5.27907 5.03607
#
# Compressibility (1/GPa) = 0.04891539
#
# Stress axis : x y z
#
# Youngs Moduli (GPa) = 35.62153 100.70488 39.16295
#
# Poissons Ratio (x) = 0.00604 0.27423
# Poissons Ratio (y) = 0.00214 0.00974
# Poissons Ratio (z) = 0.24943 0.02506
#
# Static dielectric constant tensor:
#      x y z
#    x 4.057000 0.000000 0.039690 
#    y 0.000000 4.436700 0.000000 
#    z 0.039690 0.000000 4.280240 
# 
# 
# High freq. dielectric constant tensor:
#      x y z
#    x 1.938800 0.000000 -0.000930 
#    y 0.000000 1.957520 0.000000 
#    z -0.000930 0.000000 1.947590 
# 
# From -- ./inp_files/5238.got.cif
#   From: 2010.03.12/outbox.cif.g09.slc.cpg/sg4_3_cif.got.tgz:5238.got - 2010.03.31 09:31:35.
