data_PCOD8047466
_publ_section_title
;
Structure prediction by ZEFSAII (Michael W. Deem and Ramdas Pophale) SiO2 
 PCOD8047466
Probable space group: P 21
;
_chemical_formula_sum "Si O2"
_cell_formula_units_Z 16
_cell_length_a 14.708207
_cell_length_b 5.252400
_cell_length_c 8.338602
_cell_angle_alpha 90.000000
_cell_angle_beta 79.269526
_cell_angle_gamma 90.000000
_cell_volume 632.920960
_symmetry_space_group_name_H-M "P 21"
_symmetry_group_IT_number 4
_symmetry_cell_setting 'monoclinic'
loop_
_space_group_symop_operation_xyz
x,y,z
-x,1/2+y,-z
loop_
_atom_site_type_symbol
_atom_site_label
_atom_site_fract_x
_atom_site_fract_y
_atom_site_fract_z
Si Si1 0.006363 0.673000 0.266404
Si Si2 0.538270 0.529056 0.059526
Si Si3 0.178351 0.147125 0.515223
Si Si4 0.532529 0.140622 0.574008
Si Si5 0.814195 0.900762 0.806638
Si Si6 0.907923 0.529308 0.984076
Si Si7 0.718874 0.256525 0.043887
Si Si8 0.727660 0.132998 0.393337
O O1 0.933683 0.654242 0.435754
O O2 0.105648 0.575718 0.300249
O O3 0.965798 0.515137 0.128011
O O4 0.025336 0.954362 0.187791
O O5 0.508888 0.645813 0.236754
O O6 0.649406 0.482969 0.014888
O O7 0.510961 0.752210 0.944298
O O8 0.210735 0.188375 0.319542
O O9 0.211311 0.379071 0.616548
O O10 0.216826 0.883273 0.570447
O O11 0.517815 0.421453 0.508870
O O12 0.642330 0.093170 0.542274
O O13 0.859161 0.793068 0.955499
O O14 0.721687 0.049909 0.896425
O O15 0.825315 0.329210 0.032176
O O16 0.686246 0.148978 0.226789
#
# Coordination Sequence:
#
# PCOD8047466 Si02
#       8
#     2   2   2   2   2   2   2   2
#     4  11  24  43  70 108 149 206 259 308 385 456
#     4  12  30  51  83 118 159 202 252 328 400 473
#     4  12  30  46  74 113 156 202 252 327 388 449
#     4  12  26  51  82 116 154 203 257 319 392 472
#     4  11  28  45  75 107 157 199 260 327 383 459
#     4  11  23  43  76 102 148 201 264 311 372 473
#     4  11  27  51  76 110 148 206 258 317 390 467
#     4  12  28  50  78 110 151 203 260 315 384 469
#
# _framework density 25.279619
#
# number of rings (size 3 to 8) (size 9 to 14) (size 15 to 20)
#    0.000    0.500    3.750    2.250   12.250    0.000 
#    0.000    0.000    0.000    0.000    0.000    0.000 
#    0.000    0.000    0.000    0.000    0.000    0.000 
#
# Total GULP energy -198352.243936 kJ/mol
# GULP energy per Si atom -12397.015246 kJ/mol
# Density = 2.522208 g / cm^3
# Si number density = 25.279619 Si / 1000 Ang^3
#
#
#
# Elastic Constant Matrix: (Units=GPa)
#
#
# Indices 1 2 3 4 5 6 
#
# 1 57.5262 8.3121 2.2972 0.0000 -8.2216 0.0000
# 2 8.3121 82.8308 -5.7949 0.0000 0.4400 0.0000
# 3 2.2972 -5.7949 97.3398 0.0000 -7.2877 0.0000
# 4 0.0000 0.0000 0.0000 2.6294 0.0000 -20.4245
# 5 -8.2216 0.4400 -7.2877 0.0000 41.2378 0.0000
# 6 0.0000 0.0000 0.0000 -20.4245 0.0000 25.6419
#
#
#
# Elastic Compliance Matrix: (Units=1/GPa)
#
#
# Indices 1 2 3 4 5 6 
#
# 1 0.018177 -0.001862 -0.000271 0.000000 0.003596 0.000000
# 2 -0.001862 0.012314 0.000749 0.000000 -0.000370 0.000000
# 3 -0.000271 0.000749 0.010458 0.000000 0.001786 0.000000
# 4 0.000000 0.000000 0.000000 -0.073317 0.000000 -0.058399
# 5 0.003596 -0.000370 0.001786 0.000000 0.025286 0.000000
# 6 0.000000 0.000000 0.000000 -0.058399 0.000000 -0.007518
#
#
# Mechanical properties :
#
#
# Convention : Reuss Voigt Hill
#
# Bulk Modulus (GPa) = 26.19005 27.48063 26.83534
# Shear Modulus (GPa) = 5591.91188 29.42731 2810.66960
#
# Velocity S-wave (km/s) = 47.08318 3.41555 33.38032
# Velocity P-wave (km/s) = 54.46238 5.14285 38.68203
#
# Compressibility (1/GPa) = 0.03818245
#
# Stress axis : x y z
#
# Youngs Moduli (GPa) = 55.01395 81.20800 95.62046
#
# Poissons Ratio (x) = 0.15122 0.02588
# Poissons Ratio (y) = 0.10244 -0.07165
# Poissons Ratio (z) = 0.01489 -0.06085
#
# Static dielectric constant tensor:
#      x y z
#    x 4.637470 0.000000 -0.120480 
#    y 0.000000 4.589050 0.000000 
#    z -0.120480 0.000000 4.626870 
# 
# 
# High freq. dielectric constant tensor:
#      x y z
#    x 2.008980 0.000000 -0.009200 
#    y 0.000000 2.013520 0.000000 
#    z -0.009200 0.000000 2.009600 
# 
# From -- ./inp_files/8621.got.cif
#   From: 2010.03.12/outbox.cif.g09.slc.cpg/sg4_5_cif.got.tgz:8621.got - 2010.03.31 09:31:35.
