data_PCOD8047999
_publ_section_title
;
Structure prediction by ZEFSAII (Michael W. Deem and Ramdas Pophale) SiO2 
 PCOD8047999
Probable space group: P 21
;
_chemical_formula_sum "Si O2"
_cell_formula_units_Z 12
_cell_length_a 8.107285
_cell_length_b 13.385739
_cell_length_c 4.849919
_cell_angle_alpha 90.000000
_cell_angle_beta 59.309736
_cell_angle_gamma 90.000000
_cell_volume 452.605608
_symmetry_space_group_name_H-M "P 21"
_symmetry_group_IT_number 4
_symmetry_cell_setting 'monoclinic'
loop_
_space_group_symop_operation_xyz
x,y,z
-x,1/2+y,-z
loop_
_atom_site_type_symbol
_atom_site_label
_atom_site_fract_x
_atom_site_fract_y
_atom_site_fract_z
Si Si1 0.809243 0.783930 0.356901
Si Si2 0.987927 0.587363 0.381567
Si Si3 0.467802 0.180870 0.793795
Si Si4 0.583292 0.063888 0.177678
Si Si5 0.103306 0.957733 0.034384
Si Si6 0.531884 0.371006 0.986610
O O1 0.916784 0.701306 0.448666
O O2 0.727792 0.727042 0.156918
O O3 0.643251 0.835640 0.674313
O O4 0.954082 0.868072 0.125415
O O5 0.979003 0.541785 0.693037
O O6 0.864732 0.513661 0.285219
O O7 0.207035 0.590816 0.102497
O O8 0.565418 0.102039 0.504655
O O9 0.426931 0.120551 0.113966
O O10 0.608670 0.274127 0.750766
O O11 0.545582 0.946348 0.182258
O O12 0.307143 0.916399 0.955920
#
# Coordination Sequence:
#
# PCOD8047999 Si02
#       6
#     2   2   2   2   2   2
#     4  12  28  50  79 116 155 207 266 318 392 468
#     4  12  28  51  77 117 157 201 262 325 385 466
#     4  12  27  47  76 115 150 208 252 326 379 467
#     4  12  26  50  81 112 160 205 260 320 397 460
#     4  12  29  51  78 116 157 204 258 327 386 462
#     4  12  28  51  79 116 155 211 262 322 397 465
#
# _framework density 26.513145999999999
#
# number of rings (size 3 to 8) (size 9 to 14) (size 15 to 20)
#    0.000    0.000    3.333    5.000    7.000    0.000 
#    0.000    0.000    0.000    0.000    0.000    0.000 
#    0.000    0.000    0.000    0.000    0.000    0.000 
#
# Total GULP energy -148855.843108 kJ/mol
# GULP energy per Si atom -12404.653592 kJ/mol
# Density = 2.645280 g / cm^3
# Si number density = 26.513146 Si / 1000 Ang^3
#
#
#
# Elastic Constant Matrix: (Units=GPa)
#
#
# Indices 1 2 3 4 5 6 
#
# 1 76.4304 22.5960 12.1267 0.0000 0.5691 0.0000
# 2 22.5960 150.8284 32.1307 0.0000 7.9108 0.0000
# 3 12.1267 32.1307 72.8010 0.0000 10.1995 0.0000
# 4 0.0000 0.0000 0.0000 48.6616 0.0000 2.4169
# 5 0.5691 7.9108 10.1995 0.0000 39.6658 0.0000
# 6 0.0000 0.0000 0.0000 2.4169 0.0000 47.6445
#
#
#
# Elastic Compliance Matrix: (Units=1/GPa)
#
#
# Indices 1 2 3 4 5 6 
#
# 1 0.013856 -0.001763 -0.001609 0.000000 0.000567 0.000000
# 2 -0.001763 0.007559 -0.002941 0.000000 -0.000726 0.000000
# 3 -0.001609 -0.002941 0.015785 0.000000 -0.003449 0.000000
# 4 0.000000 0.000000 0.000000 0.020602 0.000000 -0.001045
# 5 0.000567 -0.000726 -0.003449 0.000000 0.026234 0.000000
# 6 0.000000 0.000000 0.000000 -0.001045 0.000000 0.021042
#
#
# Mechanical properties :
#
#
# Convention : Reuss Voigt Hill
#
# Bulk Modulus (GPa) = 40.69279 48.19628 44.44453
# Shear Modulus (GPa) = 39.71560 42.74149 41.22854
#
# Velocity S-wave (km/s) = 3.87455 4.01944 3.94766
# Velocity P-wave (km/s) = 5.94959 6.30546 6.13011
#
# Compressibility (1/GPa) = 0.02457438
#
# Stress axis : x y z
#
# Youngs Moduli (GPa) = 72.17061 132.29878 63.35004
#
# Poissons Ratio (x) = 0.23320 0.10196
# Poissons Ratio (y) = 0.12721 0.18629
# Poissons Ratio (z) = 0.11616 0.38905
#
# Static dielectric constant tensor:
#      x y z
#    x 5.131340 0.000000 0.148340 
#    y 0.000000 5.528620 0.000000 
#    z 0.148340 0.000000 4.580560 
# 
# 
# High freq. dielectric constant tensor:
#      x y z
#    x 2.074350 0.000000 0.006090 
#    y 0.000000 2.095330 0.000000 
#    z 0.006090 0.000000 2.059640 
# 
# From -- ./inp_files/1464.got.cif
#   From: 2010.03.12/outbox.cif.g09.slc.cpg/sg4_1_cif.got.tgz:1464.got - 2010.03.31 09:31:35.
