data_PCOD8047763
_publ_section_title
;
Structure prediction by ZEFSAII (Michael W. Deem and Ramdas Pophale) SiO2 
 PCOD8047763
Probable space group: P 21
;
_chemical_formula_sum "Si O2"
_cell_formula_units_Z 16
_cell_length_a 13.959122
_cell_length_b 8.421880
_cell_length_c 10.668020
_cell_angle_alpha 90.000000
_cell_angle_beta 149.178383
_cell_angle_gamma 90.000000
_cell_volume 642.587158
_symmetry_space_group_name_H-M "P 21"
_symmetry_group_IT_number 4
_symmetry_cell_setting 'monoclinic'
loop_
_space_group_symop_operation_xyz
x,y,z
-x,1/2+y,-z
loop_
_atom_site_type_symbol
_atom_site_label
_atom_site_fract_x
_atom_site_fract_y
_atom_site_fract_z
Si Si1 0.394164 0.742920 0.951734
Si Si2 0.943474 0.971723 0.684662
Si Si3 0.427389 0.498397 0.367947
Si Si4 0.720479 0.896301 0.188556
Si Si5 0.121368 0.314181 0.146735
Si Si6 0.942518 0.318396 0.597679
Si Si7 0.354923 0.843124 0.178631
Si Si8 0.793638 0.466986 0.661531
O O1 0.383768 0.556839 0.965528
O O2 0.196291 0.803558 0.675760
O O3 0.560118 0.767776 0.037675
O O4 0.442661 0.827681 0.137650
O O5 0.852802 0.911474 0.456099
O O6 0.821757 0.917235 0.667119
O O7 0.952296 0.162033 0.694786
O O8 0.141447 0.887750 0.921020
O O9 0.244921 0.384360 0.169635
O O10 0.371952 0.679120 0.276364
O O11 0.537036 0.481316 0.624533
O O12 0.571056 0.435524 0.421050
O O13 0.847667 0.848330 0.213792
O O14 0.163332 0.132695 0.221953
O O15 0.903670 0.334601 0.866472
O O16 0.864318 0.461999 0.596965
#
# Coordination Sequence:
#
# PCOD8047763 Si02
#       8
#     2   2   2   2   2   2   2   2
#     4  11  28  50  77 113 152 207 251 319 385 460
#     4  11  25  49  78 107 156 203 256 320 383 462
#     4  12  28  48  78 111 151 203 254 318 390 451
#     4  11  27  49  77 114 154 203 257 315 384 459
#     4  12  26  47  74 109 156 207 249 328 383 451
#     4  11  28  48  78 113 151 204 262 317 389 466
#     4  12  26  53  77 112 155 200 258 321 387 456
#     4  12  28  46  75 115 153 201 263 314 387 469
#
# _framework density 24.899348
#
# number of rings (size 3 to 8) (size 9 to 14) (size 15 to 20)
#    0.000    0.500    3.750    2.250    8.750    0.000 
#    0.000    0.000    0.000    0.000    0.000    0.000 
#    0.000    0.000    0.000    0.000    0.000    0.000 
#
# Total GULP energy -198415.009248 kJ/mol
# GULP energy per Si atom -12400.938078 kJ/mol
# Density = 2.484268 g / cm^3
# Si number density = 24.899348 Si / 1000 Ang^3
#
#
#
# Elastic Constant Matrix: (Units=GPa)
#
#
# Indices 1 2 3 4 5 6 
#
# 1 154.0595 46.2823 25.2563 0.0000 13.0090 0.0000
# 2 46.2823 93.3714 36.9367 0.0000 2.1570 0.0000
# 3 25.2563 36.9367 73.8289 0.0000 17.0301 0.0000
# 4 0.0000 0.0000 0.0000 41.3209 0.0000 1.8890
# 5 13.0090 2.1570 17.0301 0.0000 48.7826 0.0000
# 6 0.0000 0.0000 0.0000 1.8890 0.0000 30.9954
#
#
#
# Elastic Compliance Matrix: (Units=1/GPa)
#
#
# Indices 1 2 3 4 5 6 
#
# 1 0.007811 -0.003660 -0.000433 0.000000 -0.001770 0.000000
# 2 -0.003660 0.015230 -0.007001 0.000000 0.002747 0.000000
# 3 -0.000433 -0.007001 0.018595 0.000000 -0.006067 0.000000
# 4 0.000000 0.000000 0.000000 0.024268 0.000000 -0.001479
# 5 -0.001770 0.002747 -0.006067 0.000000 0.022968 0.000000
# 6 0.000000 0.000000 0.000000 -0.001479 0.000000 0.032353
#
#
# Mechanical properties :
#
#
# Convention : Reuss Voigt Hill
#
# Bulk Modulus (GPa) = 51.41773 59.80114 55.60943
# Shear Modulus (GPa) = 33.35668 38.40543 35.88106
#
# Velocity S-wave (km/s) = 3.66411 3.93164 3.80023
# Velocity P-wave (km/s) = 6.21257 6.68428 6.45274
#
# Compressibility (1/GPa) = 0.01944854
#
# Stress axis : x y z
#
# Youngs Moduli (GPa) = 128.02762 65.65967 53.77784
#
# Poissons Ratio (x) = 0.24028 0.02328
# Poissons Ratio (y) = 0.46852 0.37651
# Poissons Ratio (z) = 0.05542 0.45970
#
# Static dielectric constant tensor:
#      x y z
#    x 4.924400 0.000000 0.045510 
#    y 0.000000 4.314220 0.000000 
#    z 0.045510 0.000000 4.706900 
# 
# 
# High freq. dielectric constant tensor:
#      x y z
#    x 2.007180 0.000000 0.002780 
#    y 0.000000 1.977990 0.000000 
#    z 0.002780 0.000000 2.006440 
# 
# From -- ./inp_files/12676.got.cif
#   From: 2010.03.12/outbox.cif.g09.slc.cpg/sg4_7_cif.got.tgz:12676.got - 2010.03.31 09:31:35.
