data_PCOD8047953
_publ_section_title
;
Structure prediction by ZEFSAII (Michael W. Deem and Ramdas Pophale) SiO2 
 PCOD8047953
Probable space group: P 21
;
_chemical_formula_sum "Si O2"
_cell_formula_units_Z 14
_cell_length_a 22.839615
_cell_length_b 5.228670
_cell_length_c 13.670631
_cell_angle_alpha 90.000000
_cell_angle_beta 19.970964
_cell_angle_gamma 90.000000
_cell_volume 557.590146
_symmetry_space_group_name_H-M "P 21"
_symmetry_group_IT_number 4
_symmetry_cell_setting 'monoclinic'
loop_
_space_group_symop_operation_xyz
x,y,z
-x,1/2+y,-z
loop_
_atom_site_type_symbol
_atom_site_label
_atom_site_fract_x
_atom_site_fract_y
_atom_site_fract_z
Si Si1 0.416632 0.916340 0.171577
Si Si2 0.937422 0.659285 0.651444
Si Si3 0.061417 0.097598 0.950299
Si Si4 0.377521 0.858740 0.809079
Si Si5 0.712152 0.120641 0.242296
Si Si6 0.578878 0.501656 0.616811
Si Si7 0.036938 0.801135 0.712150
O O1 0.220371 0.922248 0.445951
O O2 0.453099 0.864727 0.229240
O O3 0.512438 0.696580 0.962382
O O4 0.034081 0.404224 0.462079
O O5 0.015265 0.724882 0.634470
O O6 0.731664 0.601165 0.977914
O O7 0.998940 0.055415 0.161416
O O8 0.258797 0.195299 0.627981
O O9 0.944166 0.320339 0.090438
O O10 0.259771 0.745059 0.908442
O O11 0.410459 0.656925 0.845601
O O12 0.559880 0.913453 0.471766
O O13 0.646549 0.302589 0.430554
O O14 0.895342 0.998389 0.976957
#
# Coordination Sequence:
#
# PCOD8047953 Si02
#       7
#     2   2   2   2   2   2   2
#     4  12  34  55  79 117 163 227 274 334 402 494
#     4  12  31  54  80 121 164 232 276 328 402 498
#     4  12  26  47  78 120 150 197 260 336 414 462
#     4  12  26  48  81 122 167 203 274 338 420 486
#     4  12  25  50  81 126 156 210 258 360 422 482
#     4  12  28  48  83 115 165 207 270 338 421 484
#     4  12  28  54  84 117 167 202 288 340 411 494
#
# _framework density 25.108046000000002
#
# number of rings (size 3 to 8) (size 9 to 14) (size 15 to 20)
#    0.000    0.000    4.286    3.429    8.000    3.429 
#    0.000    0.000    0.000    0.000    0.000    0.000 
#    0.000    0.000    0.000    0.000    0.000    0.000 
#
# Total GULP energy -173580.171721 kJ/mol
# GULP energy per Si atom -12398.583694 kJ/mol
# Density = 2.505090 g / cm^3
# Si number density = 25.108046 Si / 1000 Ang^3
#
#
#
# Elastic Constant Matrix: (Units=GPa)
#
#
# Indices 1 2 3 4 5 6 
#
# 1 160.4226 46.8691 38.8679 0.0000 14.9416 0.0000
# 2 46.8691 104.4633 31.3985 0.0000 5.6375 0.0000
# 3 38.8679 31.3985 113.3962 0.0000 -3.9499 0.0000
# 4 0.0000 0.0000 0.0000 52.8943 0.0000 8.0165
# 5 14.9416 5.6375 -3.9499 0.0000 39.5594 0.0000
# 6 0.0000 0.0000 0.0000 8.0165 0.0000 30.0721
#
#
#
# Elastic Compliance Matrix: (Units=1/GPa)
#
#
# Indices 1 2 3 4 5 6 
#
# 1 0.007774 -0.002738 -0.002002 0.000000 -0.002746 0.000000
# 2 -0.002738 0.011533 -0.002284 0.000000 -0.000837 0.000000
# 3 -0.002002 -0.002284 0.010211 0.000000 0.002101 0.000000
# 4 0.000000 0.000000 0.000000 0.019702 0.000000 -0.005252
# 5 -0.002746 -0.000837 0.002101 0.000000 0.026645 0.000000
# 6 0.000000 0.000000 0.000000 -0.005252 0.000000 0.034653
#
#
# Mechanical properties :
#
#
# Convention : Reuss Voigt Hill
#
# Bulk Modulus (GPa) = 64.64493 68.06144 66.35318
# Shear Modulus (GPa) = 38.54374 41.91495 40.22935
#
# Velocity S-wave (km/s) = 3.92231 4.09024 4.00715
# Velocity P-wave (km/s) = 6.80553 7.03371 6.92056
#
# Compressibility (1/GPa) = 0.01546912
#
# Stress axis : x y z
#
# Youngs Moduli (GPa) = 128.62764 86.70822 97.93788
#
# Poissons Ratio (x) = 0.23741 0.19610
# Poissons Ratio (y) = 0.35219 0.22369
# Poissons Ratio (z) = 0.25755 0.19804
#
# Static dielectric constant tensor:
#      x y z
#    x 4.891440 0.000000 -0.232510 
#    y 0.000000 4.428470 0.000000 
#    z -0.232510 0.000000 4.962740 
# 
# 
# High freq. dielectric constant tensor:
#      x y z
#    x 2.023530 0.000000 -0.002250 
#    y 0.000000 1.994830 0.000000 
#    z -0.002250 0.000000 2.009210 
# 
# From -- ./inp_files/13022.got.cif
#   From: 2010.03.12/outbox.cif.g09.slc.cpg/sg4_7_cif.got.tgz:13022.got - 2010.03.31 09:31:35.
