data_PCOD8047463
_publ_section_title
;
Structure prediction by ZEFSAII (Michael W. Deem and Ramdas Pophale) SiO2 
 PCOD8047463
Probable space group: P 21
;
_chemical_formula_sum "Si O2"
_cell_formula_units_Z 14
_cell_length_a 16.499389
_cell_length_b 5.950529
_cell_length_c 9.937921
_cell_angle_alpha 90.000000
_cell_angle_beta 35.708689
_cell_angle_gamma 90.000000
_cell_volume 569.484820
_symmetry_space_group_name_H-M "P 21"
_symmetry_group_IT_number 4
_symmetry_cell_setting 'monoclinic'
loop_
_space_group_symop_operation_xyz
x,y,z
-x,1/2+y,-z
loop_
_atom_site_type_symbol
_atom_site_label
_atom_site_fract_x
_atom_site_fract_y
_atom_site_fract_z
Si Si1 0.826928 0.459930 0.157298
Si Si2 0.273433 0.105851 0.973872
Si Si3 0.452646 0.838177 0.378278
Si Si4 0.405628 0.724239 0.940628
Si Si5 0.890576 0.770701 0.307146
Si Si6 0.063108 0.249482 0.449022
Si Si7 0.641678 0.049150 0.718916
O O1 0.824070 0.613070 0.026936
O O2 0.682228 0.319801 0.343372
O O3 0.816599 0.586426 0.313460
O O4 0.965164 0.313189 0.964797
O O5 0.430976 0.169909 0.720979
O O6 0.282788 0.862865 0.033881
O O7 0.206614 0.278636 0.171754
O O8 0.408346 0.775259 0.285836
O O9 0.521134 0.082609 0.275933
O O10 0.524617 0.863367 0.855311
O O11 0.331386 0.581557 0.158740
O O12 0.914889 0.683119 0.425184
O O13 0.788588 0.983733 0.451674
O O14 0.995652 0.503087 0.530254
#
# Coordination Sequence:
#
# PCOD8047463 Si02
#       7
#     2   2   2   2   2   2   2
#     4  12  28  50  71 114 152 212 259 332 410 490
#     4  11  29  47  76 111 153 208 264 334 400 480
#     4  11  25  44  74 104 157 196 262 329 400 481
#     4  11  23  44  73 111 149 198 264 326 403 464
#     4  12  28  48  80 111 160 208 271 333 408 495
#     4  12  30  56  83 120 162 215 275 335 408 486
#     4  11  23  43  73 115 145 205 259 333 395 478
#
# _framework density 24.583622999999999
#
# number of rings (size 3 to 8) (size 9 to 14) (size 15 to 20)
#    0.000    0.571    4.286    1.714   12.000    0.000 
#    0.000    0.000    0.000    0.000    0.000    0.000 
#    0.000    0.000    0.000    0.000    0.000    0.000 
#
# Total GULP energy -173486.373115 kJ/mol
# GULP energy per Si atom -12391.883794 kJ/mol
# Density = 2.452767 g / cm^3
# Si number density = 24.583623 Si / 1000 Ang^3
#
#
#
# Elastic Constant Matrix: (Units=GPa)
#
#
# Indices 1 2 3 4 5 6 
#
# 1 111.6804 15.3446 -0.6323 0.0000 17.6637 0.0000
# 2 15.3446 71.8415 0.5946 0.0000 1.9899 0.0000
# 3 -0.6323 0.5946 108.0900 0.0000 -7.0516 0.0000
# 4 0.0000 0.0000 0.0000 40.1006 0.0000 -0.4593
# 5 17.6637 1.9899 -7.0516 0.0000 40.0924 0.0000
# 6 0.0000 0.0000 0.0000 -0.4593 0.0000 20.3361
#
#
#
# Elastic Compliance Matrix: (Units=1/GPa)
#
#
# Indices 1 2 3 4 5 6 
#
# 1 0.009908 -0.001995 -0.000212 0.000000 -0.004303 0.000000
# 2 -0.001995 0.014342 -0.000081 0.000000 0.000153 0.000000
# 3 -0.000212 -0.000081 0.009365 0.000000 0.001744 0.000000
# 4 0.000000 0.000000 0.000000 0.024944 0.000000 0.000563
# 5 -0.004303 0.000153 0.001744 0.000000 0.027137 0.000000
# 6 0.000000 0.000000 0.000000 0.000563 0.000000 0.049186
#
#
# Mechanical properties :
#
#
# Convention : Reuss Voigt Hill
#
# Bulk Modulus (GPa) = 34.43632 35.80286 35.11959
# Shear Modulus (GPa) = 33.52626 38.52617 36.02622
#
# Velocity S-wave (km/s) = 3.69692 3.96302 3.83228
# Velocity P-wave (km/s) = 5.67990 5.96121 5.82225
#
# Compressibility (1/GPa) = 0.02903911
#
# Stress axis : x y z
#
# Youngs Moduli (GPa) = 100.93178 69.72474 106.78568
#
# Poissons Ratio (x) = 0.13912 0.02262
# Poissons Ratio (y) = 0.20138 0.00861
# Poissons Ratio (z) = 0.02138 0.00562
#
# Static dielectric constant tensor:
#      x y z
#    x 4.350550 0.000000 -0.109140 
#    y 0.000000 4.341120 0.000000 
#    z -0.109140 0.000000 4.509400 
# 
# 
# High freq. dielectric constant tensor:
#      x y z
#    x 1.981230 0.000000 -0.004390 
#    y 0.000000 1.961090 0.000000 
#    z -0.004390 0.000000 1.995720 
# 
# From -- ./inp_files/7076.got.cif
#   From: 2010.03.12/outbox.cif.g09.slc.cpg/sg4_4_cif.got.tgz:7076.got - 2010.03.31 09:31:35.
