data_PCOD8047908
_publ_section_title
;
Structure prediction by ZEFSAII (Michael W. Deem and Ramdas Pophale) SiO2 
 PCOD8047908
Probable space group: P 21
;
_chemical_formula_sum "Si O2"
_cell_formula_units_Z 12
_cell_length_a 13.716418
_cell_length_b 7.712836
_cell_length_c 14.533894
_cell_angle_alpha 90.000000
_cell_angle_beta 160.696750
_cell_angle_gamma 90.000000
_cell_volume 508.273552
_symmetry_space_group_name_H-M "P 21"
_symmetry_group_IT_number 4
_symmetry_cell_setting 'monoclinic'
loop_
_space_group_symop_operation_xyz
x,y,z
-x,1/2+y,-z
loop_
_atom_site_type_symbol
_atom_site_label
_atom_site_fract_x
_atom_site_fract_y
_atom_site_fract_z
Si Si1 0.915888 0.213020 0.858744
Si Si2 0.300452 0.328463 0.358399
Si Si3 0.299632 0.141275 0.549593
Si Si4 0.083331 0.828582 0.641406
Si Si5 0.805648 0.903976 0.055723
Si Si6 0.697970 0.713067 0.140984
O O1 0.624275 0.332856 0.600910
O O2 0.152742 0.287722 0.997772
O O3 0.826658 0.020652 0.751245
O O4 0.077014 0.207754 0.101307
O O5 0.335986 0.256828 0.492041
O O6 0.148342 0.257379 0.492006
O O7 0.123289 0.965395 0.373412
O O8 0.617993 0.077341 0.867998
O O9 0.921872 0.832895 0.398724
O O10 0.176105 0.020749 0.751412
O O11 0.373884 0.707679 0.898315
O O12 0.656735 0.787857 0.001950
#
# Coordination Sequence:
#
# PCOD8047908 Si02
#       6
#     2   2   2   2   2   2
#     4  12  25  44  69 100 136 178 224 276 333 396
#     4  12  25  44  69 100 136 178 224 276 333 396
#     4  12  25  44  69 100 135 176 223 276 333 396
#     4  12  25  44  69 100 136 178 224 276 333 396
#     4  12  25  44  69 100 135 176 223 276 333 396
#     4  12  25  44  69 100 136 178 224 276 333 396
#
# _framework density 23.609334
#
# number of rings (size 3 to 8) (size 9 to 14) (size 15 to 20)
#    0.000    0.000    0.000   13.000    0.000    0.000 
#    0.000   10.000    0.000    0.000    0.000    0.000 
#    0.000    0.000    0.000    0.000    0.000    0.000 
#
# Total GULP energy -148917.020166 kJ/mol
# GULP energy per Si atom -12409.751680 kJ/mol
# Density = 2.355560 g / cm^3
# Si number density = 23.609334 Si / 1000 Ang^3
#
#
#
# Elastic Constant Matrix: (Units=GPa)
#
#
# Indices 1 2 3 4 5 6 
#
# 1 151.4003 78.6043 52.5465 0.0000 -4.4574 0.0000
# 2 78.6043 136.2745 39.9150 0.0000 -3.8368 0.0000
# 3 52.5465 39.9150 124.5092 0.0000 1.4487 0.0000
# 4 0.0000 0.0000 0.0000 52.5094 0.0000 1.4279
# 5 -4.4574 -3.8368 1.4487 0.0000 27.2890 0.0000
# 6 0.0000 0.0000 0.0000 1.4279 0.0000 36.5207
#
#
#
# Elastic Compliance Matrix: (Units=1/GPa)
#
#
# Indices 1 2 3 4 5 6 
#
# 1 0.010202 -0.005064 -0.002695 0.000000 0.001097 0.000000
# 2 -0.005064 0.010657 -0.001288 0.000000 0.000740 0.000000
# 3 -0.002695 -0.001288 0.009595 0.000000 -0.001131 0.000000
# 4 0.000000 0.000000 0.000000 0.019064 0.000000 -0.000745
# 5 0.001097 0.000740 -0.001131 0.000000 0.036988 0.000000
# 6 0.000000 0.000000 0.000000 -0.000745 0.000000 0.027411
#
#
# Mechanical properties :
#
#
# Convention : Reuss Voigt Hill
#
# Bulk Modulus (GPa) = 80.90483 83.81283 82.35883
# Shear Modulus (GPa) = 36.72926 39.33837 38.03382
#
# Velocity S-wave (km/s) = 3.94853 4.08637 4.01804
# Velocity P-wave (km/s) = 7.42498 7.60536 7.51571
#
# Compressibility (1/GPa) = 0.01236020
#
# Stress axis : x y z
#
# Youngs Moduli (GPa) = 98.02090 93.83224 104.22320
#
# Poissons Ratio (x) = 0.47520 0.28086
# Poissons Ratio (y) = 0.49641 0.13422
# Poissons Ratio (z) = 0.26414 0.12084
#
# Static dielectric constant tensor:
#      x y z
#    x 4.350960 0.000000 0.011070 
#    y 0.000000 3.991590 0.000000 
#    z 0.011070 0.000000 4.472870 
# 
# 
# High freq. dielectric constant tensor:
#      x y z
#    x 1.946340 0.000000 0.000660 
#    y 0.000000 1.937570 0.000000 
#    z 0.000660 0.000000 1.953850 
# 
# From -- ./inp_files/107.got.cif
#   From: 2010.03.12/outbox.cif.g09.slc.cpg/sg4_1_cif.got.tgz:107.got - 2010.03.31 09:31:35.
