data_PCOD8047121
_publ_section_title
;
Structure prediction by ZEFSAII (Michael W. Deem and Ramdas Pophale) SiO2 
 PCOD8047121
Probable space group: P 21
;
_chemical_formula_sum "Si O2"
_cell_formula_units_Z 16
_cell_length_a 14.467048
_cell_length_b 5.131784
_cell_length_c 25.571326
_cell_angle_alpha 90.000000
_cell_angle_beta 158.551143
_cell_angle_gamma 90.000000
_cell_volume 694.211106
_symmetry_space_group_name_H-M "P 21"
_symmetry_group_IT_number 4
_symmetry_cell_setting 'monoclinic'
loop_
_space_group_symop_operation_xyz
x,y,z
-x,1/2+y,-z
loop_
_atom_site_type_symbol
_atom_site_label
_atom_site_fract_x
_atom_site_fract_y
_atom_site_fract_z
Si Si1 0.209620 0.967760 0.813762
Si Si2 0.694579 0.425444 0.899816
Si Si3 0.540440 0.891034 0.638821
Si Si4 0.209848 0.467814 0.880359
Si Si5 0.128323 0.091170 0.117203
Si Si6 0.160588 0.457469 0.573054
Si Si7 0.029217 0.711733 0.150591
Si Si8 0.242191 0.404440 0.495751
O O1 0.144981 0.751727 0.823728
O O2 0.148959 0.250620 0.805050
O O3 0.499364 0.946450 0.948769
O O4 0.045047 0.923002 0.675329
O O5 0.830577 0.561263 0.922256
O O6 0.394583 0.401450 0.735383
O O7 0.770068 0.580846 0.992436
O O8 0.830037 0.143403 0.972891
O O9 0.324738 0.107644 0.531332
O O10 0.766546 0.998086 0.719675
O O11 0.691758 0.834389 0.772634
O O12 0.408811 0.619270 0.551277
O O13 0.037039 0.420034 0.839939
O O14 0.191008 0.848041 0.188426
O O15 0.259256 0.479979 0.565847
O O16 0.958497 0.229580 0.472398
#
# Coordination Sequence:
#
# PCOD8047121 Si02
#       8
#     2   2   2   2   2   2   2   2
#     4  10  24  47  72  97 130 185 224 288 346 407
#     4  11  24  39  67 100 139 180 228 265 343 402
#     4  11  23  42  68 100 133 183 216 273 342 407
#     4  10  24  46  71 101 132 166 241 292 340 394
#     4  11  22  40  68 101 133 184 222 277 335 404
#     4  12  29  44  63 102 147 181 226 280 330 414
#     4  11  24  41  72 101 139 172 232 289 337 394
#     4  12  24  45  73  92 141 185 227 266 355 418
#
# _framework density 23.047744000000002
#
# number of rings (size 3 to 8) (size 9 to 14) (size 15 to 20)
#    0.000    1.000    3.750    1.500    8.750    0.000 
#    2.250    2.500    0.000    0.000    0.000    0.000 
#    0.000    0.000    0.000    0.000    0.000    0.000 
#
# Total GULP energy -198334.511068 kJ/mol
# GULP energy per Si atom -12395.906942 kJ/mol
# Density = 2.299529 g / cm^3
# Si number density = 23.047744 Si / 1000 Ang^3
#
#
#
# Elastic Constant Matrix: (Units=GPa)
#
#
# Indices 1 2 3 4 5 6 
#
# 1 38.6284 -1.6591 -8.5579 0.0000 9.5374 0.0000
# 2 -1.6591 87.2581 12.5712 0.0000 2.8041 0.0000
# 3 -8.5579 12.5712 108.4374 0.0000 -8.4676 0.0000
# 4 0.0000 0.0000 0.0000 36.1802 0.0000 9.5968
# 5 9.5374 2.8041 -8.4676 0.0000 22.0271 0.0000
# 6 0.0000 0.0000 0.0000 9.5968 0.0000 25.8086
#
#
#
# Elastic Compliance Matrix: (Units=1/GPa)
#
#
# Indices 1 2 3 4 5 6 
#
# 1 0.029229 0.000769 0.001260 0.000000 -0.012269 0.000000
# 2 0.000769 0.011767 -0.001491 0.000000 -0.002404 0.000000
# 3 0.001260 -0.001491 0.009759 0.000000 0.003396 0.000000
# 4 0.000000 0.000000 0.000000 0.030664 0.000000 -0.011402
# 5 -0.012269 -0.002404 0.003396 0.000000 0.052323 0.000000
# 6 0.000000 0.000000 0.000000 -0.011402 0.000000 0.042987
#
#
# Mechanical properties :
#
#
# Convention : Reuss Voigt Hill
#
# Bulk Modulus (GPa) = 19.29411 26.55915 22.92663
# Shear Modulus (GPa) = 25.91597 32.26781 29.09189
#
# Velocity S-wave (km/s) = 3.35692 3.74577 3.55666
# Velocity P-wave (km/s) = 4.83888 5.50057 5.18030
#
# Compressibility (1/GPa) = 0.05182929
#
# Stress axis : x y z
#
# Youngs Moduli (GPa) = 34.21249 84.98375 102.46540
#
# Poissons Ratio (x) = -0.06532 -0.12906
# Poissons Ratio (y) = -0.02629 0.15280
# Poissons Ratio (z) = -0.04309 0.12673
#
# Static dielectric constant tensor:
#      x y z
#    x 3.670740 0.000000 0.024740 
#    y 0.000000 4.493230 0.000000 
#    z 0.024740 0.000000 4.314640 
# 
# 
# High freq. dielectric constant tensor:
#      x y z
#    x 1.867560 0.000000 0.003050 
#    y 0.000000 1.930410 0.000000 
#    z 0.003050 0.000000 1.923200 
# 
# From -- ./inp_files/16420.got.cif
#   From: 2010.03.12/outbox.cif.g09.slc.cpg/sg4_9_cif.got.tgz:16420.got - 2010.03.31 09:31:35.
