data_PCOD8047383
_publ_section_title
;
Structure prediction by ZEFSAII (Michael W. Deem and Ramdas Pophale) SiO2 
 PCOD8047383
Probable space group: P 21
;
_chemical_formula_sum "Si O2"
_cell_formula_units_Z 16
_cell_length_a 8.532463
_cell_length_b 4.773564
_cell_length_c 14.757913
_cell_angle_alpha 90.000000
_cell_angle_beta 98.707408
_cell_angle_gamma 90.000000
_cell_volume 594.165595
_symmetry_space_group_name_H-M "P 21"
_symmetry_group_IT_number 4
_symmetry_cell_setting 'monoclinic'
loop_
_space_group_symop_operation_xyz
x,y,z
-x,1/2+y,-z
loop_
_atom_site_type_symbol
_atom_site_label
_atom_site_fract_x
_atom_site_fract_y
_atom_site_fract_z
Si Si1 0.608645 0.745960 0.023353
Si Si2 0.833080 0.995414 0.898476
Si Si3 0.317447 0.593717 0.468270
Si Si4 0.126357 0.087553 0.397244
Si Si5 0.150335 0.926344 0.838999
Si Si6 0.543310 0.809295 0.352136
Si Si7 0.736713 0.510559 0.782198
Si Si8 0.849472 0.892389 0.283866
O O1 0.754861 0.906244 0.986869
O O2 0.514015 0.498113 0.959484
O O3 0.686955 0.579729 0.114628
O O4 0.803552 0.320349 0.871128
O O5 0.019431 0.896908 0.909181
O O6 0.731718 0.828658 0.814961
O O7 0.167151 0.399952 0.429835
O O8 0.410886 0.540186 0.568241
O O9 0.445339 0.567564 0.396583
O O10 0.241948 0.902049 0.469668
O O11 0.938799 0.015715 0.382675
O O12 0.146061 0.006868 0.293050
O O13 0.063396 0.134871 0.759685
O O14 0.192037 0.632401 0.794298
O O15 0.438843 0.943925 0.264412
O O16 0.700118 0.723116 0.312852
#
# Coordination Sequence:
#
# PCOD8047383 Si02
#       8
#     2   2   2   2   2   2   2   2
#     4  12  30  50  78 116 152 190 244 315 378 441
#     4  12  25  48  78 104 145 202 243 295 369 450
#     4  11  25  45  71 102 155 199 255 295 385 440
#     4  11  22  45  73 106 145 196 245 316 359 456
#     4  12  27  51  77 110 153 195 245 305 374 464
#     4  11  27  45  73 111 149 200 246 318 368 444
#     4  11  23  41  75 106 140 192 252 294 365 442
#     4  12  27  45  77 113 149 190 256 312 378 425
#
# _framework density 26.928523999999999
#
# number of rings (size 3 to 8) (size 9 to 14) (size 15 to 20)
#    0.000    0.500    2.500    5.250    5.250    9.000 
#    0.000    0.000    0.000    0.000    0.000    0.000 
#    0.000    0.000    0.000    0.000    0.000    0.000 
#
# Total GULP energy -198257.676306 kJ/mol
# GULP energy per Si atom -12391.104769 kJ/mol
# Density = 2.686723 g / cm^3
# Si number density = 26.928524 Si / 1000 Ang^3
#
#
#
# Elastic Constant Matrix: (Units=GPa)
#
#
# Indices 1 2 3 4 5 6 
#
# 1 84.8607 -12.2318 0.5671 0.0000 -9.3684 0.0000
# 2 -12.2318 69.2500 -1.0051 0.0000 -16.3526 0.0000
# 3 0.5671 -1.0051 43.7537 0.0000 -0.7374 0.0000
# 4 0.0000 0.0000 0.0000 40.8302 0.0000 1.0730
# 5 -9.3684 -16.3526 -0.7374 0.0000 31.1345 0.0000
# 6 0.0000 0.0000 0.0000 1.0730 0.0000 36.3268
#
#
#
# Elastic Compliance Matrix: (Units=1/GPa)
#
#
# Indices 1 2 3 4 5 6 
#
# 1 0.012955 0.003663 0.000014 0.000000 0.005822 0.000000
# 2 0.003663 0.017533 0.000529 0.000000 0.010324 0.000000
# 3 0.000014 0.000529 0.022881 0.000000 0.000824 0.000000
# 4 0.000000 0.000000 0.000000 0.024511 0.000000 -0.000724
# 5 0.005822 0.010324 0.000824 0.000000 0.039312 0.000000
# 6 0.000000 0.000000 0.000000 -0.000724 0.000000 0.027549
#
#
# Mechanical properties :
#
#
# Convention : Reuss Voigt Hill
#
# Bulk Modulus (GPa) = 16.18578 19.16945 17.67762
# Shear Modulus (GPa) = 31.86307 35.69390 33.77849
#
# Velocity S-wave (km/s) = 3.44357 3.64470 3.54556
# Velocity P-wave (km/s) = 4.67275 4.98456 4.83117
#
# Compressibility (1/GPa) = 0.06178264
#
# Stress axis : x y z
#
# Youngs Moduli (GPa) = 77.19186 57.03542 43.70428
#
# Poissons Ratio (x) = -0.20894 -0.00063
# Poissons Ratio (y) = -0.28278 -0.02313
# Poissons Ratio (z) = -0.00111 -0.03019
#
# Static dielectric constant tensor:
#      x y z
#    x 5.088610 0.000000 0.000280 
#    y 0.000000 4.804400 0.000000 
#    z 0.000280 0.000000 4.591440 
# 
# 
# High freq. dielectric constant tensor:
#      x y z
#    x 2.093710 0.000000 0.008180 
#    y 0.000000 2.084150 0.000000 
#    z 0.008180 0.000000 2.067890 
# 
# From -- ./inp_files/13523.got.cif
#   From: 2010.03.12/outbox.cif.g09.slc.cpg/sg4_7_cif.got.tgz:13523.got - 2010.03.31 09:31:35.
