data_PCOD8047202
_publ_section_title
;
Structure prediction by ZEFSAII (Michael W. Deem and Ramdas Pophale) SiO2 
 PCOD8047202
Probable space group: P 21
;
_chemical_formula_sum "Si O2"
_cell_formula_units_Z 16
_cell_length_a 13.596306
_cell_length_b 9.040090
_cell_length_c 10.777626
_cell_angle_alpha 90.000000
_cell_angle_beta 149.651243
_cell_angle_gamma 90.000000
_cell_volume 669.319645
_symmetry_space_group_name_H-M "P 21"
_symmetry_group_IT_number 4
_symmetry_cell_setting 'monoclinic'
loop_
_space_group_symop_operation_xyz
x,y,z
-x,1/2+y,-z
loop_
_atom_site_type_symbol
_atom_site_label
_atom_site_fract_x
_atom_site_fract_y
_atom_site_fract_z
Si Si1 0.015765 0.531980 0.536018
Si Si2 0.133311 0.459568 0.005294
Si Si3 0.171636 0.456547 0.331350
Si Si4 0.616161 0.076421 0.931291
Si Si5 0.519600 0.122693 0.182700
Si Si6 0.651116 0.349875 0.127292
Si Si7 0.106097 0.151617 0.848420
Si Si8 0.187114 0.137449 0.451499
O O1 0.880998 0.387065 0.386479
O O2 0.024104 0.622858 0.416883
O O3 0.932610 0.641015 0.551277
O O4 0.238690 0.487467 0.815133
O O5 0.203198 0.431132 0.220317
O O6 0.311876 0.540869 0.129502
O O7 0.063151 0.309989 0.861589
O O8 0.942991 0.563870 0.797958
O O9 0.311380 0.583873 0.536992
O O10 0.228728 0.305905 0.461871
O O11 0.953648 0.517993 0.122317
O O12 0.385259 0.040841 0.687049
O O13 0.634808 0.249519 0.986566
O O14 0.571228 0.271704 0.164464
O O15 0.332698 0.146451 0.065005
O O16 0.475439 0.998021 0.031041
#
# Coordination Sequence:
#
# PCOD8047202 Si02
#       8
#     2   2   2   2   2   2   2   2
#     4  10  26  42  75 111 147 189 237 306 386 450
#     4  11  29  47  75 104 148 205 257 307 367 441
#     4  12  27  50  72 109 147 203 260 308 361 443
#     4  11  24  45  74 106 149 192 241 302 378 435
#     4  11  27  46  80 111 151 194 242 315 375 458
#     4  11  24  48  75 116 152 187 244 310 388 446
#     4  11  27  48  74 109 147 199 248 308 379 438
#     4  11  26  48  75 108 151 193 247 320 372 443
#
# _framework density 23.904869999999999
#
# number of rings (size 3 to 8) (size 9 to 14) (size 15 to 20)
#    0.000    1.000    1.250    3.000   17.500    2.000 
#    0.000    0.000    0.000    0.000    0.000    0.000 
#    0.000    0.000    0.000    0.000    0.000    0.000 
#
# Total GULP energy -198378.623524 kJ/mol
# GULP energy per Si atom -12398.663970 kJ/mol
# Density = 2.385046 g / cm^3
# Si number density = 23.904870 Si / 1000 Ang^3
#
#
#
# Elastic Constant Matrix: (Units=GPa)
#
#
# Indices 1 2 3 4 5 6 
#
# 1 123.1398 33.4586 40.0288 0.0000 -6.6370 0.0000
# 2 33.4586 90.0551 25.1158 0.0000 0.2385 0.0000
# 3 40.0288 25.1158 95.5452 0.0000 12.3963 0.0000
# 4 0.0000 0.0000 0.0000 38.2843 0.0000 3.1128
# 5 -6.6370 0.2385 12.3963 0.0000 47.6435 0.0000
# 6 0.0000 0.0000 0.0000 3.1128 0.0000 34.8292
#
#
#
# Elastic Compliance Matrix: (Units=1/GPa)
#
#
# Indices 1 2 3 4 5 6 
#
# 1 0.010264 -0.002732 -0.003901 0.000000 0.002458 0.000000
# 2 -0.002732 0.012738 -0.002221 0.000000 0.000134 0.000000
# 3 -0.003901 -0.002221 0.013199 0.000000 -0.003967 0.000000
# 4 0.000000 0.000000 0.000000 0.026312 0.000000 -0.002352
# 5 0.002458 0.000134 -0.003967 0.000000 0.022363 0.000000
# 6 0.000000 0.000000 0.000000 -0.002352 0.000000 0.028922
#
#
# Mechanical properties :
#
#
# Convention : Reuss Voigt Hill
#
# Bulk Modulus (GPa) = 54.07428 56.21626 55.14527
# Shear Modulus (GPa) = 36.31873 38.16053 37.23963
#
# Velocity S-wave (km/s) = 3.90205 3.99977 3.95121
# Velocity P-wave (km/s) = 6.55523 6.70064 6.62833
#
# Compressibility (1/GPa) = 0.01849308
#
# Stress axis : x y z
#
# Youngs Moduli (GPa) = 97.43100 78.50231 75.76306
#
# Poissons Ratio (x) = 0.21446 0.29554
# Poissons Ratio (y) = 0.26617 0.16830
# Poissons Ratio (z) = 0.38006 0.17438
#
# Static dielectric constant tensor:
#      x y z
#    x 4.355200 0.000000 0.216750 
#    y 0.000000 4.311300 0.000000 
#    z 0.216750 0.000000 4.368400 
# 
# 
# High freq. dielectric constant tensor:
#      x y z
#    x 1.946590 0.000000 0.016750 
#    y 0.000000 1.953250 0.000000 
#    z 0.016750 0.000000 1.948170 
# 
# From -- ./inp_files/12680.got.cif
#   From: 2010.03.12/outbox.cif.g09.slc.cpg/sg4_7_cif.got.tgz:12680.got - 2010.03.31 09:31:35.
