data_PCOD8047407
_publ_section_title
;
Structure prediction by ZEFSAII (Michael W. Deem and Ramdas Pophale) SiO2 
 PCOD8047407
Probable space group: P 21
;
_chemical_formula_sum "Si O2"
_cell_formula_units_Z 14
_cell_length_a 9.299680
_cell_length_b 9.848305
_cell_length_c 11.641741
_cell_angle_alpha 90.000000
_cell_angle_beta 35.883171
_cell_angle_gamma 90.000000
_cell_volume 624.949093
_symmetry_space_group_name_H-M "P 21"
_symmetry_group_IT_number 4
_symmetry_cell_setting 'monoclinic'
loop_
_space_group_symop_operation_xyz
x,y,z
-x,1/2+y,-z
loop_
_atom_site_type_symbol
_atom_site_label
_atom_site_fract_x
_atom_site_fract_y
_atom_site_fract_z
Si Si1 0.252483 0.471700 0.477255
Si Si2 0.348137 0.740032 0.782143
Si Si3 0.547841 0.051911 0.875391
Si Si4 0.206955 0.751827 0.623096
Si Si5 0.613949 0.940631 0.258443
Si Si6 0.924299 0.409747 0.879163
Si Si7 0.330524 0.328543 0.025149
O O1 0.454763 0.357285 0.360839
O O2 0.230615 0.515996 0.357342
O O3 0.312734 0.609169 0.508578
O O4 0.007510 0.403589 0.691024
O O5 0.183160 0.744864 0.775384
O O6 0.471879 0.593136 0.718721
O O7 0.179580 0.767488 0.004298
O O8 0.577645 0.962159 0.969035
O O9 0.533650 0.210829 0.917359
O O10 0.291515 0.021605 0.974303
O O11 0.388697 0.870977 0.468307
O O12 0.933336 0.782370 0.753674
O O13 0.847510 0.954403 0.190391
O O14 0.686717 0.858796 0.098148
#
# Coordination Sequence:
#
# PCOD8047407 Si02
#       7
#     2   2   2   2   2   2   2
#     4  11  23  44  70 101 143 181 226 297 347 415
#     4  11  23  39  70 114 138 180 233 287 363 419
#     4  11  27  48  69  99 143 193 235 283 354 420
#     4  12  22  45  70 106 143 182 231 296 357 412
#     4  12  25  43  73 107 143 180 237 296 351 420
#     4  11  23  43  75 100 143 180 228 295 351 410
#     4  12  27  48  69 101 143 190 236 288 353 422
#
# _framework density 22.401823
#
# number of rings (size 3 to 8) (size 9 to 14) (size 15 to 20)
#    0.000    0.571    7.143    0.000    4.000    2.286 
#    0.000    0.000    0.000    0.000    0.000    0.000 
#    0.000    0.000    0.000    0.000    0.000    0.000 
#
# Total GULP energy -173531.815089 kJ/mol
# GULP energy per Si atom -12395.129649 kJ/mol
# Density = 2.235084 g / cm^3
# Si number density = 22.401823 Si / 1000 Ang^3
#
#
#
# Elastic Constant Matrix: (Units=GPa)
#
#
# Indices 1 2 3 4 5 6 
#
# 1 28.7770 15.5162 22.5822 0.0000 8.3929 0.0000
# 2 15.5162 141.5169 51.0442 0.0000 -6.5412 0.0000
# 3 22.5822 51.0442 135.6819 0.0000 19.8264 0.0000
# 4 0.0000 0.0000 0.0000 36.4503 0.0000 11.9096
# 5 8.3929 -6.5412 19.8264 0.0000 29.5625 0.0000
# 6 0.0000 0.0000 0.0000 11.9096 0.0000 29.0963
#
#
#
# Elastic Compliance Matrix: (Units=1/GPa)
#
#
# Indices 1 2 3 4 5 6 
#
# 1 0.043051 -0.003630 -0.004319 0.000000 -0.010129 0.000000
# 2 -0.003630 0.009005 -0.003575 0.000000 0.005421 0.000000
# 3 -0.004319 -0.003575 0.010389 0.000000 -0.006532 0.000000
# 4 0.000000 0.000000 0.000000 0.031670 0.000000 -0.012963
# 5 -0.010129 0.005421 -0.006532 0.000000 0.042283 0.000000
# 6 0.000000 0.000000 0.000000 -0.012963 0.000000 0.039675
#
#
# Mechanical properties :
#
#
# Convention : Reuss Voigt Hill
#
# Bulk Modulus (GPa) = 25.38465 53.80676 39.59571
# Shear Modulus (GPa) = 23.55671 33.47736 28.51703
#
# Velocity S-wave (km/s) = 3.24628 3.86995 3.57175
# Velocity P-wave (km/s) = 5.04056 6.63624 5.89266
#
# Compressibility (1/GPa) = 0.03939389
#
# Stress axis : x y z
#
# Youngs Moduli (GPa) = 23.22818 111.05467 96.25861
#
# Poissons Ratio (x) = 0.40318 0.41577
# Poissons Ratio (y) = 0.08433 0.34417
# Poissons Ratio (z) = 0.10033 0.39707
#
# Static dielectric constant tensor:
#      x y z
#    x 3.758110 0.000000 0.235070 
#    y 0.000000 4.164170 0.000000 
#    z 0.235070 0.000000 4.432090 
# 
# 
# High freq. dielectric constant tensor:
#      x y z
#    x 1.856690 0.000000 0.017410 
#    y 0.000000 1.893840 0.000000 
#    z 0.017410 0.000000 1.892900 
# 
# From -- ./inp_files/7603.got.cif
#   From: 2010.03.12/outbox.cif.g09.slc.cpg/sg4_4_cif.got.tgz:7603.got - 2010.03.31 09:31:35.
