data_PCOD8047511
_publ_section_title
;
Structure prediction by ZEFSAII (Michael W. Deem and Ramdas Pophale) SiO2 
 PCOD8047511
Probable space group: P 21
;
_chemical_formula_sum "Si O2"
_cell_formula_units_Z 10
_cell_length_a 11.228295
_cell_length_b 7.571018
_cell_length_c 7.593319
_cell_angle_alpha 90.000000
_cell_angle_beta 145.012522
_cell_angle_gamma 90.000000
_cell_volume 370.130995
_symmetry_space_group_name_H-M "P 21"
_symmetry_group_IT_number 4
_symmetry_cell_setting 'monoclinic'
loop_
_space_group_symop_operation_xyz
x,y,z
-x,1/2+y,-z
loop_
_atom_site_type_symbol
_atom_site_label
_atom_site_fract_x
_atom_site_fract_y
_atom_site_fract_z
Si Si1 0.426878 0.912050 0.232249
Si Si2 0.438303 0.801877 0.637241
Si Si3 0.004678 0.059098 0.776819
Si Si4 0.035149 0.424068 0.901416
Si Si5 0.278889 0.581247 0.895693
O O1 0.506504 0.864236 0.523836
O O2 0.541454 0.090250 0.306097
O O3 0.447509 0.739889 0.131178
O O4 0.175125 0.923517 0.916105
O O5 0.208355 0.873861 0.397546
O O6 0.592123 0.899622 0.958250
O O7 0.141540 0.234674 0.988836
O O8 0.831768 0.105726 0.424018
O O9 0.891021 0.989651 0.817013
O O10 0.104897 0.568842 0.841725
#
# Coordination Sequence:
#
# PCOD8047511 Si02
#       5
#     2   2   2   2   2
#     4  11  23  45  77 107 156 199 247 316 390 441
#     4  11  24  46  74 115 150 206 252 315 385 464
#     4  11  25  47  77 110 149 203 252 313 383 458
#     4  11  25  49  76 109 151 201 254 314 386 452
#     4  12  25  51  76 109 156 199 255 320 374 459
#
# _framework density 27.017464
#
# number of rings (size 3 to 8) (size 9 to 14) (size 15 to 20)
#    0.000    0.800    4.000    3.600    0.000    0.000 
#   14.400    0.000    0.000    0.000    0.000    0.000 
#    0.000    0.000    0.000    0.000    0.000    0.000 
#
# Total GULP energy -123969.346078 kJ/mol
# GULP energy per Si atom -12396.934608 kJ/mol
# Density = 2.695597 g / cm^3
# Si number density = 27.017464 Si / 1000 Ang^3
#
#
#
# Elastic Constant Matrix: (Units=GPa)
#
#
# Indices 1 2 3 4 5 6 
#
# 1 86.9010 33.5363 27.7405 0.0000 -12.4419 0.0000
# 2 33.5363 183.0941 58.7092 0.0000 -9.0944 0.0000
# 3 27.7405 58.7092 135.9551 0.0000 -25.5519 0.0000
# 4 0.0000 0.0000 0.0000 48.5946 0.0000 -0.1323
# 5 -12.4419 -9.0944 -25.5519 0.0000 38.8451 0.0000
# 6 0.0000 0.0000 0.0000 -0.1323 0.0000 36.8547
#
#
#
# Elastic Compliance Matrix: (Units=1/GPa)
#
#
# Indices 1 2 3 4 5 6 
#
# 1 0.013047 -0.001818 -0.001337 0.000000 0.002874 0.000000
# 2 -0.001818 0.006597 -0.002621 0.000000 -0.000762 0.000000
# 3 -0.001337 -0.002621 0.009772 0.000000 0.005386 0.000000
# 4 0.000000 0.000000 0.000000 0.020579 0.000000 0.000074
# 5 0.002874 -0.000762 0.005386 0.000000 0.030028 0.000000
# 6 0.000000 0.000000 0.000000 0.000074 0.000000 0.027134
#
#
# Mechanical properties :
#
#
# Convention : Reuss Voigt Hill
#
# Bulk Modulus (GPa) = 55.97749 71.76913 63.87331
# Shear Modulus (GPa) = 40.10741 43.92317 42.01529
#
# Velocity S-wave (km/s) = 3.85710 4.03641 3.94777
# Velocity P-wave (km/s) = 6.37183 6.95307 6.66879
#
# Compressibility (1/GPa) = 0.01786432
#
# Stress axis : x y z
#
# Youngs Moduli (GPa) = 76.64425 151.57616 102.32983
#
# Poissons Ratio (x) = 0.27562 0.13680
# Poissons Ratio (y) = 0.13937 0.26822
# Poissons Ratio (z) = 0.10246 0.39730
#
# Static dielectric constant tensor:
#      x y z
#    x 4.877320 0.000000 0.068610 
#    y 0.000000 5.174480 0.000000 
#    z 0.068610 0.000000 4.596130 
# 
# 
# High freq. dielectric constant tensor:
#      x y z
#    x 2.084840 0.000000 0.015570 
#    y 0.000000 2.103530 0.000000 
#    z 0.015570 0.000000 2.090620 
# 
# From -- ./inp_files/9209.got.cif
#   From: 2010.03.12/outbox.cif.g09.slc.cpg/sg4_5_cif.got.tgz:9209.got - 2010.03.31 09:31:35.
