data_PCOD8047156
_publ_section_title
;
Structure prediction by ZEFSAII (Michael W. Deem and Ramdas Pophale) SiO2 
 PCOD8047156
Probable space group: P 21
;
_chemical_formula_sum "Si O2"
_cell_formula_units_Z 16
_cell_length_a 22.199844
_cell_length_b 7.455362
_cell_length_c 6.686780
_cell_angle_alpha 90.000000
_cell_angle_beta 137.078315
_cell_angle_gamma 90.000000
_cell_volume 753.670599
_symmetry_space_group_name_H-M "P 21"
_symmetry_group_IT_number 4
_symmetry_cell_setting 'monoclinic'
loop_
_space_group_symop_operation_xyz
x,y,z
-x,1/2+y,-z
loop_
_atom_site_type_symbol
_atom_site_label
_atom_site_fract_x
_atom_site_fract_y
_atom_site_fract_z
Si Si1 0.285150 0.536150 0.741539
Si Si2 0.641041 0.336138 0.804249
Si Si3 0.912979 0.062932 0.685544
Si Si4 0.983011 0.426117 0.701553
Si Si5 0.592533 0.186443 0.295612
Si Si6 0.523667 0.851984 0.326202
Si Si7 0.892865 0.767193 0.310502
Si Si8 0.696385 0.718185 0.938023
O O1 0.182230 0.551066 0.440964
O O2 0.336414 0.580450 0.663687
O O3 0.308589 0.666937 0.981745
O O4 0.311138 0.337315 0.879443
O O5 0.640142 0.329094 0.558768
O O6 0.540871 0.343614 0.641687
O O7 0.695474 0.511517 0.004702
O O8 0.920609 0.258185 0.603075
O O9 0.925307 0.902177 0.559978
O O10 0.988382 0.036967 0.034090
O O11 0.928979 0.565505 0.432723
O O12 0.069697 0.345002 0.805208
O O13 0.544960 0.058115 0.338551
O O14 0.519732 0.275550 0.979670
O O15 0.613346 0.745221 0.589450
O O16 0.786520 0.763891 0.038854
#
# Coordination Sequence:
#
# PCOD8047156 Si02
#       8
#     2   2   2   2   2   2   2   2
#     4  10  25  44  65  96 132 175 219 275 326 395
#     4  11  23  45  64  97 135 175 220 274 330 382
#     4  11  24  43  69 100 136 168 223 276 331 401
#     4  12  23  45  70  98 133 178 217 274 339 398
#     4  11  24  42  66  98 131 180 220 270 331 391
#     4  11  24  39  67  94 135 175 223 270 326 393
#     4  11  25  44  69 101 131 177 221 272 339 398
#     4  11  24  44  68  94 135 172 219 275 326 394
#
# _framework density 21.229431999999999
#
# number of rings (size 3 to 8) (size 9 to 14) (size 15 to 20)
#    0.000    1.000    3.750    2.250    7.000    0.000 
#    4.500    0.000    0.000    0.000    0.000    0.000 
#    0.000    0.000    0.000    0.000    0.000    0.000 
#
# Total GULP energy -198464.553841 kJ/mol
# GULP energy per Si atom -12404.034615 kJ/mol
# Density = 2.118111 g / cm^3
# Si number density = 21.229432 Si / 1000 Ang^3
#
#
#
# Elastic Constant Matrix: (Units=GPa)
#
#
# Indices 1 2 3 4 5 6 
#
# 1 67.4239 42.7159 37.2055 0.0000 -9.2851 0.0000
# 2 42.7159 122.1504 22.4398 0.0000 0.1746 0.0000
# 3 37.2055 22.4398 65.8719 0.0000 -0.9234 0.0000
# 4 0.0000 0.0000 0.0000 27.3245 0.0000 -1.0192
# 5 -9.2851 0.1746 -0.9234 0.0000 29.0742 0.0000
# 6 0.0000 0.0000 0.0000 -1.0192 0.0000 34.3015
#
#
#
# Elastic Compliance Matrix: (Units=1/GPa)
#
#
# Indices 1 2 3 4 5 6 
#
# 1 0.027927 -0.007363 -0.013146 0.000000 0.008546 0.000000
# 2 -0.007363 0.010675 0.000489 0.000000 -0.002400 0.000000
# 3 -0.013146 0.000489 0.022390 0.000000 -0.003490 0.000000
# 4 0.000000 0.000000 0.000000 0.036638 0.000000 0.001089
# 5 0.008546 -0.002400 -0.003490 0.000000 0.037027 0.000000
# 6 0.000000 0.000000 0.000000 0.001089 0.000000 0.029186
#
#
# Mechanical properties :
#
#
# Convention : Reuss Voigt Hill
#
# Bulk Modulus (GPa) = 47.72725 51.12984 49.42854
# Shear Modulus (GPa) = 23.71141 28.34570 26.02855
#
# Velocity S-wave (km/s) = 3.34565 3.65801 3.50531
# Velocity P-wave (km/s) = 6.12004 6.47905 6.30210
#
# Compressibility (1/GPa) = 0.02095239
#
# Stress axis : x y z
#
# Youngs Moduli (GPa) = 35.80706 93.67433 44.66188
#
# Poissons Ratio (x) = 0.68977 0.58711
# Poissons Ratio (y) = 0.26366 -0.02183
# Poissons Ratio (z) = 0.47071 -0.04578
#
# Static dielectric constant tensor:
#      x y z
#    x 3.782850 0.000000 0.047660 
#    y 0.000000 4.014900 0.000000 
#    z 0.047660 0.000000 3.739020 
# 
# 
# High freq. dielectric constant tensor:
#      x y z
#    x 1.831280 0.000000 0.004700 
#    y 0.000000 1.849020 0.000000 
#    z 0.004700 0.000000 1.827120 
# 
# From -- ./inp_files/3579.got.cif
#   From: 2010.03.12/outbox.cif.g09.slc.cpg/sg4_2_cif.got.tgz:3579.got - 2010.03.31 09:31:35.
