data_PCOD8047069
_publ_section_title
;
Structure prediction by ZEFSAII (Michael W. Deem and Ramdas Pophale) SiO2 
 PCOD8047069
Probable space group: P 21
;
_chemical_formula_sum "Si O2"
_cell_formula_units_Z 14
_cell_length_a 11.619741
_cell_length_b 7.380666
_cell_length_c 12.397636
_cell_angle_alpha 90.000000
_cell_angle_beta 33.380857
_cell_angle_gamma 90.000000
_cell_volume 584.995967
_symmetry_space_group_name_H-M "P 21"
_symmetry_group_IT_number 4
_symmetry_cell_setting 'monoclinic'
loop_
_space_group_symop_operation_xyz
x,y,z
-x,1/2+y,-z
loop_
_atom_site_type_symbol
_atom_site_label
_atom_site_fract_x
_atom_site_fract_y
_atom_site_fract_z
Si Si1 0.519935 0.163970 0.322670
Si Si2 0.610997 0.423821 0.989101
Si Si3 0.041571 0.197751 0.218174
Si Si4 0.368154 0.533418 0.376391
Si Si5 0.368205 0.509245 0.974313
Si Si6 0.309280 0.141506 0.705628
Si Si7 0.946852 0.308529 0.061556
O O1 0.352024 0.325385 0.431776
O O2 0.457432 0.092426 0.489584
O O3 0.754182 0.241712 0.139973
O O4 0.522065 0.004265 0.231122
O O5 0.815717 0.538088 0.850146
O O6 0.673138 0.219857 0.970353
O O7 0.424178 0.513193 0.206234
O O8 0.539259 0.427323 0.921479
O O9 0.153695 0.393037 0.150669
O O10 0.986546 0.178964 0.134912
O O11 0.831104 0.163772 0.452358
O O12 0.560021 0.629422 0.287572
O O13 0.110322 0.006851 0.852884
O O14 0.169656 0.325827 0.820835
#
# Coordination Sequence:
#
# PCOD8047069 Si02
#       7
#     2   2   2   2   2   2   2
#     4  10  24  44  73 110 152 191 245 310 375 452
#     4  11  24  51  74 104 151 196 252 316 368 450
#     4  12  24  45  76 108 145 195 254 302 384 435
#     4  10  24  43  72 108 147 194 243 310 373 446
#     4  11  25  49  79 107 147 200 251 317 374 441
#     4  11  23  42  71 107 153 188 246 296 378 452
#     4  11  24  40  71 108 141 196 239 299 374 444
#
# _framework density 23.931785999999999
#
# number of rings (size 3 to 8) (size 9 to 14) (size 15 to 20)
#    0.000    1.143    4.286    0.857    2.000    4.571 
#    2.571    2.857    0.000    0.000    0.000    0.000 
#    0.000    0.000    0.000    0.000    0.000    0.000 
#
# Total GULP energy -173475.483673 kJ/mol
# GULP energy per Si atom -12391.105977 kJ/mol
# Density = 2.387732 g / cm^3
# Si number density = 23.931786 Si / 1000 Ang^3
#
#
#
# Elastic Constant Matrix: (Units=GPa)
#
#
# Indices 1 2 3 4 5 6 
#
# 1 92.8914 33.3921 15.1320 0.0000 -1.6748 0.0000
# 2 33.3921 100.7040 58.3618 0.0000 -13.4510 0.0000
# 3 15.1320 58.3618 104.2422 0.0000 -19.3563 0.0000
# 4 0.0000 0.0000 0.0000 47.5772 0.0000 -11.6408
# 5 -1.6748 -13.4510 -19.3563 0.0000 32.3317 0.0000
# 6 0.0000 0.0000 0.0000 -11.6408 0.0000 38.3119
#
#
#
# Elastic Compliance Matrix: (Units=1/GPa)
#
#
# Indices 1 2 3 4 5 6 
#
# 1 0.012283 -0.004534 0.000589 0.000000 -0.000898 0.000000
# 2 -0.004534 0.016425 -0.008227 0.000000 0.001673 0.000000
# 3 0.000589 -0.008227 0.015170 0.000000 0.005690 0.000000
# 4 0.000000 0.000000 0.000000 0.022707 0.000000 0.006899
# 5 -0.000898 0.001673 0.005690 0.000000 0.034985 0.000000
# 6 0.000000 0.000000 0.000000 0.006899 0.000000 0.028198
#
#
# Mechanical properties :
#
#
# Convention : Reuss Voigt Hill
#
# Bulk Modulus (GPa) = 51.19369 56.84549 54.01959
# Shear Modulus (GPa) = 31.12881 36.37427 33.75154
#
# Velocity S-wave (km/s) = 3.61048 3.90284 3.75950
# Velocity P-wave (km/s) = 6.23046 6.64185 6.43944
#
# Compressibility (1/GPa) = 0.01953366
#
# Stress axis : x y z
#
# Youngs Moduli (GPa) = 81.41322 60.88380 65.91934
#
# Poissons Ratio (x) = 0.27604 -0.03881
# Poissons Ratio (y) = 0.36912 0.54231
# Poissons Ratio (z) = -0.04793 0.50088
#
# Static dielectric constant tensor:
#      x y z
#    x 4.340500 0.000000 0.139070 
#    y 0.000000 4.545570 0.000000 
#    z 0.139070 0.000000 4.394300 
# 
# 
# High freq. dielectric constant tensor:
#      x y z
#    x 1.949040 0.000000 0.000240 
#    y 0.000000 1.959570 0.000000 
#    z 0.000240 0.000000 1.938950 
# 
# From -- ./inp_files/2424.got.cif
#   From: 2010.03.12/outbox.cif.g09.slc.cpg/sg4_2_cif.got.tgz:2424.got - 2010.03.31 09:31:35.
