data_PCOD8047271
_publ_section_title
;
Structure prediction by ZEFSAII (Michael W. Deem and Ramdas Pophale) SiO2 
 PCOD8047271
Probable space group: P 21
;
_chemical_formula_sum "Si O2"
_cell_formula_units_Z 16
_cell_length_a 13.862175
_cell_length_b 8.365383
_cell_length_c 19.726750
_cell_angle_alpha 90.000000
_cell_angle_beta 161.609128
_cell_angle_gamma 90.000000
_cell_volume 721.720715
_symmetry_space_group_name_H-M "P 21"
_symmetry_group_IT_number 4
_symmetry_cell_setting 'monoclinic'
loop_
_space_group_symop_operation_xyz
x,y,z
-x,1/2+y,-z
loop_
_atom_site_type_symbol
_atom_site_label
_atom_site_fract_x
_atom_site_fract_y
_atom_site_fract_z
Si Si1 0.769284 0.496500 0.856523
Si Si2 0.779785 0.719492 0.740638
Si Si3 0.652660 0.079262 0.169141
Si Si4 0.691875 0.600522 0.333940
Si Si5 0.402672 0.909524 0.124076
Si Si6 0.574824 0.920260 0.972864
Si Si7 0.761329 0.455458 0.621826
Si Si8 0.385278 0.632278 0.267842
O O1 0.742781 0.655053 0.792913
O O2 0.555892 0.521736 0.781326
O O3 0.693107 0.321384 0.773665
O O4 0.122966 0.507841 0.117772
O O5 0.797944 0.553890 0.713909
O O6 0.478267 0.817146 0.521807
O O7 0.083615 0.817571 0.924807
O O8 0.627835 0.267657 0.147418
O O9 0.984767 0.038330 0.421968
O O10 0.398309 0.009600 0.051685
O O11 0.585640 0.020536 0.049131
O O12 0.689624 0.787522 0.311177
O O13 0.589690 0.508714 0.198704
O O14 0.441206 0.588157 0.226654
O O15 0.919461 0.871801 0.183622
O O16 0.677387 0.583993 0.507175
#
# Coordination Sequence:
#
# PCOD8047271 Si02
#       8
#     2   2   2   2   2   2   2   2
#     4  11  21  43  69 103 140 191 230 294 356 428
#     4  12  25  44  70 103 147 180 235 294 368 428
#     4  12  28  48  74 106 140 191 245 293 355 421
#     4  11  23  50  73 100 140 191 234 297 352 412
#     4  11  24  45  73 102 139 187 237 295 354 427
#     4  12  27  48  76 103 145 186 243 299 351 429
#     4  12  25  44  68 109 140 191 230 301 361 429
#     4  11  21  40  73 102 145 187 234 287 363 424
#
# _framework density 22.169241
#
# number of rings (size 3 to 8) (size 9 to 14) (size 15 to 20)
#    0.000    0.500    6.250    2.250    1.750    3.000 
#    9.000    0.000    0.000    0.000    0.000    0.000 
#    0.000    0.000    0.000    0.000    0.000    0.000 
#
# Total GULP energy -198292.383938 kJ/mol
# GULP energy per Si atom -12393.273996 kJ/mol
# Density = 2.211878 g / cm^3
# Si number density = 22.169241 Si / 1000 Ang^3
#
#
#
# Elastic Constant Matrix: (Units=GPa)
#
#
# Indices 1 2 3 4 5 6 
#
# 1 101.6705 37.1430 26.8393 0.0000 -1.6806 0.0000
# 2 37.1430 74.7771 21.6900 0.0000 9.5999 0.0000
# 3 26.8393 21.6900 87.5906 0.0000 -5.3284 0.0000
# 4 0.0000 0.0000 0.0000 30.5518 0.0000 0.7132
# 5 -1.6806 9.5999 -5.3284 0.0000 31.0573 0.0000
# 6 0.0000 0.0000 0.0000 0.7132 0.0000 47.0152
#
#
#
# Elastic Compliance Matrix: (Units=1/GPa)
#
#
# Indices 1 2 3 4 5 6 
#
# 1 0.012620 -0.005877 -0.002284 0.000000 0.002108 0.000000
# 2 -0.005877 0.017998 -0.003046 0.000000 -0.006404 0.000000
# 3 -0.002284 -0.003046 0.013057 0.000000 0.003058 0.000000
# 4 0.000000 0.000000 0.000000 0.032743 0.000000 -0.000497
# 5 0.002108 -0.006404 0.003058 0.000000 0.034817 0.000000
# 6 0.000000 0.000000 0.000000 -0.000497 0.000000 0.021277
#
#
# Mechanical properties :
#
#
# Convention : Reuss Voigt Hill
#
# Bulk Modulus (GPa) = 47.03078 48.37586 47.70332
# Shear Modulus (GPa) = 30.86205 33.61592 32.23899
#
# Velocity S-wave (km/s) = 3.73515 3.89823 3.81756
# Velocity P-wave (km/s) = 6.31366 6.49078 6.40283
#
# Compressibility (1/GPa) = 0.02126267
#
# Stress axis : x y z
#
# Youngs Moduli (GPa) = 79.23692 55.56250 76.58929
#
# Poissons Ratio (x) = 0.32654 0.17490
# Poissons Ratio (y) = 0.46567 0.23325
# Poissons Ratio (z) = 0.18094 0.16922
#
# Static dielectric constant tensor:
#      x y z
#    x 4.205750 0.000000 -0.089100 
#    y 0.000000 4.053060 0.000000 
#    z -0.089100 0.000000 4.038240 
# 
# 
# High freq. dielectric constant tensor:
#      x y z
#    x 1.888280 0.000000 -0.007620 
#    y 0.000000 1.873590 0.000000 
#    z -0.007620 0.000000 1.870180 
# 
# From -- ./inp_files/15182.got.cif
#   From: 2010.03.12/outbox.cif.g09.slc.cpg/sg4_8_cif.got.tgz:15182.got - 2010.03.31 09:31:35.
