data_PCOD8047661
_publ_section_title
;
Structure prediction by ZEFSAII (Michael W. Deem and Ramdas Pophale) SiO2 
 PCOD8047661
Probable space group: P 21
;
_chemical_formula_sum "Si O2"
_cell_formula_units_Z 16
_cell_length_a 5.709332
_cell_length_b 12.380523
_cell_length_c 9.826719
_cell_angle_alpha 90.000000
_cell_angle_beta 71.178538
_cell_angle_gamma 90.000000
_cell_volume 657.455726
_symmetry_space_group_name_H-M "P 21"
_symmetry_group_IT_number 4
_symmetry_cell_setting 'monoclinic'
loop_
_space_group_symop_operation_xyz
x,y,z
-x,1/2+y,-z
loop_
_atom_site_type_symbol
_atom_site_label
_atom_site_fract_x
_atom_site_fract_y
_atom_site_fract_z
Si Si1 0.478224 0.090690 0.154291
Si Si2 0.716072 0.061523 0.632549
Si Si3 0.220330 0.762985 0.763998
Si Si4 0.749077 0.884874 0.186165
Si Si5 0.825792 0.668681 0.008201
Si Si6 0.039403 0.974164 0.356314
Si Si7 0.864858 0.504096 0.224197
Si Si8 0.684180 0.294653 0.565360
O O1 0.563174 0.209110 0.188200
O O2 0.416494 0.109369 0.005659
O O3 0.666256 0.990046 0.117016
O O4 0.259844 0.058836 0.298761
O O5 0.427938 0.025278 0.689112
O O6 0.720299 0.189887 0.653187
O O7 0.928091 0.012645 0.694487
O O8 0.801019 0.034901 0.462183
O O9 0.312471 0.763363 0.592779
O O10 0.991301 0.682999 0.840249
O O11 0.140030 0.881842 0.830791
O O12 0.999623 0.920690 0.214871
O O13 0.568855 0.852256 0.343869
O O14 0.779977 0.785346 0.080072
O O15 0.953208 0.589243 0.093530
O O16 0.095608 0.877927 0.451104
#
# Coordination Sequence:
#
# PCOD8047661 Si02
#       8
#     2   2   2   2   2   2   2   2
#     4  11  28  46  75 112 152 211 264 330 401 472
#     4  12  26  49  80 119 160 205 263 332 391 478
#     4  12  29  47  79 112 160 208 266 332 398 481
#     4  11  25  49  77 108 157 204 270 326 403 473
#     4  12  29  48  74 113 155 217 256 334 389 491
#     4  11  25  47  78 113 157 203 267 333 400 471
#     4  12  30  51  79 119 162 207 268 323 405 475
#     4  11  24  47  78 114 153 209 260 330 395 475
#
# _framework density 24.33624
#
# number of rings (size 3 to 8) (size 9 to 14) (size 15 to 20)
#    0.000    0.500    2.500    3.750   12.250    3.000 
#    0.000    0.000    0.000    0.000    0.000    0.000 
#    0.000    0.000    0.000    0.000    0.000    0.000 
#
# Total GULP energy -198256.972072 kJ/mol
# GULP energy per Si atom -12391.060755 kJ/mol
# Density = 2.428085 g / cm^3
# Si number density = 24.336240 Si / 1000 Ang^3
#
#
#
# Elastic Constant Matrix: (Units=GPa)
#
#
# Indices 1 2 3 4 5 6 
#
# 1 101.0247 26.2953 15.6280 0.0000 10.8883 0.0000
# 2 26.2953 146.5602 18.1406 0.0000 10.7666 0.0000
# 3 15.6280 18.1406 64.0930 0.0000 16.9330 0.0000
# 4 0.0000 0.0000 0.0000 44.4588 0.0000 8.0380
# 5 10.8883 10.7666 16.9330 0.0000 36.0996 0.0000
# 6 0.0000 0.0000 0.0000 8.0380 0.0000 37.2532
#
#
#
# Elastic Compliance Matrix: (Units=1/GPa)
#
#
# Indices 1 2 3 4 5 6 
#
# 1 0.010782 -0.001583 -0.001651 0.000000 -0.002006 0.000000
# 2 -0.001583 0.007360 -0.001419 0.000000 -0.001052 0.000000
# 3 -0.001651 -0.001419 0.018450 0.000000 -0.007733 0.000000
# 4 0.000000 0.000000 0.000000 0.023406 0.000000 -0.005050
# 5 -0.002006 -0.001052 -0.007733 0.000000 0.032247 0.000000
# 6 0.000000 0.000000 0.000000 -0.005050 0.000000 0.027933
#
#
# Mechanical properties :
#
#
# Convention : Reuss Voigt Hill
#
# Bulk Modulus (GPa) = 36.64990 47.97840 42.31415
# Shear Modulus (GPa) = 36.08046 40.33659 38.20853
#
# Velocity S-wave (km/s) = 3.85461 4.07562 3.96665
# Velocity P-wave (km/s) = 5.90789 6.47342 6.19711
#
# Compressibility (1/GPa) = 0.02728520
#
# Stress axis : x y z
#
# Youngs Moduli (GPa) = 92.74601 135.86833 54.20177
#
# Poissons Ratio (x) = 0.21505 0.08950
# Poissons Ratio (y) = 0.14680 0.07693
# Poissons Ratio (z) = 0.15314 0.19284
#
# Static dielectric constant tensor:
#      x y z
#    x 4.490570 0.000000 -0.108700 
#    y 0.000000 4.717790 0.000000 
#    z -0.108700 0.000000 4.251950 
# 
# 
# High freq. dielectric constant tensor:
#      x y z
#    x 1.965690 0.000000 -0.004090 
#    y 0.000000 1.992080 0.000000 
#    z -0.004090 0.000000 1.967720 
# 
# From -- ./inp_files/1445.got.cif
#   From: 2010.03.12/outbox.cif.g09.slc.cpg/sg4_1_cif.got.tgz:1445.got - 2010.03.31 09:31:35.
