data_PCOD8047629
_publ_section_title
;
Structure prediction by ZEFSAII (Michael W. Deem and Ramdas Pophale) SiO2 
 PCOD8047629
Probable space group: P 21
;
_chemical_formula_sum "Si O2"
_cell_formula_units_Z 16
_cell_length_a 9.916908
_cell_length_b 11.541779
_cell_length_c 9.364365
_cell_angle_alpha 90.000000
_cell_angle_beta 138.459019
_cell_angle_gamma 90.000000
_cell_volume 710.792431
_symmetry_space_group_name_H-M "P 21"
_symmetry_group_IT_number 4
_symmetry_cell_setting 'monoclinic'
loop_
_space_group_symop_operation_xyz
x,y,z
-x,1/2+y,-z
loop_
_atom_site_type_symbol
_atom_site_label
_atom_site_fract_x
_atom_site_fract_y
_atom_site_fract_z
Si Si1 0.158454 0.919950 0.910680
Si Si2 0.533731 0.643270 0.400456
Si Si3 0.857258 0.271898 0.841869
Si Si4 0.753259 0.640565 0.859390
Si Si5 0.615433 0.194427 0.237031
Si Si6 0.441539 0.307704 0.839365
Si Si7 0.256405 0.923679 0.511008
Si Si8 0.907829 0.979917 0.434139
O O1 0.003070 0.945926 0.661559
O O2 0.108033 0.806739 0.964842
O O3 0.383032 0.905105 0.023522
O O4 0.152244 0.018929 0.023860
O O5 0.309223 0.666769 0.288766
O O6 0.711915 0.647903 0.658857
O O7 0.587031 0.746884 0.335276
O O8 0.553055 0.514097 0.346476
O O9 0.782814 0.374781 0.679099
O O10 0.076325 0.232570 0.957323
O O11 0.538765 0.656402 0.764630
O O12 0.702999 0.319565 0.347572
O O13 0.797432 0.103279 0.364478
O O14 0.493602 0.206154 0.992429
O O15 0.240698 0.375488 0.726868
O O16 0.066651 0.993137 0.429947
#
# Coordination Sequence:
#
# PCOD8047629 Si02
#       8
#     2   2   2   2   2   2   2   2
#     4  11  24  46  70 104 142 189 242 288 370 429
#     4  11  27  46  74 105 151 182 250 302 362 429
#     4  11  25  48  73 106 144 194 241 298 372 429
#     4  12  24  46  73 103 144 193 240 296 358 434
#     4  12  27  47  75 108 146 193 246 300 367 434
#     4  11  26  49  73 105 145 194 239 304 363 434
#     4  12  26  47  74 112 145 193 245 300 369 437
#     4  12  27  47  76 103 151 192 243 308 361 438
#
# _framework density 22.510086000000001
#
# number of rings (size 3 to 8) (size 9 to 14) (size 15 to 20)
#    0.000    0.500    5.000    2.250    5.250    3.000 
#    0.000    0.000    0.000    0.000    0.000    0.000 
#    0.000    0.000    0.000    0.000    0.000    0.000 
#
# Total GULP energy -198400.288069 kJ/mol
# GULP energy per Si atom -12400.018004 kJ/mol
# Density = 2.245885 g / cm^3
# Si number density = 22.510086 Si / 1000 Ang^3
#
#
#
# Elastic Constant Matrix: (Units=GPa)
#
#
# Indices 1 2 3 4 5 6 
#
# 1 111.2624 43.8785 41.5274 0.0000 7.2125 0.0000
# 2 43.8785 115.0006 54.9956 0.0000 11.5827 0.0000
# 3 41.5274 54.9956 123.5497 0.0000 -9.7195 0.0000
# 4 0.0000 0.0000 0.0000 46.3109 0.0000 6.5621
# 5 7.2125 11.5827 -9.7195 0.0000 38.7955 0.0000
# 6 0.0000 0.0000 0.0000 6.5621 0.0000 40.4844
#
#
#
# Elastic Compliance Matrix: (Units=1/GPa)
#
#
# Indices 1 2 3 4 5 6 
#
# 1 0.011217 -0.002810 -0.002670 0.000000 -0.001915 0.000000
# 2 -0.002810 0.012628 -0.005031 0.000000 -0.004508 0.000000
# 3 -0.002670 -0.005031 0.011617 0.000000 0.004909 0.000000
# 4 0.000000 0.000000 0.000000 0.022101 0.000000 -0.003582
# 5 -0.001915 -0.004508 0.004909 0.000000 0.028708 0.000000
# 6 0.000000 0.000000 0.000000 -0.003582 0.000000 0.025282
#
#
# Mechanical properties :
#
#
# Convention : Reuss Voigt Hill
#
# Bulk Modulus (GPa) = 69.25584 70.06840 69.66212
# Shear Modulus (GPa) = 36.39347 39.07891 37.73619
#
# Velocity S-wave (km/s) = 4.02526 4.17113 4.09884
# Velocity P-wave (km/s) = 7.24134 7.37515 7.30855
#
# Compressibility (1/GPa) = 0.01443922
#
# Stress axis : x y z
#
# Youngs Moduli (GPa) = 89.15336 79.19013 86.08024
#
# Poissons Ratio (x) = 0.22252 0.22983
# Poissons Ratio (y) = 0.25052 0.43309
# Poissons Ratio (z) = 0.23804 0.39842
#
# Static dielectric constant tensor:
#      x y z
#    x 4.027860 0.000000 -0.025850 
#    y 0.000000 4.053550 0.000000 
#    z -0.025850 0.000000 4.110120 
# 
# 
# High freq. dielectric constant tensor:
#      x y z
#    x 1.894480 0.000000 -0.008290 
#    y 0.000000 1.888730 0.000000 
#    z -0.008290 0.000000 1.891850 
# 
# From -- ./inp_files/1388.got.cif
#   From: 2010.03.12/outbox.cif.g09.slc.cpg/sg4_1_cif.got.tgz:1388.got - 2010.03.31 09:31:35.
