data_PCOD8047891
_publ_section_title
;
Structure prediction by ZEFSAII (Michael W. Deem and Ramdas Pophale) SiO2 
 PCOD8047891
Probable space group: P 21
;
_chemical_formula_sum "Si O2"
_cell_formula_units_Z 16
_cell_length_a 9.090344
_cell_length_b 15.405356
_cell_length_c 9.166031
_cell_angle_alpha 90.000000
_cell_angle_beta 29.525059
_cell_angle_gamma 90.000000
_cell_volume 632.568783
_symmetry_space_group_name_H-M "P 21"
_symmetry_group_IT_number 4
_symmetry_cell_setting 'monoclinic'
loop_
_space_group_symop_operation_xyz
x,y,z
-x,1/2+y,-z
loop_
_atom_site_type_symbol
_atom_site_label
_atom_site_fract_x
_atom_site_fract_y
_atom_site_fract_z
Si Si1 0.911019 0.420610 0.372748
Si Si2 0.300746 0.642976 0.318941
Si Si3 0.276986 0.145740 0.554671
Si Si4 0.444783 0.533326 0.924335
Si Si5 0.288928 0.755177 0.935729
Si Si6 0.742173 0.757170 0.805628
Si Si7 0.866940 0.418984 0.080808
Si Si8 0.623238 0.034085 0.475991
O O1 0.104068 0.346518 0.282158
O O2 0.645519 0.447240 0.714088
O O3 0.106333 0.507683 0.173234
O O4 0.807731 0.390768 0.300897
O O5 0.238779 0.604325 0.533132
O O6 0.996301 0.689974 0.528889
O O7 0.415797 0.563978 0.117272
O O8 0.566229 0.714798 0.095228
O O9 0.404279 0.113731 0.287896
O O10 0.488949 0.231082 0.390879
O O11 0.358370 0.074930 0.605185
O O12 0.930582 0.172295 0.846347
O O13 0.490679 0.777512 0.901952
O O14 0.079896 0.834885 0.065984
O O15 0.130202 0.489136 0.837143
O O16 0.560800 0.459941 0.280339
#
# Coordination Sequence:
#
# PCOD8047891 Si02
#       8
#     2   2   2   2   2   2   2   2
#     4  12  26  48  79 108 153 200 250 312 383 455
#     4  12  28  49  77 112 155 197 258 319 373 450
#     4  12  24  48  78 105 148 201 253 308 374 453
#     4  12  25  50  75 109 144 203 254 304 375 450
#     4  12  28  46  75 111 152 200 248 312 385 454
#     4  12  28  50  73 115 156 199 252 312 387 458
#     4  12  26  50  74 115 153 196 255 312 384 457
#     4  12  27  49  77 113 151 196 258 319 373 447
#
# _framework density 25.293690999999999
#
# number of rings (size 3 to 8) (size 9 to 14) (size 15 to 20)
#    0.000    0.000    3.750    5.250    5.250    0.000 
#    0.000    0.000    0.000    0.000    0.000    0.000 
#    0.000    0.000    0.000    0.000    0.000    0.000 
#
# Total GULP energy -198293.201985 kJ/mol
# GULP energy per Si atom -12393.325124 kJ/mol
# Density = 2.523612 g / cm^3
# Si number density = 25.293691 Si / 1000 Ang^3
#
#
#
# Elastic Constant Matrix: (Units=GPa)
#
#
# Indices 1 2 3 4 5 6 
#
# 1 105.7599 44.9248 36.7692 0.0000 -3.4213 0.0000
# 2 44.9248 81.8085 22.6287 0.0000 4.4691 0.0000
# 3 36.7692 22.6287 124.7774 0.0000 -8.9981 0.0000
# 4 0.0000 0.0000 0.0000 46.9351 0.0000 -8.4193
# 5 -3.4213 4.4691 -8.9981 0.0000 34.3457 0.0000
# 6 0.0000 0.0000 0.0000 -8.4193 0.0000 35.0198
#
#
#
# Elastic Compliance Matrix: (Units=1/GPa)
#
#
# Indices 1 2 3 4 5 6 
#
# 1 0.013217 -0.006625 -0.002585 0.000000 0.001501 0.000000
# 2 -0.006625 0.016376 -0.001242 0.000000 -0.003116 0.000000
# 3 -0.002585 -0.001242 0.009168 0.000000 0.002306 0.000000
# 4 0.000000 0.000000 0.000000 0.022266 0.000000 0.005353
# 5 0.001501 -0.003116 0.002306 0.000000 0.030275 0.000000
# 6 0.000000 0.000000 0.000000 0.005353 0.000000 0.029842
#
#
# Mechanical properties :
#
#
# Convention : Reuss Voigt Hill
#
# Bulk Modulus (GPa) = 56.00480 57.88791 56.94636
# Shear Modulus (GPa) = 33.78388 37.12834 35.45611
#
# Velocity S-wave (km/s) = 3.65864 3.83546 3.74809
# Velocity P-wave (km/s) = 6.32751 6.52306 6.42603
#
# Compressibility (1/GPa) = 0.01785561
#
# Stress axis : x y z
#
# Youngs Moduli (GPa) = 75.66123 61.06654 109.07998
#
# Poissons Ratio (x) = 0.40456 0.28197
# Poissons Ratio (y) = 0.50125 0.13550
# Poissons Ratio (z) = 0.19558 0.07586
#
# Static dielectric constant tensor:
#      x y z
#    x 4.084290 0.000000 -0.160930 
#    y 0.000000 4.699840 0.000000 
#    z -0.160930 0.000000 4.812200 
# 
# 
# High freq. dielectric constant tensor:
#      x y z
#    x 1.987380 0.000000 -0.016330 
#    y 0.000000 2.022920 0.000000 
#    z -0.016330 0.000000 2.031330 
# 
# From -- ./inp_files/6905.got.cif
#   From: 2010.03.12/outbox.cif.g09.slc.cpg/sg4_4_cif.got.tgz:6905.got - 2010.03.31 09:31:35.
