data_PCOD8047853
_publ_section_title
;
Structure prediction by ZEFSAII (Michael W. Deem and Ramdas Pophale) SiO2 
 PCOD8047853
Probable space group: P 21
;
_chemical_formula_sum "Si O2"
_cell_formula_units_Z 16
_cell_length_a 5.575725
_cell_length_b 28.144713
_cell_length_c 4.860503
_cell_angle_alpha 90.000000
_cell_angle_beta 51.733041
_cell_angle_gamma 90.000000
_cell_volume 598.856789
_symmetry_space_group_name_H-M "P 21"
_symmetry_group_IT_number 4
_symmetry_cell_setting 'monoclinic'
loop_
_space_group_symop_operation_xyz
x,y,z
-x,1/2+y,-z
loop_
_atom_site_type_symbol
_atom_site_label
_atom_site_fract_x
_atom_site_fract_y
_atom_site_fract_z
Si Si1 0.291085 0.997120 0.202398
Si Si2 0.761346 0.244877 0.747070
Si Si3 0.823063 0.061331 0.783386
Si Si4 0.744077 0.809009 0.804693
Si Si5 0.859070 0.437008 0.191236
Si Si6 0.735576 0.124393 0.354105
Si Si7 0.225458 0.188377 0.811000
Si Si8 0.331509 0.371473 0.627796
O O1 0.183949 0.952819 0.463293
O O2 0.223083 0.982613 0.936801
O O3 0.138595 0.046234 0.413893
O O4 0.648294 0.010865 0.953723
O O5 0.495093 0.216470 0.775274
O O6 0.969890 0.272869 0.376448
O O7 0.996874 0.216140 0.770655
O O8 0.565010 0.281629 0.075680
O O9 0.662261 0.098597 0.693983
O O10 0.861233 0.086418 0.047001
O O11 0.830467 0.851503 0.532757
O O12 0.665949 0.828344 0.161615
O O13 0.662212 0.388981 0.290198
O O14 0.192044 0.419159 0.864416
O O15 0.413140 0.149064 0.497343
O O16 0.003823 0.163990 0.195951
#
# Coordination Sequence:
#
# PCOD8047853 Si02
#       8
#     2   2   2   2   2   2   2   2
#     4  12  24  43  69 102 141 188 239 298 361 435
#     4  12  27  49  76 110 149 198 251 310 374 445
#     4  12  25  45  70 104 143 190 241 300 366 437
#     4  12  26  47  73 106 147 194 245 306 369 441
#     4  12  24  43  69 102 141 188 239 298 361 435
#     4  12  26  47  73 106 147 194 245 306 369 441
#     4  12  27  49  76 110 149 198 251 310 374 445
#     4  12  25  45  70 104 143 190 241 300 366 437
#
# _framework density 26.717575
#
# number of rings (size 3 to 8) (size 9 to 14) (size 15 to 20)
#    0.000    0.000    0.000   10.500    0.000    4.000 
#    0.000    0.000    0.000    0.000    0.000    0.000 
#    0.000    0.000    0.000    0.000    0.000    0.000 
#
# Total GULP energy -198360.865629 kJ/mol
# GULP energy per Si atom -12397.554102 kJ/mol
# Density = 2.665676 g / cm^3
# Si number density = 26.717575 Si / 1000 Ang^3
#
#
#
# Elastic Constant Matrix: (Units=GPa)
#
#
# Indices 1 2 3 4 5 6 
#
# 1 84.2498 14.7186 13.8730 0.0000 -6.0265 0.0000
# 2 14.7186 78.4068 15.1454 0.0000 -5.6595 0.0000
# 3 13.8730 15.1454 107.1625 0.0000 -6.5538 0.0000
# 4 0.0000 0.0000 0.0000 54.4017 0.0000 -18.0815
# 5 -6.0265 -5.6595 -6.5538 0.0000 43.5536 0.0000
# 6 0.0000 0.0000 0.0000 -18.0815 0.0000 27.5889
#
#
#
# Elastic Compliance Matrix: (Units=1/GPa)
#
#
# Indices 1 2 3 4 5 6 
#
# 1 0.012520 -0.002015 -0.001258 0.000000 0.001281 0.000000
# 2 -0.002015 0.013526 -0.001575 0.000000 0.001242 0.000000
# 3 -0.001258 -0.001575 0.009784 0.000000 0.001094 0.000000
# 4 0.000000 0.000000 0.000000 0.023501 0.000000 0.015402
# 5 0.001281 0.001242 0.001094 0.000000 0.023463 0.000000
# 6 0.000000 0.000000 0.000000 0.015402 0.000000 0.046341
#
#
# Mechanical properties :
#
#
# Convention : Reuss Voigt Hill
#
# Bulk Modulus (GPa) = 38.26243 39.69923 38.98083
# Shear Modulus (GPa) = 33.88855 40.18098 37.03476
#
# Velocity S-wave (km/s) = 3.56532 3.88224 3.72715
# Velocity P-wave (km/s) = 5.59472 5.91497 5.75707
#
# Compressibility (1/GPa) = 0.02613530
#
# Stress axis : x y z
#
# Youngs Moduli (GPa) = 79.87074 73.93124 102.20870
#
# Poissons Ratio (x) = 0.14896 0.12855
# Poissons Ratio (y) = 0.16093 0.16097
# Poissons Ratio (z) = 0.10045 0.11643
#
# Static dielectric constant tensor:
#      x y z
#    x 4.375940 0.000000 -0.298340 
#    y 0.000000 5.093040 0.000000 
#    z -0.298340 0.000000 5.203090 
# 
# 
# High freq. dielectric constant tensor:
#      x y z
#    x 2.048740 0.000000 -0.009660 
#    y 0.000000 2.091110 0.000000 
#    z -0.009660 0.000000 2.103750 
# 
# From -- ./inp_files/831.got.cif
#   From: 2010.03.12/outbox.cif.g09.slc.cpg/sg4_1_cif.got.tgz:831.got - 2010.03.31 09:31:35.
