data_PCOD8047391
_publ_section_title
;
Structure prediction by ZEFSAII (Michael W. Deem and Ramdas Pophale) SiO2 
 PCOD8047391
Probable space group: P 21
;
_chemical_formula_sum "Si O2"
_cell_formula_units_Z 12
_cell_length_a 13.898830
_cell_length_b 9.162413
_cell_length_c 6.433268
_cell_angle_alpha 90.000000
_cell_angle_beta 137.872964
_cell_angle_gamma 90.000000
_cell_volume 549.537954
_symmetry_space_group_name_H-M "P 21"
_symmetry_group_IT_number 4
_symmetry_cell_setting 'monoclinic'
loop_
_space_group_symop_operation_xyz
x,y,z
-x,1/2+y,-z
loop_
_atom_site_type_symbol
_atom_site_label
_atom_site_fract_x
_atom_site_fract_y
_atom_site_fract_z
Si Si1 0.160253 0.277440 0.714380
Si Si2 0.262367 0.033033 0.591230
Si Si3 0.388240 0.180760 0.402871
Si Si4 0.474181 0.476606 0.697398
Si Si5 0.838652 0.987016 0.646056
Si Si6 0.962950 0.290667 0.763683
O O1 0.160328 0.139409 0.560378
O O2 0.176191 0.427255 0.612087
O O3 0.010247 0.280537 0.598338
O O4 0.292859 0.266998 0.083568
O O5 0.284817 0.096966 0.397397
O O6 0.185357 0.877561 0.453490
O O7 0.416487 0.014569 0.944298
O O8 0.483203 0.302592 0.672002
O O9 0.490290 0.063732 0.456012
O O10 0.317236 0.525624 0.517135
O O11 0.937851 0.129268 0.812380
O O12 0.910223 0.863338 0.902041
#
# Coordination Sequence:
#
# PCOD8047391 Si02
#       6
#     2   2   2   2   2   2
#     4  11  22  47  69  98 140 180 229 293 342 406
#     4  11  26  45  72 103 142 176 238 292 343 418
#     4  11  25  47  70 103 142 179 234 291 342 412
#     4  11  27  44  73 102 138 189 228 295 347 412
#     4  12  26  45  72 101 142 185 234 287 350 414
#     4  12  26  44  70 105 136 189 229 288 352 416
#
# _framework density 21.836523
#
# number of rings (size 3 to 8) (size 9 to 14) (size 15 to 20)
#    0.000    0.667    3.333    3.000    7.000    1.333 
#    3.000    0.000    0.000    0.000    0.000    0.000 
#    0.000    0.000    0.000    0.000    0.000    0.000 
#
# Total GULP energy -148888.863293 kJ/mol
# GULP energy per Si atom -12407.405274 kJ/mol
# Density = 2.178682 g / cm^3
# Si number density = 21.836523 Si / 1000 Ang^3
#
#
#
# Elastic Constant Matrix: (Units=GPa)
#
#
# Indices 1 2 3 4 5 6 
#
# 1 171.0616 67.3571 47.5043 0.0000 -7.6420 0.0000
# 2 67.3571 127.4231 28.5983 0.0000 -3.6474 0.0000
# 3 47.5043 28.5983 81.2453 0.0000 -2.7930 0.0000
# 4 0.0000 0.0000 0.0000 37.6511 0.0000 1.5487
# 5 -7.6420 -3.6474 -2.7930 0.0000 33.8442 0.0000
# 6 0.0000 0.0000 0.0000 1.5487 0.0000 52.2866
#
#
#
# Elastic Compliance Matrix: (Units=1/GPa)
#
#
# Indices 1 2 3 4 5 6 
#
# 1 0.008282 -0.003546 -0.003553 0.000000 0.001195 0.000000
# 2 -0.003546 0.010055 -0.001460 0.000000 0.000162 0.000000
# 3 -0.003553 -0.001460 0.014909 0.000000 0.000271 0.000000
# 4 0.000000 0.000000 0.000000 0.026592 0.000000 -0.000788
# 5 0.001195 0.000162 0.000271 0.000000 0.029857 0.000000
# 6 0.000000 0.000000 0.000000 -0.000788 0.000000 0.019149
#
#
# Mechanical properties :
#
#
# Convention : Reuss Voigt Hill
#
# Bulk Modulus (GPa) = 62.00844 74.07214 68.04029
# Shear Modulus (GPa) = 38.06923 40.50773 39.28848
#
# Velocity S-wave (km/s) = 4.17990 4.31170 4.24631
# Velocity P-wave (km/s) = 7.19401 7.66697 7.43425
#
# Compressibility (1/GPa) = 0.01612684
#
# Stress axis : x y z
#
# Youngs Moduli (GPa) = 120.73714 99.45370 67.07218
#
# Poissons Ratio (x) = 0.35271 0.23833
# Poissons Ratio (y) = 0.42819 0.09793
# Poissons Ratio (z) = 0.42902 0.14521
#
# Static dielectric constant tensor:
#      x y z
#    x 4.106910 0.000000 -0.197710 
#    y 0.000000 3.989680 0.000000 
#    z -0.197710 0.000000 3.828120 
# 
# 
# High freq. dielectric constant tensor:
#      x y z
#    x 1.872220 0.000000 -0.006350 
#    y 0.000000 1.866390 0.000000 
#    z -0.006350 0.000000 1.856090 
# 
# From -- ./inp_files/1012.got.cif
#   From: 2010.03.12/outbox.cif.g09.slc.cpg/sg4_1_cif.got.tgz:1012.got - 2010.03.31 09:31:35.
