data_PCOD8047965
_publ_section_title
;
Structure prediction by ZEFSAII (Michael W. Deem and Ramdas Pophale) SiO2 
 PCOD8047965
Probable space group: P 21
;
_chemical_formula_sum "Si O2"
_cell_formula_units_Z 16
_cell_length_a 11.425705
_cell_length_b 5.284368
_cell_length_c 26.359622
_cell_angle_alpha 90.000000
_cell_angle_beta 156.827785
_cell_angle_gamma 90.000000
_cell_volume 626.261499
_symmetry_space_group_name_H-M "P 21"
_symmetry_group_IT_number 4
_symmetry_cell_setting 'monoclinic'
loop_
_space_group_symop_operation_xyz
x,y,z
-x,1/2+y,-z
loop_
_atom_site_type_symbol
_atom_site_label
_atom_site_fract_x
_atom_site_fract_y
_atom_site_fract_z
Si Si1 0.280100 0.754200 0.050937
Si Si2 0.131252 0.600224 0.178173
Si Si3 0.180149 0.628447 0.564696
Si Si4 0.305271 0.967835 0.167253
Si Si5 0.435585 0.219929 0.004557
Si Si6 0.292816 0.502233 0.495817
Si Si7 0.818788 0.451815 0.229187
Si Si8 0.631676 0.997391 0.624226
O O1 0.406316 0.899688 0.150750
O O2 0.556528 0.656351 0.128890
O O3 0.042089 0.543934 0.975151
O O4 0.100634 0.917038 0.940077
O O5 0.338834 0.730464 0.218991
O O6 0.328629 0.457952 0.299051
O O7 0.907410 0.794276 0.118262
O O8 0.463196 0.671246 0.715916
O O9 0.284692 0.520214 0.552633
O O10 0.972924 0.401986 0.504476
O O11 0.646803 0.201090 0.139685
O O12 0.561726 0.453147 0.022547
O O13 0.481427 0.263904 0.553211
O O14 0.965421 0.438956 0.343178
O O15 0.432978 0.757646 0.526973
O O16 0.063626 0.520481 0.284883
#
# Coordination Sequence:
#
# PCOD8047965 Si02
#       8
#     2   2   2   2   2   2   2   2
#     4  12  27  49  74 117 151 209 252 337 390 470
#     4  12  26  45  78 106 153 202 253 315 397 464
#     4  12  28  49  81 111 152 205 258 316 380 466
#     4  12  26  48  78 109 159 198 263 317 404 461
#     4  12  27  45  73 115 150 197 249 318 386 459
#     4  12  28  52  74 115 153 204 262 316 393 450
#     4  12  28  48  80 110 159 196 269 316 387 466
#     4  12  28  48  80 109 155 209 252 323 383 470
#
# _framework density 25.548431000000001
#
# number of rings (size 3 to 8) (size 9 to 14) (size 15 to 20)
#    0.000    0.000    5.000    3.750    3.500    4.000 
#    0.000    0.000    0.000    0.000    0.000    0.000 
#    0.000    0.000    0.000    0.000    0.000    0.000 
#
# Total GULP energy -198330.028861 kJ/mol
# GULP energy per Si atom -12395.626804 kJ/mol
# Density = 2.549028 g / cm^3
# Si number density = 25.548431 Si / 1000 Ang^3
#
#
#
# Elastic Constant Matrix: (Units=GPa)
#
#
# Indices 1 2 3 4 5 6 
#
# 1 58.4404 3.6531 8.8068 -0.0002 -11.3277 0.0002
# 2 3.6531 92.4043 14.0478 0.0000 0.1792 0.0001
# 3 8.8068 14.0478 118.1604 0.0005 -22.4625 -0.0005
# 4 -0.0002 0.0000 0.0005 28.8407 0.0002 3.8387
# 5 -11.3277 0.1792 -22.4625 0.0002 46.3819 -0.0002
# 6 0.0002 0.0001 -0.0005 3.8387 -0.0002 9.6151
#
#
#
# Elastic Compliance Matrix: (Units=1/GPa)
#
#
# Indices 1 2 3 4 5 6 
#
# 1 0.018033 -0.000649 -0.000473 0.000000 0.004178 0.000000
# 2 -0.000649 0.011068 -0.001438 0.000000 -0.000898 0.000000
# 3 -0.000473 -0.001438 0.009525 0.000000 0.004503 0.000001
# 4 0.000000 0.000000 0.000000 0.036619 0.000000 -0.014620
# 5 0.004178 -0.000898 0.004503 0.000000 0.024765 0.000001
# 6 0.000000 0.000000 0.000001 -0.014620 0.000001 0.109840
#
#
# Mechanical properties :
#
#
# Convention : Reuss Voigt Hill
#
# Bulk Modulus (GPa) = 29.84497 35.78005 32.81251
# Shear Modulus (GPa) = 22.11027 33.13402 27.62214
#
# Velocity S-wave (km/s) = 2.94500 3.60517 3.29168
# Velocity P-wave (km/s) = 4.82402 5.60044 5.22666
#
# Compressibility (1/GPa) = 0.03350648
#
# Stress axis : x y z
#
# Youngs Moduli (GPa) = 55.45377 90.35015 104.98303
#
# Poissons Ratio (x) = 0.05865 0.04962
# Poissons Ratio (y) = 0.03600 0.15098
# Poissons Ratio (z) = 0.02621 0.12994
#
# Static dielectric constant tensor:
#      x y z
#    x 5.003310 0.000000 0.113080 
#    y 0.000000 4.551550 0.000000 
#    z 0.113080 0.000000 5.217350 
# 
# 
# High freq. dielectric constant tensor:
#      x y z
#    x 2.035850 0.000000 -0.005370 
#    y 0.000000 2.006170 0.000000 
#    z -0.005370 0.000000 2.037490 
# 
# From -- ./inp_files/16367.got.cif
#   From: 2010.03.12/outbox.cif.g09.slc.cpg/sg4_9_cif.got.tgz:16367.got - 2010.03.31 09:31:35.
