data_PCOD8047332
_publ_section_title
;
Structure prediction by ZEFSAII (Michael W. Deem and Ramdas Pophale) SiO2 
 PCOD8047332
Probable space group: P 21
;
_chemical_formula_sum "Si O2"
_cell_formula_units_Z 14
_cell_length_a 8.575947
_cell_length_b 7.904519
_cell_length_c 9.861916
_cell_angle_alpha 90.000000
_cell_angle_beta 114.154018
_cell_angle_gamma 90.000000
_cell_volume 609.996495
_symmetry_space_group_name_H-M "P 21"
_symmetry_group_IT_number 4
_symmetry_cell_setting 'monoclinic'
loop_
_space_group_symop_operation_xyz
x,y,z
-x,1/2+y,-z
loop_
_atom_site_type_symbol
_atom_site_label
_atom_site_fract_x
_atom_site_fract_y
_atom_site_fract_z
Si Si1 0.902455 0.412570 0.324089
Si Si2 0.000295 0.222010 0.819508
Si Si3 0.379781 0.751878 0.342132
Si Si4 0.561057 0.083246 0.358315
Si Si5 0.543792 0.559219 0.164978
Si Si6 0.912809 0.023908 0.347385
Si Si7 0.339411 0.256491 0.054272
O O1 0.995119 0.541386 0.255030
O O2 0.697798 0.425640 0.239516
O O3 0.954037 0.216806 0.313509
O O4 0.952057 0.469035 0.491725
O O5 0.067468 0.384335 0.760945
O O6 0.806098 0.249792 0.797272
O O7 0.135942 0.215294 0.992550
O O8 0.362443 0.687052 0.488959
O O9 0.513917 0.654407 0.295615
O O10 0.445495 0.939883 0.382546
O O11 0.719314 0.009978 0.330894
O O12 0.432799 0.187967 0.219706
O O13 0.373074 0.457436 0.063494
O O14 0.585677 0.687192 0.059891
#
# Coordination Sequence:
#
# PCOD8047332 Si02
#       7
#     2   2   2   2   2   2   2
#     4  11  22  39  73 101 139 179 245 282 344 420
#     4  11  26  45  69 105 142 187 237 290 357 423
#     4  12  27  45  72 108 144 182 235 303 356 414
#     4  12  25  45  71 106 142 185 238 292 359 418
#     4  11  24  44  73 104 141 185 238 289 355 424
#     4  12  22  43  71 104 134 192 235 292 339 433
#     4  11  24  47  71 100 140 194 234 284 350 440
#
# _framework density 22.950951
#
# number of rings (size 3 to 8) (size 9 to 14) (size 15 to 20)
#    0.000    0.571    4.286    4.286    2.000    1.143 
#    2.571    0.000    0.000    0.000    0.000    0.000 
#    0.000    0.000    0.000    0.000    0.000    0.000 
#
# Total GULP energy -173594.081861 kJ/mol
# GULP energy per Si atom -12399.577276 kJ/mol
# Density = 2.289871 g / cm^3
# Si number density = 22.950951 Si / 1000 Ang^3
#
#
#
# Elastic Constant Matrix: (Units=GPa)
#
#
# Indices 1 2 3 4 5 6 
#
# 1 69.8166 32.8527 11.2030 0.0000 19.7560 0.0000
# 2 32.8527 124.1035 15.5278 0.0000 4.1781 0.0000
# 3 11.2030 15.5278 92.0333 0.0000 19.1943 0.0000
# 4 0.0000 0.0000 0.0000 30.7978 0.0000 9.7171
# 5 19.7560 4.1781 19.1943 0.0000 28.0971 0.0000
# 6 0.0000 0.0000 0.0000 9.7171 0.0000 12.8787
#
#
#
# Elastic Compliance Matrix: (Units=1/GPa)
#
#
# Indices 1 2 3 4 5 6 
#
# 1 0.020701 -0.005162 0.001430 0.000000 -0.014765 0.000000
# 2 -0.005162 0.009521 -0.001679 0.000000 0.003361 0.000000
# 3 0.001430 -0.001679 0.012982 0.000000 -0.009625 0.000000
# 4 0.000000 0.000000 0.000000 0.042615 0.000000 -0.032153
# 5 -0.014765 0.003361 -0.009625 0.000000 0.052048 0.000000
# 6 0.000000 0.000000 0.000000 -0.032153 0.000000 0.101907
#
#
# Mechanical properties :
#
#
# Convention : Reuss Voigt Hill
#
# Bulk Modulus (GPa) = 30.88013 45.01336 37.94674
# Shear Modulus (GPa) = 19.12859 29.44605 24.28732
#
# Velocity S-wave (km/s) = 2.89009 3.58578 3.25657
# Velocity P-wave (km/s) = 4.96195 6.06624 5.54167
#
# Compressibility (1/GPa) = 0.03238329
#
# Stress axis : x y z
#
# Youngs Moduli (GPa) = 48.30763 105.02943 77.02916
#
# Poissons Ratio (x) = 0.54214 -0.11018
# Poissons Ratio (y) = 0.24935 0.12933
# Poissons Ratio (z) = -0.06910 0.17634
#
# Static dielectric constant tensor:
#      x y z
#    x 4.174370 0.000000 0.471670 
#    y 0.000000 4.352320 0.000000 
#    z 0.471670 0.000000 4.268770 
# 
# 
# High freq. dielectric constant tensor:
#      x y z
#    x 1.896410 0.000000 0.024640 
#    y 0.000000 1.922440 0.000000 
#    z 0.024640 0.000000 1.910270 
# 
# From -- ./inp_files/5295.got.cif
#   From: 2010.03.12/outbox.cif.g09.slc.cpg/sg4_3_cif.got.tgz:5295.got - 2010.03.31 09:31:35.
