data_PCOD8047734
_publ_section_title
;
Structure prediction by ZEFSAII (Michael W. Deem and Ramdas Pophale) SiO2 
 PCOD8047734
Probable space group: P 21
;
_chemical_formula_sum "Si O2"
_cell_formula_units_Z 16
_cell_length_a 9.474836
_cell_length_b 12.770157
_cell_length_c 5.239263
_cell_angle_alpha 90.000000
_cell_angle_beta 83.737769
_cell_angle_gamma 90.000000
_cell_volume 630.142793
_symmetry_space_group_name_H-M "P 21"
_symmetry_group_IT_number 4
_symmetry_cell_setting 'monoclinic'
loop_
_space_group_symop_operation_xyz
x,y,z
-x,1/2+y,-z
loop_
_atom_site_type_symbol
_atom_site_label
_atom_site_fract_x
_atom_site_fract_y
_atom_site_fract_z
Si Si1 0.165454 0.657900 0.412975
Si Si2 0.394161 0.923411 0.950911
Si Si3 0.388882 0.299449 0.829040
Si Si4 0.848179 0.287799 0.091687
Si Si5 0.512320 0.096629 0.638081
Si Si6 0.011076 0.954009 0.657404
Si Si7 0.255332 0.065553 0.337558
Si Si8 0.214357 0.295859 0.364080
O O1 0.109264 0.704552 0.694270
O O2 0.325351 0.624204 0.449097
O O3 0.079354 0.559946 0.312757
O O4 0.148111 0.743617 0.194788
O O5 0.477729 0.877644 0.178001
O O6 0.278548 0.011529 0.058872
O O7 0.312435 0.829107 0.823431
O O8 0.509465 0.979427 0.750268
O O9 0.445185 0.180471 0.850711
O O10 0.329750 0.314756 0.559084
O O11 0.277083 0.326143 0.074655
O O12 0.954964 0.389179 0.086359
O O13 0.412652 0.093896 0.408660
O O14 0.917400 0.868135 0.522941
O O15 0.166077 0.979291 0.512480
O O16 0.165650 0.173707 0.352141
#
# Coordination Sequence:
#
# PCOD8047734 Si02
#       8
#     2   2   2   2   2   2   2   2
#     4  12  30  51  80 117 157 205 269 322 390 471
#     4  12  25  45  78 111 155 203 255 321 400 452
#     4  11  26  45  76 110 154 196 258 325 382 459
#     4  12  29  50  78 115 158 208 257 321 389 474
#     4  11  25  46  77 111 151 199 260 325 385 457
#     4  12  28  52  79 113 159 212 258 320 391 473
#     4  11  26  47  76 110 156 202 258 317 392 462
#     4  11  27  50  72 113 154 205 257 315 389 464
#
# _framework density 25.391072999999999
#
# number of rings (size 3 to 8) (size 9 to 14) (size 15 to 20)
#    0.000    0.500    3.750    2.250    8.750    8.000 
#    0.000    0.000    0.000    0.000    0.000    0.000 
#    0.000    0.000    0.000    0.000    0.000    0.000 
#
# Total GULP energy -198220.609713 kJ/mol
# GULP energy per Si atom -12388.788107 kJ/mol
# Density = 2.533328 g / cm^3
# Si number density = 25.391073 Si / 1000 Ang^3
#
#
#
# Elastic Constant Matrix: (Units=GPa)
#
#
# Indices 1 2 3 4 5 6 
#
# 1 105.9790 33.0090 8.1678 0.0000 10.4642 0.0000
# 2 33.0090 115.1901 17.7277 0.0000 7.7402 0.0000
# 3 8.1678 17.7277 78.4762 0.0000 6.0730 0.0000
# 4 0.0000 0.0000 0.0000 31.2724 0.0000 11.3349
# 5 10.4642 7.7402 6.0730 0.0000 22.9451 0.0000
# 6 0.0000 0.0000 0.0000 11.3349 0.0000 61.0783
#
#
#
# Elastic Compliance Matrix: (Units=1/GPa)
#
#
# Indices 1 2 3 4 5 6 
#
# 1 0.010699 -0.002776 -0.000185 0.000000 -0.003894 0.000000
# 2 -0.002776 0.009863 -0.001817 0.000000 -0.001580 0.000000
# 3 -0.000185 -0.001817 0.013393 0.000000 -0.002847 0.000000
# 4 0.000000 0.000000 0.000000 0.034283 0.000000 -0.006362
# 5 -0.003894 -0.001580 -0.002847 0.000000 0.046645 0.000000
# 6 0.000000 0.000000 0.000000 -0.006362 0.000000 0.017553
#
#
# Mechanical properties :
#
#
# Convention : Reuss Voigt Hill
#
# Bulk Modulus (GPa) = 40.98533 46.38381 43.68457
# Shear Modulus (GPa) = 33.30582 39.10856 36.20719
#
# Velocity S-wave (km/s) = 3.62569 3.92886 3.78031
# Velocity P-wave (km/s) = 5.80553 6.23608 6.02465
#
# Compressibility (1/GPa) = 0.02439897
#
# Stress axis : x y z
#
# Youngs Moduli (GPa) = 93.46525 101.39406 74.66733
#
# Poissons Ratio (x) = 0.28145 0.01383
# Poissons Ratio (y) = 0.25944 0.13565
# Poissons Ratio (z) = 0.01731 0.18421
#
# Static dielectric constant tensor:
#      x y z
#    x 4.737990 0.000000 0.186840 
#    y 0.000000 5.041670 0.000000 
#    z 0.186840 0.000000 3.967840 
# 
# 
# High freq. dielectric constant tensor:
#      x y z
#    x 2.025800 0.000000 0.014600 
#    y 0.000000 2.036400 0.000000 
#    z 0.014600 0.000000 1.982380 
# 
# From -- ./inp_files/1407.got.cif
#   From: 2010.03.12/outbox.cif.g09.slc.cpg/sg4_1_cif.got.tgz:1407.got - 2010.03.31 09:31:35.
