data_PCOD8047506
_publ_section_title
;
Structure prediction by ZEFSAII (Michael W. Deem and Ramdas Pophale) SiO2 
 PCOD8047506
Probable space group: P 21
;
_chemical_formula_sum "Si O2"
_cell_formula_units_Z 16
_cell_length_a 6.781901
_cell_length_b 9.407094
_cell_length_c 14.929322
_cell_angle_alpha 90.000000
_cell_angle_beta 134.570587
_cell_angle_gamma 90.000000
_cell_volume 678.519975
_symmetry_space_group_name_H-M "P 21"
_symmetry_group_IT_number 4
_symmetry_cell_setting 'monoclinic'
loop_
_space_group_symop_operation_xyz
x,y,z
-x,1/2+y,-z
loop_
_atom_site_type_symbol
_atom_site_label
_atom_site_fract_x
_atom_site_fract_y
_atom_site_fract_z
Si Si1 0.275056 0.054370 0.585385
Si Si2 0.299345 0.466179 0.621052
Si Si3 0.779243 0.982282 0.056429
Si Si4 0.795302 0.961664 0.851543
Si Si5 0.474381 0.274279 0.516775
Si Si6 0.747701 0.682549 0.740941
Si Si7 0.759829 0.653901 0.101393
Si Si8 0.906578 0.754705 0.331642
O O1 0.452571 0.125318 0.562532
O O2 0.070549 0.162755 0.571176
O O3 0.479484 0.975615 0.718073
O O4 0.035722 0.955014 0.470630
O O5 0.368494 0.402396 0.545427
O O6 0.454522 0.616495 0.681204
O O7 0.348199 0.366620 0.724930
O O8 0.744653 0.817782 0.068150
O O9 0.823143 0.992908 0.964695
O O10 0.040340 0.049384 0.192872
O O11 0.517562 0.068931 0.010241
O O12 0.871113 0.798608 0.849964
O O13 0.984341 0.077425 0.863812
O O14 0.292671 0.260817 0.367874
O O15 0.790034 0.312938 0.596651
O O16 0.796543 0.651397 0.219339
#
# Coordination Sequence:
#
# PCOD8047506 Si02
#       8
#     2   2   2   2   2   2   2   2
#     4  11  24  43  74 107 147 191 237 310 371 442
#     4  11  27  43  71 117 153 193 247 308 376 459
#     4  12  29  50  75 108 147 200 255 315 367 442
#     4  12  27  50  75 106 150 195 255 314 370 443
#     4  11  25  46  71 111 155 193 246 300 385 453
#     4  12  28  47  76 111 151 203 249 311 378 456
#     4  12  27  50  78 105 145 200 252 307 378 446
#     4  11  23  45  74 103 148 197 241 305 375 439
#
# _framework density 23.580734
#
# number of rings (size 3 to 8) (size 9 to 14) (size 15 to 20)
#    0.000    0.500    3.750    3.000   10.500    4.000 
#    0.000    0.000    0.000    0.000    0.000    0.000 
#    0.000    0.000    0.000    0.000    0.000    0.000 
#
# Total GULP energy -198291.938600 kJ/mol
# GULP energy per Si atom -12393.246163 kJ/mol
# Density = 2.352706 g / cm^3
# Si number density = 23.580734 Si / 1000 Ang^3
#
#
#
# Elastic Constant Matrix: (Units=GPa)
#
#
# Indices 1 2 3 4 5 6 
#
# 1 126.3971 49.9885 28.1535 0.0000 3.7383 0.0000
# 2 49.9885 133.5627 25.2560 0.0000 11.6993 0.0000
# 3 28.1535 25.2560 86.6452 0.0000 10.2626 0.0000
# 4 0.0000 0.0000 0.0000 34.7535 0.0000 4.7672
# 5 3.7383 11.6993 10.2626 0.0000 38.0174 0.0000
# 6 0.0000 0.0000 0.0000 4.7672 0.0000 42.9472
#
#
#
# Elastic Compliance Matrix: (Units=1/GPa)
#
#
# Indices 1 2 3 4 5 6 
#
# 1 0.009686 -0.003252 -0.002278 0.000000 0.000663 0.000000
# 2 -0.003252 0.009148 -0.001357 0.000000 -0.002129 0.000000
# 3 -0.002278 -0.001357 0.013017 0.000000 -0.002872 0.000000
# 4 0.000000 0.000000 0.000000 0.029219 0.000000 -0.003243
# 5 0.000663 -0.002129 -0.002872 0.000000 0.027669 0.000000
# 6 0.000000 0.000000 0.000000 -0.003243 0.000000 0.023644
#
#
# Mechanical properties :
#
#
# Convention : Reuss Voigt Hill
#
# Bulk Modulus (GPa) = 55.32396 61.48900 58.40648
# Shear Modulus (GPa) = 37.82637 39.35743 38.59190
#
# Velocity S-wave (km/s) = 4.00949 4.08983 4.04986
# Velocity P-wave (km/s) = 6.70426 6.95952 6.83308
#
# Compressibility (1/GPa) = 0.01807535
#
# Stress axis : x y z
#
# Youngs Moduli (GPa) = 103.24634 109.31872 76.82102
#
# Poissons Ratio (x) = 0.35555 0.17497
# Poissons Ratio (y) = 0.33580 0.10428
# Poissons Ratio (z) = 0.23516 0.14839
#
# Static dielectric constant tensor:
#      x y z
#    x 4.337890 0.000000 -0.111800 
#    y 0.000000 4.460120 0.000000 
#    z -0.111800 0.000000 4.224280 
# 
# 
# High freq. dielectric constant tensor:
#      x y z
#    x 1.949320 0.000000 -0.003390 
#    y 0.000000 1.948890 0.000000 
#    z -0.003390 0.000000 1.925550 
# 
# From -- ./inp_files/2621.got.cif
#   From: 2010.03.12/outbox.cif.g09.slc.cpg/sg4_2_cif.got.tgz:2621.got - 2010.03.31 09:31:35.
