data_PCOD8047344
_publ_section_title
;
Structure prediction by ZEFSAII (Michael W. Deem and Ramdas Pophale) SiO2 
 PCOD8047344
Probable space group: P 21
;
_chemical_formula_sum "Si O2"
_cell_formula_units_Z 14
_cell_length_a 9.788414
_cell_length_b 6.557591
_cell_length_c 20.116610
_cell_angle_alpha 90.000000
_cell_angle_beta 149.510178
_cell_angle_gamma 90.000000
_cell_volume 655.162948
_symmetry_space_group_name_H-M "P 21"
_symmetry_group_IT_number 4
_symmetry_cell_setting 'monoclinic'
loop_
_space_group_symop_operation_xyz
x,y,z
-x,1/2+y,-z
loop_
_atom_site_type_symbol
_atom_site_label
_atom_site_fract_x
_atom_site_fract_y
_atom_site_fract_z
Si Si1 0.767162 0.671220 0.597781
Si Si2 0.625231 0.141196 0.315379
Si Si3 0.798462 0.305719 0.844817
Si Si4 0.212659 0.807243 0.312177
Si Si5 0.865900 0.561843 0.258280
Si Si6 0.626848 0.962204 0.878456
Si Si7 0.082494 0.863590 0.452125
O O1 0.462831 0.750593 0.465137
O O2 0.815498 0.551735 0.688162
O O3 0.796337 0.517776 0.549280
O O4 0.987731 0.845990 0.686320
O O5 0.584721 0.297127 0.238191
O O6 0.677043 0.276426 0.402235
O O7 0.349035 0.018341 0.205694
O O8 0.866495 0.982184 0.406595
O O9 0.743417 0.241019 0.745408
O O10 0.698862 0.131324 0.853269
O O11 0.112426 0.346524 0.986108
O O12 0.944479 0.695474 0.226921
O O13 0.538779 0.548706 0.127106
O O14 0.948500 0.669757 0.361391
#
# Coordination Sequence:
#
# PCOD8047344 Si02
#       7
#     2   2   2   2   2   2   2
#     4  11  22  42  68 101 139 178 225 296 356 427
#     4  12  24  40  70 106 137 179 234 295 355 419
#     4  12  27  47  69 102 138 193 240 289 345 422
#     4  11  25  42  68 100 138 180 233 283 365 416
#     4  11  23  45  67  99 141 181 228 291 350 427
#     4  12  25  49  70  96 142 187 244 294 340 411
#     4  11  24  37  68 106 139 176 226 294 365 414
#
# _framework density 21.368728999999998
#
# number of rings (size 3 to 8) (size 9 to 14) (size 15 to 20)
#    0.000    0.571    5.714    2.571    4.000    1.143 
#    2.571    0.000    0.000    0.000    0.000    0.000 
#    0.000    0.000    0.000    0.000    0.000    0.000 
#
# Total GULP energy -173588.315540 kJ/mol
# GULP energy per Si atom -12399.165396 kJ/mol
# Density = 2.132009 g / cm^3
# Si number density = 21.368729 Si / 1000 Ang^3
#
#
#
# Elastic Constant Matrix: (Units=GPa)
#
#
# Indices 1 2 3 4 5 6 
#
# 1 97.6089 31.2695 16.1537 0.0000 17.5789 0.0000
# 2 31.2695 114.2560 29.9994 0.0000 7.7473 0.0000
# 3 16.1537 29.9994 61.6304 0.0000 13.9686 0.0000
# 4 0.0000 0.0000 0.0000 34.9326 0.0000 7.2923
# 5 17.5789 7.7473 13.9686 0.0000 34.0669 0.0000
# 6 0.0000 0.0000 0.0000 7.2923 0.0000 32.6611
#
#
#
# Elastic Compliance Matrix: (Units=1/GPa)
#
#
# Indices 1 2 3 4 5 6 
#
# 1 0.012224 -0.002820 -0.000603 0.000000 -0.005419 0.000000
# 2 -0.002820 0.010688 -0.004677 0.000000 0.000942 0.000000
# 3 -0.000603 -0.004677 0.020229 0.000000 -0.006920 0.000000
# 4 0.000000 0.000000 0.000000 0.030026 0.000000 -0.006704
# 5 -0.005419 0.000942 -0.006920 0.000000 0.034773 0.000000
# 6 0.000000 0.000000 0.000000 -0.006704 0.000000 0.032114
#
#
# Mechanical properties :
#
#
# Convention : Reuss Voigt Hill
#
# Bulk Modulus (GPa) = 37.11796 47.59337 42.35566
# Shear Modulus (GPa) = 30.25996 33.40363 31.83180
#
# Velocity S-wave (km/s) = 3.76717 3.95802 3.86378
# Velocity P-wave (km/s) = 6.02744 6.57333 6.30630
#
# Compressibility (1/GPa) = 0.02694113
#
# Stress axis : x y z
#
# Youngs Moduli (GPa) = 81.80595 93.56214 49.43446
#
# Poissons Ratio (x) = 0.26381 0.02982
# Poissons Ratio (y) = 0.23066 0.23121
# Poissons Ratio (z) = 0.04935 0.43759
#
# Static dielectric constant tensor:
#      x y z
#    x 3.899220 0.000000 0.180590 
#    y 0.000000 4.192740 0.000000 
#    z 0.180590 0.000000 3.696690 
# 
# 
# High freq. dielectric constant tensor:
#      x y z
#    x 1.844940 0.000000 0.020280 
#    y 0.000000 1.857320 0.000000 
#    z 0.020280 0.000000 1.819310 
# 
# From -- ./inp_files/8565.got.cif
#   From: 2010.03.12/outbox.cif.g09.slc.cpg/sg4_5_cif.got.tgz:8565.got - 2010.03.31 09:31:35.
