data_PCOD8047411
_publ_section_title
;
Structure prediction by ZEFSAII (Michael W. Deem and Ramdas Pophale) SiO2 
 PCOD8047411
Probable space group: P 21
;
_chemical_formula_sum "Si O2"
_cell_formula_units_Z 12
_cell_length_a 4.884133
_cell_length_b 16.297693
_cell_length_c 7.273306
_cell_angle_alpha 90.000000
_cell_angle_beta 70.741597
_cell_angle_gamma 90.000000
_cell_volume 546.557896
_symmetry_space_group_name_H-M "P 21"
_symmetry_group_IT_number 4
_symmetry_cell_setting 'monoclinic'
loop_
_space_group_symop_operation_xyz
x,y,z
-x,1/2+y,-z
loop_
_atom_site_type_symbol
_atom_site_label
_atom_site_fract_x
_atom_site_fract_y
_atom_site_fract_z
Si Si1 0.845539 0.587440 0.022626
Si Si2 0.479873 0.332155 0.776755
Si Si3 0.471987 0.802706 0.652100
Si Si4 0.133416 0.901344 0.020453
Si Si5 0.737364 0.154762 0.773351
Si Si6 0.023485 0.190928 0.343155
O O1 0.960786 0.494775 0.993060
O O2 0.520064 0.587881 0.177449
O O3 0.061070 0.642620 0.094967
O O4 0.826626 0.624797 0.821743
O O5 0.698549 0.396893 0.821940
O O6 0.152174 0.345104 0.917346
O O7 0.221689 0.270226 0.340419
O O8 0.491530 0.343714 0.555706
O O9 0.350500 0.871882 0.813426
O O10 0.418082 0.742919 0.178003
O O11 0.267964 0.723344 0.687247
O O12 0.941370 0.145398 0.550703
#
# Coordination Sequence:
#
# PCOD8047411 Si02
#       6
#     2   2   2   2   2   2
#     4  12  25  40  63  95 131 165 202 261 325 375
#     4  11  23  42  65  90 122 166 215 260 306 370
#     4  11  23  40  65  91 118 163 214 255 302 367
#     4  12  25  40  63  95 131 165 202 261 325 375
#     4  11  23  42  65  90 122 166 215 260 306 370
#     4  11  23  40  65  91 118 163 214 255 302 367
#
# _framework density 21.955587000000001
#
# number of rings (size 3 to 8) (size 9 to 14) (size 15 to 20)
#    0.000    0.667    0.000   11.000    0.000    2.667 
#    0.000    0.000    0.000    0.000    0.000    0.000 
#    0.000    0.000    0.000    0.000    0.000    0.000 
#
# Total GULP energy -148887.230929 kJ/mol
# GULP energy per Si atom -12407.269244 kJ/mol
# Density = 2.190562 g / cm^3
# Si number density = 21.955587 Si / 1000 Ang^3
#
#
#
# Elastic Constant Matrix: (Units=GPa)
#
#
# Indices 1 2 3 4 5 6 
#
# 1 122.9254 24.0962 53.8316 0.0000 -0.4519 0.0000
# 2 24.0962 88.7719 72.9857 0.0000 -0.3221 0.0000
# 3 53.8316 72.9857 146.4891 0.0000 -0.4534 0.0000
# 4 0.0000 0.0000 0.0000 20.2448 0.0000 0.6045
# 5 -0.4519 -0.3221 -0.4534 0.0000 33.5794 0.0000
# 6 0.0000 0.0000 0.0000 0.6045 0.0000 33.3314
#
#
#
# Elastic Compliance Matrix: (Units=1/GPa)
#
#
# Indices 1 2 3 4 5 6 
#
# 1 0.009709 0.000505 -0.003819 0.000000 0.000084 0.000000
# 2 0.000505 0.019107 -0.009705 0.000000 0.000059 0.000000
# 3 -0.003819 -0.009705 0.013065 0.000000 0.000032 0.000000
# 4 0.000000 0.000000 0.000000 0.049422 0.000000 -0.000896
# 5 0.000084 0.000059 0.000032 0.000000 0.029782 0.000000
# 6 0.000000 0.000000 0.000000 -0.000896 0.000000 0.030018
#
#
# Mechanical properties :
#
#
# Convention : Reuss Voigt Hill
#
# Bulk Modulus (GPa) = 63.12047 73.33482 68.22764
# Shear Modulus (GPa) = 27.40867 31.24931 29.32899
#
# Velocity S-wave (km/s) = 3.53706 3.77675 3.65887
# Velocity P-wave (km/s) = 6.74482 7.24517 6.99947
#
# Compressibility (1/GPa) = 0.01584272
#
# Stress axis : x y z
#
# Youngs Moduli (GPa) = 102.99926 52.33572 76.53762
#
# Poissons Ratio (x) = -0.02642 0.29230
# Poissons Ratio (y) = -0.05200 0.74282
# Poissons Ratio (z) = 0.39336 0.50793
#
# Static dielectric constant tensor:
#      x y z
#    x 4.106950 0.000000 -0.032720 
#    y 0.000000 3.595930 0.000000 
#    z -0.032720 0.000000 4.149520 
# 
# 
# High freq. dielectric constant tensor:
#      x y z
#    x 1.882980 0.000000 -0.000070 
#    y 0.000000 1.835930 0.000000 
#    z -0.000070 0.000000 1.877570 
# 
# From -- ./inp_files/360.got.cif
#   From: 2010.03.12/outbox.cif.g09.slc.cpg/sg4_1_cif.got.tgz:360.got - 2010.03.31 09:31:35.
