data_PCOD8047477
_publ_section_title
;
Structure prediction by ZEFSAII (Michael W. Deem and Ramdas Pophale) SiO2 
 PCOD8047477
Probable space group: P 21
;
_chemical_formula_sum "Si O2"
_cell_formula_units_Z 16
_cell_length_a 9.691702
_cell_length_b 9.154875
_cell_length_c 18.396900
_cell_angle_alpha 90.000000
_cell_angle_beta 26.916288
_cell_angle_gamma 90.000000
_cell_volume 738.918096
_symmetry_space_group_name_H-M "P 21"
_symmetry_group_IT_number 4
_symmetry_cell_setting 'monoclinic'
loop_
_space_group_symop_operation_xyz
x,y,z
-x,1/2+y,-z
loop_
_atom_site_type_symbol
_atom_site_label
_atom_site_fract_x
_atom_site_fract_y
_atom_site_fract_z
Si Si1 0.788625 0.019470 0.057829
Si Si2 0.796106 0.261954 0.170912
Si Si3 0.105772 0.190817 0.511576
Si Si4 0.468379 0.037683 0.061105
Si Si5 0.422372 0.355751 0.587740
Si Si6 0.853393 0.160944 0.298191
Si Si7 0.170649 0.739340 0.202335
Si Si8 0.317316 0.876170 0.382382
O O1 0.883196 0.155346 0.063646
O O2 0.631125 0.083130 0.059559
O O3 0.550394 0.913311 0.208975
O O4 0.090040 0.925476 0.898629
O O5 0.435406 0.267137 0.354752
O O6 0.960892 0.200718 0.166077
O O7 0.940703 0.231052 0.663412
O O8 0.911314 0.250569 0.535642
O O9 0.122802 0.017654 0.496010
O O10 0.430151 0.863755 0.073421
O O11 0.138549 0.114758 0.213452
O O12 0.677519 0.088599 0.895366
O O13 0.692343 0.301079 0.408973
O O14 0.393997 0.529849 0.589474
O O15 0.498800 0.317036 0.634868
O O16 0.105968 0.276167 0.721028
#
# Coordination Sequence:
#
# PCOD8047477 Si02
#       8
#     2   2   2   2   2   2   2   2
#     4  11  25  46  67  98 142 173 229 274 342 405
#     4  11  25  47  68 100 136 181 222 283 336 409
#     4  11  24  48  68 100 137 175 227 279 334 406
#     4  11  26  44  69 101 138 179 226 279 341 401
#     4  11  23  44  70  99 139 176 228 277 336 402
#     4  11  24  44  72 100 138 176 229 281 336 405
#     4  11  24  47  69 101 138 175 229 280 336 405
#     4  11  25  44  67 101 136 177 222 279 335 405
#
# _framework density 21.653279000000001
#
# number of rings (size 3 to 8) (size 9 to 14) (size 15 to 20)
#    0.000    1.000    5.000    0.750    5.250    5.000 
#    0.000    0.000    0.000    0.000    0.000    0.000 
#    0.000    0.000    0.000    0.000    0.000    0.000 
#
# Total GULP energy -198506.157279 kJ/mol
# GULP energy per Si atom -12406.634830 kJ/mol
# Density = 2.160400 g / cm^3
# Si number density = 21.653279 Si / 1000 Ang^3
#
#
#
# Elastic Constant Matrix: (Units=GPa)
#
#
# Indices 1 2 3 4 5 6 
#
# 1 146.7776 49.1065 45.4723 0.0000 7.4148 0.0000
# 2 49.1065 81.1710 55.8689 0.0000 9.8279 0.0000
# 3 45.4723 55.8689 88.3196 0.0000 14.7360 0.0000
# 4 0.0000 0.0000 0.0000 46.7805 0.0000 4.0882
# 5 7.4148 9.8279 14.7360 0.0000 24.3641 0.0000
# 6 0.0000 0.0000 0.0000 4.0882 0.0000 29.8780
#
#
#
# Elastic Compliance Matrix: (Units=1/GPa)
#
#
# Indices 1 2 3 4 5 6 
#
# 1 0.008747 -0.003884 -0.002073 0.000000 0.000159 0.000000
# 2 -0.003884 0.023550 -0.012802 0.000000 -0.000575 0.000000
# 3 -0.002073 -0.012802 0.021712 0.000000 -0.007337 0.000000
# 4 0.000000 0.000000 0.000000 0.021635 0.000000 -0.002960
# 5 0.000159 -0.000575 -0.007337 0.000000 0.045665 0.000000
# 6 0.000000 0.000000 0.000000 -0.002960 0.000000 0.033875
#
#
# Mechanical properties :
#
#
# Convention : Reuss Voigt Hill
#
# Bulk Modulus (GPa) = 60.63614 68.57373 64.60494
# Shear Modulus (GPa) = 25.22728 31.25921 28.24325
#
# Velocity S-wave (km/s) = 3.41699 3.80363 3.61548
# Velocity P-wave (km/s) = 6.60544 7.14338 6.87967
#
# Compressibility (1/GPa) = 0.01649181
#
# Stress axis : x y z
#
# Youngs Moduli (GPa) = 114.32960 42.46244 46.05755
#
# Poissons Ratio (x) = 0.16492 0.09547
# Poissons Ratio (y) = 0.44406 0.58961
# Poissons Ratio (z) = 0.23699 0.54359
#
# Static dielectric constant tensor:
#      x y z
#    x 4.102910 0.000000 -0.054150 
#    y 0.000000 3.829140 0.000000 
#    z -0.054150 0.000000 3.769080 
# 
# 
# High freq. dielectric constant tensor:
#      x y z
#    x 1.867790 0.000000 -0.002890 
#    y 0.000000 1.844930 0.000000 
#    z -0.002890 0.000000 1.848650 
# 
# From -- ./inp_files/9204.got.cif
#   From: 2010.03.12/outbox.cif.g09.slc.cpg/sg4_5_cif.got.tgz:9204.got - 2010.03.31 09:31:35.
