data_PCOD8047521
_publ_section_title
;
Structure prediction by ZEFSAII (Michael W. Deem and Ramdas Pophale) SiO2 
 PCOD8047521
Probable space group: P 21
;
_chemical_formula_sum "Si O2"
_cell_formula_units_Z 16
_cell_length_a 10.564454
_cell_length_b 5.775603
_cell_length_c 19.313499
_cell_angle_alpha 90.000000
_cell_angle_beta 145.352511
_cell_angle_gamma 90.000000
_cell_volume 669.970264
_symmetry_space_group_name_H-M "P 21"
_symmetry_group_IT_number 4
_symmetry_cell_setting 'monoclinic'
loop_
_space_group_symop_operation_xyz
x,y,z
-x,1/2+y,-z
loop_
_atom_site_type_symbol
_atom_site_label
_atom_site_fract_x
_atom_site_fract_y
_atom_site_fract_z
Si Si1 0.497941 0.156010 0.394173
Si Si2 0.772588 0.650813 0.157593
Si Si3 0.782992 0.442817 0.623548
Si Si4 0.834116 0.767458 0.525597
Si Si5 0.682758 0.313933 0.239689
Si Si6 0.613470 0.431135 0.956434
Si Si7 0.124676 0.759196 0.049513
Si Si8 0.486602 0.522780 0.280982
O O1 0.580465 0.313369 0.494785
O O2 0.395353 0.303008 0.283934
O O3 0.299064 0.997544 0.335273
O O4 0.711717 0.013033 0.463887
O O5 0.758047 0.436571 0.203131
O O6 0.992430 0.795018 0.273243
O O7 0.545366 0.792585 0.063259
O O8 0.781878 0.573609 0.081557
O O9 0.830595 0.678826 0.603345
O O10 0.713626 0.591573 0.420071
O O11 0.089542 0.767297 0.615470
O O12 0.544631 0.083571 0.163493
O O13 0.528038 0.466758 0.219238
O O14 0.761145 0.266834 0.974516
O O15 0.303549 0.728360 0.193176
O O16 0.991908 0.509848 0.990396
#
# Coordination Sequence:
#
# PCOD8047521 Si02
#       8
#     2   2   2   2   2   2   2   2
#     4  11  24  45  73 111 159 205 258 324 406 482
#     4  12  25  47  80 114 148 212 267 334 408 472
#     4  11  23  46  73 111 156 203 258 329 401 484
#     4  11  25  42  74 113 151 203 258 326 410 479
#     4  12  25  47  76 112 158 202 264 337 404 484
#     4  12  27  50  80 111 157 205 273 339 396 488
#     4  12  30  58  84 116 163 220 273 336 407 485
#     4  11  29  47  76 112 156 210 263 335 400 496
#
# _framework density 23.881657000000001
#
# number of rings (size 3 to 8) (size 9 to 14) (size 15 to 20)
#    0.000    0.500    6.250    0.750    5.250    1.000 
#    6.750    0.000    0.000    0.000    0.000    0.000 
#    0.000    0.000    0.000    0.000    0.000    0.000 
#
# Total GULP energy -198359.571160 kJ/mol
# GULP energy per Si atom -12397.473198 kJ/mol
# Density = 2.382730 g / cm^3
# Si number density = 23.881657 Si / 1000 Ang^3
#
#
#
# Elastic Constant Matrix: (Units=GPa)
#
#
# Indices 1 2 3 4 5 6 
#
# 1 114.7906 45.3087 46.6523 0.0000 -2.1202 0.0000
# 2 45.3087 118.4264 39.4474 0.0000 0.8744 0.0000
# 3 46.6523 39.4474 104.1572 0.0000 -1.2429 0.0000
# 4 0.0000 0.0000 0.0000 36.6182 0.0000 -7.6218
# 5 -2.1202 0.8744 -1.2429 0.0000 28.6441 0.0000
# 6 0.0000 0.0000 0.0000 -7.6218 0.0000 39.6209
#
#
#
# Elastic Compliance Matrix: (Units=1/GPa)
#
#
# Indices 1 2 3 4 5 6 
#
# 1 0.011576 -0.003102 -0.004001 0.000000 0.000778 0.000000
# 2 -0.003102 0.010500 -0.002595 0.000000 -0.000663 0.000000
# 3 -0.004001 -0.002595 0.012380 0.000000 0.000320 0.000000
# 4 0.000000 0.000000 0.000000 0.028448 0.000000 0.005472
# 5 0.000778 -0.000663 0.000320 0.000000 0.035003 0.000000
# 6 0.000000 0.000000 0.000000 0.005472 0.000000 0.026292
#
#
# Mechanical properties :
#
#
# Convention : Reuss Voigt Hill
#
# Bulk Modulus (GPa) = 66.40231 66.68792 66.54512
# Shear Modulus (GPa) = 33.64393 34.70769 34.17581
#
# Velocity S-wave (km/s) = 3.75744 3.81638 3.78702
# Velocity P-wave (km/s) = 6.83298 6.88510 6.85909
#
# Compressibility (1/GPa) = 0.01505972
#
# Stress axis : x y z
#
# Youngs Moduli (GPa) = 86.38334 95.23606 80.77790
#
# Poissons Ratio (x) = 0.29542 0.32319
# Poissons Ratio (y) = 0.26796 0.20964
# Poissons Ratio (z) = 0.34562 0.24716
#
# Static dielectric constant tensor:
#      x y z
#    x 4.226890 0.000000 0.156260 
#    y 0.000000 4.465840 0.000000 
#    z 0.156260 0.000000 4.424610 
# 
# 
# High freq. dielectric constant tensor:
#      x y z
#    x 1.944570 0.000000 0.002150 
#    y 0.000000 1.952320 0.000000 
#    z 0.002150 0.000000 1.954490 
# 
# From -- ./inp_files/11669.got.cif
#   From: 2010.03.12/outbox.cif.g09.slc.cpg/sg4_6_cif.got.tgz:11669.got - 2010.03.31 09:31:35.
