data_PCOD8047547
_publ_section_title
;
Structure prediction by ZEFSAII (Michael W. Deem and Ramdas Pophale) SiO2 
 PCOD8047547
Probable space group: P 21
;
_chemical_formula_sum "Si O2"
_cell_formula_units_Z 16
_cell_length_a 6.164470
_cell_length_b 8.505231
_cell_length_c 13.479353
_cell_angle_alpha 90.000000
_cell_angle_beta 113.789528
_cell_angle_gamma 90.000000
_cell_volume 646.677655
_symmetry_space_group_name_H-M "P 21"
_symmetry_group_IT_number 4
_symmetry_cell_setting 'monoclinic'
loop_
_space_group_symop_operation_xyz
x,y,z
-x,1/2+y,-z
loop_
_atom_site_type_symbol
_atom_site_label
_atom_site_fract_x
_atom_site_fract_y
_atom_site_fract_z
Si Si1 0.022844 0.563760 0.132883
Si Si2 0.513998 0.954148 0.301455
Si Si3 0.060308 0.073388 0.173716
Si Si4 0.937543 0.179284 0.436533
Si Si5 0.795606 0.301642 0.979421
Si Si6 0.290817 0.299129 0.833892
Si Si7 0.701262 0.403937 0.526160
Si Si8 0.208817 0.341637 0.333040
O O1 0.804986 0.626621 0.158581
O O2 0.163135 0.716185 0.118859
O O3 0.172110 0.458856 0.234762
O O4 0.935188 0.468101 0.017860
O O5 0.648731 0.809762 0.272435
O O6 0.378816 0.893403 0.374328
O O7 0.700400 0.095163 0.351945
O O8 0.310144 0.999579 0.178533
O O9 0.184067 0.161574 0.290806
O O10 0.891017 0.937534 0.179128
O O11 0.910919 0.196253 0.085588
O O12 0.870198 0.253080 0.532142
O O13 0.012778 0.336222 0.385787
O O14 0.164040 0.063892 0.480780
O O15 0.517742 0.321549 0.947833
O O16 0.466305 0.387955 0.417710
#
# Coordination Sequence:
#
# PCOD8047547 Si02
#       8
#     2   2   2   2   2   2   2   2
#     4  11  26  48  73 116 152 198 257 313 396 458
#     4  12  24  49  78 106 154 200 257 313 387 469
#     4  11  23  49  80 104 153 202 255 312 398 450
#     4  12  25  51  76 110 148 210 250 325 387 461
#     4  11  25  47  77 108 154 197 255 327 376 468
#     4  12  24  46  73 113 146 202 257 312 389 461
#     4  12  26  51  77 112 150 202 265 317 395 458
#     4  11  25  51  72 113 155 199 254 323 380 467
#
# _framework density 24.741848999999998
#
# number of rings (size 3 to 8) (size 9 to 14) (size 15 to 20)
#    0.000    0.500    3.750    3.750    0.000    1.000 
#   33.750    0.000    0.000    0.000    0.000    0.000 
#    0.000    0.000    0.000    0.000    0.000    0.000 
#
# Total GULP energy -198232.854412 kJ/mol
# GULP energy per Si atom -12389.553401 kJ/mol
# Density = 2.468554 g / cm^3
# Si number density = 24.741849 Si / 1000 Ang^3
#
#
#
# Elastic Constant Matrix: (Units=GPa)
#
#
# Indices 1 2 3 4 5 6 
#
# 1 144.0516 66.2412 51.0205 0.0000 15.7895 0.0000
# 2 66.2412 116.3336 46.9940 0.0000 0.7570 0.0000
# 3 51.0205 46.9940 89.3466 0.0000 28.6724 0.0000
# 4 0.0000 0.0000 0.0000 41.9285 0.0000 -7.7127
# 5 15.7895 0.7570 28.6724 0.0000 43.3368 0.0000
# 6 0.0000 0.0000 0.0000 -7.7127 0.0000 40.1949
#
#
#
# Elastic Compliance Matrix: (Units=1/GPa)
#
#
# Indices 1 2 3 4 5 6 
#
# 1 0.010310 -0.004716 -0.002828 0.000000 -0.001803 0.000000
# 2 -0.004716 0.013839 -0.006423 0.000000 0.005727 0.000000
# 3 -0.002828 -0.006423 0.020083 0.000000 -0.012145 0.000000
# 4 0.000000 0.000000 0.000000 0.024723 0.000000 0.004744
# 5 -0.001803 0.005727 -0.012145 0.000000 0.031667 0.000000
# 6 0.000000 0.000000 0.000000 0.004744 0.000000 0.025789
#
#
# Mechanical properties :
#
#
# Convention : Reuss Voigt Hill
#
# Bulk Modulus (GPa) = 61.36320 75.36036 68.36178
# Shear Modulus (GPa) = 31.29307 37.45710 34.37509
#
# Velocity S-wave (km/s) = 3.56024 3.89513 3.73144
# Velocity P-wave (km/s) = 6.46186 7.12420 6.80109
#
# Compressibility (1/GPa) = 0.01629641
#
# Stress axis : x y z
#
# Youngs Moduli (GPa) = 96.99245 72.25912 49.79242
#
# Poissons Ratio (x) = 0.34081 0.14082
# Poissons Ratio (y) = 0.45746 0.31984
# Poissons Ratio (z) = 0.27431 0.46415
#
# Static dielectric constant tensor:
#      x y z
#    x 4.908970 0.000000 0.082570 
#    y 0.000000 4.760870 0.000000 
#    z 0.082570 0.000000 4.671070 
# 
# 
# High freq. dielectric constant tensor:
#      x y z
#    x 1.995310 0.000000 0.007950 
#    y 0.000000 1.994370 0.000000 
#    z 0.007950 0.000000 1.998020 
# 
# From -- ./inp_files/13311.got.cif
#   From: 2010.03.12/outbox.cif.g09.slc.cpg/sg4_7_cif.got.tgz:13311.got - 2010.03.31 09:31:35.
