data_PCOD8047458
_publ_section_title
;
Structure prediction by ZEFSAII (Michael W. Deem and Ramdas Pophale) SiO2 
 PCOD8047458
Probable space group: P 21
;
_chemical_formula_sum "Si O2"
_cell_formula_units_Z 14
_cell_length_a 14.862842
_cell_length_b 8.066748
_cell_length_c 11.553147
_cell_angle_alpha 90.000000
_cell_angle_beta 27.237216
_cell_angle_gamma 90.000000
_cell_volume 633.954890
_symmetry_space_group_name_H-M "P 21"
_symmetry_group_IT_number 4
_symmetry_cell_setting 'monoclinic'
loop_
_space_group_symop_operation_xyz
x,y,z
-x,1/2+y,-z
loop_
_atom_site_type_symbol
_atom_site_label
_atom_site_fract_x
_atom_site_fract_y
_atom_site_fract_z
Si Si1 0.322682 0.568630 0.402080
Si Si2 0.239698 0.019429 0.150478
Si Si3 0.029494 0.522976 0.137866
Si Si4 0.270872 0.053080 0.694762
Si Si5 0.941864 0.399712 0.862441
Si Si6 0.938029 0.309520 0.443224
Si Si7 0.368189 0.420560 0.592654
O O1 0.212510 0.730096 0.477707
O O2 0.365118 0.556848 0.492185
O O3 0.164402 0.421357 0.558007
O O4 0.528633 0.557211 0.097439
O O5 0.102343 0.183722 0.306005
O O6 0.220104 0.926090 0.051098
O O7 0.179136 0.890748 0.318139
O O8 0.814783 0.486602 0.328540
O O9 0.043883 0.458779 0.252988
O O10 0.082756 0.715424 0.063564
O O11 0.182860 0.425649 0.886595
O O12 0.359384 0.231653 0.560498
O O13 0.440854 0.934993 0.546598
O O14 0.097386 0.036805 0.991262
#
# Coordination Sequence:
#
# PCOD8047458 Si02
#       7
#     2   2   2   2   2   2   2
#     4  11  24  44  71  99 136 181 231 290 345 412
#     4  11  25  50  70  98 139 176 241 290 343 418
#     4  12  25  41  68 103 143 182 228 282 351 419
#     4  12  24  42  65 104 145 179 231 281 346 423
#     4  11  23  43  70  99 139 184 225 284 351 409
#     4  11  28  46  73 100 138 186 233 291 352 411
#     4  12  25  40  69 103 140 186 227 284 352 416
#
# _framework density 22.083591999999999
#
# number of rings (size 3 to 8) (size 9 to 14) (size 15 to 20)
#    0.000    0.571    4.286    3.429    4.000    3.429 
#    0.000    0.000    0.000    0.000    0.000    0.000 
#    0.000    0.000    0.000    0.000    0.000    0.000 
#
# Total GULP energy -173493.381986 kJ/mol
# GULP energy per Si atom -12392.384428 kJ/mol
# Density = 2.203333 g / cm^3
# Si number density = 22.083592 Si / 1000 Ang^3
#
#
#
# Elastic Constant Matrix: (Units=GPa)
#
#
# Indices 1 2 3 4 5 6 
#
# 1 69.2994 36.3025 4.9632 0.0000 -9.4628 0.0000
# 2 36.3025 63.9231 91.1423 0.0000 25.4972 0.0000
# 3 4.9632 91.1423 -84.7929 0.0000 -96.3088 0.0000
# 4 0.0000 0.0000 0.0000 30.8326 0.0000 7.4630
# 5 -9.4628 25.4972 -96.3088 0.0000 12.1821 0.0000
# 6 0.0000 0.0000 0.0000 7.4630 0.0000 40.6379
#
#
#
# Elastic Compliance Matrix: (Units=1/GPa)
#
#
# Indices 1 2 3 4 5 6 
#
# 1 0.017069 -0.004877 -0.003096 0.000000 -0.001010 0.000000
# 2 -0.004877 0.010337 0.003978 0.000000 0.006028 0.000000
# 3 -0.003096 0.003978 0.000450 0.000000 -0.007174 0.000000
# 4 0.000000 0.000000 0.000000 0.033942 0.000000 -0.006233
# 5 -0.001010 0.006028 -0.007174 0.000000 0.011969 0.000000
# 6 0.000000 0.000000 0.000000 -0.006233 0.000000 0.025752
#
#
# Mechanical properties :
#
#
# Convention : Reuss Voigt Hill
#
# Bulk Modulus (GPa) = 50.33555 34.80507 42.57031
# Shear Modulus (GPa) = 43.81004 11.13198 27.47101
#
# Velocity S-wave (km/s) = 4.45885 2.24762 3.53080
# Velocity P-wave (km/s) = 7.02504 4.74663 5.99507
#
# Compressibility (1/GPa) = 0.01986668
#
# Stress axis : x y z
#
# Youngs Moduli (GPa) = 58.58717 96.74381 2222.57661
#
# Poissons Ratio (x) = 0.47178 6.88073
# Poissons Ratio (y) = 0.28571 -8.84188
# Poissons Ratio (z) = 0.18138 -0.38487
#
# Static dielectric constant tensor:
#      x y z
#    x 4.101830 0.000000 -0.211960 
#    y 0.000000 3.832200 0.000000 
#    z -0.211960 0.000000 4.058890 
# 
# 
# High freq. dielectric constant tensor:
#      x y z
#    x 1.873880 0.000000 -0.014940 
#    y 0.000000 1.863880 0.000000 
#    z -0.014940 0.000000 1.868690 
# 
# From -- ./inp_files/11812.got.cif
#   From: 2010.03.12/outbox.cif.g09.slc.cpg/sg4_6_cif.got.tgz:11812.got - 2010.03.31 09:31:35.
