data_PCOD8047819
_publ_section_title
;
Structure prediction by ZEFSAII (Michael W. Deem and Ramdas Pophale) SiO2 
 PCOD8047819
Probable space group: P 21
;
_chemical_formula_sum "Si O2"
_cell_formula_units_Z 14
_cell_length_a 14.798945
_cell_length_b 5.046296
_cell_length_c 22.332311
_cell_angle_alpha 90.000000
_cell_angle_beta 21.840339
_cell_angle_gamma 90.000000
_cell_volume 620.447611
_symmetry_space_group_name_H-M "P 21"
_symmetry_group_IT_number 4
_symmetry_cell_setting 'monoclinic'
loop_
_space_group_symop_operation_xyz
x,y,z
-x,1/2+y,-z
loop_
_atom_site_type_symbol
_atom_site_label
_atom_site_fract_x
_atom_site_fract_y
_atom_site_fract_z
Si Si1 0.385210 0.442560 0.095758
Si Si2 0.866584 0.968337 0.555997
Si Si3 0.879238 0.505093 0.102661
Si Si4 0.855395 0.465367 0.374264
Si Si5 0.932781 0.975695 0.883927
Si Si6 0.330421 0.471013 0.450048
Si Si7 0.600896 0.477042 0.086371
O O1 0.440303 0.552394 0.127637
O O2 0.101827 0.426199 0.259158
O O3 0.506423 0.647525 0.975242
O O4 0.863244 0.965794 0.485709
O O5 0.954190 0.250417 0.526946
O O6 0.587216 0.915547 0.745203
O O7 0.602137 0.428931 0.258122
O O8 0.903369 0.533767 0.159302
O O9 0.056721 0.283799 0.966937
O O10 0.672167 0.246597 0.512499
O O11 0.894242 0.425019 0.279494
O O12 0.741624 0.750162 0.457288
O O13 0.770720 0.721372 0.998689
O O14 0.763679 0.223142 0.972971
#
# Coordination Sequence:
#
# PCOD8047819 Si02
#       7
#     2   2   2   2   2   2   2
#     4  12  21  39  63  99 138 177 216 263 327 395
#     4  12  25  43  65  96 135 177 224 273 336 404
#     4  12  27  50  74  99 130 176 235 284 339 400
#     4  12  25  43  67 103 140 174 223 269 347 407
#     4  12  25  44  70 100 131 177 227 279 334 402
#     4  12  26  45  69  99 139 178 217 287 339 395
#     4  12  23  42  68 100 135 175 228 279 330 397
#
# _framework density 22.564357000000001
#
# number of rings (size 3 to 8) (size 9 to 14) (size 15 to 20)
#    0.000    0.000    2.857    8.571    0.000    1.143 
#    0.000    0.000    0.000    0.000    0.000    0.000 
#    0.000    0.000    0.000    0.000    0.000    0.000 
#
# Total GULP energy -173708.648565 kJ/mol
# GULP energy per Si atom -12407.760612 kJ/mol
# Density = 2.251300 g / cm^3
# Si number density = 22.564357 Si / 1000 Ang^3
#
#
#
# Elastic Constant Matrix: (Units=GPa)
#
#
# Indices 1 2 3 4 5 6 
#
# 1 135.2310 15.6213 17.7607 0.0000 6.6862 0.0000
# 2 15.6213 103.4044 17.2235 0.0000 3.6667 0.0000
# 3 17.7607 17.2235 96.8933 0.0000 6.0958 0.0000
# 4 0.0000 0.0000 0.0000 48.6680 0.0000 3.1097
# 5 6.6862 3.6667 6.0958 0.0000 32.4509 0.0000
# 6 0.0000 0.0000 0.0000 3.1097 0.0000 28.7740
#
#
#
# Elastic Compliance Matrix: (Units=1/GPa)
#
#
# Indices 1 2 3 4 5 6 
#
# 1 0.007718 -0.000926 -0.001170 0.000000 -0.001266 0.000000
# 2 -0.000926 0.010098 -0.001584 0.000000 -0.000653 0.000000
# 3 -0.001170 -0.001584 0.010919 0.000000 -0.001631 0.000000
# 4 0.000000 0.000000 0.000000 0.020690 0.000000 -0.002236
# 5 -0.001266 -0.000653 -0.001631 0.000000 0.031457 0.000000
# 6 0.000000 0.000000 0.000000 -0.002236 0.000000 0.034995
#
#
# Mechanical properties :
#
#
# Convention : Reuss Voigt Hill
#
# Bulk Modulus (GPa) = 46.78655 48.52662 47.65658
# Shear Modulus (GPa) = 38.35436 40.97347 39.66392
#
# Velocity S-wave (km/s) = 4.12731 4.26590 4.19718
# Velocity P-wave (km/s) = 6.59489 6.76878 6.68240
#
# Compressibility (1/GPa) = 0.02137366
#
# Stress axis : x y z
#
# Youngs Moduli (GPa) = 129.56653 99.03268 91.58029
#
# Poissons Ratio (x) = 0.09172 0.10719
# Poissons Ratio (y) = 0.11999 0.14507
# Poissons Ratio (z) = 0.15165 0.15688
#
# Static dielectric constant tensor:
#      x y z
#    x 4.074550 0.000000 0.070360 
#    y 0.000000 4.181180 0.000000 
#    z 0.070360 0.000000 3.965450 
# 
# 
# High freq. dielectric constant tensor:
#      x y z
#    x 1.898170 0.000000 0.007230 
#    y 0.000000 1.901360 0.000000 
#    z 0.007230 0.000000 1.890180 
# 
# From -- ./inp_files/7277.got.cif
#   From: 2010.03.12/outbox.cif.g09.slc.cpg/sg4_4_cif.got.tgz:7277.got - 2010.03.31 09:31:35.
