data_PCOD8047532
_publ_section_title
;
Structure prediction by ZEFSAII (Michael W. Deem and Ramdas Pophale) SiO2 
 PCOD8047532
Probable space group: P 21
;
_chemical_formula_sum "Si O2"
_cell_formula_units_Z 12
_cell_length_a 7.920471
_cell_length_b 6.698890
_cell_length_c 14.241176
_cell_angle_alpha 90.000000
_cell_angle_beta 134.591997
_cell_angle_gamma 90.000000
_cell_volume 538.090595
_symmetry_space_group_name_H-M "P 21"
_symmetry_group_IT_number 4
_symmetry_cell_setting 'monoclinic'
loop_
_space_group_symop_operation_xyz
x,y,z
-x,1/2+y,-z
loop_
_atom_site_type_symbol
_atom_site_label
_atom_site_fract_x
_atom_site_fract_y
_atom_site_fract_z
Si Si1 0.057960 0.026770 0.303535
Si Si2 0.673915 0.702042 0.147289
Si Si3 0.274007 0.773321 0.540283
Si Si4 0.773581 0.448450 0.003156
Si Si5 0.771522 0.686504 0.813361
Si Si6 0.973722 0.419273 0.378316
O O1 0.147695 0.023714 0.231788
O O2 0.015209 0.255333 0.314845
O O3 0.256415 0.930248 0.448252
O O4 0.812321 0.909334 0.213658
O O5 0.748274 0.552711 0.259464
O O6 0.397441 0.756169 0.049635
O O7 0.737624 0.603947 0.073028
O O8 0.532467 0.791053 0.684664
O O9 0.075525 0.821117 0.540742
O O10 0.212150 0.552335 0.477889
O O11 0.715675 0.568733 0.886411
O O12 0.039015 0.363775 0.099852
#
# Coordination Sequence:
#
# PCOD8047532 Si02
#       6
#     2   2   2   2   2   2
#     4  11  24  48  71 106 144 183 243 306 367 419
#     4  11  26  47  77 101 141 195 248 287 351 450
#     4  11  26  42  75 101 142 186 241 302 359 433
#     4  12  27  47  75 106 149 196 240 296 360 440
#     4  12  28  45  70 110 149 185 236 305 373 416
#     4  11  23  47  72 106 133 193 246 296 358 436
#
# _framework density 22.301076999999999
#
# number of rings (size 3 to 8) (size 9 to 14) (size 15 to 20)
#    0.000    0.667    3.333    3.000    9.333    0.000 
#    0.000    0.000    0.000    0.000    0.000    0.000 
#    0.000    0.000    0.000    0.000    0.000    0.000 
#
# Total GULP energy -148883.972380 kJ/mol
# GULP energy per Si atom -12406.997698 kJ/mol
# Density = 2.225032 g / cm^3
# Si number density = 22.301077 Si / 1000 Ang^3
#
#
#
# Elastic Constant Matrix: (Units=GPa)
#
#
# Indices 1 2 3 4 5 6 
#
# 1 74.4023 33.4711 31.3698 0.0000 -6.2505 0.0000
# 2 33.4711 121.3480 45.2486 0.0000 5.4566 0.0000
# 3 31.3698 45.2486 122.4087 0.0000 9.7817 0.0000
# 4 0.0000 0.0000 0.0000 44.8786 0.0000 -9.2930
# 5 -6.2505 5.4566 9.7817 0.0000 49.6841 0.0000
# 6 0.0000 0.0000 0.0000 -9.2930 0.0000 41.4588
#
#
#
# Elastic Compliance Matrix: (Units=1/GPa)
#
#
# Indices 1 2 3 4 5 6 
#
# 1 0.016645 -0.003535 -0.003208 0.000000 0.003114 0.000000
# 2 -0.003535 0.010315 -0.002826 0.000000 -0.001021 0.000000
# 3 -0.003208 -0.002826 0.010204 0.000000 -0.002102 0.000000
# 4 0.000000 0.000000 0.000000 0.023367 0.000000 0.005238
# 5 0.003114 -0.001021 -0.002102 0.000000 0.021045 0.000000
# 6 0.000000 0.000000 0.000000 0.005238 0.000000 0.025294
#
#
# Mechanical properties :
#
#
# Convention : Reuss Voigt Hill
#
# Bulk Modulus (GPa) = 55.47086 59.81532 57.64309
# Shear Modulus (GPa) = 37.87428 41.07561 39.47494
#
# Velocity S-wave (km/s) = 4.12553 4.29635 4.21181
# Velocity P-wave (km/s) = 6.90080 7.17576 7.03962
#
# Compressibility (1/GPa) = 0.01802748
#
# Stress axis : x y z
#
# Youngs Moduli (GPa) = 60.07900 96.94295 98.00232
#
# Poissons Ratio (x) = 0.34269 0.31436
# Poissons Ratio (y) = 0.21238 0.27691
# Poissons Ratio (z) = 0.19271 0.27392
#
# Static dielectric constant tensor:
#      x y z
#    x 3.868880 0.000000 -0.162680 
#    y 0.000000 3.979490 0.000000 
#    z -0.162680 0.000000 4.225420 
# 
# 
# High freq. dielectric constant tensor:
#      x y z
#    x 1.872560 0.000000 -0.012520 
#    y 0.000000 1.884160 0.000000 
#    z -0.012520 0.000000 1.897910 
# 
# From -- ./inp_files/8766.got.cif
#   From: 2010.03.12/outbox.cif.g09.slc.cpg/sg4_5_cif.got.tgz:8766.got - 2010.03.31 09:31:35.
