data_PCOD8047603
_publ_section_title
;
Structure prediction by ZEFSAII (Michael W. Deem and Ramdas Pophale) SiO2 
 PCOD8047603
Probable space group: P 21
;
_chemical_formula_sum "Si O2"
_cell_formula_units_Z 8
_cell_length_a 9.060017
_cell_length_b 6.643747
_cell_length_c 9.424688
_cell_angle_alpha 90.000000
_cell_angle_beta 135.809615
_cell_angle_gamma 90.000000
_cell_volume 395.430135
_symmetry_space_group_name_H-M "P 21"
_symmetry_group_IT_number 4
_symmetry_cell_setting 'monoclinic'
loop_
_space_group_symop_operation_xyz
x,y,z
-x,1/2+y,-z
loop_
_atom_site_type_symbol
_atom_site_label
_atom_site_fract_x
_atom_site_fract_y
_atom_site_fract_z
Si Si1 0.748262 0.465790 0.451246
Si Si2 0.976271 0.183381 0.817408
Si Si3 0.268689 0.527552 0.083372
Si Si4 0.094971 0.793174 0.726043
O O1 0.808962 0.331787 0.628217
O O2 0.505976 0.528478 0.304035
O O3 0.775655 0.339917 0.326539
O O4 0.886772 0.667610 0.542042
O O5 0.886559 0.116020 0.905706
O O6 0.020383 0.995989 0.748292
O O7 0.196387 0.301088 0.995488
O O8 0.253687 0.667657 0.934455
#
# Coordination Sequence:
#
# PCOD8047603 Si02
#       4
#     2   2   2   2
#     4  11  26  42  68  94 128 173 207 264 320 371
#     4  11  24  45  62  96 133 162 219 260 308 387
#     4  11  26  42  68  94 128 173 207 264 320 371
#     4  11  24  45  62  96 133 162 219 260 308 387
#
# _framework density 20.231134000000001
#
# number of rings (size 3 to 8) (size 9 to 14) (size 15 to 20)
#    0.000    1.000    5.000    0.000    7.000    2.000 
#    0.000    0.000    0.000    0.000    0.000    0.000 
#    0.000    0.000    0.000    0.000    0.000    0.000 
#
# Total GULP energy -99260.733075 kJ/mol
# GULP energy per Si atom -12407.591634 kJ/mol
# Density = 2.018509 g / cm^3
# Si number density = 20.231134 Si / 1000 Ang^3
#
#
#
# Elastic Constant Matrix: (Units=GPa)
#
#
# Indices 1 2 3 4 5 6 
#
# 1 38.5675 16.5670 15.9988 0.0000 -2.4455 0.0000
# 2 16.5670 102.7648 22.5577 0.0000 0.8762 0.0000
# 3 15.9988 22.5577 81.1935 0.0000 8.0419 0.0000
# 4 0.0000 0.0000 0.0000 30.4108 0.0000 -16.8714
# 5 -2.4455 0.8762 8.0419 0.0000 45.2850 0.0000
# 6 0.0000 0.0000 0.0000 -16.8714 0.0000 34.3736
#
#
#
# Elastic Compliance Matrix: (Units=1/GPa)
#
#
# Indices 1 2 3 4 5 6 
#
# 1 0.029800 -0.003707 -0.005098 0.000000 0.002586 0.000000
# 2 -0.003707 0.010829 -0.002277 0.000000 -0.000005 0.000000
# 3 -0.005098 -0.002277 0.014227 0.000000 -0.002758 0.000000
# 4 0.000000 0.000000 0.000000 0.045188 0.000000 0.022179
# 5 0.002586 -0.000005 -0.002758 0.000000 0.022712 0.000000
# 6 0.000000 0.000000 0.000000 0.022179 0.000000 0.039978
#
#
# Mechanical properties :
#
#
# Convention : Reuss Voigt Hill
#
# Bulk Modulus (GPa) = 30.59073 36.97477 33.78275
# Shear Modulus (GPa) = 25.53692 33.17401 29.35547
#
# Velocity S-wave (km/s) = 3.55668 4.05378 3.81334
# Velocity P-wave (km/s) = 5.65863 6.34245 6.01027
#
# Compressibility (1/GPa) = 0.03268965
#
# Stress axis : x y z
#
# Youngs Moduli (GPa) = 33.55728 92.34842 70.29039
#
# Poissons Ratio (x) = 0.34234 0.35835
# Poissons Ratio (y) = 0.12440 0.16008
# Poissons Ratio (z) = 0.17108 0.21032
#
# Static dielectric constant tensor:
#      x y z
#    x 3.523360 0.000000 -0.220380 
#    y 0.000000 3.912110 0.000000 
#    z -0.220380 0.000000 3.799120 
# 
# 
# High freq. dielectric constant tensor:
#      x y z
#    x 1.785190 0.000000 -0.015470 
#    y 0.000000 1.807900 0.000000 
#    z -0.015470 0.000000 1.803090 
# 
# From -- ./inp_files/866.got.cif
#   From: 2010.03.12/outbox.cif.g09.slc.cpg/sg4_1_cif.got.tgz:866.got - 2010.03.31 09:31:35.
