data_PCOD8047792
_publ_section_title
;
Structure prediction by ZEFSAII (Michael W. Deem and Ramdas Pophale) SiO2 
 PCOD8047792
Probable space group: P 21
;
_chemical_formula_sum "Si O2"
_cell_formula_units_Z 12
_cell_length_a 5.440781
_cell_length_b 17.548876
_cell_length_c 4.816347
_cell_angle_alpha 90.000000
_cell_angle_beta 88.904841
_cell_angle_gamma 90.000000
_cell_volume 459.778839
_symmetry_space_group_name_H-M "P 21"
_symmetry_group_IT_number 4
_symmetry_cell_setting 'monoclinic'
loop_
_space_group_symop_operation_xyz
x,y,z
-x,1/2+y,-z
loop_
_atom_site_type_symbol
_atom_site_label
_atom_site_fract_x
_atom_site_fract_y
_atom_site_fract_z
Si Si1 0.853622 0.338070 0.820531
Si Si2 0.694472 0.995889 0.794169
Si Si3 0.157310 0.332188 0.312534
Si Si4 0.471170 0.114494 0.454721
Si Si5 0.807042 0.504172 0.868682
Si Si6 0.469649 0.216887 0.965372
O O1 0.787997 0.422556 0.709072
O O2 0.086407 0.309361 0.629372
O O3 0.640590 0.276807 0.799686
O O4 0.909905 0.350094 0.144907
O O5 0.688384 0.054376 0.533780
O O6 0.677543 0.908251 0.690477
O O7 0.437989 0.014183 0.945778
O O8 0.936165 0.011990 0.972765
O O9 0.263894 0.260924 0.143900
O O10 0.594039 0.164138 0.201051
O O11 0.221926 0.070865 0.359532
O O12 0.373330 0.164536 0.717025
#
# Coordination Sequence:
#
# PCOD8047792 Si02
#       6
#     2   2   2   2   2   2
#     4  11  26  48  81 114 153 213 273 331 390 478
#     4  11  27  53  84 121 157 213 277 332 395 479
#     4  11  26  48  81 114 153 213 273 331 390 478
#     4  12  28  48  80 120 164 212 258 336 408 484
#     4  11  27  53  84 121 157 213 277 332 395 479
#     4  12  26  52  76 116 168 206 264 332 410 482
#
# _framework density 26.099502000000001
#
# number of rings (size 3 to 8) (size 9 to 14) (size 15 to 20)
#    0.000    0.667    3.333    2.000    9.333    2.667 
#   12.000    0.000    0.000    0.000    0.000    0.000 
#    0.000    0.000    0.000    0.000    0.000    0.000 
#
# Total GULP energy -148708.220236 kJ/mol
# GULP energy per Si atom -12392.351686 kJ/mol
# Density = 2.604010 g / cm^3
# Si number density = 26.099502 Si / 1000 Ang^3
#
#
#
# Elastic Constant Matrix: (Units=GPa)
#
#
# Indices 1 2 3 4 5 6 
#
# 1 99.0048 6.5576 24.3635 0.0000 0.4493 0.0000
# 2 6.5576 122.2691 34.5083 0.0000 -1.1668 0.0000
# 3 24.3635 34.5083 129.1797 0.0000 -4.9258 0.0000
# 4 0.0000 0.0000 0.0000 19.1379 0.0000 15.0940
# 5 0.4493 -1.1668 -4.9258 0.0000 35.0572 0.0000
# 6 0.0000 0.0000 0.0000 15.0940 0.0000 15.7246
#
#
#
# Elastic Compliance Matrix: (Units=1/GPa)
#
#
# Indices 1 2 3 4 5 6 
#
# 1 0.010598 -0.000004 -0.002014 0.000000 -0.000419 0.000000
# 2 -0.000004 0.008846 -0.002364 0.000000 -0.000038 0.000000
# 3 -0.002014 -0.002364 0.008797 0.000000 0.001183 0.000000
# 4 0.000000 0.000000 0.000000 0.215093 0.000000 -0.206468
# 5 -0.000419 -0.000038 0.001183 0.000000 0.028695 0.000000
# 6 0.000000 0.000000 0.000000 -0.206468 0.000000 0.261783
#
#
# Mechanical properties :
#
#
# Convention : Reuss Voigt Hill
#
# Bulk Modulus (GPa) = 51.33874 53.47917 52.40896
# Shear Modulus (GPa) = 9.10633 32.98557 21.04595
#
# Velocity S-wave (km/s) = 1.86994 3.55891 2.84275
# Velocity P-wave (km/s) = 4.93714 6.11741 5.55869
#
# Compressibility (1/GPa) = 0.01947847
#
# Stress axis : x y z
#
# Youngs Moduli (GPa) = 94.35534 113.05013 113.66897
#
# Poissons Ratio (x) = 0.00046 0.22890
# Poissons Ratio (y) = 0.00038 0.26867
# Poissons Ratio (z) = 0.19001 0.26721
#
# Static dielectric constant tensor:
#      x y z
#    x 4.222950 0.000000 0.134460 
#    y 0.000000 5.398560 0.000000 
#    z 0.134460 0.000000 5.111930 
# 
# 
# High freq. dielectric constant tensor:
#      x y z
#    x 2.011220 0.000000 0.003090 
#    y 0.000000 2.072500 0.000000 
#    z 0.003090 0.000000 2.061070 
# 
# From -- ./inp_files/393.got.cif
#   From: 2010.03.12/outbox.cif.g09.slc.cpg/sg4_1_cif.got.tgz:393.got - 2010.03.31 09:31:35.
