data_PCOD8047172
_publ_section_title
;
Structure prediction by ZEFSAII (Michael W. Deem and Ramdas Pophale) SiO2 
 PCOD8047172
Probable space group: P 21
;
_chemical_formula_sum "Si O2"
_cell_formula_units_Z 16
_cell_length_a 8.596211
_cell_length_b 5.266055
_cell_length_c 21.672945
_cell_angle_alpha 90.000000
_cell_angle_beta 135.287422
_cell_angle_gamma 90.000000
_cell_volume 690.249025
_symmetry_space_group_name_H-M "P 21"
_symmetry_group_IT_number 4
_symmetry_cell_setting 'monoclinic'
loop_
_space_group_symop_operation_xyz
x,y,z
-x,1/2+y,-z
loop_
_atom_site_type_symbol
_atom_site_label
_atom_site_fract_x
_atom_site_fract_y
_atom_site_fract_z
Si Si1 0.003461 0.134010 0.040104
Si Si2 0.696556 0.879926 0.587771
Si Si3 0.339185 0.012587 0.237317
Si Si4 0.356284 0.685771 0.958844
Si Si5 0.750611 0.522493 0.495332
Si Si6 0.020495 0.579087 0.764035
Si Si7 0.371980 0.015152 0.673737
Si Si8 0.961509 0.745131 0.338773
O O1 0.798390 0.206508 0.025393
O O2 0.223555 0.070319 0.140043
O O3 0.059090 0.383395 0.016025
O O4 0.681932 0.771216 0.514465
O O5 0.464731 0.839823 0.556853
O O6 0.894394 0.766866 0.683791
O O7 0.784757 0.166623 0.605682
O O8 0.463246 0.746647 0.267194
O O9 0.155985 0.963202 0.237962
O O10 0.504632 0.246734 0.296864
O O11 0.213343 0.719678 0.856109
O O12 0.466660 0.409143 0.988845
O O13 0.771154 0.570523 0.428336
O O14 0.989199 0.430949 0.588729
O O15 0.134752 0.370786 0.750808
O O16 0.199957 0.020359 0.682912
#
# Coordination Sequence:
#
# PCOD8047172 Si02
#       8
#     2   2   2   2   2   2   2   2
#     4  11  24  47  74 104 143 184 234 282 352 437
#     4  11  22  43  66  95 130 187 240 281 338 416
#     4  11  26  47  71 100 136 190 229 278 348 421
#     4  11  26  46  75 111 141 182 230 297 358 414
#     4  11  24  40  68  93 136 187 238 282 346 413
#     4  10  25  46  71  98 138 183 239 281 340 433
#     4  12  28  43  68 102 145 177 231 294 350 401
#     4  11  27  42  67 101 137 184 235 295 350 401
#
# _framework density 23.180040999999999
#
# number of rings (size 3 to 8) (size 9 to 14) (size 15 to 20)
#    0.000    1.000    2.500    2.250   10.500    5.000 
#    0.000    0.000    0.000    0.000    0.000    0.000 
#    0.000    0.000    0.000    0.000    0.000    0.000 
#
# Total GULP energy -198295.373631 kJ/mol
# GULP energy per Si atom -12393.460852 kJ/mol
# Density = 2.312728 g / cm^3
# Si number density = 23.180041 Si / 1000 Ang^3
#
#
#
# Elastic Constant Matrix: (Units=GPa)
#
#
# Indices 1 2 3 4 5 6 
#
# 1 73.5031 7.9898 32.8901 0.0000 -11.2184 0.0000
# 2 7.9898 67.8007 10.7310 0.0000 -2.9114 0.0000
# 3 32.8901 10.7310 111.5338 0.0000 -17.0736 0.0000
# 4 0.0000 0.0000 0.0000 28.3701 0.0000 5.6717
# 5 -11.2184 -2.9114 -17.0736 0.0000 34.7271 0.0000
# 6 0.0000 0.0000 0.0000 5.6717 0.0000 36.6480
#
#
#
# Elastic Compliance Matrix: (Units=1/GPa)
#
#
# Indices 1 2 3 4 5 6 
#
# 1 0.016052 -0.001102 -0.004161 0.000000 0.003047 0.000000
# 2 -0.001102 0.015064 -0.001066 0.000000 0.000383 0.000000
# 3 -0.004161 -0.001066 0.010896 0.000000 0.003924 0.000000
# 4 0.000000 0.000000 0.000000 0.036374 0.000000 -0.005629
# 5 0.003047 0.000383 0.003924 0.000000 0.031741 0.000000
# 6 0.000000 0.000000 0.000000 -0.005629 0.000000 0.028158
#
#
# Mechanical properties :
#
#
# Convention : Reuss Voigt Hill
#
# Bulk Modulus (GPa) = 34.06674 39.56217 36.81445
# Shear Modulus (GPa) = 31.10861 33.36416 32.23638
#
# Velocity S-wave (km/s) = 3.66736 3.79799 3.73325
# Velocity P-wave (km/s) = 5.71500 6.02805 5.87361
#
# Compressibility (1/GPa) = 0.02935414
#
# Stress axis : x y z
#
# Youngs Moduli (GPa) = 62.29889 66.38298 91.77624
#
# Poissons Ratio (x) = 0.07316 0.38188
# Poissons Ratio (y) = 0.06866 0.09781
# Poissons Ratio (z) = 0.25922 0.07075
#
# Static dielectric constant tensor:
#      x y z
#    x 4.285630 0.000000 -0.057610 
#    y 0.000000 4.130230 0.000000 
#    z -0.057610 0.000000 4.345490 
# 
# 
# High freq. dielectric constant tensor:
#      x y z
#    x 1.921330 0.000000 -0.005740 
#    y 0.000000 1.912050 0.000000 
#    z -0.005740 0.000000 1.927260 
# 
# From -- ./inp_files/8596.got.cif
#   From: 2010.03.12/outbox.cif.g09.slc.cpg/sg4_5_cif.got.tgz:8596.got - 2010.03.31 09:31:35.
