data_PCOD8047590
_publ_section_title
;
Structure prediction by ZEFSAII (Michael W. Deem and Ramdas Pophale) SiO2 
 PCOD8047590
Probable space group: P 21
;
_chemical_formula_sum "Si O2"
_cell_formula_units_Z 14
_cell_length_a 10.641269
_cell_length_b 7.773906
_cell_length_c 8.233818
_cell_angle_alpha 90.000000
_cell_angle_beta 132.767468
_cell_angle_gamma 90.000000
_cell_volume 500.032669
_symmetry_space_group_name_H-M "P 21"
_symmetry_group_IT_number 4
_symmetry_cell_setting 'monoclinic'
loop_
_space_group_symop_operation_xyz
x,y,z
-x,1/2+y,-z
loop_
_atom_site_type_symbol
_atom_site_label
_atom_site_fract_x
_atom_site_fract_y
_atom_site_fract_z
Si Si1 0.430922 0.059710 0.552101
Si Si2 0.034445 0.542276 0.267308
Si Si3 0.501858 0.096777 0.948287
Si Si4 0.874804 0.107166 0.196257
Si Si5 0.856518 0.757735 0.358857
Si Si6 0.414192 0.445246 0.638547
Si Si7 0.072842 0.908758 0.140548
O O1 0.467217 0.254931 0.635185
O O2 0.479260 0.964765 0.770027
O O3 0.548235 0.046911 0.495591
O O4 0.238375 0.013413 0.342455
O O5 0.210834 0.465067 0.498541
O O6 0.078732 0.717059 0.209978
O O7 0.902147 0.591756 0.291004
O O8 0.937994 0.404744 0.065208
O O9 0.350741 0.244296 0.794469
O O10 0.688266 0.182950 0.077602
O O11 0.484496 0.016030 0.112763
O O12 0.909689 0.934799 0.328739
O O13 0.907738 0.028158 0.045362
O O14 0.022420 0.244787 0.373341
#
# Coordination Sequence:
#
# PCOD8047590 Si02
#       7
#     2   2   2   2   2   2   2
#     4  12  27  47  75 111 153 202 257 318 385 459
#     4  11  24  44  72 105 146 195 249 314 381 453
#     4  12  26  46  76 112 152 202 254 310 384 456
#     4  11  25  45  71 104 142 188 244 306 371 443
#     4  11  25  45  71 104 142 188 244 306 371 443
#     4  12  27  47  75 111 153 202 257 318 385 459
#     4  11  24  44  72 105 146 195 249 314 381 453
#
# _framework density 27.998173000000001
#
# number of rings (size 3 to 8) (size 9 to 14) (size 15 to 20)
#    0.000    0.571    2.857    4.286    0.000   10.286 
#    0.000    0.000    0.000    0.000    0.000    0.000 
#    0.000    0.000    0.000    0.000    0.000    0.000 
#
# Total GULP energy -173449.206971 kJ/mol
# GULP energy per Si atom -12389.229069 kJ/mol
# Density = 2.793445 g / cm^3
# Si number density = 27.998173 Si / 1000 Ang^3
#
#
#
# Elastic Constant Matrix: (Units=GPa)
#
#
# Indices 1 2 3 4 5 6 
#
# 1 122.7424 -2.1708 40.5719 0.0000 -11.6893 0.0000
# 2 -2.1708 50.6539 35.5173 0.0000 13.0302 0.0000
# 3 40.5719 35.5173 196.0998 0.0000 -17.6723 0.0000
# 4 0.0000 0.0000 0.0000 49.3015 0.0000 2.0099
# 5 -11.6893 13.0302 -17.6723 0.0000 67.9422 0.0000
# 6 0.0000 0.0000 0.0000 2.0099 0.0000 44.5214
#
#
#
# Elastic Compliance Matrix: (Units=1/GPa)
#
#
# Indices 1 2 3 4 5 6 
#
# 1 0.008932 0.001676 -0.002091 0.000000 0.000671 0.000000
# 2 0.001676 0.025159 -0.005440 0.000000 -0.005952 0.000000
# 3 -0.002091 -0.005440 0.006737 0.000000 0.002436 0.000000
# 4 0.000000 0.000000 0.000000 0.020321 0.000000 -0.000917
# 5 0.000671 -0.005952 0.002436 0.000000 0.016609 0.000000
# 6 0.000000 0.000000 0.000000 -0.000917 0.000000 0.022503
#
#
# Mechanical properties :
#
#
# Convention : Reuss Voigt Hill
#
# Bulk Modulus (GPa) = 34.34262 57.48145 45.91204
# Shear Modulus (GPa) = 41.09291 52.05818 46.57555
#
# Velocity S-wave (km/s) = 3.83521 4.31669 4.08305
# Velocity P-wave (km/s) = 5.64840 6.73944 6.21790
#
# Compressibility (1/GPa) = 0.02911834
#
# Stress axis : x y z
#
# Youngs Moduli (GPa) = 111.95802 39.74724 148.43700
#
# Poissons Ratio (x) = -0.06663 0.31039
# Poissons Ratio (y) = -0.18767 0.80749
# Poissons Ratio (z) = 0.23411 0.21622
#
# Static dielectric constant tensor:
#      x y z
#    x 6.286970 0.000000 -0.855130 
#    y 0.000000 5.101900 0.000000 
#    z -0.855130 0.000000 5.602640 
# 
# 
# High freq. dielectric constant tensor:
#      x y z
#    x 2.167490 0.000000 -0.029110 
#    y 0.000000 2.141230 0.000000 
#    z -0.029110 0.000000 2.148260 
# 
# From -- ./inp_files/7458.got.cif
#   From: 2010.03.12/outbox.cif.g09.slc.cpg/sg4_4_cif.got.tgz:7458.got - 2010.03.31 09:31:35.
