data_PCOD8047976
_publ_section_title
;
Structure prediction by ZEFSAII (Michael W. Deem and Ramdas Pophale) SiO2 
 PCOD8047976
Probable space group: P 21
;
_chemical_formula_sum "Si O2"
_cell_formula_units_Z 16
_cell_length_a 5.610547
_cell_length_b 8.445630
_cell_length_c 16.186729
_cell_angle_alpha 90.000000
_cell_angle_beta 61.064354
_cell_angle_gamma 90.000000
_cell_volume 671.252076
_symmetry_space_group_name_H-M "P 21"
_symmetry_group_IT_number 4
_symmetry_cell_setting 'monoclinic'
loop_
_space_group_symop_operation_xyz
x,y,z
-x,1/2+y,-z
loop_
_atom_site_type_symbol
_atom_site_label
_atom_site_fract_x
_atom_site_fract_y
_atom_site_fract_z
Si Si1 0.123631 0.523510 0.877504
Si Si2 0.761503 0.292796 0.843020
Si Si3 0.392966 0.232880 0.273206
Si Si4 0.229922 0.297667 0.008590
Si Si5 0.590041 0.418340 0.384774
Si Si6 0.553652 0.789827 0.419108
Si Si7 0.178965 0.913869 0.332531
Si Si8 0.117848 0.442108 0.198154
O O1 0.336408 0.632822 0.793418
O O2 0.224631 0.393767 0.924684
O O3 0.971894 0.429978 0.830670
O O4 0.921892 0.630867 0.967019
O O5 0.554516 0.261272 0.954237
O O6 0.639267 0.351096 0.775400
O O7 0.904016 0.129544 0.794966
O O8 0.373172 0.339445 0.359179
O O9 0.370532 0.354106 0.199478
O O10 0.153838 0.104287 0.328074
O O11 0.117386 0.397652 0.102814
O O12 0.536746 0.603448 0.405371
O O13 0.594203 0.328335 0.470544
O O14 0.866640 0.375933 0.291383
O O15 0.364052 0.872735 0.381492
O O16 0.870168 0.845160 0.376932
#
# Coordination Sequence:
#
# PCOD8047976 Si02
#       8
#     2   2   2   2   2   2   2   2
#     4  12  27  46  75 114 156 213 266 331 400 487
#     4  12  26  47  77 110 159 210 268 330 407 482
#     4  12  28  49  80 113 161 210 268 340 406 483
#     4  12  27  43  75 110 160 206 271 323 407 482
#     4  12  29  52  82 118 164 208 275 336 415 488
#     4  12  30  51  86 123 157 219 268 347 409 498
#     4  12  27  51  84 117 161 207 273 329 419 478
#     4  12  28  47  77 113 156 211 267 336 399 488
#
# _framework density 23.836055999999999
#
# number of rings (size 3 to 8) (size 9 to 14) (size 15 to 20)
#    0.000    0.000    3.750    4.500   10.500    2.000 
#    0.000    0.000    0.000    0.000    0.000    0.000 
#    0.000    0.000    0.000    0.000    0.000    0.000 
#
# Total GULP energy -198243.969223 kJ/mol
# GULP energy per Si atom -12390.248076 kJ/mol
# Density = 2.378180 g / cm^3
# Si number density = 23.836056 Si / 1000 Ang^3
#
#
#
# Elastic Constant Matrix: (Units=GPa)
#
#
# Indices 1 2 3 4 5 6 
#
# 1 82.7381 26.7786 37.1366 0.0000 9.8708 0.0000
# 2 26.7786 132.0583 42.8032 0.0000 6.8182 0.0000
# 3 37.1366 42.8032 145.9503 0.0000 8.4916 0.0000
# 4 0.0000 0.0000 0.0000 42.9852 0.0000 5.7387
# 5 9.8708 6.8182 8.4916 0.0000 30.8321 0.0000
# 6 0.0000 0.0000 0.0000 5.7387 0.0000 44.3598
#
#
#
# Elastic Compliance Matrix: (Units=1/GPa)
#
#
# Indices 1 2 3 4 5 6 
#
# 1 0.014391 -0.001790 -0.002939 0.000000 -0.003402 0.000000
# 2 -0.001790 0.008634 -0.002031 0.000000 -0.000777 0.000000
# 3 -0.002939 -0.002031 0.008246 0.000000 -0.000881 0.000000
# 4 0.000000 0.000000 0.000000 0.023673 0.000000 -0.003062
# 5 -0.003402 -0.000777 -0.000881 0.000000 0.033937 0.000000
# 6 0.000000 0.000000 0.000000 -0.003062 0.000000 0.022939
#
#
# Mechanical properties :
#
#
# Convention : Reuss Voigt Hill
#
# Bulk Modulus (GPa) = 56.33607 63.79813 60.06710
# Shear Modulus (GPa) = 38.09316 40.57064 39.33190
#
# Velocity S-wave (km/s) = 4.00200 4.13009 4.06655
# Velocity P-wave (km/s) = 6.71124 7.04039 6.87778
#
# Compressibility (1/GPa) = 0.01775062
#
# Stress axis : x y z
#
# Youngs Moduli (GPa) = 69.49003 115.82223 121.26440
#
# Poissons Ratio (x) = 0.20731 0.35637
# Poissons Ratio (y) = 0.12438 0.24634
# Poissons Ratio (z) = 0.20422 0.23529
#
# Static dielectric constant tensor:
#      x y z
#    x 4.312470 0.000000 0.001460 
#    y 0.000000 4.544760 0.000000 
#    z 0.001460 0.000000 4.489800 
# 
# 
# High freq. dielectric constant tensor:
#      x y z
#    x 1.936460 0.000000 0.001600 
#    y 0.000000 1.967970 0.000000 
#    z 0.001600 0.000000 1.965880 
# 
# From -- ./inp_files/3583.got.cif
#   From: 2010.03.12/outbox.cif.g09.slc.cpg/sg4_2_cif.got.tgz:3583.got - 2010.03.31 09:31:35.
