data_PCOD8047207
_publ_section_title
;
Structure prediction by ZEFSAII (Michael W. Deem and Ramdas Pophale) SiO2 
 PCOD8047207
Probable space group: P 21
;
_chemical_formula_sum "Si O2"
_cell_formula_units_Z 16
_cell_length_a 14.525348
_cell_length_b 5.140006
_cell_length_c 21.753691
_cell_angle_alpha 90.000000
_cell_angle_beta 22.287694
_cell_angle_gamma 90.000000
_cell_volume 615.966694
_symmetry_space_group_name_H-M "P 21"
_symmetry_group_IT_number 4
_symmetry_cell_setting 'monoclinic'
loop_
_space_group_symop_operation_xyz
x,y,z
-x,1/2+y,-z
loop_
_atom_site_type_symbol
_atom_site_label
_atom_site_fract_x
_atom_site_fract_y
_atom_site_fract_z
Si Si1 0.903807 0.113080 0.082080
Si Si2 0.596378 0.738307 0.408258
Si Si3 0.054914 0.021908 0.117152
Si Si4 0.438703 0.802030 0.370409
Si Si5 0.787883 0.787358 0.541599
Si Si6 0.264867 0.385518 0.075080
Si Si7 0.747574 0.116282 0.793074
Si Si8 0.546023 0.767633 0.818102
O O1 0.682372 0.937785 0.193000
O O2 0.914031 0.167889 0.148488
O O3 0.881855 0.399858 0.064924
O O4 0.484924 0.010127 0.498201
O O5 0.494489 0.693032 0.403198
O O6 0.892495 0.761832 0.229198
O O7 0.049244 0.203332 0.181438
O O8 0.337614 0.973639 0.926641
O O9 0.251929 0.042679 0.480492
O O10 0.351646 0.553759 0.385735
O O11 0.716361 0.696648 0.654715
O O12 0.077915 0.825606 0.350495
O O13 0.148235 0.549141 0.203062
O O14 0.479979 0.220717 0.973122
O O15 0.386020 0.531347 0.942509
O O16 0.722818 0.871615 0.762312
#
# Coordination Sequence:
#
# PCOD8047207 Si02
#       8
#     2   2   2   2   2   2   2   2
#     4  11  23  42  74 105 153 194 246 309 375 449
#     4  11  26  47  74 110 156 202 259 312 381 454
#     4  10  26  43  76 107 148 207 251 322 373 466
#     4  11  26  47  67 114 148 197 253 307 377 456
#     4  12  29  46  80 110 158 201 252 319 387 460
#     4  11  25  49  74 109 148 199 265 309 395 454
#     4  11  27  48  76 108 150 202 255 328 381 463
#     4  11  26  46  75 111 151 200 261 312 395 460
#
# _framework density 25.975429999999999
#
# number of rings (size 3 to 8) (size 9 to 14) (size 15 to 20)
#    0.000    1.000    1.250    3.000   14.000    3.000 
#    0.000    0.000    0.000    0.000    0.000    0.000 
#    0.000    0.000    0.000    0.000    0.000    0.000 
#
# Total GULP energy -198285.658733 kJ/mol
# GULP energy per Si atom -12392.853671 kJ/mol
# Density = 2.591631 g / cm^3
# Si number density = 25.975430 Si / 1000 Ang^3
#
#
#
# Elastic Constant Matrix: (Units=GPa)
#
#
# Indices 1 2 3 4 5 6 
#
# 1 104.4762 35.4635 30.5331 0.0000 6.1657 0.0000
# 2 35.4635 88.0387 3.7800 0.0000 6.3546 0.0000
# 3 30.5331 3.7800 97.7529 0.0000 17.5740 0.0000
# 4 0.0000 0.0000 0.0000 37.5921 0.0000 5.9881
# 5 6.1657 6.3546 17.5740 0.0000 28.2339 0.0000
# 6 0.0000 0.0000 0.0000 5.9881 0.0000 35.4377
#
#
#
# Elastic Compliance Matrix: (Units=1/GPa)
#
#
# Indices 1 2 3 4 5 6 
#
# 1 0.012274 -0.004837 -0.003784 0.000000 0.000764 0.000000
# 2 -0.004837 0.013452 0.001515 0.000000 -0.002914 0.000000
# 3 -0.003784 0.001515 0.012686 0.000000 -0.007411 0.000000
# 4 0.000000 0.000000 0.000000 0.027337 0.000000 -0.004619
# 5 0.000764 -0.002914 -0.007411 0.000000 0.040520 0.000000
# 6 0.000000 0.000000 0.000000 -0.004619 0.000000 0.028999
#
#
# Mechanical properties :
#
#
# Convention : Reuss Voigt Hill
#
# Bulk Modulus (GPa) = 41.32377 47.75790 44.54083
# Shear Modulus (GPa) = 31.73637 34.95215 33.34426
#
# Velocity S-wave (km/s) = 3.49920 3.67220 3.58674
# Velocity P-wave (km/s) = 5.68059 6.03372 5.85982
#
# Compressibility (1/GPa) = 0.02419915
#
# Stress axis : x y z
#
# Youngs Moduli (GPa) = 81.47145 74.33648 78.82988
#
# Poissons Ratio (x) = 0.35956 0.29830
# Poissons Ratio (y) = 0.39407 -0.11939
# Poissons Ratio (z) = 0.30830 -0.11258
#
# Static dielectric constant tensor:
#      x y z
#    x 4.655940 0.000000 -0.263800 
#    y 0.000000 4.342660 0.000000 
#    z -0.263800 0.000000 4.878160 
# 
# 
# High freq. dielectric constant tensor:
#      x y z
#    x 2.044480 0.000000 -0.006840 
#    y 0.000000 2.033580 0.000000 
#    z -0.006840 0.000000 2.041140 
# 
# From -- ./inp_files/15068.got.cif
#   From: 2010.03.12/outbox.cif.g09.slc.cpg/sg4_8_cif.got.tgz:15068.got - 2010.03.31 09:31:35.
