data_PCOD8047376
_publ_section_title
;
Structure prediction by ZEFSAII (Michael W. Deem and Ramdas Pophale) SiO2 
 PCOD8047376
Probable space group: P 21
;
_chemical_formula_sum "Si O2"
_cell_formula_units_Z 16
_cell_length_a 18.195518
_cell_length_b 9.462819
_cell_length_c 5.617626
_cell_angle_alpha 90.000000
_cell_angle_beta 47.093708
_cell_angle_gamma 90.000000
_cell_volume 708.478244
_symmetry_space_group_name_H-M "P 21"
_symmetry_group_IT_number 4
_symmetry_cell_setting 'monoclinic'
loop_
_space_group_symop_operation_xyz
x,y,z
-x,1/2+y,-z
loop_
_atom_site_type_symbol
_atom_site_label
_atom_site_fract_x
_atom_site_fract_y
_atom_site_fract_z
Si Si1 0.775888 0.503830 0.625341
Si Si2 0.333287 0.740961 0.257238
Si Si3 0.993429 0.534745 0.274099
Si Si4 0.905431 0.816454 0.620255
Si Si5 0.811233 0.988016 0.438086
Si Si6 0.555808 0.270890 0.495537
Si Si7 0.604600 0.579300 0.339531
Si Si8 0.251006 0.235222 0.677918
O O1 0.723688 0.388195 0.572025
O O2 0.889023 0.459095 0.436218
O O3 0.781899 0.653582 0.484948
O O4 0.707968 0.516431 0.009952
O O5 0.248617 0.628811 0.378917
O O6 0.387638 0.712135 0.391857
O O7 0.400434 0.741788 0.868120
O O8 0.981987 0.703465 0.337065
O O9 0.032082 0.447312 0.414761
O O10 0.074804 0.520072 0.887519
O O11 0.820491 0.886951 0.643953
O O12 0.841224 0.715937 0.936838
O O13 0.745542 0.902611 0.386603
O O14 0.538801 0.441039 0.563506
O O15 0.453101 0.179984 0.721395
O O16 0.639661 0.679174 0.480477
#
# Coordination Sequence:
#
# PCOD8047376 Si02
#       8
#     2   2   2   2   2   2   2   2
#     4  11  24  46  72 101 143 190 235 297 358 441
#     4  11  28  48  72 110 145 190 243 300 365 426
#     4  11  26  41  69 100 141 188 237 292 364 431
#     4  11  26  43  64 105 136 191 237 294 357 427
#     4  11  27  42  70 103 144 186 242 296 360 429
#     4  11  28  47  76 110 143 192 240 301 367 434
#     4  11  25  46  74 106 145 184 238 298 369 431
#     4  11  22  45  69  99 141 185 236 294 362 425
#
# _framework density 22.583615999999999
#
# number of rings (size 3 to 8) (size 9 to 14) (size 15 to 20)
#    0.000    1.000    3.750    0.000   12.250    2.000 
#    0.000    0.000    0.000    0.000    0.000    0.000 
#    0.000    0.000    0.000    0.000    0.000    0.000 
#
# Total GULP energy -198266.492447 kJ/mol
# GULP energy per Si atom -12391.655778 kJ/mol
# Density = 2.253222 g / cm^3
# Si number density = 22.583616 Si / 1000 Ang^3
#
#
#
# Elastic Constant Matrix: (Units=GPa)
#
#
# Indices 1 2 3 4 5 6 
#
# 1 126.9124 32.9720 18.8409 0.0000 -4.2304 0.0000
# 2 32.9720 88.4381 8.6435 0.0000 -12.4082 0.0000
# 3 18.8409 8.6435 54.9998 0.0000 5.9769 0.0000
# 4 0.0000 0.0000 0.0000 30.5095 0.0000 -4.2686
# 5 -4.2304 -12.4082 5.9769 0.0000 33.1988 0.0000
# 6 0.0000 0.0000 0.0000 -4.2686 0.0000 46.4553
#
#
#
# Elastic Compliance Matrix: (Units=1/GPa)
#
#
# Indices 1 2 3 4 5 6 
#
# 1 0.009089 -0.003056 -0.002688 0.000000 0.000500 0.000000
# 2 -0.003056 0.013281 -0.001568 0.000000 0.004857 0.000000
# 3 -0.002688 -0.001568 0.019838 0.000000 -0.004500 0.000000
# 4 0.000000 0.000000 0.000000 0.033204 0.000000 0.003051
# 5 0.000500 0.004857 -0.004500 0.000000 0.032811 0.000000
# 6 0.000000 0.000000 0.000000 0.003051 0.000000 0.021806
#
#
# Mechanical properties :
#
#
# Convention : Reuss Voigt Hill
#
# Bulk Modulus (GPa) = 36.25152 43.47367 39.86259
# Shear Modulus (GPa) = 32.49972 36.02565 34.26268
#
# Velocity S-wave (km/s) = 3.79764 3.99834 3.89928
# Velocity P-wave (km/s) = 5.94276 6.37240 6.16133
#
# Compressibility (1/GPa) = 0.02758505
#
# Stress axis : x y z
#
# Youngs Moduli (GPa) = 110.02291 75.29364 50.40818
#
# Poissons Ratio (x) = 0.23008 0.13548
# Poissons Ratio (y) = 0.33621 0.07905
# Poissons Ratio (z) = 0.29570 0.11808
#
# Static dielectric constant tensor:
#      x y z
#    x 4.073760 0.000000 0.006160 
#    y 0.000000 4.205150 0.000000 
#    z 0.006160 0.000000 3.902440 
# 
# 
# High freq. dielectric constant tensor:
#      x y z
#    x 1.895850 0.000000 0.004380 
#    y 0.000000 1.904660 0.000000 
#    z 0.004380 0.000000 1.876780 
# 
# From -- ./inp_files/2573.got.cif
#   From: 2010.03.12/outbox.cif.g09.slc.cpg/sg4_2_cif.got.tgz:2573.got - 2010.03.31 09:31:35.
