data_PCOD8048075
_publ_section_title
;
Structure prediction by ZEFSAII (Michael W. Deem and Ramdas Pophale) SiO2 
 PCOD8048075
Probable space group: C 2
;
_chemical_formula_sum "Si O2"
_cell_formula_units_Z 32
_cell_length_a 16.304242
_cell_length_b 21.487583
_cell_length_c 9.142529
_cell_angle_alpha 90.000000
_cell_angle_beta 150.384149
_cell_angle_gamma 90.000000
_cell_volume 1582.857421
_symmetry_space_group_name_H-M "C 2"
_symmetry_group_IT_number 5
_symmetry_cell_setting 'monoclinic'
loop_
_space_group_symop_operation_xyz
x,y,z
-x,y,-z
1/2+x,1/2+y,z
1/2-x,1/2+y,-z
loop_
_atom_site_type_symbol
_atom_site_label
_atom_site_fract_x
_atom_site_fract_y
_atom_site_fract_z
Si Si1 0.827722 0.517840 0.535653
Si Si2 0.400981 0.087692 0.195248
Si Si3 0.993807 0.901115 0.165731
Si Si4 0.329767 0.683368 0.310649
Si Si5 0.849968 0.381279 0.672105
Si Si6 0.336925 0.828562 0.337107
Si Si7 0.576275 0.616673 0.265181
Si Si8 0.150600 0.018839 0.970416
O O1 0.870857 0.455669 0.689728
O O2 0.691271 0.558171 0.406759
O O3 0.985214 0.562428 0.758678
O O4 0.764811 0.494622 0.280570
O O5 0.500000 0.102529 0.500000
O O6 0.320301 0.150576 0.007987
O O7 0.266734 0.031772 0.010399
O O8 0.170497 0.867420 0.470572
O O9 0.985899 0.964032 0.253615
O O10 0.836935 0.860928 0.976497
O O11 0.000000 0.917015 0.000000
O O12 0.500000 0.661757 0.500000
O O13 0.304436 0.756421 0.257777
O O14 0.332200 0.665671 0.487558
O O15 0.870899 0.342568 0.557470
O O16 0.000000 0.354965 0.000000
O O17 0.500000 0.851819 0.500000
O O18 0.422689 0.587036 0.113580
O O19 0.500000 0.648997 0.000000
#
# Coordination Sequence:
#
# PCOD8048075 Si02
#       8
#     4   4   4   4   4   4   4   4
#     4  10  20  34  57  95 129 157 198 263 319 385
#     4  10  23  36  60  96 129 166 205 261 323 378
#     4  10  18  38  63  88 124 169 208 253 315 383
#     4  11  23  44  63  91 128 169 217 262 310 385
#     4  11  23  39  62  95 130 160 208 273 321 371
#     4  10  24  43  67  86 118 178 223 254 311 382
#     4  10  20  36  62  92 124 169 201 254 324 383
#     4  10  16  34  63  88 122 164 204 243 326 385
#
# _framework density 20.216604
#
# number of rings (size 3 to 8) (size 9 to 14) (size 15 to 20)
#    0.000    1.750    5.000    0.375    3.500    0.500 
#    6.750    3.125    0.000    0.000    0.000    0.000 
#    0.000    0.000    0.000    0.000    0.000    0.000 
#
# Total GULP energy -198278.602574 kJ/mol
# GULP energy per Si atom -12392.412661 kJ/mol
# Density = 2.017059 g / cm^3
# Si number density = 20.216604 Si / 1000 Ang^3
#
#
#
# Elastic Constant Matrix: (Units=GPa)
#
#
# Indices 1 2 3 4 5 6 
#
# 1 77.6408 34.6199 49.3037 0.0000 16.1304 0.0000
# 2 34.6199 62.9339 28.8206 0.0000 9.5020 0.0000
# 3 49.3037 28.8206 109.1735 0.0000 19.5246 0.0000
# 4 0.0000 0.0000 0.0000 27.3371 0.0000 4.7861
# 5 16.1304 9.5020 19.5246 0.0000 31.1460 0.0000
# 6 0.0000 0.0000 0.0000 4.7861 0.0000 26.0961
#
#
#
# Elastic Compliance Matrix: (Units=1/GPa)
#
#
# Indices 1 2 3 4 5 6 
#
# 1 0.021842 -0.008176 -0.006902 0.000000 -0.004490 0.000000
# 2 -0.008176 0.021362 -0.001733 0.000000 -0.001196 0.000000
# 3 -0.006902 -0.001733 0.013516 0.000000 -0.004369 0.000000
# 4 0.000000 0.000000 0.000000 0.037794 0.000000 -0.006932
# 5 -0.004490 -0.001196 -0.004369 0.000000 0.037536 0.000000
# 6 0.000000 0.000000 0.000000 -0.006932 0.000000 0.039591
#
#
# Mechanical properties :
#
#
# Convention : Reuss Voigt Hill
#
# Bulk Modulus (GPa) = 43.29716 52.80407 48.05061
# Shear Modulus (GPa) = 23.47836 26.04943 24.76389
#
# Velocity S-wave (km/s) = 3.41154 3.59349 3.50369
# Velocity P-wave (km/s) = 6.08122 6.58737 6.33935
#
# Compressibility (1/GPa) = 0.02309620
#
# Stress axis : x y z
#
# Youngs Moduli (GPa) = 45.78403 46.81305 73.98759
#
# Poissons Ratio (x) = 0.38275 0.51069
# Poissons Ratio (y) = 0.37434 0.12821
# Poissons Ratio (z) = 0.31602 0.08112
#
# Static dielectric constant tensor:
#      x y z
#    x 3.735820 0.000000 0.289810 
#    y 0.000000 3.360080 0.000000 
#    z 0.289810 0.000000 3.786100 
# 
# 
# High freq. dielectric constant tensor:
#      x y z
#    x 1.787480 0.000000 0.024350 
#    y 0.000000 1.766530 0.000000 
#    z 0.024350 0.000000 1.785710 
# 
# From -- ./inp_files/25681.got.cif
#   From: 2010.03.12/outbox.cif.g09.slc.cpg/sg5_13_cif.got.tgz:25681.got - 2010.03.31 09:47:26.
