data_PCOD8048830
_publ_section_title
;
Structure prediction by ZEFSAII (Michael W. Deem and Ramdas Pophale) SiO2 
 PCOD8048830
Probable space group: C 2
;
_chemical_formula_sum "Si O2"
_cell_formula_units_Z 24
_cell_length_a 6.225400
_cell_length_b 13.592274
_cell_length_c 16.124796
_cell_angle_alpha 90.000000
_cell_angle_beta 60.149347
_cell_angle_gamma 90.000000
_cell_volume 1183.411692
_symmetry_space_group_name_H-M "C 2"
_symmetry_group_IT_number 5
_symmetry_cell_setting 'monoclinic'
loop_
_space_group_symop_operation_xyz
x,y,z
-x,y,-z
1/2+x,1/2+y,z
1/2-x,1/2+y,-z
loop_
_atom_site_type_symbol
_atom_site_label
_atom_site_fract_x
_atom_site_fract_y
_atom_site_fract_z
Si Si1 0.006392 0.657600 0.587764
Si Si2 0.756015 0.261209 0.094356
Si Si3 0.988228 0.277132 0.324033
Si Si4 0.000000 0.864560 0.000000
Si Si5 0.084704 0.616793 0.750154
Si Si6 0.000000 0.279777 0.500000
Si Si7 0.499389 0.911449 0.833512
O O1 0.014923 0.589418 0.667857
O O2 0.260931 0.714243 0.536276
O O3 0.000000 0.598919 0.500000
O O4 0.787150 0.737128 0.637730
O O5 0.654033 0.170755 0.166514
O O6 0.813878 0.351813 0.144311
O O7 0.550677 0.294354 0.068275
O O8 0.000000 0.224226 0.000000
O O9 0.060035 0.353192 0.239276
O O10 0.172268 0.183510 0.288001
O O11 0.015688 0.335968 0.407834
O O12 0.240410 0.930267 0.932067
O O13 0.130016 0.515024 0.789461
#
# Coordination Sequence:
#
# PCOD8048830 Si02
#       7
#     4   4   4   2   4   2   4
#     4   9  18  37  65  89 124 162 194 249 305 353
#     4  10  22  42  59  86 124 156 205 260 300 358
#     4  10  19  39  61  89 126 157 202 253 299 356
#     4  10  22  44  60  84 130 158 198 264 300 352
#     4  11  22  38  64  90 120 164 203 247 305 359
#     4   8  18  34  66  88 118 166 194 246 310 354
#     4  11  23  39  62  92 120 161 209 247 299 366
#
# _framework density 20.280346000000002
#
# number of rings (size 3 to 8) (size 9 to 14) (size 15 to 20)
#    0.000    2.000    3.333    0.000    1.167    1.333 
#    6.000    0.000   29.333    0.000    0.000    0.000 
#    0.000    0.000    0.000    0.000    0.000    0.000 
#
# Total GULP energy -148685.765432 kJ/mol
# GULP energy per Si atom -12390.480453 kJ/mol
# Density = 2.023419 g / cm^3
# Si number density = 20.280346 Si / 1000 Ang^3
#
#
#
# Elastic Constant Matrix: (Units=GPa)
#
#
# Indices 1 2 3 4 5 6 
#
# 1 99.5728 31.2958 46.2491 0.0000 8.3236 0.0000
# 2 31.2958 80.5188 47.0581 0.0000 7.5082 0.0000
# 3 46.2491 47.0581 130.0088 0.0000 18.1525 0.0000
# 4 0.0000 0.0000 0.0000 14.4754 0.0000 1.3424
# 5 8.3236 7.5082 18.1525 0.0000 46.5574 0.0000
# 6 0.0000 0.0000 0.0000 1.3424 0.0000 18.2722
#
#
#
# Elastic Compliance Matrix: (Units=1/GPa)
#
#
# Indices 1 2 3 4 5 6 
#
# 1 0.012544 -0.002869 -0.003358 0.000000 -0.000471 0.000000
# 2 -0.002869 0.016413 -0.004888 0.000000 -0.000228 0.000000
# 3 -0.003358 -0.004888 0.011064 0.000000 -0.002925 0.000000
# 4 0.000000 0.000000 0.000000 0.069557 0.000000 -0.005110
# 5 -0.000471 -0.000228 -0.002925 0.000000 0.022740 0.000000
# 6 0.000000 0.000000 0.000000 -0.005110 0.000000 0.055103
#
#
# Mechanical properties :
#
#
# Convention : Reuss Voigt Hill
#
# Bulk Modulus (GPa) = 56.21187 62.14514 59.17851
# Shear Modulus (GPa) = 23.19308 28.22751 25.71030
#
# Velocity S-wave (km/s) = 3.38542 3.73482 3.56440
# Velocity P-wave (km/s) = 6.56194 7.02197 6.79585
#
# Compressibility (1/GPa) = 0.01778984
#
# Stress axis : x y z
#
# Youngs Moduli (GPa) = 79.72119 60.92825 90.38152
#
# Poissons Ratio (x) = 0.17480 0.30351
# Poissons Ratio (y) = 0.22872 0.44182
# Poissons Ratio (z) = 0.26771 0.29784
#
# Static dielectric constant tensor:
#      x y z
#    x 3.897980 0.000000 0.283150 
#    y 0.000000 3.031780 0.000000 
#    z 0.283150 0.000000 4.506300 
# 
# 
# High freq. dielectric constant tensor:
#      x y z
#    x 1.808370 0.000000 0.006750 
#    y 0.000000 1.728630 0.000000 
#    z 0.006750 0.000000 1.830140 
# 
# From -- ./inp_files/48824.got.cif
#   From: 2010.03.12/outbox.cif.g09.slc.cpg/sg5_25_cif.got.tgz:48824.got - 2010.03.31 09:47:26.
