data_PCOD8048694
_publ_section_title
;
Structure prediction by ZEFSAII (Michael W. Deem and Ramdas Pophale) SiO2 
 PCOD8048694
Probable space group: C 2
;
_chemical_formula_sum "Si O2"
_cell_formula_units_Z 24
_cell_length_a 17.584442
_cell_length_b 9.113177
_cell_length_c 22.414199
_cell_angle_alpha 90.000000
_cell_angle_beta 19.020160
_cell_angle_gamma 90.000000
_cell_volume 1170.596112
_symmetry_space_group_name_H-M "C 2"
_symmetry_group_IT_number 5
_symmetry_cell_setting 'monoclinic'
loop_
_space_group_symop_operation_xyz
x,y,z
-x,y,-z
1/2+x,1/2+y,z
1/2-x,1/2+y,-z
loop_
_atom_site_type_symbol
_atom_site_label
_atom_site_fract_x
_atom_site_fract_y
_atom_site_fract_z
Si Si1 0.977061 0.060910 0.947615
Si Si2 0.428906 0.413812 0.402936
Si Si3 0.950540 0.653174 0.307664
Si Si4 0.084805 0.828892 0.097766
Si Si5 0.788228 0.532003 0.040902
Si Si6 0.838779 0.356617 0.176945
O O1 0.146218 0.196344 0.802809
O O2 0.054464 0.921900 0.849313
O O3 0.714217 0.110757 0.127422
O O4 0.000000 0.014418 0.000000
O O5 0.200393 0.506945 0.585754
O O6 0.353693 0.255431 0.433038
O O7 0.593729 0.492838 0.232976
O O8 0.572735 0.395537 0.357960
O O9 0.923781 0.744739 0.265634
O O10 0.254269 0.943959 0.004670
O O11 0.234479 0.705239 0.952714
O O12 0.049845 0.489024 0.867801
O O13 0.000000 0.330241 0.000000
#
# Coordination Sequence:
#
# PCOD8048694 Si02
#       6
#     4   4   4   4   4   4
#     4  11  20  39  68  94 123 173 223 259 312 394
#     4  10  22  37  63  92 130 168 210 271 328 382
#     4  11  22  40  63  98 129 165 218 269 325 376
#     4  11  21  36  63  94 126 164 222 273 306 380
#     4  10  19  36  62  88 121 173 220 256 314 388
#     4   9  16  38  61  87 118 167 219 254 309 389
#
# _framework density 20.502374
#
# number of rings (size 3 to 8) (size 9 to 14) (size 15 to 20)
#    0.000    1.667    8.333    0.000    2.333    2.000 
#    0.000    0.833    3.667    0.000    0.000    0.000 
#    0.000    0.000    0.000    0.000    0.000    0.000 
#
# Total GULP energy -148734.693513 kJ/mol
# GULP energy per Si atom -12394.557793 kJ/mol
# Density = 2.045571 g / cm^3
# Si number density = 20.502374 Si / 1000 Ang^3
#
#
#
# Elastic Constant Matrix: (Units=GPa)
#
#
# Indices 1 2 3 4 5 6 
#
# 1 112.8660 51.0582 32.7141 0.0092 -12.1513 0.0029
# 2 51.0582 127.9296 31.4742 -0.0266 -10.2114 0.0056
# 3 32.7141 31.4742 49.7707 -0.0213 -19.5708 0.0038
# 4 0.0092 -0.0266 -0.0213 36.8484 -0.0179 2.1945
# 5 -12.1513 -10.2114 -19.5708 -0.0179 20.7393 0.0014
# 6 0.0029 0.0056 0.0038 2.1945 0.0014 45.4190
#
#
#
# Elastic Compliance Matrix: (Units=1/GPa)
#
#
# Indices 1 2 3 4 5 6 
#
# 1 0.012074 -0.003392 -0.005829 -0.000009 -0.000097 0.000001
# 2 -0.003392 0.010241 -0.004842 0.000005 -0.001514 -0.000001
# 3 -0.005829 -0.004842 0.039280 0.000036 0.031268 -0.000005
# 4 -0.000009 0.000005 0.000036 0.027217 0.000055 -0.001315
# 5 -0.000097 -0.001514 0.031268 0.000055 0.076922 -0.000007
# 6 0.000001 -0.000001 -0.000005 -0.001315 -0.000007 0.022081
#
#
# Mechanical properties :
#
#
# Convention : Reuss Voigt Hill
#
# Bulk Modulus (GPa) = 29.87817 57.89546 43.88681
# Shear Modulus (GPa) = 22.01700 32.28932 27.15316
#
# Velocity S-wave (km/s) = 3.28056 3.97281 3.64317
# Velocity P-wave (km/s) = 5.38090 7.02453 6.25692
#
# Compressibility (1/GPa) = 0.03346925
#
# Stress axis : x y z
#
# Youngs Moduli (GPa) = 82.82400 97.64520 25.45794
#
# Poissons Ratio (x) = 0.33126 0.14839
# Poissons Ratio (y) = 0.28098 0.12327
# Poissons Ratio (z) = 0.48275 0.47279
#
# Static dielectric constant tensor:
#      x y z
#    x 4.167340 -0.000050 -0.108170 
#    y -0.000050 4.072510 0.000040 
#    z -0.108170 0.000040 3.158440 
# 
# 
# High freq. dielectric constant tensor:
#      x y z
#    x 1.813450 0.000000 -0.006100 
#    y 0.000000 1.816830 0.000000 
#    z -0.006100 0.000000 1.748100 
# 
# From -- ./inp_files/32461.got.cif
#   From: 2010.03.12/outbox.cif.g09.slc.cpg/sg5_17_cif.got.tgz:32461.got - 2010.03.31 09:47:26.
