data_PCOD8048576
_publ_section_title
;
Structure prediction by ZEFSAII (Michael W. Deem and Ramdas Pophale) SiO2 
 PCOD8048576
Probable space group: C 2
;
_chemical_formula_sum "Si O2"
_cell_formula_units_Z 28
_cell_length_a 5.082256
_cell_length_b 30.768674
_cell_length_c 9.208131
_cell_angle_alpha 90.000000
_cell_angle_beta 117.086952
_cell_angle_gamma 90.000000
_cell_volume 1281.979971
_symmetry_space_group_name_H-M "C 2"
_symmetry_group_IT_number 5
_symmetry_cell_setting 'monoclinic'
loop_
_space_group_symop_operation_xyz
x,y,z
-x,y,-z
1/2+x,1/2+y,z
1/2-x,1/2+y,-z
loop_
_atom_site_type_symbol
_atom_site_label
_atom_site_fract_x
_atom_site_fract_y
_atom_site_fract_z
Si Si1 0.391002 0.579580 0.312872
Si Si2 0.659808 0.745148 0.689573
Si Si3 0.337493 0.300196 0.311072
Si Si4 0.293128 0.893654 0.812074
Si Si5 0.293564 0.436314 0.815336
Si Si6 0.829869 0.160915 0.108934
Si Si7 0.251242 0.036463 0.178999
O O1 0.500000 0.590275 0.500000
O O2 0.467576 0.622301 0.237874
O O3 0.613177 0.543765 0.303502
O O4 0.050646 0.563390 0.222809
O O5 0.500000 0.731261 0.500000
O O6 0.483875 0.782129 0.731276
O O7 0.678846 0.704344 0.798883
O O8 0.984471 0.763869 0.735726
O O9 0.500000 0.312752 0.500000
O O10 0.301432 0.343465 0.207956
O O11 0.499064 0.906548 0.726808
O O12 0.002565 0.924882 0.730677
O O13 0.500000 0.905368 0.000000
O O14 0.183931 0.485452 0.810168
O O15 0.500000 0.421034 0.000000
O O16 0.500000 0.145603 0.000000
O O17 0.000000 0.167997 0.000000
O O18 0.000000 0.050936 0.000000
#
# Coordination Sequence:
#
# PCOD8048576 Si02
#       7
#     4   4   4   4   4   4   4
#     4  12  25  42  63  92 129 164 200 249 313 371
#     4  10  22  41  61  84 119 159 196 241 302 361
#     4  10  21  37  58  84 117 158 198 238 295 361
#     4  10  19  34  56  84 116 152 197 246 296 349
#     4   9  19  35  57  84 115 154 198 248 301 349
#     4  12  25  42  65  93 121 153 202 251 298 359
#     4  11  22  41  67  91 121 164 213 257 302 362
#
# _framework density 21.841215999999999
#
# number of rings (size 3 to 8) (size 9 to 14) (size 15 to 20)
#    0.000    1.429    0.000    6.000    0.000    4.000 
#    0.000    8.571    0.000    0.000    0.000    0.000 
#    0.000    0.000    0.000    0.000    0.000    0.000 
#
# Total GULP energy -173550.110319 kJ/mol
# GULP energy per Si atom -12396.436451 kJ/mol
# Density = 2.179150 g / cm^3
# Si number density = 21.841216 Si / 1000 Ang^3
#
#
#
# Elastic Constant Matrix: (Units=GPa)
#
#
# Indices 1 2 3 4 5 6 
#
# 1 164.8165 46.4182 36.8573 0.0000 -15.3271 0.0000
# 2 46.4182 98.6947 37.9366 0.0000 -3.7683 0.0000
# 3 36.8573 37.9366 62.1661 0.0000 -11.2283 0.0000
# 4 0.0000 0.0000 0.0000 17.4383 0.0000 -7.7377
# 5 -15.3271 -3.7683 -11.2283 0.0000 26.8091 0.0000
# 6 0.0000 0.0000 0.0000 -7.7377 0.0000 34.2774
#
#
#
# Elastic Compliance Matrix: (Units=1/GPa)
#
#
# Indices 1 2 3 4 5 6 
#
# 1 0.007598 -0.002528 -0.002425 0.000000 0.002973 0.000000
# 2 -0.002528 0.014146 -0.007611 0.000000 -0.002645 0.000000
# 3 -0.002425 -0.007611 0.023503 0.000000 0.007387 0.000000
# 4 0.000000 0.000000 0.000000 0.063728 0.000000 0.014386
# 5 0.002973 -0.002645 0.007387 0.000000 0.041723 0.000000
# 6 0.000000 0.000000 0.000000 0.014386 0.000000 0.032421
#
#
# Mechanical properties :
#
#
# Convention : Reuss Voigt Hill
#
# Bulk Modulus (GPa) = 49.70696 63.12239 56.41468
# Shear Modulus (GPa) = 23.26081 29.33598 26.29839
#
# Velocity S-wave (km/s) = 3.26697 3.66887 3.47374
# Velocity P-wave (km/s) = 6.08593 6.84915 6.47879
#
# Compressibility (1/GPa) = 0.02011791
#
# Stress axis : x y z
#
# Youngs Moduli (GPa) = 131.61204 70.69201 42.54788
#
# Poissons Ratio (x) = 0.17870 0.10319
# Poissons Ratio (y) = 0.33269 0.32385
# Poissons Ratio (z) = 0.31919 0.53807
#
# Static dielectric constant tensor:
#      x y z
#    x 4.458200 0.000000 -0.040390 
#    y 0.000000 3.730180 0.000000 
#    z -0.040390 0.000000 3.744750 
# 
# 
# High freq. dielectric constant tensor:
#      x y z
#    x 1.884860 0.000000 -0.004220 
#    y 0.000000 1.862510 0.000000 
#    z -0.004220 0.000000 1.833550 
# 
# From -- ./inp_files/13387.got.cif
#   From: 2010.03.12/outbox.cif.g09.slc.cpg/sg5_7_cif.got.tgz:13387.got - 2010.03.31 09:47:26.
