data_PCOD8048878
_publ_section_title
;
Structure prediction by ZEFSAII (Michael W. Deem and Ramdas Pophale) SiO2 
 PCOD8048878
Probable space group: C 2
;
_chemical_formula_sum "Si O2"
_cell_formula_units_Z 30
_cell_length_a 17.551020
_cell_length_b 5.385759
_cell_length_c 15.119511
_cell_angle_alpha 90.000000
_cell_angle_beta 117.943284
_cell_angle_gamma 90.000000
_cell_volume 1262.554860
_symmetry_space_group_name_H-M "C 2"
_symmetry_group_IT_number 5
_symmetry_cell_setting 'monoclinic'
loop_
_space_group_symop_operation_xyz
x,y,z
-x,y,-z
1/2+x,1/2+y,z
1/2-x,1/2+y,-z
loop_
_atom_site_type_symbol
_atom_site_label
_atom_site_fract_x
_atom_site_fract_y
_atom_site_fract_z
Si Si1 0.288656 0.116570 0.983127
Si Si2 0.721217 0.339519 0.206840
Si Si3 0.364027 0.765943 0.527930
Si Si4 0.485362 0.106219 0.095774
Si Si5 0.000000 0.950906 0.500000
Si Si6 0.053325 0.106007 0.117816
Si Si7 0.712641 0.998319 0.358083
Si Si8 0.347961 0.139285 0.368665
O O1 0.275489 0.143580 0.870823
O O2 0.265553 0.379131 0.015805
O O3 0.386211 0.055241 0.063195
O O4 0.653604 0.559987 0.147469
O O5 0.819936 0.438646 0.277895
O O6 0.682165 0.214948 0.275180
O O7 0.448572 0.613871 0.544106
O O8 0.364761 0.856886 0.631237
O O9 0.278539 0.601794 0.468150
O O10 0.361692 0.014738 0.470317
O O11 0.516045 0.371171 0.153868
O O12 0.542303 0.871332 0.163197
O O13 0.500000 0.154718 0.000000
O O14 0.936392 0.790887 0.401477
O O15 0.000000 0.157205 0.000000
O O16 0.764292 0.811547 0.323670
#
# Coordination Sequence:
#
# PCOD8048878 Si02
#       8
#     4   4   4   4   2   4   4   4
#     4  12  27  45  75 108 150 199 245 305 383 452
#     4  11  25  41  71 114 130 191 248 312 360 428
#     4  10  19  40  66 107 132 191 231 284 367 429
#     4  10  20  40  71  98 130 190 237 287 357 441
#     4  10  22  38  72 102 146 192 228 280 386 432
#     4  10  20  37  72  97 139 177 242 294 358 421
#     4  10  21  37  72 103 139 176 248 299 341 445
#     4  10  22  40  72  98 146 181 240 299 347 456
#
# _framework density 23.761341999999999
#
# number of rings (size 3 to 8) (size 9 to 14) (size 15 to 20)
#    0.000    1.600    4.000    1.200    5.600    0.000 
#    0.000    0.000   14.667    0.000    0.000    0.000 
#    0.000    0.000    0.000    0.000    0.000    0.000 
#
# Total GULP energy -185857.196517 kJ/mol
# GULP energy per Si atom -12390.479768 kJ/mol
# Density = 2.370726 g / cm^3
# Si number density = 23.761342 Si / 1000 Ang^3
#
#
#
# Elastic Constant Matrix: (Units=GPa)
#
#
# Indices 1 2 3 4 5 6 
#
# 1 117.1383 38.1410 32.1530 0.0000 0.1828 0.0000
# 2 38.1410 142.0011 19.5213 0.0001 -3.3596 -0.0001
# 3 32.1530 19.5213 73.6144 0.0000 -3.9144 0.0000
# 4 0.0000 0.0001 0.0000 18.8612 0.0000 15.2073
# 5 0.1828 -3.3596 -3.9144 0.0000 20.7285 0.0000
# 6 0.0000 -0.0001 0.0000 15.2073 0.0000 39.5203
#
#
#
# Elastic Compliance Matrix: (Units=1/GPa)
#
#
# Indices 1 2 3 4 5 6 
#
# 1 0.010373 -0.002266 -0.003994 0.000000 -0.001213 0.000000
# 2 -0.002266 0.007818 -0.001025 0.000000 0.001093 0.000000
# 3 -0.003994 -0.001025 0.015752 0.000000 0.002844 0.000000
# 4 0.000000 0.000000 0.000000 0.076867 0.000000 -0.029578
# 5 -0.001213 0.001093 0.002844 0.000000 0.048968 0.000000
# 6 0.000000 0.000000 0.000000 -0.029578 0.000000 0.036685
#
#
# Mechanical properties :
#
#
# Convention : Reuss Voigt Hill
#
# Bulk Modulus (GPa) = 51.62141 56.93159 54.27650
# Shear Modulus (GPa) = 22.98958 32.01790 27.50374
#
# Velocity S-wave (km/s) = 3.11387 3.67478 3.40590
# Velocity P-wave (km/s) = 5.89070 6.48206 6.19345
#
# Compressibility (1/GPa) = 0.01937181
#
# Stress axis : x y z
#
# Youngs Moduli (GPa) = 96.40468 127.91662 63.48384
#
# Poissons Ratio (x) = 0.28982 0.25357
# Poissons Ratio (y) = 0.21843 0.06509
# Poissons Ratio (z) = 0.38507 0.13116
#
# Static dielectric constant tensor:
#      x y z
#    x 4.143250 0.000000 0.232160 
#    y 0.000000 4.957750 0.000000 
#    z 0.232160 0.000000 3.976710 
# 
# 
# High freq. dielectric constant tensor:
#      x y z
#    x 1.920300 0.000000 0.024530 
#    y 0.000000 1.971340 0.000000 
#    z 0.024530 0.000000 1.909640 
# 
# From -- ./inp_files/55488.got.cif
#   From: 2010.03.12/outbox.cif.g09.slc.cpg/sg5_28_cif.got.tgz:55488.got - 2010.03.31 09:47:26.
