data_PCOD8048897
_publ_section_title
;
Structure prediction by ZEFSAII (Michael W. Deem and Ramdas Pophale) SiO2 
 PCOD8048897
Probable space group: C 2
;
_chemical_formula_sum "Si O2"
_cell_formula_units_Z 26
_cell_length_a 27.078686
_cell_length_b 8.404600
_cell_length_c 12.784212
_cell_angle_alpha 90.000000
_cell_angle_beta 25.748801
_cell_angle_gamma 90.000000
_cell_volume 1263.964328
_symmetry_space_group_name_H-M "C 2"
_symmetry_group_IT_number 5
_symmetry_cell_setting 'monoclinic'
loop_
_space_group_symop_operation_xyz
x,y,z
-x,y,-z
1/2+x,1/2+y,z
1/2-x,1/2+y,-z
loop_
_atom_site_type_symbol
_atom_site_label
_atom_site_fract_x
_atom_site_fract_y
_atom_site_fract_z
Si Si1 0.467985 0.375000 0.448540
Si Si2 0.936062 0.494858 0.220230
Si Si3 0.675800 0.566340 0.013785
Si Si4 0.198503 0.895610 0.761277
Si Si5 0.727678 0.920379 0.972714
Si Si6 0.585799 0.123769 0.097220
Si Si7 0.500000 0.305525 0.000000
O O1 0.500000 0.299753 0.500000
O O2 0.340866 0.439091 0.687984
O O3 0.487301 0.243074 0.323306
O O4 0.544184 0.527988 0.279926
O O5 0.816045 0.407966 0.471536
O O6 0.024101 0.484067 0.149527
O O7 0.000000 0.409545 0.000000
O O8 0.924478 0.686227 0.218092
O O9 0.707757 0.533763 0.831827
O O10 0.684893 0.743840 0.036002
O O11 0.752828 0.452053 0.941124
O O12 0.088558 0.917989 0.894681
O O13 0.180750 0.721614 0.848808
O O14 0.640408 0.048781 0.095749
#
# Coordination Sequence:
#
# PCOD8048897 Si02
#       7
#     4   4   4   4   4   4   2
#     4   9  19  36  56  86 123 156 194 241 291 357
#     4   9  20  40  57  89 121 156 201 257 303 352
#     4  10  21  36  61  94 120 160 202 238 302 362
#     4  10  19  41  65  88 122 160 206 252 300 363
#     4  11  21  39  60  90 128 159 193 245 296 364
#     4  10  21  38  61  86 120 162 200 243 307 351
#     4   8  20  40  62  86 120 162 196 258 310 340
#
# _framework density 20.570201000000001
#
# number of rings (size 3 to 8) (size 9 to 14) (size 15 to 20)
#    0.462    1.846    0.000    3.692    0.000    1.231 
#   11.077   10.000    0.000    0.000    0.000    0.000 
#    0.000    0.000    0.000    0.000    0.000    0.000 
#
# Total GULP energy -161072.797001 kJ/mol
# GULP energy per Si atom -12390.215154 kJ/mol
# Density = 2.052338 g / cm^3
# Si number density = 20.570201 Si / 1000 Ang^3
#
#
#
# Elastic Constant Matrix: (Units=GPa)
#
#
# Indices 1 2 3 4 5 6 
#
# 1 99.4944 28.1202 43.4621 0.0000 -0.4689 0.0000
# 2 28.1202 58.4016 16.7866 0.0000 -5.5874 0.0000
# 3 43.4621 16.7866 111.7904 0.0000 4.2700 0.0000
# 4 0.0000 0.0000 0.0000 21.3450 0.0000 -1.8097
# 5 -0.4689 -5.5874 4.2700 0.0000 28.6064 0.0000
# 6 0.0000 0.0000 0.0000 -1.8097 0.0000 22.6843
#
#
#
# Elastic Compliance Matrix: (Units=1/GPa)
#
#
# Indices 1 2 3 4 5 6 
#
# 1 0.013468 -0.005219 -0.004447 0.000000 -0.000135 0.000000
# 2 -0.005219 0.020366 -0.001184 0.000000 0.004069 0.000000
# 3 -0.004447 -0.001184 0.010926 0.000000 -0.001935 0.000000
# 4 0.000000 0.000000 0.000000 0.047168 0.000000 0.003763
# 5 -0.000135 0.004069 -0.001935 0.000000 0.036039 0.000000
# 6 0.000000 0.000000 0.000000 0.003763 0.000000 0.044384
#
#
# Mechanical properties :
#
#
# Convention : Reuss Voigt Hill
#
# Bulk Modulus (GPa) = 43.36930 49.60269 46.48600
# Shear Modulus (GPa) = 24.78459 26.61498 25.69978
#
# Velocity S-wave (km/s) = 3.47490 3.60093 3.53848
# Velocity P-wave (km/s) = 6.10158 6.43857 6.27234
#
# Compressibility (1/GPa) = 0.02305778
#
# Stress axis : x y z
#
# Youngs Moduli (GPa) = 74.24981 49.10221 91.52418
#
# Poissons Ratio (x) = 0.25629 0.40703
# Poissons Ratio (y) = 0.38754 0.10839
# Poissons Ratio (z) = 0.33021 0.05815
#
# Static dielectric constant tensor:
#      x y z
#    x 3.953310 0.000000 0.098190 
#    y 0.000000 3.350490 0.000000 
#    z 0.098190 0.000000 3.737210 
# 
# 
# High freq. dielectric constant tensor:
#      x y z
#    x 1.816700 0.000000 0.005980 
#    y 0.000000 1.770170 0.000000 
#    z 0.005980 0.000000 1.797040 
# 
# From -- ./inp_files/47922.got.cif
#   From: 2010.03.12/outbox.cif.g09.slc.cpg/sg5_24_cif.got.tgz:47922.got - 2010.03.31 09:47:26.
