data_PCOD8048146
_publ_section_title
;
Structure prediction by ZEFSAII (Michael W. Deem and Ramdas Pophale) SiO2 
 PCOD8048146
Probable space group: C 2
;
_chemical_formula_sum "Si O2"
_cell_formula_units_Z 30
_cell_length_a 29.345238
_cell_length_b 12.986552
_cell_length_c 9.514839
_cell_angle_alpha 90.000000
_cell_angle_beta 153.918314
_cell_angle_gamma 90.000000
_cell_volume 1594.197387
_symmetry_space_group_name_H-M "C 2"
_symmetry_group_IT_number 5
_symmetry_cell_setting 'monoclinic'
loop_
_space_group_symop_operation_xyz
x,y,z
-x,y,-z
1/2+x,1/2+y,z
1/2-x,1/2+y,-z
loop_
_atom_site_type_symbol
_atom_site_label
_atom_site_fract_x
_atom_site_fract_y
_atom_site_fract_z
Si Si1 0.080652 0.602860 0.462416
Si Si2 0.197995 0.727473 0.010252
Si Si3 0.142347 0.142406 0.749883
Si Si4 0.235596 0.940922 0.998944
Si Si5 0.793157 0.386752 0.852266
Si Si6 0.842123 0.593293 0.842615
Si Si7 0.500000 0.780504 0.500000
Si Si8 0.297694 0.185901 0.432317
O O1 0.105863 0.681024 0.659471
O O2 0.157694 0.503566 0.673403
O O3 0.094827 0.663443 0.353399
O O4 0.963111 0.567569 0.155825
O O5 0.305245 0.682266 0.247784
O O6 0.207913 0.851719 0.034350
O O7 0.177173 0.692173 0.111872
O O8 0.035586 0.204111 0.471659
O O9 0.205511 0.165206 0.067670
O O10 0.136559 0.018414 0.723379
O O11 0.247045 0.888536 0.880616
O O12 0.785325 0.495464 0.753004
O O13 0.719026 0.304879 0.566182
O O14 0.912991 0.353594 0.193129
O O15 0.790085 0.614636 0.548279
#
# Coordination Sequence:
#
# PCOD8048146 Si02
#       8
#     4   4   4   4   4   4   2   4
#     4  10  20  36  57  84 112 142 191 233 270 324
#     4  10  19  33  55  85 112 138 184 241 270 319
#     4   9  19  35  56  81 108 145 181 231 277 332
#     4  10  17  36  57  80 112 146 177 231 288 317
#     4  11  19  35  62  80 105 153 185 228 285 327
#     4  12  22  33  59  88 108 145 198 233 262 345
#     4  10  18  34  60  86 100 138 198 234 264 326
#     4   9  21  37  51  79 123 146 169 226 300 334
#
# _framework density 18.818247
#
# number of rings (size 3 to 8) (size 9 to 14) (size 15 to 20)
#    0.000    2.133    6.667    1.600    0.000    2.133 
#    2.400    0.000    0.000    2.400    0.000    0.000 
#    0.000    0.000    0.000    0.000    0.000    0.000 
#
# Total GULP energy -185856.180624 kJ/mol
# GULP energy per Si atom -12390.412042 kJ/mol
# Density = 1.877542 g / cm^3
# Si number density = 18.818247 Si / 1000 Ang^3
#
#
#
# Elastic Constant Matrix: (Units=GPa)
#
#
# Indices 1 2 3 4 5 6 
#
# 1 85.3223 20.4948 15.4143 0.0000 -10.0822 0.0000
# 2 20.4948 116.4143 13.0686 0.0000 1.5625 0.0000
# 3 15.4143 13.0686 23.6083 0.0000 -7.2414 0.0000
# 4 0.0000 0.0000 0.0000 23.3994 0.0000 4.0720
# 5 -10.0822 1.5625 -7.2414 0.0000 17.1686 0.0000
# 6 0.0000 0.0000 0.0000 4.0720 0.0000 39.4469
#
#
#
# Elastic Compliance Matrix: (Units=1/GPa)
#
#
# Indices 1 2 3 4 5 6 
#
# 1 0.013982 -0.001822 -0.006376 0.000000 0.005687 0.000000
# 2 -0.001822 0.009574 -0.005405 0.000000 -0.004221 0.000000
# 3 -0.006376 -0.005405 0.055724 0.000000 0.020251 0.000000
# 4 0.000000 0.000000 0.000000 0.043518 0.000000 -0.004492
# 5 0.005687 -0.004221 0.020251 0.000000 0.070511 0.000000
# 6 0.000000 0.000000 0.000000 -0.004492 0.000000 0.025814
#
#
# Mechanical properties :
#
#
# Convention : Reuss Voigt Hill
#
# Bulk Modulus (GPa) = 19.20320 35.92227 27.56273
# Shear Modulus (GPa) = 18.96180 27.76080 23.36130
#
# Velocity S-wave (km/s) = 3.17776 3.84501 3.52720
# Velocity P-wave (km/s) = 4.86733 6.23239 5.59167
#
# Compressibility (1/GPa) = 0.05207465
#
# Stress axis : x y z
#
# Youngs Moduli (GPa) = 71.52122 104.44738 17.94544
#
# Poissons Ratio (x) = 0.19031 0.11442
# Poissons Ratio (y) = 0.13032 0.09699
# Poissons Ratio (z) = 0.45601 0.56453
#
# Static dielectric constant tensor:
#      x y z
#    x 3.589420 0.000000 0.194690 
#    y 0.000000 3.850490 0.000000 
#    z 0.194690 0.000000 3.079680 
# 
# 
# High freq. dielectric constant tensor:
#      x y z
#    x 1.735360 0.000000 0.010960 
#    y 0.000000 1.744820 0.000000 
#    z 0.010960 0.000000 1.680080 
# 
# From -- ./inp_files/31948.got.cif
#   From: 2010.03.12/outbox.cif.g09.slc.cpg/sg5_16_cif.got.tgz:31948.got - 2010.03.31 09:47:26.
