data_PCOD8048185
_publ_section_title
;
Structure prediction by ZEFSAII (Michael W. Deem and Ramdas Pophale) SiO2 
 PCOD8048185
Probable space group: C 2
;
_chemical_formula_sum "Si O2"
_cell_formula_units_Z 20
_cell_length_a 9.639409
_cell_length_b 22.729896
_cell_length_c 8.402854
_cell_angle_alpha 90.000000
_cell_angle_beta 148.578271
_cell_angle_gamma 90.000000
_cell_volume 959.820758
_symmetry_space_group_name_H-M "C 2"
_symmetry_group_IT_number 5
_symmetry_cell_setting 'monoclinic'
loop_
_space_group_symop_operation_xyz
x,y,z
-x,y,-z
1/2+x,1/2+y,z
1/2-x,1/2+y,-z
loop_
_atom_site_type_symbol
_atom_site_label
_atom_site_fract_x
_atom_site_fract_y
_atom_site_fract_z
Si Si1 0.049443 0.238780 0.861523
Si Si2 0.086086 0.105148 0.903190
Si Si3 0.755980 0.421519 0.650170
Si Si4 0.590483 0.046530 0.268231
Si Si5 0.051933 0.802737 0.364040
O O1 0.134304 0.172740 0.901202
O O2 0.770823 0.257435 0.508828
O O3 0.272759 0.284029 0.011308
O O4 0.000000 0.245640 0.000000
O O5 0.863653 0.080205 0.567778
O O6 0.360263 0.069471 0.158660
O O7 0.000000 0.099093 0.000000
O O8 0.500000 0.443402 0.500000
O O9 0.863336 0.476955 0.654915
O O10 0.654390 0.369477 0.433286
O O11 0.000000 0.397721 0.000000
O O12 0.500000 0.058035 0.000000
O O13 0.000000 0.795357 0.500000
#
# Coordination Sequence:
#
# PCOD8048185 Si02
#       5
#     4   4   4   4   4
#     4   9  17  28  46  73 105 136 172 220 273 321
#     4  11  22  37  56  82 115 150 187 229 274 330
#     4  10  18  30  49  77 110 141 177 227 279 327
#     4  11  22  37  56  82 115 151 187 228 274 329
#     4   9  15  26  45  72 104 134 166 220 283 319
#
# _framework density 20.837223000000002
#
# number of rings (size 3 to 8) (size 9 to 14) (size 15 to 20)
#    0.000    2.000    0.000    7.800    0.000    3.200 
#    0.000    0.000    0.000    0.000    0.000   21.000 
#    0.000    3.200    0.000    0.000    0.000    0.000 
#
# Total GULP energy -123934.568390 kJ/mol
# GULP energy per Si atom -12393.456839 kJ/mol
# Density = 2.078980 g / cm^3
# Si number density = 20.837223 Si / 1000 Ang^3
#
#
#
# Elastic Constant Matrix: (Units=GPa)
#
#
# Indices 1 2 3 4 5 6 
#
# 1 27.3742 36.2972 7.0254 0.0000 14.2009 0.0000
# 2 36.2972 176.5822 54.5477 0.0000 25.3083 0.0000
# 3 7.0254 54.5477 107.8494 0.0000 27.0723 0.0000
# 4 0.0000 0.0000 0.0000 42.3940 0.0000 14.3343
# 5 14.2009 25.3083 27.0723 0.0000 34.7381 0.0000
# 6 0.0000 0.0000 0.0000 14.3343 0.0000 28.5276
#
#
#
# Elastic Compliance Matrix: (Units=1/GPa)
#
#
# Indices 1 2 3 4 5 6 
#
# 1 0.062086 -0.011875 0.007659 0.000000 -0.022698 0.000000
# 2 -0.011875 0.009208 -0.004250 0.000000 0.001458 0.000000
# 3 0.007659 -0.004250 0.013590 0.000000 -0.010626 0.000000
# 4 0.000000 0.000000 0.000000 0.028416 0.000000 -0.014278
# 5 -0.022698 0.001458 -0.010626 0.000000 0.045285 0.000000
# 6 0.000000 0.000000 0.000000 -0.014278 0.000000 0.042228
#
#
# Mechanical properties :
#
#
# Convention : Reuss Voigt Hill
#
# Bulk Modulus (GPa) = 14.71588 56.39406 35.55497
# Shear Modulus (GPa) = 20.79919 35.39431 28.09675
#
# Velocity S-wave (km/s) = 3.16282 4.12589 3.67603
# Velocity P-wave (km/s) = 4.51835 7.05834 5.92603
#
# Compressibility (1/GPa) = 0.06795378
#
# Stress axis : x y z
#
# Youngs Moduli (GPa) = 16.10672 108.60393 73.58382
#
# Poissons Ratio (x) = 1.28966 -0.56361
# Poissons Ratio (y) = 0.19127 0.31269
# Poissons Ratio (z) = -0.12337 0.46151
#
# Static dielectric constant tensor:
#      x y z
#    x 3.290310 0.000000 0.485200 
#    y 0.000000 3.971630 0.000000 
#    z 0.485200 0.000000 4.154360 
# 
# 
# High freq. dielectric constant tensor:
#      x y z
#    x 1.753090 0.000000 0.044770 
#    y 0.000000 1.829130 0.000000 
#    z 0.044770 0.000000 1.828680 
# 
# From -- ./inp_files/2799.got.cif
#   From: 2010.03.12/outbox.cif.g09.slc.cpg/sg5_2_cif.got.tgz:2799.got - 2010.03.31 09:47:26.
