data_PCOD8048429
_publ_section_title
;
Structure prediction by ZEFSAII (Michael W. Deem and Ramdas Pophale) SiO2 
 PCOD8048429
Probable space group: C 2
;
_chemical_formula_sum "Si O2"
_cell_formula_units_Z 32
_cell_length_a 16.620033
_cell_length_b 13.572946
_cell_length_c 11.848178
_cell_angle_alpha 90.000000
_cell_angle_beta 144.459504
_cell_angle_gamma 90.000000
_cell_volume 1553.608621
_symmetry_space_group_name_H-M "C 2"
_symmetry_group_IT_number 5
_symmetry_cell_setting 'monoclinic'
loop_
_space_group_symop_operation_xyz
x,y,z
-x,y,-z
1/2+x,1/2+y,z
1/2-x,1/2+y,-z
loop_
_atom_site_type_symbol
_atom_site_label
_atom_site_fract_x
_atom_site_fract_y
_atom_site_fract_z
Si Si1 0.053440 0.386310 0.803978
Si Si2 0.233659 0.301096 0.484741
Si Si3 0.541298 0.253996 0.425475
Si Si4 0.625485 0.031101 0.507128
Si Si5 0.853774 0.566648 0.950862
Si Si6 0.333583 0.098543 0.681228
Si Si7 0.155848 0.904021 0.173325
Si Si8 0.209878 0.761458 0.028681
O O1 0.925490 0.331368 0.720824
O O2 0.999637 0.451146 0.635441
O O3 0.137099 0.458667 0.983993
O O4 0.153227 0.301990 0.873399
O O5 0.319168 0.304062 0.464368
O O6 0.240728 0.192612 0.547442
O O7 0.303833 0.370474 0.656128
O O8 0.500000 0.298606 0.500000
O O9 0.567197 0.137472 0.470250
O O10 0.417578 0.276651 0.200046
O O11 0.684623 0.023967 0.444609
O O12 0.743583 0.998930 0.732213
O O13 0.791842 0.551263 0.753980
O O14 0.759082 0.645758 0.909996
O O15 0.002289 0.623119 0.122510
O O16 0.177557 0.818577 0.107514
O O17 0.000000 0.942390 0.000000
#
# Coordination Sequence:
#
# PCOD8048429 Si02
#       8
#     4   4   4   4   4   4   4   4
#     4  10  23  38  61 101 131 167 218 275 323 385
#     4  10  19  39  64  95 123 164 222 270 325 381
#     4  11  23  43  65  88 135 182 207 260 340 404
#     4   9  21  38  63  94 132 169 212 270 337 389
#     4  10  18  38  65  91 129 175 219 262 324 395
#     4   9  16  36  66  90 115 169 219 261 316 394
#     4  11  20  36  67  98 124 162 228 279 311 387
#     4  12  22  39  66  98 129 175 227 267 321 399
#
# _framework density 20.597207999999998
#
# number of rings (size 3 to 8) (size 9 to 14) (size 15 to 20)
#    0.000    1.750    6.250    0.000    1.750    1.500 
#   11.250    5.000    0.000    0.000    0.000    0.000 
#    0.000    0.000    0.000    0.000    0.000    0.000 
#
# Total GULP energy -198261.014538 kJ/mol
# GULP energy per Si atom -12391.313409 kJ/mol
# Density = 2.055033 g / cm^3
# Si number density = 20.597208 Si / 1000 Ang^3
#
#
#
# Elastic Constant Matrix: (Units=GPa)
#
#
# Indices 1 2 3 4 5 6 
#
# 1 128.3283 42.9828 46.6493 0.0000 2.4847 0.0000
# 2 42.9828 87.3536 45.1733 0.0000 9.1500 0.0000
# 3 46.6493 45.1733 80.1042 0.0000 -0.4079 0.0000
# 4 0.0000 0.0000 0.0000 38.3795 0.0000 8.8258
# 5 2.4847 9.1500 -0.4079 0.0000 35.4536 0.0000
# 6 0.0000 0.0000 0.0000 8.8258 0.0000 20.4729
#
#
#
# Elastic Compliance Matrix: (Units=1/GPa)
#
#
# Indices 1 2 3 4 5 6 
#
# 1 0.010345 -0.002779 -0.004458 0.000000 -0.000059 0.000000
# 2 -0.002779 0.017582 -0.008320 0.000000 -0.004439 0.000000
# 3 -0.004458 -0.008320 0.019785 0.000000 0.002687 0.000000
# 4 0.000000 0.000000 0.000000 0.028923 0.000000 -0.012468
# 5 -0.000059 -0.004439 0.002687 0.000000 0.029386 0.000000
# 6 0.000000 0.000000 0.000000 -0.012468 0.000000 0.054220
#
#
# Mechanical properties :
#
#
# Convention : Reuss Voigt Hill
#
# Bulk Modulus (GPa) = 60.24050 62.82188 61.53119
# Shear Modulus (GPa) = 25.39528 29.59325 27.49427
#
# Velocity S-wave (km/s) = 3.51514 3.79457 3.65753
# Velocity P-wave (km/s) = 6.76649 7.05442 6.91195
#
# Compressibility (1/GPa) = 0.01660013
#
# Stress axis : x y z
#
# Youngs Moduli (GPa) = 96.66663 56.87534 50.54339
#
# Poissons Ratio (x) = 0.15805 0.22530
# Poissons Ratio (y) = 0.26862 0.42050
# Poissons Ratio (z) = 0.43090 0.47318
#
# Static dielectric constant tensor:
#      x y z
#    x 3.779370 0.000000 -0.118120 
#    y 0.000000 3.839450 0.000000 
#    z -0.118120 0.000000 3.818370 
# 
# 
# High freq. dielectric constant tensor:
#      x y z
#    x 1.795300 0.000000 -0.012860 
#    y 0.000000 1.799720 0.000000 
#    z -0.012860 0.000000 1.790950 
# 
# From -- ./inp_files/43096.got.cif
#   From: 2010.03.12/outbox.cif.g09.slc.cpg/sg5_22_cif.got.tgz:43096.got - 2010.03.31 09:47:26.
