data_PCOD8048522
_publ_section_title
;
Structure prediction by ZEFSAII (Michael W. Deem and Ramdas Pophale) SiO2 
 PCOD8048522
Probable space group: C 2
;
_chemical_formula_sum "Si O2"
_cell_formula_units_Z 30
_cell_length_a 20.038157
_cell_length_b 8.236195
_cell_length_c 12.327522
_cell_angle_alpha 90.000000
_cell_angle_beta 56.726721
_cell_angle_gamma 90.000000
_cell_volume 1700.980563
_symmetry_space_group_name_H-M "C 2"
_symmetry_group_IT_number 5
_symmetry_cell_setting 'monoclinic'
loop_
_space_group_symop_operation_xyz
x,y,z
-x,y,-z
1/2+x,1/2+y,z
1/2-x,1/2+y,-z
loop_
_atom_site_type_symbol
_atom_site_label
_atom_site_fract_x
_atom_site_fract_y
_atom_site_fract_z
Si Si1 0.481518 0.158720 0.341769
Si Si2 0.456497 0.499154 0.739462
Si Si3 0.391096 0.020431 0.604675
Si Si4 0.173832 0.785291 0.060478
Si Si5 0.236066 0.049483 0.864550
Si Si6 0.041631 0.559296 0.075367
Si Si7 0.932022 0.191779 0.975313
Si Si8 0.000000 0.223830 0.500000
O O1 0.480886 0.350836 0.318440
O O2 0.477122 0.060926 0.231633
O O3 0.404302 0.124837 0.483863
O O4 0.561460 0.099432 0.335569
O O5 0.368228 0.416983 0.821615
O O6 0.464266 0.610344 0.837664
O O7 0.474884 0.610746 0.621158
O O8 0.296652 0.026502 0.710349
O O9 0.423054 0.839263 0.549230
O O10 0.230894 0.672424 0.076831
O O11 0.108083 0.689452 0.049270
O O12 0.230100 0.873668 0.924051
O O13 0.149589 0.114509 0.905077
O O14 0.081530 0.383106 0.029814
O O15 0.000000 0.611799 0.000000
O O16 0.000000 0.156169 0.000000
#
# Coordination Sequence:
#
# PCOD8048522 Si02
#       8
#     4   4   4   4   4   4   4   2
#     4   9  18  33  53  80 110 144 182 219 276 328
#     4  10  19  32  54  83 110 143 179 231 264 333
#     4  10  19  33  53  77 116 148 177 230 274 325
#     4  10  22  32  54  83 114 141 187 228 283 320
#     4  11  21  34  55  82 114 146 176 242 275 323
#     4  10  19  37  59  79 110 148 186 228 274 334
#     4  10  22  37  57  80 107 146 187 232 282 331
#     4  10  20  30  54  82 112 146 186 216 276 334
#
# _framework density 17.636886000000001
#
# number of rings (size 3 to 8) (size 9 to 14) (size 15 to 20)
#    0.000    2.133    2.667    3.200    3.733    4.800 
#    0.000    0.000    0.000    9.600    0.000    0.000 
#    0.000    0.000    0.000    0.000    0.000    0.000 
#
# Total GULP energy -185906.990575 kJ/mol
# GULP energy per Si atom -12393.799372 kJ/mol
# Density = 1.759674 g / cm^3
# Si number density = 17.636886 Si / 1000 Ang^3
#
#
#
# Elastic Constant Matrix: (Units=GPa)
#
#
# Indices 1 2 3 4 5 6 
#
# 1 79.0399 37.7296 55.2651 0.0000 -7.4450 0.0000
# 2 37.7296 82.4476 38.9704 0.0000 -7.8197 0.0000
# 3 55.2651 38.9704 149.0514 0.0000 -15.8564 0.0000
# 4 0.0000 0.0000 0.0000 43.0103 0.0000 4.6518
# 5 -7.4450 -7.8197 -15.8564 0.0000 31.6068 0.0000
# 6 0.0000 0.0000 0.0000 4.6518 0.0000 26.1070
#
#
#
# Elastic Compliance Matrix: (Units=1/GPa)
#
#
# Indices 1 2 3 4 5 6 
#
# 1 0.019591 -0.006299 -0.005590 0.000000 0.000252 0.000000
# 2 -0.006299 0.015951 -0.001662 0.000000 0.001629 0.000000
# 3 -0.005590 -0.001662 0.009542 0.000000 0.003059 0.000000
# 4 0.000000 0.000000 0.000000 0.023707 0.000000 -0.004224
# 5 0.000252 0.001629 0.003059 0.000000 0.033636 0.000000
# 6 0.000000 0.000000 0.000000 -0.004224 0.000000 0.039057
#
#
# Mechanical properties :
#
#
# Convention : Reuss Voigt Hill
#
# Bulk Modulus (GPa) = 55.61056 63.82989 59.72023
# Shear Modulus (GPa) = 28.64018 32.04974 30.34496
#
# Velocity S-wave (km/s) = 4.03411 4.26749 4.15244
# Velocity P-wave (km/s) = 7.30055 7.78149 7.54485
#
# Compressibility (1/GPa) = 0.01798220
#
# Stress axis : x y z
#
# Youngs Moduli (GPa) = 51.04353 62.69029 104.80271
#
# Poissons Ratio (x) = 0.39489 0.58587
# Poissons Ratio (y) = 0.32152 0.17416
# Poissons Ratio (z) = 0.28535 0.10418
#
# Static dielectric constant tensor:
#      x y z
#    x 2.939750 0.000000 -0.119050 
#    y 0.000000 3.582620 0.000000 
#    z -0.119050 0.000000 3.380150 
# 
# 
# High freq. dielectric constant tensor:
#      x y z
#    x 1.636240 0.000000 -0.008270 
#    y 0.000000 1.703010 0.000000 
#    z -0.008270 0.000000 1.693660 
# 
# From -- ./inp_files/44144.got.cif
#   From: 2010.03.12/outbox.cif.g09.slc.cpg/sg5_23_cif.got.tgz:44144.got - 2010.03.31 09:47:26.
