data_PCOD8048717
_publ_section_title
;
Structure prediction by ZEFSAII (Michael W. Deem and Ramdas Pophale) SiO2 
 PCOD8048717
Probable space group: C 2
;
_chemical_formula_sum "Si O2"
_cell_formula_units_Z 16
_cell_length_a 17.350841
_cell_length_b 8.301247
_cell_length_c 5.153439
_cell_angle_alpha 90.000000
_cell_angle_beta 106.836058
_cell_angle_gamma 90.000000
_cell_volume 710.452911
_symmetry_space_group_name_H-M "C 2"
_symmetry_group_IT_number 5
_symmetry_cell_setting 'monoclinic'
loop_
_space_group_symop_operation_xyz
x,y,z
-x,y,-z
1/2+x,1/2+y,z
1/2-x,1/2+y,-z
loop_
_atom_site_type_symbol
_atom_site_label
_atom_site_fract_x
_atom_site_fract_y
_atom_site_fract_z
Si Si1 0.715217 0.336640 0.327579
Si Si2 0.777240 0.181071 0.892347
Si Si3 0.968511 0.813686 0.721729
Si Si4 0.460007 0.669115 0.208584
O O1 0.769676 0.297211 0.633238
O O2 0.744141 0.506168 0.240203
O O3 0.625997 0.345594 0.359805
O O4 0.719390 0.215701 0.084080
O O5 0.864983 0.193769 0.104987
O O6 0.000000 0.716853 0.500000
O O7 0.019905 0.979555 0.771157
O O8 0.000000 0.712752 0.000000
O O9 0.500000 0.751573 0.500000
O O10 0.500000 0.754650 0.000000
#
# Coordination Sequence:
#
# PCOD8048717 Si02
#       4
#     4   4   4   4
#     4  12  25  42  68 108 145 179 229 296 355 408
#     4  12  25  42  68 108 145 179 229 296 355 408
#     4  10  19  36  67  95 122 177 249 265 305 411
#     4  10  19  36  67  95 122 177 249 265 305 411
#
# _framework density 22.520844
#
# number of rings (size 3 to 8) (size 9 to 14) (size 15 to 20)
#    0.000    1.000    5.000    4.500    7.000    0.000 
#    0.000    0.000    0.000   22.500    0.000    0.000 
#    0.000    0.000    0.000    0.000    0.000    0.000 
#
# Total GULP energy -99115.214770 kJ/mol
# GULP energy per Si atom -12389.401846 kJ/mol
# Density = 2.246959 g / cm^3
# Si number density = 22.520844 Si / 1000 Ang^3
#
#
#
# Elastic Constant Matrix: (Units=GPa)
#
#
# Indices 1 2 3 4 5 6 
#
# 1 121.1243 38.3593 69.1674 0.0000 -16.9245 0.0000
# 2 38.3593 47.6260 38.8313 0.0000 3.9635 0.0000
# 3 69.1674 38.8313 241.0865 0.0000 -19.6185 0.0000
# 4 0.0000 0.0000 0.0000 24.3916 0.0000 0.2203
# 5 -16.9245 3.9635 -19.6185 0.0000 57.0915 0.0000
# 6 0.0000 0.0000 0.0000 0.2203 0.0000 16.0392
#
#
#
# Elastic Compliance Matrix: (Units=1/GPa)
#
#
# Indices 1 2 3 4 5 6 
#
# 1 0.012712 -0.009008 -0.001892 0.000000 0.003744 0.000000
# 2 -0.009008 0.031101 -0.002899 0.000000 -0.005826 0.000000
# 3 -0.001892 -0.002899 0.005276 0.000000 0.001453 0.000000
# 4 0.000000 0.000000 0.000000 0.041003 0.000000 -0.000563
# 5 0.003744 -0.005826 0.001453 0.000000 0.019529 0.000000
# 6 0.000000 0.000000 0.000000 -0.000563 0.000000 0.062355
#
#
# Mechanical properties :
#
#
# Convention : Reuss Voigt Hill
#
# Bulk Modulus (GPa) = 46.53000 78.06142 62.29571
# Shear Modulus (GPa) = 24.18541 37.06973 30.62757
#
# Velocity S-wave (km/s) = 3.28062 4.06152 3.69177
# Velocity P-wave (km/s) = 5.92078 7.53204 6.77448
#
# Compressibility (1/GPa) = 0.02149151
#
# Stress axis : x y z
#
# Youngs Moduli (GPa) = 78.66600 32.15368 189.54559
#
# Poissons Ratio (x) = 0.28964 0.35853
# Poissons Ratio (y) = 0.70862 0.54950
# Poissons Ratio (z) = 0.14880 0.09321
#
# Static dielectric constant tensor:
#      x y z
#    x 5.159960 0.000000 -3.356740 
#    y 0.000000 3.581350 0.000000 
#    z -3.356740 0.000000 12.910320 
# 
# 
# High freq. dielectric constant tensor:
#      x y z
#    x 1.894480 0.000000 -0.016890 
#    y 0.000000 1.821780 0.000000 
#    z -0.016890 0.000000 1.933870 
# 
# From -- ./inp_files/2230.got.cif
#   From: 2010.03.12/outbox.cif.g09.slc.cpg/sg5_2_cif.got.tgz:2230.got - 2010.03.31 09:47:26.
