data_PCOD8048871
_publ_section_title
;
Structure prediction by ZEFSAII (Michael W. Deem and Ramdas Pophale) SiO2 
 PCOD8048871
Probable space group: C 2
;
_chemical_formula_sum "Si O2"
_cell_formula_units_Z 24
_cell_length_a 30.945250
_cell_length_b 8.698513
_cell_length_c 9.751782
_cell_angle_alpha 90.000000
_cell_angle_beta 26.629839
_cell_angle_gamma 90.000000
_cell_volume 1176.572720
_symmetry_space_group_name_H-M "C 2"
_symmetry_group_IT_number 5
_symmetry_cell_setting 'monoclinic'
loop_
_space_group_symop_operation_xyz
x,y,z
-x,y,-z
1/2+x,1/2+y,z
1/2-x,1/2+y,-z
loop_
_atom_site_type_symbol
_atom_site_label
_atom_site_fract_x
_atom_site_fract_y
_atom_site_fract_z
Si Si1 0.728144 0.346100 0.441398
Si Si2 0.205728 0.905521 0.975356
Si Si3 0.322574 0.199146 0.682955
Si Si4 0.303139 0.701470 0.478517
Si Si5 0.500000 0.405000 0.500000
Si Si6 0.000000 0.089691 0.000000
Si Si7 0.979109 0.817984 0.860216
O O1 0.740448 0.287952 0.252117
O O2 0.737714 0.529150 0.415796
O O3 0.810273 0.271412 0.304593
O O4 0.626129 0.277823 0.785322
O O5 0.234249 0.814740 0.757709
O O6 0.287049 0.024707 0.789777
O O7 0.195678 0.779473 0.121164
O O8 0.101814 0.992612 0.242628
O O9 0.437340 0.202259 0.322812
O O10 0.407736 0.699799 0.252047
O O11 0.478137 0.306210 0.698180
O O12 0.008203 0.986331 0.838658
#
# Coordination Sequence:
#
# PCOD8048871 Si02
#       7
#     4   4   4   4   2   2   4
#     4  11  21  39  66  91 125 165 214 257 314 375
#     4  11  24  41  64  91 125 169 215 260 316 373
#     4  11  22  39  64  91 122 168 211 260 308 379
#     4  11  22  42  61  96 124 165 214 257 316 372
#     4  10  22  38  62  86 120 176 208 248 320 386
#     4  10  22  40  64  90 132 168 202 264 322 376
#     4  10  19  40  63  87 122 175 206 248 323 380
#
# _framework density 20.398228
#
# number of rings (size 3 to 8) (size 9 to 14) (size 15 to 20)
#    0.000    1.333    5.000    2.000    4.667    0.000 
#    6.000    0.000    0.000    0.000    0.000    0.000 
#    0.000    0.000    0.000    0.000    0.000    0.000 
#
# Total GULP energy -148694.816691 kJ/mol
# GULP energy per Si atom -12391.234724 kJ/mol
# Density = 2.035180 g / cm^3
# Si number density = 20.398228 Si / 1000 Ang^3
#
#
#
# Elastic Constant Matrix: (Units=GPa)
#
#
# Indices 1 2 3 4 5 6 
#
# 1 111.5686 14.3749 17.5750 0.0000 1.6115 0.0000
# 2 14.3749 77.7516 18.8528 0.0000 -14.3874 0.0000
# 3 17.5750 18.8528 64.6754 0.0000 -16.9734 0.0000
# 4 0.0000 0.0000 0.0000 24.3703 0.0000 -3.5639
# 5 1.6115 -14.3874 -16.9734 0.0000 42.5591 0.0000
# 6 0.0000 0.0000 0.0000 -3.5639 0.0000 33.6142
#
#
#
# Elastic Compliance Matrix: (Units=1/GPa)
#
#
# Indices 1 2 3 4 5 6 
#
# 1 0.009605 -0.001483 -0.002686 0.000000 -0.001936 0.000000
# 2 -0.001483 0.014531 -0.002825 0.000000 0.003842 0.000000
# 3 -0.002686 -0.002825 0.018754 0.000000 0.006626 0.000000
# 4 0.000000 0.000000 0.000000 0.041680 0.000000 0.004419
# 5 -0.001936 0.003842 0.006626 0.000000 0.027512 0.000000
# 6 0.000000 0.000000 0.000000 0.004419 0.000000 0.030218
#
#
# Mechanical properties :
#
#
# Convention : Reuss Voigt Hill
#
# Bulk Modulus (GPa) = 34.59748 39.51120 37.05434
# Shear Modulus (GPa) = 30.13470 33.65492 31.89481
#
# Velocity S-wave (km/s) = 3.84776 4.06630 3.95854
# Velocity P-wave (km/s) = 6.06120 6.43881 6.25286
#
# Compressibility (1/GPa) = 0.02890384
#
# Stress axis : x y z
#
# Youngs Moduli (GPa) = 104.10985 68.81618 53.32159
#
# Poissons Ratio (x) = 0.10204 0.14322
# Poissons Ratio (y) = 0.15438 0.15061
# Poissons Ratio (z) = 0.27964 0.19438
#
# Static dielectric constant tensor:
#      x y z
#    x 4.150390 0.000000 -0.065780 
#    y 0.000000 3.293560 0.000000 
#    z -0.065780 0.000000 3.820900 
# 
# 
# High freq. dielectric constant tensor:
#      x y z
#    x 1.830650 0.000000 0.002210 
#    y 0.000000 1.752160 0.000000 
#    z 0.002210 0.000000 1.791630 
# 
# From -- ./inp_files/32463.got.cif
#   From: 2010.03.12/outbox.cif.g09.slc.cpg/sg5_17_cif.got.tgz:32463.got - 2010.03.31 09:47:26.
