data_PCOD8048835
_publ_section_title
;
Structure prediction by ZEFSAII (Michael W. Deem and Ramdas Pophale) SiO2 
 PCOD8048835
Probable space group: C 2
;
_chemical_formula_sum "Si O2"
_cell_formula_units_Z 32
_cell_length_a 14.188886
_cell_length_b 11.928763
_cell_length_c 9.112152
_cell_angle_alpha 90.000000
_cell_angle_beta 84.244555
_cell_angle_gamma 90.000000
_cell_volume 1534.510437
_symmetry_space_group_name_H-M "C 2"
_symmetry_group_IT_number 5
_symmetry_cell_setting 'monoclinic'
loop_
_space_group_symop_operation_xyz
x,y,z
-x,y,-z
1/2+x,1/2+y,z
1/2-x,1/2+y,-z
loop_
_atom_site_type_symbol
_atom_site_label
_atom_site_fract_x
_atom_site_fract_y
_atom_site_fract_z
Si Si1 0.905938 0.773640 0.598384
Si Si2 0.278677 0.070179 0.535029
Si Si3 0.795782 0.484741 0.849799
Si Si4 0.957849 0.651548 0.860886
Si Si5 0.362932 0.007410 0.233804
Si Si6 0.186639 0.085545 0.097727
Si Si7 0.611309 0.810015 0.990942
Si Si8 0.098201 0.031196 0.405330
O O1 0.823623 0.691078 0.559365
O O2 0.934793 0.755992 0.762243
O O3 0.000000 0.740815 0.500000
O O4 0.874308 0.900707 0.580876
O O5 0.270636 0.996602 0.683770
O O6 0.339404 0.996009 0.410325
O O7 0.175330 0.098262 0.487633
O O8 0.860733 0.585430 0.903393
O O9 0.702339 0.488133 0.970746
O O10 0.856460 0.372179 0.864301
O O11 0.032973 0.560095 0.790420
O O12 0.000000 0.706708 0.000000
O O13 0.283457 0.091606 0.178825
O O14 0.357612 0.885170 0.155302
O O15 0.101827 0.062851 0.230089
O O16 0.165103 0.192186 0.997056
O O17 0.500000 0.789055 0.000000
O O18 0.000000 0.060067 0.500000
#
# Coordination Sequence:
#
# PCOD8048835 Si02
#       8
#     4   4   4   4   4   4   4   4
#     4  10  21  38  68  95 124 170 208 258 329 378
#     4  10  22  37  66  95 129 161 214 268 320 379
#     4  10  21  37  62  96 121 159 215 265 316 381
#     4  11  17  35  63  94 125 157 209 266 308 373
#     4  10  19  39  62  91 127 161 209 270 306 380
#     4  10  23  40  62  88 126 167 213 262 316 380
#     4  11  21  40  63  88 128 172 208 263 325 372
#     4  10  24  47  62  89 134 172 216 264 316 391
#
# _framework density 20.853556999999999
#
# number of rings (size 3 to 8) (size 9 to 14) (size 15 to 20)
#    0.000    1.750    5.000    0.000    0.000    9.000 
#    0.000    1.875    0.000    0.750    0.000    0.000 
#    0.000    0.000    0.000    0.000    0.000    0.000 
#
# Total GULP energy -198232.307187 kJ/mol
# GULP energy per Si atom -12389.519199 kJ/mol
# Density = 2.080609 g / cm^3
# Si number density = 20.853557 Si / 1000 Ang^3
#
#
#
# Elastic Constant Matrix: (Units=GPa)
#
#
# Indices 1 2 3 4 5 6 
#
# 1 87.7232 33.9116 55.5768 0.0000 -4.5688 0.0000
# 2 33.9116 65.8835 29.0885 0.0000 9.5886 0.0000
# 3 55.5768 29.0885 145.2552 0.0000 -6.7969 0.0000
# 4 0.0000 0.0000 0.0000 29.0140 0.0000 3.2746
# 5 -4.5688 9.5886 -6.7969 0.0000 33.5624 0.0000
# 6 0.0000 0.0000 0.0000 3.2746 0.0000 33.2290
#
#
#
# Elastic Compliance Matrix: (Units=1/GPa)
#
#
# Indices 1 2 3 4 5 6 
#
# 1 0.017662 -0.007331 -0.005128 0.000000 0.003460 0.000000
# 2 -0.007331 0.020757 -0.001692 0.000000 -0.007271 0.000000
# 3 -0.005128 -0.001692 0.009263 0.000000 0.001661 0.000000
# 4 0.000000 0.000000 0.000000 0.034854 0.000000 -0.003435
# 5 0.003460 -0.007271 0.001661 0.000000 0.032680 0.000000
# 6 0.000000 0.000000 0.000000 -0.003435 0.000000 0.030433
#
#
# Mechanical properties :
#
#
# Convention : Reuss Voigt Hill
#
# Bulk Modulus (GPa) = 51.59761 59.55731 55.57746
# Shear Modulus (GPa) = 27.71459 31.18009 29.44734
#
# Velocity S-wave (km/s) = 3.64951 3.87097 3.76187
# Velocity P-wave (km/s) = 6.52343 6.97144 6.75115
#
# Compressibility (1/GPa) = 0.01938074
#
# Stress axis : x y z
#
# Youngs Moduli (GPa) = 56.61745 48.17689 107.95577
#
# Poissons Ratio (x) = 0.35317 0.55359
# Poissons Ratio (y) = 0.41505 0.18267
# Poissons Ratio (z) = 0.29033 0.08152
#
# Static dielectric constant tensor:
#      x y z
#    x 3.778190 0.000000 -0.110340 
#    y 0.000000 3.412620 0.000000 
#    z -0.110340 0.000000 4.038890 
# 
# 
# High freq. dielectric constant tensor:
#      x y z
#    x 1.816880 0.000000 -0.006670 
#    y 0.000000 1.782480 0.000000 
#    z -0.006670 0.000000 1.830760 
# 
# From -- ./inp_files/23882.got.cif
#   From: 2010.03.12/outbox.cif.g09.slc.cpg/sg5_12_cif.got.tgz:23882.got - 2010.03.31 09:47:26.
