data_PCOD8048547
_publ_section_title
;
Structure prediction by ZEFSAII (Michael W. Deem and Ramdas Pophale) SiO2 
 PCOD8048547
Probable space group: C 2
;
_chemical_formula_sum "Si O2"
_cell_formula_units_Z 24
_cell_length_a 22.562137
_cell_length_b 8.955235
_cell_length_c 16.523422
_cell_angle_alpha 90.000000
_cell_angle_beta 21.725441
_cell_angle_gamma 90.000000
_cell_volume 1235.793364
_symmetry_space_group_name_H-M "C 2"
_symmetry_group_IT_number 5
_symmetry_cell_setting 'monoclinic'
loop_
_space_group_symop_operation_xyz
x,y,z
-x,y,-z
1/2+x,1/2+y,z
1/2-x,1/2+y,-z
loop_
_atom_site_type_symbol
_atom_site_label
_atom_site_fract_x
_atom_site_fract_y
_atom_site_fract_z
Si Si1 0.186177 0.054920 0.336546
Si Si2 0.747055 0.230638 0.065125
Si Si3 0.000000 0.424392 0.000000
Si Si4 0.836034 0.565401 0.984834
Si Si5 0.000000 0.796225 0.500000
Si Si6 0.402011 0.650689 0.387241
Si Si7 0.855564 0.423036 0.342348
O O1 0.097973 0.160813 0.514035
O O2 0.092893 0.898022 0.447920
O O3 0.788163 0.120693 0.786816
O O4 0.360717 0.034301 0.150884
O O5 0.667260 0.186823 0.081403
O O6 0.624196 0.191544 0.293703
O O7 0.775437 0.407602 0.027143
O O8 0.912049 0.143440 0.874478
O O9 0.064581 0.336946 0.838021
O O10 0.017804 0.546478 0.786132
O O11 0.310062 0.504270 0.471253
O O12 0.318996 0.799035 0.456228
#
# Coordination Sequence:
#
# PCOD8048547 Si02
#       7
#     4   4   2   4   2   4   4
#     4   9  17  33  56  77 101 138 175 207 254 317
#     4  10  20  35  54  78 105 137 177 216 256 307
#     4   8  16  32  52  74 100 136 176 208 246 312
#     4   9  19  35  55  79 105 136 175 215 257 309
#     4  10  20  34  54  78 104 142 178 208 258 318
#     4  10  19  33  55  81 105 135 175 217 257 307
#     4   9  19  33  53  77 106 139 175 213 256 306
#
# _framework density 19.420722999999999
#
# number of rings (size 3 to 8) (size 9 to 14) (size 15 to 20)
#    0.000    2.667    0.000    3.000    0.000    4.000 
#    0.000    3.333    0.000   20.000    0.000    0.000 
#    0.000    0.000    0.000    0.000    0.000    0.000 
#
# Total GULP energy -148665.526386 kJ/mol
# GULP energy per Si atom -12388.793866 kJ/mol
# Density = 1.937652 g / cm^3
# Si number density = 19.420723 Si / 1000 Ang^3
#
#
#
# Elastic Constant Matrix: (Units=GPa)
#
#
# Indices 1 2 3 4 5 6 
#
# 1 135.1149 48.0938 65.9378 0.0000 19.0513 0.0000
# 2 48.0938 42.5903 40.6411 0.0000 16.6141 0.0000
# 3 65.9378 40.6411 135.3366 -0.0001 18.7170 0.0000
# 4 0.0000 0.0000 -0.0001 16.9934 0.0000 4.8106
# 5 19.0513 16.6141 18.7170 0.0000 40.5319 0.0000
# 6 0.0000 0.0000 0.0000 4.8106 0.0000 40.1791
#
#
#
# Elastic Compliance Matrix: (Units=1/GPa)
#
#
# Indices 1 2 3 4 5 6 
#
# 1 0.013048 -0.012191 -0.002712 0.000000 0.000117 0.000000
# 2 -0.012191 0.048155 -0.007033 0.000000 -0.010761 0.000000
# 3 -0.002712 -0.007033 0.010946 0.000000 -0.000897 0.000000
# 4 0.000000 0.000000 0.000000 0.060911 0.000000 -0.007293
# 5 0.000117 -0.010761 -0.000897 0.000000 0.029442 0.000000
# 6 0.000000 0.000000 0.000000 -0.007293 0.000000 0.025762
#
#
# Mechanical properties :
#
#
# Convention : Reuss Voigt Hill
#
# Bulk Modulus (GPa) = 35.36504 69.15415 52.25959
# Shear Modulus (GPa) = 20.69867 30.09879 25.39873
#
# Velocity S-wave (km/s) = 3.26821 3.94106 3.62030
# Velocity P-wave (km/s) = 5.70009 7.50966 6.66656
#
# Compressibility (1/GPa) = 0.02827651
#
# Stress axis : x y z
#
# Youngs Moduli (GPa) = 76.64224 20.76642 91.35423
#
# Poissons Ratio (x) = 0.25317 0.24777
# Poissons Ratio (y) = 0.93436 0.64247
# Poissons Ratio (z) = 0.20787 0.14604
#
# Static dielectric constant tensor:
#      x y z
#    x 4.002580 0.000000 0.162740 
#    y 0.000000 2.975790 0.000000 
#    z 0.162740 0.000000 3.940600 
# 
# 
# High freq. dielectric constant tensor:
#      x y z
#    x 1.777840 0.000000 -0.005720 
#    y 0.000000 1.685700 0.000000 
#    z -0.005720 0.000000 1.774690 
# 
# From -- ./inp_files/19369.got.cif
#   From: 2010.03.12/outbox.cif.g09.slc.cpg/sg5_10_cif.got.tgz:19369.got - 2010.03.31 09:47:26.
