data_PCOD8048768
_publ_section_title
;
Structure prediction by ZEFSAII (Michael W. Deem and Ramdas Pophale) SiO2 
 PCOD8048768
Probable space group: C 2
;
_chemical_formula_sum "Si O2"
_cell_formula_units_Z 28
_cell_length_a 19.197765
_cell_length_b 6.583190
_cell_length_c 21.893498
_cell_angle_alpha 90.000000
_cell_angle_beta 27.234559
_cell_angle_gamma 90.000000
_cell_volume 1266.253898
_symmetry_space_group_name_H-M "C 2"
_symmetry_group_IT_number 5
_symmetry_cell_setting 'monoclinic'
loop_
_space_group_symop_operation_xyz
x,y,z
-x,y,-z
1/2+x,1/2+y,z
1/2-x,1/2+y,-z
loop_
_atom_site_type_symbol
_atom_site_label
_atom_site_fract_x
_atom_site_fract_y
_atom_site_fract_z
Si Si1 0.570388 0.731660 0.106863
Si Si2 0.018142 0.886378 0.052877
Si Si3 0.593705 0.938827 0.482352
Si Si4 0.245050 0.094842 0.284940
Si Si5 0.488172 0.591937 0.635427
Si Si6 0.743017 0.592922 0.084047
Si Si7 0.260407 0.827449 0.380438
O O1 0.493512 0.556927 0.124074
O O2 0.706307 0.644049 0.042311
O O3 0.441325 0.819538 0.255384
O O4 0.642182 0.902111 0.006603
O O5 0.896790 0.703211 0.144149
O O6 0.180532 0.781477 0.939756
O O7 0.000000 0.989825 0.000000
O O8 0.500000 0.046248 0.500000
O O9 0.672901 0.747824 0.389578
O O10 0.502080 0.834239 0.610132
O O11 0.699678 0.099432 0.432654
O O12 0.132726 0.013331 0.320197
O O13 0.274764 0.889032 0.298271
O O14 0.415740 0.544782 0.757736
O O15 0.651973 0.474485 0.505135
#
# Coordination Sequence:
#
# PCOD8048768 Si02
#       7
#     4   4   4   4   4   4   4
#     4  12  27  46  73  96 138 195 237 289 363 424
#     4  12  24  43  73 105 138 183 244 293 346 421
#     4   9  18  35  60  95 132 171 215 276 350 404
#     4  10  19  37  65  99 136 175 216 288 353 400
#     4  10  23  40  65  98 138 176 219 295 348 409
#     4  12  26  49  67  98 143 188 237 294 355 418
#     4  11  21  39  66 101 131 178 231 281 345 426
#
# _framework density 22.112469999999998
#
# number of rings (size 3 to 8) (size 9 to 14) (size 15 to 20)
#    0.000    1.143    5.714    2.143    0.000    2.857 
#    2.571    0.000    0.000    0.000    0.000    0.000 
#    0.000    0.000    0.000    0.000    0.000    0.000 
#
# Total GULP energy -173441.420601 kJ/mol
# GULP energy per Si atom -12388.672900 kJ/mol
# Density = 2.206214 g / cm^3
# Si number density = 22.112470 Si / 1000 Ang^3
#
#
#
# Elastic Constant Matrix: (Units=GPa)
#
#
# Indices 1 2 3 4 5 6 
#
# 1 72.4131 23.8199 15.8096 0.0087 -4.8944 -0.0077
# 2 23.8199 73.4987 32.7540 -0.0185 1.3875 0.0006
# 3 15.8096 32.7540 134.5061 -0.0089 -1.1420 -0.0028
# 4 0.0087 -0.0185 -0.0089 28.5644 -0.0057 -5.4051
# 5 -4.8944 1.3875 -1.1420 -0.0057 24.8565 0.0089
# 6 -0.0077 0.0006 -0.0028 -5.4051 0.0089 22.0015
#
#
#
# Elastic Compliance Matrix: (Units=1/GPa)
#
#
# Indices 1 2 3 4 5 6 
#
# 1 0.015785 -0.004896 -0.000635 -0.000007 0.003352 0.000002
# 2 -0.004896 0.016807 -0.003535 0.000011 -0.002065 0.000001
# 3 -0.000635 -0.003535 0.008374 0.000001 0.000457 0.000001
# 4 -0.000007 0.000011 0.000001 0.036715 0.000003 0.009020
# 5 0.003352 -0.002065 0.000457 0.000003 0.041027 -0.000014
# 6 0.000002 0.000001 0.000001 0.009020 -0.000014 0.047667
#
#
# Mechanical properties :
#
#
# Convention : Reuss Voigt Hill
#
# Bulk Modulus (GPa) = 43.79296 47.24278 45.51787
# Shear Modulus (GPa) = 26.02558 28.95344 27.48951
#
# Velocity S-wave (km/s) = 3.43441 3.62245 3.52968
# Velocity P-wave (km/s) = 5.96444 6.23757 6.10254
#
# Compressibility (1/GPa) = 0.02283472
#
# Stress axis : x y z
#
# Youngs Moduli (GPa) = 63.34961 59.50012 119.41986
#
# Poissons Ratio (x) = 0.29133 0.07578
# Poissons Ratio (y) = 0.31018 0.42211
# Poissons Ratio (z) = 0.04020 0.21031
#
# Static dielectric constant tensor:
#      x y z
#    x 3.802160 0.000010 -0.137990 
#    y 0.000010 3.847830 0.000020 
#    z -0.137990 0.000020 4.164840 
# 
# 
# High freq. dielectric constant tensor:
#      x y z
#    x 1.850130 0.000000 -0.011580 
#    y 0.000000 1.861470 0.000000 
#    z -0.011580 0.000000 1.876420 
# 
# From -- ./inp_files/69331.got.cif
#   From: 2010.03.12/outbox.cif.g09.slc.cpg/sg5_35_cif.got.tgz:69331.got - 2010.03.31 09:47:26.
