data_PCOD8048843
_publ_section_title
;
Structure prediction by ZEFSAII (Michael W. Deem and Ramdas Pophale) SiO2 
 PCOD8048843
Probable space group: C 2
;
_chemical_formula_sum "Si O2"
_cell_formula_units_Z 20
_cell_length_a 12.140497
_cell_length_b 8.110880
_cell_length_c 11.575786
_cell_angle_alpha 90.000000
_cell_angle_beta 129.158205
_cell_angle_gamma 90.000000
_cell_volume 883.860467
_symmetry_space_group_name_H-M "C 2"
_symmetry_group_IT_number 5
_symmetry_cell_setting 'monoclinic'
loop_
_space_group_symop_operation_xyz
x,y,z
-x,y,-z
1/2+x,1/2+y,z
1/2-x,1/2+y,-z
loop_
_atom_site_type_symbol
_atom_site_label
_atom_site_fract_x
_atom_site_fract_y
_atom_site_fract_z
Si Si1 0.931673 0.364130 0.164050
Si Si2 0.315739 0.575873 0.932260
Si Si3 0.425911 0.424426 0.793769
Si Si4 0.054158 0.076644 0.664781
Si Si5 0.368648 0.070005 0.825757
O O1 0.840827 0.529822 0.128110
O O2 0.946470 0.264375 0.292147
O O3 0.088813 0.428285 0.236936
O O4 0.865342 0.251682 0.016499
O O5 0.333182 0.563561 0.803572
O O6 0.415874 0.427350 0.046591
O O7 0.446319 0.470952 0.672607
O O8 0.350604 0.247367 0.752164
O O9 0.218739 0.016418 0.783464
O O10 0.000000 0.064648 0.500000
O O11 0.500000 0.077468 0.000000
#
# Coordination Sequence:
#
# PCOD8048843 Si02
#       5
#     4   4   4   4   4
#     4  11  23  39  69  99 138 176 223 280 344 398
#     4  10  19  39  64 103 134 169 217 292 334 390
#     4  10  20  41  62  94 136 173 218 279 328 395
#     4  11  26  46  65  95 140 185 224 273 330 409
#     4  12  23  41  70 100 132 173 225 285 339 389
#
# _framework density 22.628004000000001
#
# number of rings (size 3 to 8) (size 9 to 14) (size 15 to 20)
#    0.000    1.200    4.000    3.600    5.600    1.600 
#    0.000    1.000    0.000    0.000    0.000    0.000 
#    0.000    0.000    0.000    0.000    0.000    0.000 
#
# Total GULP energy -123914.232241 kJ/mol
# GULP energy per Si atom -12391.423224 kJ/mol
# Density = 2.257650 g / cm^3
# Si number density = 22.628004 Si / 1000 Ang^3
#
#
#
# Elastic Constant Matrix: (Units=GPa)
#
#
# Indices 1 2 3 4 5 6 
#
# 1 149.2846 48.3596 43.4241 0.0000 -30.0995 0.0000
# 2 48.3596 72.2514 15.5685 0.0000 -8.9601 0.0000
# 3 43.4241 15.5685 95.0906 0.0000 -31.3145 0.0000
# 4 0.0000 0.0000 0.0000 15.3742 0.0000 -7.7107
# 5 -30.0995 -8.9601 -31.3145 0.0000 36.3330 0.0000
# 6 0.0000 0.0000 0.0000 -7.7107 0.0000 49.9065
#
#
#
# Elastic Compliance Matrix: (Units=1/GPa)
#
#
# Indices 1 2 3 4 5 6 
#
# 1 0.010209 -0.005748 -0.001959 0.000000 0.005352 0.000000
# 2 -0.005748 0.017700 -0.000564 0.000000 -0.000882 0.000000
# 3 -0.001959 -0.000564 0.015252 0.000000 0.011383 0.000000
# 4 0.000000 0.000000 0.000000 0.070507 0.000000 0.010894
# 5 0.005352 -0.000882 0.011383 0.000000 0.041551 0.000000
# 6 0.000000 0.000000 0.000000 0.010894 0.000000 0.021721
#
#
# Mechanical properties :
#
#
# Convention : Reuss Voigt Hill
#
# Bulk Modulus (GPa) = 37.56463 59.03678 48.30071
# Shear Modulus (GPa) = 24.70930 34.27437 29.49183
#
# Velocity S-wave (km/s) = 3.30810 3.89612 3.61409
# Velocity P-wave (km/s) = 5.58823 6.81076 6.22956
#
# Compressibility (1/GPa) = 0.02662079
#
# Stress axis : x y z
#
# Youngs Moduli (GPa) = 97.94903 56.49841 65.56633
#
# Poissons Ratio (x) = 0.32473 0.12842
# Poissons Ratio (y) = 0.56297 0.03696
# Poissons Ratio (z) = 0.19185 0.03185
#
# Static dielectric constant tensor:
#      x y z
#    x 4.777820 0.000000 -0.270850 
#    y 0.000000 3.988690 0.000000 
#    z -0.270850 0.000000 3.434040 
# 
# 
# High freq. dielectric constant tensor:
#      x y z
#    x 1.926530 0.000000 -0.024820 
#    y 0.000000 1.886480 0.000000 
#    z -0.024820 0.000000 1.822990 
# 
# From -- ./inp_files/38155.got.cif
#   From: 2010.03.12/outbox.cif.g09.slc.cpg/sg5_20_cif.got.tgz:38155.got - 2010.03.31 09:47:26.
