data_PCOD8048093
_publ_section_title
;
Structure prediction by ZEFSAII (Michael W. Deem and Ramdas Pophale) SiO2 
 PCOD8048093
Probable space group: C 2
;
_chemical_formula_sum "Si O2"
_cell_formula_units_Z 32
_cell_length_a 27.582166
_cell_length_b 8.775556
_cell_length_c 9.067543
_cell_angle_alpha 90.000000
_cell_angle_beta 131.084657
_cell_angle_gamma 90.000000
_cell_volume 1654.298408
_symmetry_space_group_name_H-M "C 2"
_symmetry_group_IT_number 5
_symmetry_cell_setting 'monoclinic'
loop_
_space_group_symop_operation_xyz
x,y,z
-x,y,-z
1/2+x,1/2+y,z
1/2-x,1/2+y,-z
loop_
_atom_site_type_symbol
_atom_site_label
_atom_site_fract_x
_atom_site_fract_y
_atom_site_fract_z
Si Si1 0.498831 0.489080 0.828522
Si Si2 0.362478 0.527745 0.569888
Si Si3 0.361349 0.517698 0.895213
Si Si4 0.243527 0.521774 0.146981
Si Si5 0.248811 0.661643 0.843202
Si Si6 0.373300 0.166150 0.581411
Si Si7 0.626892 0.156212 0.083545
Si Si8 0.498518 0.177838 0.670909
O O1 0.434677 0.595169 0.682030
O O2 0.497311 0.356288 0.705198
O O3 0.500000 0.421336 0.000000
O O4 0.565475 0.580128 0.935095
O O5 0.337912 0.568016 0.685281
O O6 0.310149 0.587525 0.349235
O O7 0.373123 0.347790 0.578926
O O8 0.316615 0.593964 0.927278
O O9 0.359732 0.335517 0.910184
O O10 0.247856 0.341922 0.139577
O O11 0.185649 0.560314 0.138684
O O12 0.231327 0.599919 0.967905
O O13 0.192926 0.604835 0.621521
O O14 0.379496 0.106395 0.759717
O O15 0.433883 0.102077 0.609115
O O16 0.562158 0.104386 0.870365
O O17 0.500000 0.151104 0.500000
#
# Coordination Sequence:
#
# PCOD8048093 Si02
#       8
#     4   4   4   4   4   4   4   4
#     4   8  15  29  50  76 103 133 174 215 248 292
#     4   8  16  31  52  77 102 131 173 214 251 298
#     4   9  17  32  55  79 101 130 168 215 257 300
#     4  11  22  35  51  74 104 137 170 212 260 309
#     4  11  22  35  52  75 106 137 171 212 258 308
#     4   9  18  33  53  77 102 135 177 214 248 297
#     4  10  19  34  56  78 102 133 172 214 257 302
#     4  10  17  27  49  80 108 132 165 210 255 298
#
# _framework density 19.343547999999998
#
# number of rings (size 3 to 8) (size 9 to 14) (size 15 to 20)
#    0.000    2.500    0.000    4.875    0.000    5.000 
#    0.000    1.250    0.000   10.500    0.000    0.000 
#    0.000    0.000    0.000    0.000    0.000    0.000 
#
# Total GULP energy -198324.227640 kJ/mol
# GULP energy per Si atom -12395.264228 kJ/mol
# Density = 1.929952 g / cm^3
# Si number density = 19.343548 Si / 1000 Ang^3
#
#
#
# Elastic Constant Matrix: (Units=GPa)
#
#
# Indices 1 2 3 4 5 6 
#
# 1 155.2864 24.6138 80.0145 0.0000 2.9375 0.0000
# 2 24.6138 30.8946 21.8854 0.0000 1.8998 0.0000
# 3 80.0145 21.8854 148.6223 0.0000 2.9845 0.0000
# 4 0.0000 0.0000 0.0000 17.3490 0.0000 -0.7218
# 5 2.9375 1.8998 2.9845 0.0000 40.7071 0.0000
# 6 0.0000 0.0000 0.0000 -0.7218 0.0000 25.4799
#
#
#
# Elastic Compliance Matrix: (Units=1/GPa)
#
#
# Indices 1 2 3 4 5 6 
#
# 1 0.009412 -0.004356 -0.004423 0.000000 -0.000152 0.000000
# 2 -0.004356 0.038223 -0.003258 0.000000 -0.001231 0.000000
# 3 -0.004423 -0.003258 0.009594 0.000000 -0.000232 0.000000
# 4 0.000000 0.000000 0.000000 0.057708 0.000000 0.001635
# 5 -0.000152 -0.001231 -0.000232 0.000000 0.024651 0.000000
# 6 0.000000 0.000000 0.000000 0.001635 0.000000 0.039293
#
#
# Mechanical properties :
#
#
# Convention : Reuss Voigt Hill
#
# Bulk Modulus (GPa) = 30.16236 65.31451 47.73844
# Shear Modulus (GPa) = 23.36375 30.59317 26.97846
#
# Velocity S-wave (km/s) = 3.47916 3.98121 3.73862
# Velocity P-wave (km/s) = 5.63615 7.41432 6.58553
#
# Compressibility (1/GPa) = 0.03315390
#
# Stress axis : x y z
#
# Youngs Moduli (GPa) = 106.24833 26.16248 104.23207
#
# Poissons Ratio (x) = 0.11397 0.46098
# Poissons Ratio (y) = 0.46284 0.33964
# Poissons Ratio (z) = 0.46990 0.08525
#
# Static dielectric constant tensor:
#      x y z
#    x 3.725700 0.000000 0.269340 
#    y 0.000000 2.893980 0.000000 
#    z 0.269340 0.000000 3.946280 
# 
# 
# High freq. dielectric constant tensor:
#      x y z
#    x 1.770720 0.000000 0.010740 
#    y 0.000000 1.683470 0.000000 
#    z 0.010740 0.000000 1.771050 
# 
# From -- ./inp_files/30885.got.cif
#   From: 2010.03.12/outbox.cif.g09.slc.cpg/sg5_16_cif.got.tgz:30885.got - 2010.03.31 09:47:26.
