data_PCOD8048797
_publ_section_title
;
Structure prediction by ZEFSAII (Michael W. Deem and Ramdas Pophale) SiO2 
 PCOD8048797
Probable space group: C 2
;
_chemical_formula_sum "Si O2"
_cell_formula_units_Z 24
_cell_length_a 17.178081
_cell_length_b 14.717414
_cell_length_c 9.258758
_cell_angle_alpha 90.000000
_cell_angle_beta 32.842381
_cell_angle_gamma 90.000000
_cell_volume 1269.469789
_symmetry_space_group_name_H-M "C 2"
_symmetry_group_IT_number 5
_symmetry_cell_setting 'monoclinic'
loop_
_space_group_symop_operation_xyz
x,y,z
-x,y,-z
1/2+x,1/2+y,z
1/2-x,1/2+y,-z
loop_
_atom_site_type_symbol
_atom_site_label
_atom_site_fract_x
_atom_site_fract_y
_atom_site_fract_z
Si Si1 0.332547 0.493800 0.741744
Si Si2 0.421423 0.321136 0.482449
Si Si3 0.843022 0.483955 0.694547
Si Si4 0.114199 0.635446 0.600533
Si Si5 0.126579 0.848742 0.919728
Si Si6 0.807930 0.642876 0.211574
O O1 0.500000 0.482154 0.500000
O O2 0.298436 0.397748 0.710533
O O3 0.313973 0.585282 0.677775
O O4 0.246361 0.503864 0.022988
O O5 0.500000 0.278903 0.500000
O O6 0.355026 0.239888 0.491473
O O7 0.552085 0.365340 0.189184
O O8 0.853991 0.576961 0.589347
O O9 0.762079 0.416948 0.708541
O O10 0.000000 0.447622 0.500000
O O11 0.210199 0.615117 0.591786
O O12 0.954810 0.614418 0.904840
O O13 0.202700 0.751217 0.784543
O O14 0.000000 0.865704 0.000000
#
# Coordination Sequence:
#
# PCOD8048797 Si02
#       6
#     4   4   4   4   4   4
#     4  11  23  39  62  93 128 164 207 258 314 368
#     4  10  19  38  62  88 117 169 208 244 301 386
#     4  12  24  38  63  99 126 161 212 263 310 363
#     4  10  21  37  64  89 119 165 207 251 306 378
#     4  11  22  41  64  90 125 171 211 248 313 382
#     4  10  21  40  62  91 122 163 211 254 311 371
#
# _framework density 18.905529999999999
#
# number of rings (size 3 to 8) (size 9 to 14) (size 15 to 20)
#    0.000    1.333    8.333    0.500    4.667    0.667 
#    0.000    0.000    0.000    0.000    0.000    0.000 
#    0.000    0.000    0.000    0.000    0.000    0.000 
#
# Total GULP energy -148659.741545 kJ/mol
# GULP energy per Si atom -12388.311795 kJ/mol
# Density = 1.886250 g / cm^3
# Si number density = 18.905530 Si / 1000 Ang^3
#
#
#
# Elastic Constant Matrix: (Units=GPa)
#
#
# Indices 1 2 3 4 5 6 
#
# 1 98.3220 51.5352 40.2021 0.0000 8.1179 0.0000
# 2 51.5352 102.9707 35.6518 0.0000 -1.8315 0.0000
# 3 40.2021 35.6518 87.8127 0.0000 16.5059 0.0000
# 4 0.0000 0.0000 0.0000 28.4538 0.0000 0.2456
# 5 8.1179 -1.8315 16.5059 0.0000 30.0729 0.0000
# 6 0.0000 0.0000 0.0000 0.2456 0.0000 26.9061
#
#
#
# Elastic Compliance Matrix: (Units=1/GPa)
#
#
# Indices 1 2 3 4 5 6 
#
# 1 0.015312 -0.006316 -0.004010 0.000000 -0.002317 0.000000
# 2 -0.006316 0.014261 -0.003771 0.000000 0.004643 0.000000
# 3 -0.004010 -0.003771 0.016273 0.000000 -0.008079 0.000000
# 4 0.000000 0.000000 0.000000 0.035147 0.000000 -0.000321
# 5 -0.002317 0.004643 -0.008079 0.000000 0.038595 0.000000
# 6 0.000000 0.000000 0.000000 -0.000321 0.000000 0.037169
#
#
# Mechanical properties :
#
#
# Convention : Reuss Voigt Hill
#
# Bulk Modulus (GPa) = 56.65233 60.43151 58.54192
# Shear Modulus (GPa) = 26.20029 27.86767 27.03398
#
# Velocity S-wave (km/s) = 3.72674 3.84350 3.78557
# Velocity P-wave (km/s) = 6.96773 7.19243 7.08097
#
# Compressibility (1/GPa) = 0.01765153
#
# Stress axis : x y z
#
# Youngs Moduli (GPa) = 65.30661 70.12154 61.44968
#
# Poissons Ratio (x) = 0.44291 0.24643
# Poissons Ratio (y) = 0.41250 0.23173
# Poissons Ratio (z) = 0.26190 0.26443
#
# Static dielectric constant tensor:
#      x y z
#    x 3.622260 0.000000 0.231120 
#    y 0.000000 3.518840 0.000000 
#    z 0.231120 0.000000 3.510530 
# 
# 
# High freq. dielectric constant tensor:
#      x y z
#    x 1.736930 0.000000 0.030410 
#    y 0.000000 1.737320 0.000000 
#    z 0.030410 0.000000 1.719700 
# 
# From -- ./inp_files/19806.got.cif
#   From: 2010.03.12/outbox.cif.g09.slc.cpg/sg5_10_cif.got.tgz:19806.got - 2010.03.31 09:47:26.
