data_PCOD8048007
_publ_section_title
;
Structure prediction by ZEFSAII (Michael W. Deem and Ramdas Pophale) SiO2 
 PCOD8048007
Probable space group: P 21
;
_chemical_formula_sum "Si O2"
_cell_formula_units_Z 14
_cell_length_a 17.840603
_cell_length_b 5.311142
_cell_length_c 13.532957
_cell_angle_alpha 90.000000
_cell_angle_beta 154.706639
_cell_angle_gamma 90.000000
_cell_volume 547.867286
_symmetry_space_group_name_H-M "P 21"
_symmetry_group_IT_number 4
_symmetry_cell_setting 'monoclinic'
loop_
_space_group_symop_operation_xyz
x,y,z
-x,1/2+y,-z
loop_
_atom_site_type_symbol
_atom_site_label
_atom_site_fract_x
_atom_site_fract_y
_atom_site_fract_z
Si Si1 0.369160 0.755270 0.596707
Si Si2 0.410694 0.957820 0.852432
Si Si3 0.976911 0.986525 0.806539
Si Si4 0.710617 0.431230 0.962360
Si Si5 0.843691 0.618400 0.778433
Si Si6 0.892463 0.350718 0.375325
Si Si7 0.517641 0.786815 0.463262
O O1 0.415538 0.953032 0.739343
O O2 0.216106 0.575136 0.458733
O O3 0.553878 0.633193 0.786016
O O4 0.284278 0.884417 0.398276
O O5 0.210219 0.930643 0.649079
O O6 0.520800 0.726563 0.028993
O O7 0.957406 0.690960 0.816041
O O8 0.113816 0.038618 0.881881
O O9 0.034237 0.112310 0.979418
O O10 0.630888 0.214716 0.795710
O O11 0.758224 0.315944 0.124394
O O12 0.705260 0.847027 0.635582
O O13 0.023129 0.578637 0.505367
O O14 0.549287 0.546076 0.569353
#
# Coordination Sequence:
#
# PCOD8048007 Si02
#       7
#     2   2   2   2   2   2   2
#     4  12  28  52  79 115 157 212 266 328 404 477
#     4  12  28  53  83 115 157 207 270 338 399 479
#     4  12  27  48  74 117 158 211 262 328 391 484
#     4  12  28  50  82 114 157 210 268 323 408 474
#     4  12  27  45  76 113 167 205 268 324 399 472
#     4  12  29  54  81 118 159 202 270 340 405 474
#     4  12  27  48  77 114 159 209 264 323 392 478
#
# _framework density 25.553636000000001
#
# number of rings (size 3 to 8) (size 9 to 14) (size 15 to 20)
#    0.000    0.000    5.714    2.571    8.000    1.143 
#    0.000    0.000    0.000    0.000    0.000    0.000 
#    0.000    0.000    0.000    0.000    0.000    0.000 
#
# Total GULP energy -173481.185667 kJ/mol
# GULP energy per Si atom -12391.513262 kJ/mol
# Density = 2.549547 g / cm^3
# Si number density = 25.553636 Si / 1000 Ang^3
#
#
#
# Elastic Constant Matrix: (Units=GPa)
#
#
# Indices 1 2 3 4 5 6 
#
# 1 113.0291 -2.0451 30.1870 0.0000 18.4134 0.0000
# 2 -2.0451 66.1340 25.6352 0.0000 0.1645 0.0000
# 3 30.1870 25.6352 115.5427 0.0000 2.1494 0.0000
# 4 0.0000 0.0000 0.0000 41.6214 0.0000 6.7624
# 5 18.4134 0.1645 2.1494 0.0000 56.6887 0.0000
# 6 0.0000 0.0000 0.0000 6.7624 0.0000 26.2071
#
#
#
# Elastic Compliance Matrix: (Units=1/GPa)
#
#
# Indices 1 2 3 4 5 6 
#
# 1 0.010175 0.001455 -0.002922 0.000000 -0.003198 0.000000
# 2 0.001455 0.016752 -0.004090 0.000000 -0.000366 0.000000
# 3 -0.002922 -0.004090 0.010315 0.000000 0.000570 0.000000
# 4 0.000000 0.000000 0.000000 0.025077 0.000000 -0.006471
# 5 -0.003198 -0.000366 0.000570 0.000000 0.018659 0.000000
# 6 0.000000 0.000000 0.000000 -0.006471 0.000000 0.039827
#
#
# Mechanical properties :
#
#
# Convention : Reuss Voigt Hill
#
# Bulk Modulus (GPa) = 38.27199 44.69556 41.48378
# Shear Modulus (GPa) = 35.55468 40.96534 38.26001
#
# Velocity S-wave (km/s) = 3.73416 4.00823 3.87362
# Velocity P-wave (km/s) = 5.79669 6.24100 6.02294
#
# Compressibility (1/GPa) = 0.02612877
#
# Stress axis : x y z
#
# Youngs Moduli (GPa) = 98.28044 59.69374 96.94615
#
# Poissons Ratio (x) = -0.08686 0.28325
# Poissons Ratio (y) = -0.14301 0.39652
# Poissons Ratio (z) = 0.28714 0.24416
#
# Static dielectric constant tensor:
#      x y z
#    x 4.898750 0.000000 0.079090 
#    y 0.000000 4.394970 0.000000 
#    z 0.079090 0.000000 4.948810 
# 
# 
# High freq. dielectric constant tensor:
#      x y z
#    x 2.035390 0.000000 0.008540 
#    y 0.000000 2.003470 0.000000 
#    z 0.008540 0.000000 2.040230 
# 
# From -- ./inp_files/14407.got.cif
#   From: 2010.03.12/outbox.cif.g09.slc.cpg/sg4_8_cif.got.tgz:14407.got - 2010.03.31 09:31:35.
