data_PCOD8048947
_publ_section_title
;
Structure prediction by ZEFSAII (Michael W. Deem and Ramdas Pophale) SiO2 
 PCOD8048947
Probable space group: C 2
;
_chemical_formula_sum "Si O2"
_cell_formula_units_Z 28
_cell_length_a 20.843537
_cell_length_b 6.862692
_cell_length_c 10.925900
_cell_angle_alpha 90.000000
_cell_angle_beta 108.214489
_cell_angle_gamma 90.000000
_cell_volume 1484.560330
_symmetry_space_group_name_H-M "C 2"
_symmetry_group_IT_number 5
_symmetry_cell_setting 'monoclinic'
loop_
_space_group_symop_operation_xyz
x,y,z
-x,y,-z
1/2+x,1/2+y,z
1/2-x,1/2+y,-z
loop_
_atom_site_type_symbol
_atom_site_label
_atom_site_fract_x
_atom_site_fract_y
_atom_site_fract_z
Si Si1 0.936105 0.948770 0.310531
Si Si2 0.310959 0.230332 0.526505
Si Si3 0.584481 0.551291 0.424139
Si Si4 0.170829 0.347452 0.354255
Si Si5 0.673749 0.703695 0.850251
Si Si6 0.229133 0.355220 0.129534
Si Si7 0.346497 0.103278 0.280498
O O1 0.917584 0.717685 0.298372
O O2 0.919341 0.051818 0.431076
O O3 0.890922 0.060593 0.182610
O O4 0.014670 0.971138 0.325921
O O5 0.352981 0.421921 0.582469
O O6 0.232034 0.279736 0.478801
O O7 0.330923 0.132027 0.411888
O O8 0.331015 0.080991 0.644555
O O9 0.601728 0.758961 0.370755
O O10 0.182709 0.302554 0.218553
O O11 0.739812 0.576154 0.849659
O O12 0.653817 0.872774 0.742335
O O13 0.683652 0.813013 0.984526
O O14 0.290470 0.203351 0.161807
#
# Coordination Sequence:
#
# PCOD8048947 Si02
#       7
#     4   4   4   4   4   4   4
#     4   9  21  36  60  83 111 153 193 228 279 342
#     4  10  20  32  54  82 115 143 181 228 290 341
#     4  10  20  39  55  85 119 145 186 235 282 344
#     4  11  21  33  54  85 113 152 178 233 290 338
#     4  11  19  37  57  82 112 150 192 238 275 335
#     4  10  22  33  54  85 113 146 192 233 283 330
#     4   9  19  34  55  81 111 145 187 232 280 331
#
# _framework density 18.860803000000001
#
# number of rings (size 3 to 8) (size 9 to 14) (size 15 to 20)
#    0.000    2.000    2.857    1.714    2.000    1.143 
#    0.000    3.571    0.000    0.000    0.000    0.000 
#    0.000    0.000    0.000    0.000    0.000    0.000 
#
# Total GULP energy -173509.144438 kJ/mol
# GULP energy per Si atom -12393.510317 kJ/mol
# Density = 1.881787 g / cm^3
# Si number density = 18.860803 Si / 1000 Ang^3
#
#
#
# Elastic Constant Matrix: (Units=GPa)
#
#
# Indices 1 2 3 4 5 6 
#
# 1 81.9565 19.0853 19.2076 0.0000 10.2547 0.0000
# 2 19.0853 83.5707 14.2265 0.0000 1.6933 0.0000
# 3 19.2076 14.2265 52.2284 0.0000 11.8108 0.0000
# 4 0.0000 0.0000 0.0000 29.5548 0.0000 2.3120
# 5 10.2547 1.6933 11.8108 0.0000 19.1095 0.0000
# 6 0.0000 0.0000 0.0000 2.3120 0.0000 29.0545
#
#
#
# Elastic Compliance Matrix: (Units=1/GPa)
#
#
# Indices 1 2 3 4 5 6 
#
# 1 0.014253 -0.002580 -0.003326 0.000000 -0.005364 0.000000
# 2 -0.002580 0.013037 -0.003085 0.000000 0.002136 0.000000
# 3 -0.003326 -0.003085 0.024115 0.000000 -0.012847 0.000000
# 4 0.000000 0.000000 0.000000 0.034047 0.000000 -0.002709
# 5 -0.005364 0.002136 -0.012847 0.000000 0.062959 0.000000
# 6 0.000000 0.000000 0.000000 -0.002709 0.000000 0.034634
#
#
# Mechanical properties :
#
#
# Convention : Reuss Voigt Hill
#
# Bulk Modulus (GPa) = 29.91975 35.86604 32.89289
# Shear Modulus (GPa) = 23.56607 26.55952 25.06280
#
# Velocity S-wave (km/s) = 3.53862 3.75665 3.64927
# Velocity P-wave (km/s) = 5.70909 6.15419 5.93581
#
# Compressibility (1/GPa) = 0.03342274
#
# Stress axis : x y z
#
# Youngs Moduli (GPa) = 70.16009 76.70414 41.46750
#
# Poissons Ratio (x) = 0.19791 0.13791
# Poissons Ratio (y) = 0.18102 0.12794
# Poissons Ratio (z) = 0.23334 0.23666
#
# Static dielectric constant tensor:
#      x y z
#    x 3.267970 0.000000 0.135720 
#    y 0.000000 3.595010 0.000000 
#    z 0.135720 0.000000 3.256900 
# 
# 
# High freq. dielectric constant tensor:
#      x y z
#    x 1.707300 0.000000 0.006760 
#    y 0.000000 1.743090 0.000000 
#    z 0.006760 0.000000 1.712170 
# 
# From -- ./inp_files/45708.got.cif
#   From: 2010.03.12/outbox.cif.g09.slc.cpg/sg5_23_cif.got.tgz:45708.got - 2010.03.31 09:47:26.
