data_PCOD8048659
_publ_section_title
;
Structure prediction by ZEFSAII (Michael W. Deem and Ramdas Pophale) SiO2 
 PCOD8048659
Probable space group: C 2
;
_chemical_formula_sum "Si O2"
_cell_formula_units_Z 32
_cell_length_a 13.929086
_cell_length_b 9.817191
_cell_length_c 11.613963
_cell_angle_alpha 90.000000
_cell_angle_beta 101.440447
_cell_angle_gamma 90.000000
_cell_volume 1556.591305
_symmetry_space_group_name_H-M "C 2"
_symmetry_group_IT_number 5
_symmetry_cell_setting 'monoclinic'
loop_
_space_group_symop_operation_xyz
x,y,z
-x,y,-z
1/2+x,1/2+y,z
1/2-x,1/2+y,-z
loop_
_atom_site_type_symbol
_atom_site_label
_atom_site_fract_x
_atom_site_fract_y
_atom_site_fract_z
Si Si1 0.145275 0.770560 0.284440
Si Si2 0.328943 0.771138 0.176862
Si Si3 0.522132 0.748322 0.379219
Si Si4 0.175506 0.065891 0.282425
Si Si5 0.105927 0.082875 0.004828
Si Si6 0.046589 0.554481 0.394405
Si Si7 0.549709 0.292127 0.900152
Si Si8 0.358022 0.074361 0.209939
O O1 0.227736 0.723479 0.212966
O O2 0.137830 0.651064 0.379100
O O3 0.037111 0.804876 0.212297
O O4 0.176728 0.917366 0.343397
O O5 0.422144 0.745914 0.282437
O O6 0.333711 0.686355 0.060283
O O7 0.322645 0.931656 0.144849
O O8 0.500000 0.684703 0.500000
O O9 0.604815 0.663784 0.333829
O O10 0.573424 0.895272 0.413281
O O11 0.289439 0.114215 0.304306
O O12 0.154247 0.058710 0.139959
O O13 0.094653 0.939780 0.936225
O O14 0.000000 0.150327 0.000000
O O15 0.000000 0.613034 0.500000
O O16 0.969237 0.558349 0.273659
O O17 0.640174 0.196610 0.882373
O O18 0.500000 0.225156 0.000000
#
# Coordination Sequence:
#
# PCOD8048659 Si02
#       8
#     4   4   4   4   4   4   4   4
#     4  10  20  36  56  79 108 139 183 220 264 319
#     4  10  21  37  54  84 109 142 182 220 267 319
#     4  10  21  39  58  78 109 142 179 226 273 318
#     4  11  21  37  55  83 111 144 179 220 270 318
#     4  11  20  35  57  76 116 147 174 217 266 323
#     4   9  20  40  58  76 107 144 179 227 274 314
#     4  10  19  36  52  76 109 149 171 216 266 312
#     4   9  22  35  54  82 111 138 184 222 259 325
#
# _framework density 20.557739000000002
#
# number of rings (size 3 to 8) (size 9 to 14) (size 15 to 20)
#    0.000    2.000    3.750    0.000    1.750    3.000 
#    2.250    0.000    0.000    0.000    0.000    0.000 
#    0.000    0.000    0.000    0.000    0.000    0.000 
#
# Total GULP energy -198244.076406 kJ/mol
# GULP energy per Si atom -12390.254775 kJ/mol
# Density = 2.051095 g / cm^3
# Si number density = 20.557739 Si / 1000 Ang^3
#
#
#
# Elastic Constant Matrix: (Units=GPa)
#
#
# Indices 1 2 3 4 5 6 
#
# 1 94.5642 64.8644 20.4275 0.0000 -42.5722 0.0000
# 2 64.8644 116.0503 52.2728 0.0000 -46.4863 0.0000
# 3 20.4275 52.2728 65.9597 0.0000 -33.0422 0.0000
# 4 0.0000 0.0000 0.0000 25.7391 0.0000 -18.9729
# 5 -42.5722 -46.4863 -33.0422 0.0000 41.0985 0.0000
# 6 0.0000 0.0000 0.0000 -18.9729 0.0000 33.5978
#
#
#
# Elastic Compliance Matrix: (Units=1/GPa)
#
#
# Indices 1 2 3 4 5 6 
#
# 1 0.026798 -0.010161 0.013230 0.000000 0.026902 0.000000
# 2 -0.010161 0.021144 -0.011556 0.000000 0.004099 0.000000
# 3 0.013230 -0.011556 0.034389 0.000000 0.028282 0.000000
# 4 0.000000 0.000000 0.000000 0.066556 0.000000 0.037585
# 5 0.026902 0.004099 0.028282 0.000000 0.079573 0.000000
# 6 0.000000 0.000000 0.000000 0.037585 0.000000 0.050988
#
#
# Mechanical properties :
#
#
# Convention : Reuss Voigt Hill
#
# Bulk Modulus (GPa) = 15.30065 61.30040 38.30052
# Shear Modulus (GPa) = 15.71297 29.35437 22.53367
#
# Velocity S-wave (km/s) = 2.76766 3.78285 3.31436
# Velocity P-wave (km/s) = 4.20383 6.99738 5.77215
#
# Compressibility (1/GPa) = 0.06535671
#
# Stress axis : x y z
#
# Youngs Moduli (GPa) = 37.31588 47.29573 29.07899
#
# Poissons Ratio (x) = 0.48059 -0.38472
# Poissons Ratio (y) = 0.37918 0.33603
# Poissons Ratio (z) = -0.49370 0.54654
#
# Static dielectric constant tensor:
#      x y z
#    x 4.116040 0.000000 -0.146840 
#    y 0.000000 3.897390 0.000000 
#    z -0.146840 0.000000 3.638720 
# 
# 
# High freq. dielectric constant tensor:
#      x y z
#    x 1.816840 0.000000 -0.007150 
#    y 0.000000 1.798140 0.000000 
#    z -0.007150 0.000000 1.784410 
# 
# From -- ./inp_files/41967.got.cif
#   From: 2010.03.12/outbox.cif.g09.slc.cpg/sg5_21_cif.got.tgz:41967.got - 2010.03.31 09:47:26.
