data_PCOD8048829
_publ_section_title
;
Structure prediction by ZEFSAII (Michael W. Deem and Ramdas Pophale) SiO2 
 PCOD8048829
Probable space group: C 2
;
_chemical_formula_sum "Si O2"
_cell_formula_units_Z 32
_cell_length_a 13.874721
_cell_length_b 16.162551
_cell_length_c 13.826931
_cell_angle_alpha 90.000000
_cell_angle_beta 149.600989
_cell_angle_gamma 90.000000
_cell_volume 1569.013500
_symmetry_space_group_name_H-M "C 2"
_symmetry_group_IT_number 5
_symmetry_cell_setting 'monoclinic'
loop_
_space_group_symop_operation_xyz
x,y,z
-x,y,-z
1/2+x,1/2+y,z
1/2-x,1/2+y,-z
loop_
_atom_site_type_symbol
_atom_site_label
_atom_site_fract_x
_atom_site_fract_y
_atom_site_fract_z
Si Si1 0.772427 0.502840 0.474872
Si Si2 0.012706 0.653346 0.297236
Si Si3 0.898463 0.219784 0.649087
Si Si4 0.562785 0.456635 0.953071
Si Si5 0.896137 0.142393 0.004628
Si Si6 0.999913 0.080713 0.386162
Si Si7 0.932445 0.395000 0.181752
Si Si8 0.914537 0.543391 0.031276
O O1 0.899715 0.582893 0.555662
O O2 0.628431 0.470128 0.271421
O O3 0.670996 0.526508 0.489147
O O4 0.918825 0.427266 0.610819
O O5 0.167900 0.728666 0.437491
O O6 0.992358 0.613745 0.171801
O O7 0.808134 0.687743 0.155866
O O8 0.007423 0.300281 0.781727
O O9 0.956148 0.150693 0.779051
O O10 0.973076 0.179221 0.613130
O O11 0.659443 0.545961 0.055503
O O12 0.500000 0.415145 0.000000
O O13 0.715242 0.397864 0.032089
O O14 0.000000 0.178874 0.000000
O O15 0.000000 0.065413 0.500000
O O16 0.811208 0.049643 0.170287
O O17 0.957035 0.450454 0.106388
O O18 0.000000 0.558686 0.000000
#
# Coordination Sequence:
#
# PCOD8048829 Si02
#       8
#     4   4   4   4   4   4   4   4
#     4  10  19  39  61  88 118 157 209 258 304 361
#     4  10  19  39  61  93 124 160 211 259 310 371
#     4  11  23  40  60  90 134 162 201 257 322 375
#     4  11  21  40  65  89 121 166 212 255 307 370
#     4  11  21  39  67  92 120 166 211 258 309 372
#     4  11  20  40  65  90 118 160 217 265 302 373
#     4  11  23  40  61  92 132 164 200 262 317 377
#     4  11  20  39  68  92 117 163 221 262 311 367
#
# _framework density 20.39498
#
# number of rings (size 3 to 8) (size 9 to 14) (size 15 to 20)
#    0.000    1.250    7.500    2.250    0.000    2.500 
#    2.250    0.625    2.750    0.000    0.000    0.000 
#    0.000    0.000    0.000    0.000    0.000    0.000 
#
# Total GULP energy -198278.768217 kJ/mol
# GULP energy per Si atom -12392.423014 kJ/mol
# Density = 2.034856 g / cm^3
# Si number density = 20.394980 Si / 1000 Ang^3
#
#
#
# Elastic Constant Matrix: (Units=GPa)
#
#
# Indices 1 2 3 4 5 6 
#
# 1 106.1203 14.7503 42.8974 0.0034 -1.7644 0.0026
# 2 14.7503 57.4870 20.4904 -0.0021 1.0870 0.0000
# 3 42.8974 20.4904 142.5081 -0.0217 7.7825 -0.0123
# 4 0.0034 -0.0021 -0.0217 27.3174 -0.0067 5.1511
# 5 -1.7644 1.0870 7.7825 -0.0067 28.3616 -0.0033
# 6 0.0026 0.0000 -0.0123 5.1511 -0.0033 16.3685
#
#
#
# Elastic Compliance Matrix: (Units=1/GPa)
#
#
# Indices 1 2 3 4 5 6 
#
# 1 0.010958 -0.001723 -0.003139 -0.000003 0.001609 -0.000003
# 2 -0.001723 0.018606 -0.002144 0.000000 -0.000232 -0.000001
# 3 -0.003139 -0.002144 0.008402 0.000005 -0.002419 0.000005
# 4 -0.000003 0.000000 0.000005 0.038916 0.000006 -0.012247
# 5 0.001609 -0.000232 -0.002419 0.000006 0.036032 0.000003
# 6 -0.000003 -0.000001 0.000005 -0.012247 0.000003 0.064947
#
#
# Mechanical properties :
#
#
# Convention : Reuss Voigt Hill
#
# Bulk Modulus (GPa) = 41.74543 51.37684 46.56113
# Shear Modulus (GPa) = 25.01778 29.60799 27.31289
#
# Velocity S-wave (km/s) = 3.50618 3.81429 3.66347
# Velocity P-wave (km/s) = 6.07486 6.68162 6.38545
#
# Compressibility (1/GPa) = 0.02395472
#
# Stress axis : x y z
#
# Youngs Moduli (GPa) = 91.25466 53.74627 119.01519
#
# Poissons Ratio (x) = 0.09263 0.37356
# Poissons Ratio (y) = 0.15727 0.25514
# Poissons Ratio (z) = 0.28642 0.11522
#
# Static dielectric constant tensor:
#      x y z
#    x 3.670560 0.000010 0.149290 
#    y 0.000010 3.316790 -0.000010 
#    z 0.149290 -0.000010 4.055430 
# 
# 
# High freq. dielectric constant tensor:
#      x y z
#    x 1.783000 0.000000 0.012450 
#    y 0.000000 1.750820 0.000000 
#    z 0.012450 0.000000 1.829010 
# 
# From -- ./inp_files/54912.got.cif
#   From: 2010.03.12/outbox.cif.g09.slc.cpg/sg5_28_cif.got.tgz:54912.got - 2010.03.31 09:47:26.
