data_PCOD8048059
_publ_section_title
;
Structure prediction by ZEFSAII (Michael W. Deem and Ramdas Pophale) SiO2 
 PCOD8048059
Probable space group: C 2
;
_chemical_formula_sum "Si O2"
_cell_formula_units_Z 20
_cell_length_a 13.992555
_cell_length_b 5.162130
_cell_length_c 27.390539
_cell_angle_alpha 90.000000
_cell_angle_beta 156.110370
_cell_angle_gamma 90.000000
_cell_volume 801.227675
_symmetry_space_group_name_H-M "C 2"
_symmetry_group_IT_number 5
_symmetry_cell_setting 'monoclinic'
loop_
_space_group_symop_operation_xyz
x,y,z
-x,y,-z
1/2+x,1/2+y,z
1/2-x,1/2+y,-z
loop_
_atom_site_type_symbol
_atom_site_label
_atom_site_fract_x
_atom_site_fract_y
_atom_site_fract_z
Si Si1 0.885693 0.636260 0.046756
Si Si2 0.291455 0.527698 0.492104
Si Si3 0.783552 0.203025 0.134244
Si Si4 0.319854 0.980416 0.731686
Si Si5 0.455993 0.199043 0.249704
O O1 0.926096 0.658823 0.005475
O O2 0.698286 0.409838 0.970695
O O3 0.127847 0.558641 0.187513
O O4 0.158192 0.270975 0.448712
O O5 0.545972 0.416502 0.595258
O O6 0.132978 0.653818 0.376447
O O7 0.017557 0.234385 0.208522
O O8 0.760541 0.467800 0.155169
O O9 0.817504 0.968782 0.188322
O O10 0.390398 0.214040 0.728293
#
# Coordination Sequence:
#
# PCOD8048059 Si02
#       5
#     4   4   4   4   4
#     4  10  16  31  55  95 112 133 179 251 290 326
#     4  12  27  41  56  82 123 161 192 233 288 344
#     4   9  18  33  62  91 109 136 187 250 284 326
#     4   9  22  36  63  86 112 150 193 236 281 339
#     4  10  20  38  60  83 114 144 199 238 280 329
#
# _framework density 24.961697000000001
#
# number of rings (size 3 to 8) (size 9 to 14) (size 15 to 20)
#    1.200    0.800    2.000    1.800    2.800    0.000 
#    3.600    0.000    0.000    7.200    0.000    0.000 
#    0.000    0.000    0.000    0.000    0.000    0.000 
#
# Total GULP energy -123896.187938 kJ/mol
# GULP energy per Si atom -12389.618794 kJ/mol
# Density = 2.490488 g / cm^3
# Si number density = 24.961697 Si / 1000 Ang^3
#
#
#
# Elastic Constant Matrix: (Units=GPa)
#
#
# Indices 1 2 3 4 5 6 
#
# 1 43.7463 12.3721 20.4399 0.0150 -10.5713 -0.0025
# 2 12.3721 157.2693 34.9000 0.0301 1.1752 -0.0010
# 3 20.4399 34.9000 147.2258 0.0449 9.5772 -0.0045
# 4 0.0150 0.0301 0.0449 38.5873 -0.0229 -8.2675
# 5 -10.5713 1.1752 9.5772 -0.0229 36.6204 0.0046
# 6 -0.0025 -0.0010 -0.0045 -8.2675 0.0046 25.0873
#
#
#
# Elastic Compliance Matrix: (Units=1/GPa)
#
#
# Indices 1 2 3 4 5 6 
#
# 1 0.027300 -0.001313 -0.004063 0.000001 0.008986 0.000000
# 2 -0.001313 0.006776 -0.001409 -0.000004 -0.000228 -0.000001
# 3 -0.004063 -0.001409 0.007898 -0.000009 -0.003193 -0.000001
# 4 0.000001 -0.000004 -0.000009 0.027884 0.000019 0.009189
# 5 0.008986 -0.000228 -0.003193 0.000019 0.030744 0.000001
# 6 0.000000 -0.000001 -0.000001 0.009189 0.000001 0.042889
#
#
# Mechanical properties :
#
#
# Convention : Reuss Voigt Hill
#
# Bulk Modulus (GPa) = 35.20704 53.74059 44.47381
# Shear Modulus (GPa) = 30.02444 38.76097 34.39270
#
# Velocity S-wave (km/s) = 3.47193 3.94486 3.71593
# Velocity P-wave (km/s) = 5.49613 6.50578 6.02215
#
# Compressibility (1/GPa) = 0.02840341
#
# Stress axis : x y z
#
# Youngs Moduli (GPa) = 36.62942 147.57457 126.61083
#
# Poissons Ratio (x) = 0.19378 0.51448
# Poissons Ratio (y) = 0.04810 0.17842
# Poissons Ratio (z) = 0.14884 0.20796
#
# Static dielectric constant tensor:
#      x y z
#    x 4.450850 -0.000020 -0.182730 
#    y -0.000020 4.356150 0.000040 
#    z -0.182730 0.000040 4.371320 
# 
# 
# High freq. dielectric constant tensor:
#      x y z
#    x 1.993340 0.000000 -0.008220 
#    y 0.000000 1.995020 0.000000 
#    z -0.008220 0.000000 2.005700 
# 
# From -- ./inp_files/43606.got.cif
#   From: 2010.03.12/outbox.cif.g09.slc.cpg/sg5_22_cif.got.tgz:43606.got - 2010.03.31 09:47:26.
