data_PCOD8048187
_publ_section_title
;
Structure prediction by ZEFSAII (Michael W. Deem and Ramdas Pophale) SiO2 
 PCOD8048187
Probable space group: C 2
;
_chemical_formula_sum "Si O2"
_cell_formula_units_Z 30
_cell_length_a 13.485558
_cell_length_b 24.462404
_cell_length_c 13.100784
_cell_angle_alpha 90.000000
_cell_angle_beta 157.865797
_cell_angle_gamma 90.000000
_cell_volume 1628.358637
_symmetry_space_group_name_H-M "C 2"
_symmetry_group_IT_number 5
_symmetry_cell_setting 'monoclinic'
loop_
_space_group_symop_operation_xyz
x,y,z
-x,y,-z
1/2+x,1/2+y,z
1/2-x,1/2+y,-z
loop_
_atom_site_type_symbol
_atom_site_label
_atom_site_fract_x
_atom_site_fract_y
_atom_site_fract_z
Si Si1 0.566959 0.811380 0.349156
Si Si2 0.000000 0.456707 0.000000
Si Si3 0.527909 0.358232 0.909802
Si Si4 0.453929 0.700058 0.572518
Si Si5 0.952881 0.630257 0.070990
Si Si6 0.563210 0.454356 0.301310
Si Si7 0.569513 0.015294 0.867513
Si Si8 0.841967 0.871377 0.440668
O O1 0.831702 0.817076 0.666739
O O2 0.494777 0.747892 0.295638
O O3 0.639632 0.828673 0.301312
O O4 0.328420 0.849636 0.158955
O O5 0.786011 0.420095 0.743100
O O6 0.127162 0.495779 0.037218
O O7 0.429296 0.420683 0.797531
O O8 0.500000 0.343279 0.000000
O O9 0.500000 0.721003 0.500000
O O10 0.160181 0.676431 0.302208
O O11 0.657972 0.652818 0.797059
O O12 0.983588 0.579935 0.179341
O O13 0.000000 0.610482 0.000000
O O14 0.491587 0.404710 0.313979
O O15 0.837066 0.483374 0.588309
O O16 0.343764 0.500634 0.074928
O O17 0.000000 0.839678 0.500000
#
# Coordination Sequence:
#
# PCOD8048187 Si02
#       8
#     4   2   4   4   4   4   4   4
#     4  11  23  35  56  80 108 149 188 221 277 316
#     4  10  18  30  50  74 114 142 172 202 272 320
#     4  11  21  37  55  78 110 144 187 225 263 324
#     4  10  20  35  51  73 105 138 185 234 265 308
#     4  10  20  33  51  76 103 141 182 218 272 334
#     4  10  21  32  49  80 109 141 173 209 264 333
#     4  11  19  32  50  76 111 141 172 208 274 333
#     4  10  20  33  51  78 115 146 173 217 261 344
#
# _framework density 18.423461
#
# number of rings (size 3 to 8) (size 9 to 14) (size 15 to 20)
#    0.000    1.600    2.000    5.200    1.867    1.067 
#    0.000    0.000    0.000    0.000    0.000    3.733 
#    0.000    0.000    0.000    0.000    0.000    0.000 
#
# Total GULP energy -185875.676197 kJ/mol
# GULP energy per Si atom -12391.711746 kJ/mol
# Density = 1.838153 g / cm^3
# Si number density = 18.423461 Si / 1000 Ang^3
#
#
#
# Elastic Constant Matrix: (Units=GPa)
#
#
# Indices 1 2 3 4 5 6 
#
# 1 65.9736 17.9946 18.0493 0.0012 11.3384 -0.0020
# 2 17.9946 86.1805 17.2057 -0.0025 3.0104 -0.0019
# 3 18.0493 17.2057 87.5732 -0.0039 10.7688 0.0058
# 4 0.0012 -0.0025 -0.0039 32.2535 -0.0035 -9.8840
# 5 11.3384 3.0104 10.7688 -0.0035 20.0282 -0.0002
# 6 -0.0020 -0.0019 0.0058 -9.8840 -0.0002 32.8231
#
#
#
# Elastic Compliance Matrix: (Units=1/GPa)
#
#
# Indices 1 2 3 4 5 6 
#
# 1 0.018039 -0.003054 -0.002054 -0.000002 -0.008649 0.000001
# 2 -0.003054 0.012601 -0.001955 0.000001 0.000886 0.000001
# 3 -0.002054 -0.001955 0.012900 0.000000 -0.005479 -0.000003
# 4 -0.000002 0.000001 0.000000 0.034156 0.000007 0.010286
# 5 -0.008649 0.000886 -0.005479 0.000007 0.057639 0.000003
# 6 0.000001 0.000001 -0.000003 0.010286 0.000003 0.033564
#
#
# Mechanical properties :
#
#
# Convention : Reuss Voigt Hill
#
# Bulk Modulus (GPa) = 33.99923 38.46962 36.23443
# Shear Modulus (GPa) = 25.92947 29.45279 27.69113
#
# Velocity S-wave (km/s) = 3.75562 4.00266 3.88111
# Velocity P-wave (km/s) = 6.10743 6.50291 6.30827
#
# Compressibility (1/GPa) = 0.02941243
#
# Stress axis : x y z
#
# Youngs Moduli (GPa) = 55.43524 79.36074 77.51716
#
# Poissons Ratio (x) = 0.24239 0.15925
# Poissons Ratio (y) = 0.16932 0.15156
# Poissons Ratio (z) = 0.11388 0.15516
#
# Static dielectric constant tensor:
#      x y z
#    x 3.199370 -0.000020 0.366500 
#    y -0.000020 3.254270 0.000040 
#    z 0.366500 0.000040 3.144950 
# 
# 
# High freq. dielectric constant tensor:
#      x y z
#    x 1.679940 0.000000 0.009010 
#    y 0.000000 1.697910 0.000000 
#    z 0.009010 0.000000 1.728420 
# 
# From -- ./inp_files/55072.got.cif
#   From: 2010.03.12/outbox.cif.g09.slc.cpg/sg5_28_cif.got.tgz:55072.got - 2010.03.31 09:47:26.
