data_PCOD8048811
_publ_section_title
;
Structure prediction by ZEFSAII (Michael W. Deem and Ramdas Pophale) SiO2 
 PCOD8048811
Probable space group: C 2
;
_chemical_formula_sum "Si O2"
_cell_formula_units_Z 22
_cell_length_a 27.730184
_cell_length_b 5.763799
_cell_length_c 7.084072
_cell_angle_alpha 90.000000
_cell_angle_beta 112.276818
_cell_angle_gamma 90.000000
_cell_volume 1047.747797
_symmetry_space_group_name_H-M "C 2"
_symmetry_group_IT_number 5
_symmetry_cell_setting 'monoclinic'
loop_
_space_group_symop_operation_xyz
x,y,z
-x,y,-z
1/2+x,1/2+y,z
1/2-x,1/2+y,-z
loop_
_atom_site_type_symbol
_atom_site_label
_atom_site_fract_x
_atom_site_fract_y
_atom_site_fract_z
Si Si1 0.871635 0.394510 0.733944
Si Si2 0.587036 0.977232 0.804431
Si Si3 0.836090 0.714249 0.355084
Si Si4 0.736824 0.700600 0.386111
Si Si5 0.000000 0.774852 0.500000
Si Si6 0.414175 0.596406 0.482311
O O1 0.849798 0.610185 0.582587
O O2 0.824767 0.230187 0.741426
O O3 0.912708 0.262709 0.660569
O O4 0.904304 0.480285 0.960410
O O5 0.575890 0.724604 0.701976
O O6 0.639119 0.070977 0.779104
O O7 0.535644 0.127240 0.692855
O O8 0.772839 0.711202 0.248947
O O9 0.857934 0.974368 0.382660
O O10 0.744508 0.437588 0.476876
O O11 0.038040 0.920312 0.419655
#
# Coordination Sequence:
#
# PCOD8048811 Si02
#       6
#     4   4   4   4   2   4
#     4  10  21  39  64  92 128 166 218 262 319 393
#     4  10  22  41  61  93 124 163 220 269 321 391
#     4   9  20  39  59  88 131 169 203 263 321 381
#     4  10  19  38  65  95 137 182 215 262 331 393
#     4  10  22  42  62  84 128 168 206 276 340 374
#     4  10  20  41  63  85 125 166 206 271 322 382
#
# _framework density 20.997419000000001
#
# number of rings (size 3 to 8) (size 9 to 14) (size 15 to 20)
#    0.000    2.182    1.818    0.545    0.000    2.909 
#    3.273   21.818    0.000    0.000    0.000    0.000 
#    0.000    0.000    0.000    0.000    0.000    0.000 
#
# Total GULP energy -136279.941274 kJ/mol
# GULP energy per Si atom -12389.085570 kJ/mol
# Density = 2.094963 g / cm^3
# Si number density = 20.997419 Si / 1000 Ang^3
#
#
#
# Elastic Constant Matrix: (Units=GPa)
#
#
# Indices 1 2 3 4 5 6 
#
# 1 80.8601 12.0737 11.2192 0.0000 0.7224 0.0000
# 2 12.0737 98.5185 22.8122 0.0000 -0.6415 0.0000
# 3 11.2192 22.8122 104.6727 0.0000 -0.6536 0.0000
# 4 0.0000 0.0000 0.0000 8.9185 0.0000 0.9338
# 5 0.7224 -0.6415 -0.6536 0.0000 20.4394 0.0000
# 6 0.0000 0.0000 0.0000 0.9338 0.0000 28.7928
#
#
#
# Elastic Compliance Matrix: (Units=1/GPa)
#
#
# Indices 1 2 3 4 5 6 
#
# 1 0.012718 -0.001312 -0.001080 0.000000 -0.000525 0.000000
# 2 -0.001312 0.010827 -0.002217 0.000000 0.000315 0.000000
# 3 -0.001080 -0.002217 0.010154 0.000000 0.000293 0.000000
# 4 0.000000 0.000000 0.000000 0.112509 0.000000 -0.003649
# 5 -0.000525 0.000315 0.000293 0.000000 0.048963 0.000000
# 6 0.000000 0.000000 0.000000 -0.003649 0.000000 0.034849
#
#
# Mechanical properties :
#
#
# Convention : Reuss Voigt Hill
#
# Bulk Modulus (GPa) = 40.84972 41.80683 41.32828
# Shear Modulus (GPa) = 20.21036 27.49322 23.85179
#
# Velocity S-wave (km/s) = 3.10581 3.62244 3.37403
# Velocity P-wave (km/s) = 5.68843 6.11962 5.90796
#
# Compressibility (1/GPa) = 0.02447997
#
# Stress axis : x y z
#
# Youngs Moduli (GPa) = 78.63164 92.36571 98.47962
#
# Poissons Ratio (x) = 0.12116 0.10641
# Poissons Ratio (y) = 0.10315 0.21832
# Poissons Ratio (z) = 0.08496 0.20477
#
# Static dielectric constant tensor:
#      x y z
#    x 4.224980 0.000000 -0.185560 
#    y 0.000000 4.086500 0.000000 
#    z -0.185560 0.000000 3.215930 
# 
# 
# High freq. dielectric constant tensor:
#      x y z
#    x 1.845930 0.000000 -0.018830 
#    y 0.000000 1.838830 0.000000 
#    z -0.018830 0.000000 1.766820 
# 
# From -- ./inp_files/10995.got.cif
#   From: 2010.03.12/outbox.cif.g09.slc.cpg/sg5_6_cif.got.tgz:10995.got - 2010.03.31 09:47:26.
