data_PCOD8048806
_publ_section_title
;
Structure prediction by ZEFSAII (Michael W. Deem and Ramdas Pophale) SiO2 
 PCOD8048806
Probable space group: C 2
;
_chemical_formula_sum "Si O2"
_cell_formula_units_Z 28
_cell_length_a 20.694895
_cell_length_b 10.133261
_cell_length_c 15.564238
_cell_angle_alpha 90.000000
_cell_angle_beta 152.316000
_cell_angle_gamma 90.000000
_cell_volume 1516.403033
_symmetry_space_group_name_H-M "C 2"
_symmetry_group_IT_number 5
_symmetry_cell_setting 'monoclinic'
loop_
_space_group_symop_operation_xyz
x,y,z
-x,y,-z
1/2+x,1/2+y,z
1/2-x,1/2+y,-z
loop_
_atom_site_type_symbol
_atom_site_label
_atom_site_fract_x
_atom_site_fract_y
_atom_site_fract_z
Si Si1 0.000000 0.568531 0.500000
Si Si2 0.177306 0.330283 0.756777
Si Si3 0.881247 0.694058 0.522742
Si Si4 0.905921 0.229430 0.517026
Si Si5 0.756397 0.973651 0.375082
Si Si6 0.750774 0.446290 0.441120
Si Si7 0.014497 0.783705 0.851734
Si Si8 0.500000 0.100939 0.000000
O O1 0.132353 0.477600 0.677839
O O2 0.022637 0.659322 0.444306
O O3 0.179502 0.245061 0.672178
O O4 0.068513 0.264368 0.695751
O O5 0.329216 0.336817 0.977091
O O6 0.806019 0.828553 0.408864
O O7 0.769163 0.577030 0.405275
O O8 0.974352 0.707961 0.717491
O O9 0.842250 0.325500 0.513655
O O10 0.884627 0.078109 0.520996
O O11 0.695612 0.975371 0.399831
O O12 0.635933 0.009745 0.165994
O O13 0.588130 0.406987 0.252248
O O14 0.005093 0.688097 0.921098
#
# Coordination Sequence:
#
# PCOD8048806 Si02
#       8
#     2   4   4   4   4   4   4   2
#     4  10  22  44  62  82 132 166 200 244 308 364
#     4  10  20  38  67  88 111 161 217 245 278 368
#     4  11  23  42  60  91 129 162 192 255 319 353
#     4  10  19  38  64  87 118 165 204 238 303 365
#     4  11  22  37  61  93 125 157 197 253 313 355
#     4  11  19  40  64  86 121 165 198 248 302 363
#     4  11  22  38  68  92 118 157 216 249 292 365
#     4  12  20  38  62  98 120 150 212 262 286 362
#
# _framework density 18.464746999999999
#
# number of rings (size 3 to 8) (size 9 to 14) (size 15 to 20)
#    0.000    1.429    7.143    0.857    0.000    1.143 
#    7.714    1.429    0.000    0.000    0.000    0.000 
#    0.000    0.000    0.000    0.000    0.000    0.000 
#
# Total GULP energy -173594.775193 kJ/mol
# GULP energy per Si atom -12399.626800 kJ/mol
# Density = 1.842272 g / cm^3
# Si number density = 18.464747 Si / 1000 Ang^3
#
#
#
# Elastic Constant Matrix: (Units=GPa)
#
#
# Indices 1 2 3 4 5 6 
#
# 1 120.6989 54.6055 50.3961 0.0000 -2.7970 0.0000
# 2 54.6055 136.9110 43.8934 0.0000 0.1904 0.0000
# 3 50.3961 43.8934 121.0748 0.0000 7.9727 0.0000
# 4 0.0000 0.0000 0.0000 20.2989 0.0000 -5.3879
# 5 -2.7970 0.1904 7.9727 0.0000 24.3035 0.0000
# 6 0.0000 0.0000 0.0000 -5.3879 0.0000 21.8731
#
#
#
# Elastic Compliance Matrix: (Units=1/GPa)
#
#
# Indices 1 2 3 4 5 6 
#
# 1 0.011412 -0.003370 -0.003697 0.000000 0.002552 0.000000
# 2 -0.003370 0.009281 -0.001974 0.000000 0.000187 0.000000
# 3 -0.003697 -0.001974 0.010773 0.000000 -0.003944 0.000000
# 4 0.000000 0.000000 0.000000 0.052710 0.000000 0.012984
# 5 0.002552 0.000187 -0.003944 0.000000 0.042732 0.000000
# 6 0.000000 0.000000 0.000000 0.012984 0.000000 0.048917
#
#
# Mechanical properties :
#
#
# Convention : Reuss Voigt Hill
#
# Bulk Modulus (GPa) = 74.71091 75.16388 74.93739
# Shear Modulus (GPa) = 25.20557 28.61441 26.90999
#
# Velocity S-wave (km/s) = 3.69869 3.94087 3.82169
# Velocity P-wave (km/s) = 7.66744 7.84234 7.75538
#
# Compressibility (1/GPa) = 0.01338493
#
# Stress axis : x y z
#
# Youngs Moduli (GPa) = 87.62419 107.74934 92.82106
#
# Poissons Ratio (x) = 0.36313 0.34312
# Poissons Ratio (y) = 0.29531 0.18324
# Poissons Ratio (z) = 0.32391 0.21271
#
# Static dielectric constant tensor:
#      x y z
#    x 3.557960 0.000000 0.029100 
#    y 0.000000 3.441950 0.000000 
#    z 0.029100 0.000000 3.427480 
# 
# 
# High freq. dielectric constant tensor:
#      x y z
#    x 1.728640 0.000000 -0.000910 
#    y 0.000000 1.718480 0.000000 
#    z -0.000910 0.000000 1.696360 
# 
# From -- ./inp_files/42054.got.cif
#   From: 2010.03.12/outbox.cif.g09.slc.cpg/sg5_22_cif.got.tgz:42054.got - 2010.03.31 09:47:26.
