data_PCOD8048999
_publ_section_title
;
Structure prediction by ZEFSAII (Michael W. Deem and Ramdas Pophale) SiO2 
 PCOD8048999
Probable space group: C 2
;
_chemical_formula_sum "Si O2"
_cell_formula_units_Z 30
_cell_length_a 14.987768
_cell_length_b 11.381917
_cell_length_c 24.758743
_cell_angle_alpha 90.000000
_cell_angle_beta 159.620064
_cell_angle_gamma 90.000000
_cell_volume 1470.836398
_symmetry_space_group_name_H-M "C 2"
_symmetry_group_IT_number 5
_symmetry_cell_setting 'monoclinic'
loop_
_space_group_symop_operation_xyz
x,y,z
-x,y,-z
1/2+x,1/2+y,z
1/2-x,1/2+y,-z
loop_
_atom_site_type_symbol
_atom_site_label
_atom_site_fract_x
_atom_site_fract_y
_atom_site_fract_z
Si Si1 0.779248 0.187370 0.684235
Si Si2 0.440859 0.029557 0.357815
Si Si3 0.191426 0.928438 0.753339
Si Si4 0.729957 0.955119 0.318279
Si Si5 0.025519 0.134098 0.312894
Si Si6 0.521328 0.112973 0.736158
Si Si7 0.500000 0.765510 0.000000
Si Si8 0.820528 0.295787 0.515462
O O1 0.500000 0.178276 0.500000
O O2 0.791242 0.093088 0.740725
O O3 0.848132 0.320251 0.738902
O O4 0.995670 0.155019 0.762983
O O5 0.683924 0.110337 0.505118
O O6 0.392842 0.032614 0.266065
O O7 0.506668 0.897119 0.415589
O O8 0.254209 0.001646 0.734200
O O9 0.925357 0.856414 0.594916
O O10 0.412924 0.841771 0.898974
O O11 0.164840 0.027494 0.783946
O O12 0.000000 0.962544 0.500000
O O13 0.534265 0.029010 0.244041
O O14 0.981890 0.247173 0.326613
O O15 0.277515 0.198244 0.583656
O O16 0.764995 0.190920 0.890403
#
# Coordination Sequence:
#
# PCOD8048999 Si02
#       8
#     4   4   4   4   4   4   2   4
#     4   9  16  27  49  79 111 141 172 215 284 352
#     4   9  16  29  51  82 114 146 182 234 293 338
#     4  10  20  35  55  77 111 150 188 232 283 347
#     4  11  19  33  60  90 112 139 183 242 301 342
#     4   9  16  29  48  77 109 141 179 227 284 333
#     4  10  20  34  57  83 114 151 194 238 282 347
#     4  10  22  42  56  72 110 166 204 226 272 340
#     4   9  16  31  54  82 116 144 179 244 303 338
#
# _framework density 20.396557000000001
#
# number of rings (size 3 to 8) (size 9 to 14) (size 15 to 20)
#    0.000    2.400    0.000    7.200    0.000    0.000 
#    0.000   15.333    0.000    8.000    0.000    0.000 
#    0.000    0.000    0.000    0.000    0.000    0.000 
#
# Total GULP energy -185829.909590 kJ/mol
# GULP energy per Si atom -12388.660639 kJ/mol
# Density = 2.035013 g / cm^3
# Si number density = 20.396557 Si / 1000 Ang^3
#
#
#
# Elastic Constant Matrix: (Units=GPa)
#
#
# Indices 1 2 3 4 5 6 
#
# 1 118.6914 50.9614 25.1250 0.0408 9.1938 -0.0033
# 2 50.9614 116.5476 31.4433 0.0393 10.9072 -0.0111
# 3 25.1250 31.4433 47.5082 0.1321 0.3165 -0.0360
# 4 0.0408 0.0393 0.1321 13.5802 -0.0354 4.2098
# 5 9.1938 10.9072 0.3165 -0.0354 13.3043 0.0104
# 6 -0.0033 -0.0111 -0.0360 4.2098 0.0104 41.9477
#
#
#
# Elastic Compliance Matrix: (Units=1/GPa)
#
#
# Indices 1 2 3 4 5 6 
#
# 1 0.011005 -0.003419 -0.003526 -0.000001 -0.004718 -0.000002
# 2 -0.003419 0.012539 -0.006439 0.000017 -0.007764 -0.000002
# 3 -0.003526 -0.006439 0.027129 -0.000230 0.007069 0.000043
# 4 -0.000001 0.000017 -0.000230 0.076004 0.000200 -0.007628
# 5 -0.004718 -0.007764 0.007069 0.000200 0.084621 -0.000037
# 6 -0.000002 -0.000002 0.000043 -0.007628 -0.000037 0.024605
#
#
# Mechanical properties :
#
#
# Convention : Reuss Voigt Hill
#
# Bulk Modulus (GPa) = 41.83211 55.31186 48.57198
# Shear Modulus (GPa) = 18.47478 25.44759 21.96118
#
# Velocity S-wave (km/s) = 3.01288 3.53603 3.28489
# Velocity P-wave (km/s) = 5.71465 6.62182 6.18489
#
# Compressibility (1/GPa) = 0.02390508
#
# Stress axis : x y z
#
# Youngs Moduli (GPa) = 90.86687 79.75068 36.86127
#
# Poissons Ratio (x) = 0.27270 0.12996
# Poissons Ratio (y) = 0.31071 0.23735
# Poissons Ratio (z) = 0.32036 0.51351
#
# Static dielectric constant tensor:
#      x y z
#    x 3.967130 0.000020 0.012680 
#    y 0.000020 3.869900 -0.000050 
#    z 0.012680 -0.000050 3.115440 
# 
# 
# High freq. dielectric constant tensor:
#      x y z
#    x 1.794900 0.000000 -0.006350 
#    y 0.000000 1.806150 0.000000 
#    z -0.006350 0.000000 1.728760 
# 
# From -- ./inp_files/42671.got.cif
#   From: 2010.03.12/outbox.cif.g09.slc.cpg/sg5_22_cif.got.tgz:42671.got - 2010.03.31 09:47:26.
