data_PCOD8048045
_publ_section_title
;
Structure prediction by ZEFSAII (Michael W. Deem and Ramdas Pophale) SiO2 
 PCOD8048045
Probable space group: C 2
;
_chemical_formula_sum "Si O2"
_cell_formula_units_Z 28
_cell_length_a 19.265903
_cell_length_b 5.309014
_cell_length_c 15.365594
_cell_angle_alpha 90.000000
_cell_angle_beta 67.216680
_cell_angle_gamma 90.000000
_cell_volume 1449.012644
_symmetry_space_group_name_H-M "C 2"
_symmetry_group_IT_number 5
_symmetry_cell_setting 'monoclinic'
loop_
_space_group_symop_operation_xyz
x,y,z
-x,y,-z
1/2+x,1/2+y,z
1/2-x,1/2+y,-z
loop_
_atom_site_type_symbol
_atom_site_label
_atom_site_fract_x
_atom_site_fract_y
_atom_site_fract_z
Si Si1 0.204661 0.078430 0.041350
Si Si2 0.602323 0.525748 0.242908
Si Si3 0.937168 0.535618 0.105355
Si Si4 0.489167 0.025934 0.744243
Si Si5 0.910347 0.035743 0.052182
Si Si6 0.572290 0.033952 0.527807
Si Si7 0.090221 0.034179 0.448670
O O1 0.180908 0.053567 0.153546
O O2 0.238968 0.354559 0.010412
O O3 0.128252 0.055741 0.022771
O O4 0.570631 0.248624 0.238593
O O5 0.619239 0.550853 0.336410
O O6 0.547056 0.749601 0.240501
O O7 0.888175 0.278560 0.121767
O O8 0.972329 0.564892 0.182411
O O9 0.883852 0.777852 0.112730
O O10 0.000000 0.512305 0.000000
O O11 0.550985 0.048140 0.638924
O O12 0.000000 0.013437 0.000000
O O13 0.500000 0.019779 0.500000
O O14 0.620195 0.779889 0.485999
O O15 0.621734 0.279945 0.478863
O O16 0.000000 0.019842 0.500000
#
# Coordination Sequence:
#
# PCOD8048045 Si02
#       7
#     4   4   4   4   4   4   4
#     4  12  26  42  58  85 119 158 203 241 280 346
#     4  12  20  32  53  74 112 162 186 222 299 350
#     4  10  19  31  48  77 105 140 190 226 273 335
#     4  12  19  29  53  80 113 154 185 227 299 351
#     4  10  20  39  58  77 111 147 190 246 284 325
#     4  10  16  28  41  73 114 146 168 231 290 358
#     4  10  16  29  44  72 109 147 174 227 290 359
#
# _framework density 19.323504
#
# number of rings (size 3 to 8) (size 9 to 14) (size 15 to 20)
#    0.000    1.143    5.714    6.000    0.000    0.000 
#    0.000    0.000    0.000    0.000    0.000    0.000 
#    0.000   22.857    0.000    0.000    0.000    0.000 
#
# Total GULP energy -173522.612004 kJ/mol
# GULP energy per Si atom -12394.472286 kJ/mol
# Density = 1.927952 g / cm^3
# Si number density = 19.323504 Si / 1000 Ang^3
#
#
#
# Elastic Constant Matrix: (Units=GPa)
#
#
# Indices 1 2 3 4 5 6 
#
# 1 35.2413 0.3597 16.1673 0.0016 5.9414 -0.0036
# 2 0.3597 161.7891 17.5000 -0.0014 1.6291 -0.0008
# 3 16.1673 17.5000 138.1686 0.0027 18.8612 -0.0107
# 4 0.0016 -0.0014 0.0027 29.3644 0.0000 8.2301
# 5 5.9414 1.6291 18.8612 0.0000 20.5009 -0.0005
# 6 -0.0036 -0.0008 -0.0107 8.2301 -0.0005 14.6549
#
#
#
# Elastic Compliance Matrix: (Units=1/GPa)
#
#
# Indices 1 2 3 4 5 6 
#
# 1 0.030715 0.000295 -0.002760 -0.000003 -0.006386 0.000007
# 2 0.000295 0.006271 -0.000857 0.000000 0.000204 0.000000
# 3 -0.002760 -0.000857 0.008635 -0.000003 -0.007076 0.000007
# 4 -0.000003 0.000000 -0.000003 0.040416 0.000003 -0.022698
# 5 -0.006386 0.000204 -0.007076 0.000003 0.057123 -0.000006
# 6 0.000007 0.000000 0.000007 -0.022698 -0.000006 0.080983
#
#
# Mechanical properties :
#
#
# Convention : Reuss Voigt Hill
#
# Bulk Modulus (GPa) = 25.65562 44.80588 35.23075
# Shear Modulus (GPa) = 20.51027 32.98218 26.74623
#
# Velocity S-wave (km/s) = 3.26147 4.13588 3.72442
# Velocity P-wave (km/s) = 5.24296 6.78564 6.06356
#
# Compressibility (1/GPa) = 0.03897782
#
# Stress axis : x y z
#
# Youngs Moduli (GPa) = 32.55691 159.46859 115.80863
#
# Poissons Ratio (x) = -0.04696 0.31958
# Poissons Ratio (y) = -0.00959 0.09920
# Poissons Ratio (z) = 0.08984 0.13660
#
# Static dielectric constant tensor:
#      x y z
#    x 2.925190 -0.000050 0.261550 
#    y -0.000050 6.020590 0.000010 
#    z 0.261550 0.000010 3.546500 
# 
# 
# High freq. dielectric constant tensor:
#      x y z
#    x 1.676300 0.000000 0.033060 
#    y 0.000000 1.801930 0.000000 
#    z 0.033060 0.000000 1.744770 
# 
# From -- ./inp_files/55400.got.cif
#   From: 2010.03.12/outbox.cif.g09.slc.cpg/sg5_28_cif.got.tgz:55400.got - 2010.03.31 09:47:26.
