data_PCOD8048496
_publ_section_title
;
Structure prediction by ZEFSAII (Michael W. Deem and Ramdas Pophale) SiO2 
 PCOD8048496
Probable space group: C 2
;
_chemical_formula_sum "Si O2"
_cell_formula_units_Z 28
_cell_length_a 23.069591
_cell_length_b 5.209897
_cell_length_c 14.636424
_cell_angle_alpha 90.000000
_cell_angle_beta 116.792973
_cell_angle_gamma 90.000000
_cell_volume 1570.293735
_symmetry_space_group_name_H-M "C 2"
_symmetry_group_IT_number 5
_symmetry_cell_setting 'monoclinic'
loop_
_space_group_symop_operation_xyz
x,y,z
-x,y,-z
1/2+x,1/2+y,z
1/2-x,1/2+y,-z
loop_
_atom_site_type_symbol
_atom_site_label
_atom_site_fract_x
_atom_site_fract_y
_atom_site_fract_z
Si Si1 0.533082 0.423670 0.622435
Si Si2 0.260833 0.467083 0.802407
Si Si3 0.288425 0.378470 0.014711
Si Si4 0.976832 0.423649 0.587770
Si Si5 0.699300 0.431291 0.366607
Si Si6 0.176877 0.966866 0.770060
Si Si7 0.335923 0.931329 0.556254
O O1 0.500000 0.401375 0.500000
O O2 0.504391 0.668189 0.656743
O O3 0.610535 0.439402 0.666736
O O4 0.510984 0.167338 0.660663
O O5 0.309178 0.443226 0.925059
O O6 0.306320 0.437600 0.746648
O O7 0.226382 0.744425 0.774430
O O8 0.206754 0.243775 0.768398
O O9 0.228845 0.576594 0.992296
O O10 0.339577 0.440103 0.132384
O O11 0.899347 0.440455 0.538286
O O12 0.000000 0.401216 0.500000
O O13 0.664938 0.175405 0.377876
O O14 0.775360 0.435207 0.445094
O O15 0.662916 0.675562 0.382387
#
# Coordination Sequence:
#
# PCOD8048496 Si02
#       7
#     4   4   4   4   4   4   4
#     4  10  21  30  46  75  97 136 168 190 257 288
#     4  10  19  31  53  74 100 135 170 200 260 304
#     4   8  16  30  46  72 100 130 161 206 256 297
#     4  10  21  35  50  70  98 133 171 207 245 290
#     4  10  21  33  52  73  96 139 166 203 256 291
#     4  10  19  31  49  75 110 130 162 214 247 305
#     4  10  21  36  48  71 104 129 172 208 241 305
#
# _framework density 17.831057999999999
#
# number of rings (size 3 to 8) (size 9 to 14) (size 15 to 20)
#    0.000    2.286    0.000    2.571    8.000    0.000 
#    0.000    0.000    0.000    0.000    0.000    6.000 
#    0.000    0.000    0.000    0.000    0.000    0.000 
#
# Total GULP energy -173475.833480 kJ/mol
# GULP energy per Si atom -12391.130963 kJ/mol
# Density = 1.779047 g / cm^3
# Si number density = 17.831058 Si / 1000 Ang^3
#
#
#
# Elastic Constant Matrix: (Units=GPa)
#
#
# Indices 1 2 3 4 5 6 
#
# 1 80.4376 11.9199 16.6255 0.0000 -10.0598 0.0000
# 2 11.9199 124.6464 -3.0372 -0.0001 -1.2574 -0.0001
# 3 16.6255 -3.0372 71.6236 0.0000 -16.6738 0.0000
# 4 0.0000 -0.0001 0.0000 9.7122 0.0000 1.3316
# 5 -10.0598 -1.2574 -16.6738 0.0000 24.7331 0.0001
# 6 0.0000 -0.0001 0.0000 1.3316 0.0001 22.4429
#
#
#
# Elastic Compliance Matrix: (Units=1/GPa)
#
#
# Indices 1 2 3 4 5 6 
#
# 1 0.013592 -0.001316 -0.002300 0.000000 0.003910 0.000000
# 2 -0.001316 0.008170 0.000740 0.000000 0.000379 0.000000
# 3 -0.002300 0.000740 0.016984 0.000000 0.010551 0.000000
# 4 0.000000 0.000000 0.000000 0.103808 0.000000 -0.006159
# 5 0.003910 0.000379 0.010551 0.000000 0.049155 0.000000
# 6 0.000000 0.000000 0.000000 -0.006159 0.000000 0.044923
#
#
# Mechanical properties :
#
#
# Convention : Reuss Voigt Hill
#
# Bulk Modulus (GPa) = 30.30981 36.41377 33.36179
# Shear Modulus (GPa) = 19.73310 28.12427 23.92869
#
# Velocity S-wave (km/s) = 3.33027 3.97579 3.66726
# Velocity P-wave (km/s) = 5.64118 6.44529 6.05659
#
# Compressibility (1/GPa) = 0.03299262
#
# Stress axis : x y z
#
# Youngs Moduli (GPa) = 73.57495 122.39244 58.88032
#
# Poissons Ratio (x) = 0.16111 0.13545
# Poissons Ratio (y) = 0.09685 -0.04359
# Poissons Ratio (z) = 0.16925 -0.09060
#
# Static dielectric constant tensor:
#      x y z
#    x 2.910410 0.000000 -0.108440 
#    y 0.000000 6.206310 0.000000 
#    z -0.108440 0.000000 3.314330 
# 
# 
# High freq. dielectric constant tensor:
#      x y z
#    x 1.643570 0.000000 -0.010810 
#    y 0.000000 1.731200 0.000000 
#    z -0.010810 0.000000 1.664600 
# 
# From -- ./inp_files/55268.got.cif
#   From: 2010.03.12/outbox.cif.g09.slc.cpg/sg5_28_cif.got.tgz:55268.got - 2010.03.31 09:47:26.
