data_PCOD8048474
_publ_section_title
;
Structure prediction by ZEFSAII (Michael W. Deem and Ramdas Pophale) SiO2 
 PCOD8048474
Probable space group: C 2
;
_chemical_formula_sum "Si O2"
_cell_formula_units_Z 30
_cell_length_a 10.037025
_cell_length_b 14.359085
_cell_length_c 11.224569
_cell_angle_alpha 90.000000
_cell_angle_beta 64.430657
_cell_angle_gamma 90.000000
_cell_volume 1459.279900
_symmetry_space_group_name_H-M "C 2"
_symmetry_group_IT_number 5
_symmetry_cell_setting 'monoclinic'
loop_
_space_group_symop_operation_xyz
x,y,z
-x,y,-z
1/2+x,1/2+y,z
1/2-x,1/2+y,-z
loop_
_atom_site_type_symbol
_atom_site_label
_atom_site_fract_x
_atom_site_fract_y
_atom_site_fract_z
Si Si1 0.138668 0.057720 0.666510
Si Si2 0.803019 0.009349 0.800748
Si Si3 0.884090 0.581490 0.740276
Si Si4 0.153402 0.672013 0.997920
Si Si5 0.000000 0.719700 0.500000
Si Si6 0.674996 0.819579 0.920967
Si Si7 0.158674 0.463660 0.607933
Si Si8 0.196131 0.264785 0.645106
O O1 0.216873 0.055016 0.766035
O O2 0.123870 0.166741 0.631750
O O3 0.249792 0.001738 0.538470
O O4 0.980665 0.009521 0.734305
O O5 0.745999 0.922567 0.901700
O O6 0.751869 0.994239 0.686275
O O7 0.743008 0.107987 0.870668
O O8 0.888582 0.607266 0.875760
O O9 0.945827 0.663067 0.634540
O O10 0.992105 0.496768 0.676449
O O11 0.256083 0.758629 0.997948
O O12 0.000000 0.708934 0.000000
O O13 0.142245 0.780120 0.478334
O O14 0.709872 0.767893 0.783714
O O15 0.500000 0.828952 0.000000
O O16 0.116458 0.354169 0.621882
#
# Coordination Sequence:
#
# PCOD8048474 Si02
#       8
#     4   4   4   4   2   4   4   4
#     4  11  22  44  66  98 129 175 227 270 325 402
#     4  11  26  42  66  97 134 174 221 278 328 389
#     4  11  21  41  68  90 130 174 214 268 336 383
#     4  12  24  43  67  95 131 173 223 280 326 387
#     4  10  18  40  68  92 118 170 220 264 320 410
#     4  11  24  45  67  93 129 181 225 264 337 406
#     4  11  22  40  68  97 132 171 221 276 334 386
#     4  10  22  37  69  93 128 174 221 259 332 398
#
# _framework density 20.558084999999998
#
# number of rings (size 3 to 8) (size 9 to 14) (size 15 to 20)
#    0.000    1.067    6.667    1.600    5.600    0.000 
#    2.400    2.667    0.000    0.000    0.000    0.000 
#    0.000    0.000    0.000    0.000    0.000    0.000 
#
# Total GULP energy -185915.801047 kJ/mol
# GULP energy per Si atom -12394.386736 kJ/mol
# Density = 2.051129 g / cm^3
# Si number density = 20.558085 Si / 1000 Ang^3
#
#
#
# Elastic Constant Matrix: (Units=GPa)
#
#
# Indices 1 2 3 4 5 6 
#
# 1 132.2008 54.4101 28.8843 0.0000 -21.6252 0.0000
# 2 54.4101 119.3734 15.7883 0.0000 -4.1501 0.0000
# 3 28.8843 15.7883 47.4766 0.0000 -2.9369 0.0000
# 4 0.0000 0.0000 0.0000 30.3927 0.0000 -0.2122
# 5 -21.6252 -4.1501 -2.9369 0.0000 36.4770 0.0000
# 6 0.0000 0.0000 0.0000 -0.2122 0.0000 32.9200
#
#
#
# Elastic Compliance Matrix: (Units=1/GPa)
#
#
# Indices 1 2 3 4 5 6 
#
# 1 0.011430 -0.004324 -0.005153 0.000000 0.005869 0.000000
# 2 -0.004324 0.010420 -0.000924 0.000000 -0.001452 0.000000
# 3 -0.005153 -0.000924 0.024431 0.000000 -0.001193 0.000000
# 4 0.000000 0.000000 0.000000 0.032904 0.000000 0.000212
# 5 0.005869 -0.001452 -0.001193 0.000000 0.030633 0.000000
# 6 0.000000 0.000000 0.000000 0.000212 0.000000 0.030378
#
#
# Mechanical properties :
#
#
# Convention : Reuss Voigt Hill
#
# Bulk Modulus (GPa) = 39.24811 55.24625 47.24718
# Shear Modulus (GPa) = 29.50008 33.28915 31.39461
#
# Velocity S-wave (km/s) = 3.79220 4.02838 3.91207
# Velocity P-wave (km/s) = 6.18928 6.96913 6.59075
#
# Compressibility (1/GPa) = 0.02547893
#
# Stress axis : x y z
#
# Youngs Moduli (GPa) = 87.49022 95.97171 40.93084
#
# Poissons Ratio (x) = 0.41500 0.21091
# Poissons Ratio (y) = 0.37832 0.03783
# Poissons Ratio (z) = 0.45082 0.08869
#
# Static dielectric constant tensor:
#      x y z
#    x 3.503020 0.000000 0.109300 
#    y 0.000000 3.917710 0.000000 
#    z 0.109300 0.000000 3.667210 
# 
# 
# High freq. dielectric constant tensor:
#      x y z
#    x 1.805850 0.000000 -0.013370 
#    y 0.000000 1.809110 0.000000 
#    z -0.013370 0.000000 1.802340 
# 
# From -- ./inp_files/36380.got.cif
#   From: 2010.03.12/outbox.cif.g09.slc.cpg/sg5_19_cif.got.tgz:36380.got - 2010.03.31 09:47:26.
