data_PCOD8048603
_publ_section_title
;
Structure prediction by ZEFSAII (Michael W. Deem and Ramdas Pophale) SiO2 
 PCOD8048603
Probable space group: C 2
;
_chemical_formula_sum "Si O2"
_cell_formula_units_Z 32
_cell_length_a 11.828117
_cell_length_b 14.785346
_cell_length_c 8.277181
_cell_angle_alpha 90.000000
_cell_angle_beta 90.160082
_cell_angle_gamma 90.000000
_cell_volume 1447.530959
_symmetry_space_group_name_H-M "C 2"
_symmetry_group_IT_number 5
_symmetry_cell_setting 'monoclinic'
loop_
_space_group_symop_operation_xyz
x,y,z
-x,y,-z
1/2+x,1/2+y,z
1/2-x,1/2+y,-z
loop_
_atom_site_type_symbol
_atom_site_label
_atom_site_fract_x
_atom_site_fract_y
_atom_site_fract_z
Si Si1 0.002845 0.244480 0.808647
Si Si2 0.799174 0.133170 0.718303
Si Si3 0.103694 0.963095 0.110352
Si Si4 0.450875 0.130219 0.180276
Si Si5 0.517605 0.317334 0.685340
Si Si6 0.114011 0.098940 0.602888
Si Si7 0.712210 0.431398 0.795390
Si Si8 0.527027 0.940982 0.187703
O O1 0.876165 0.220729 0.750800
O O2 0.031790 0.347869 0.754059
O O3 0.097547 0.181807 0.727415
O O4 0.000000 0.234087 0.000000
O O5 0.684119 0.141435 0.817353
O O6 0.785158 0.123891 0.523161
O O7 0.866750 0.043899 0.771514
O O8 0.072148 0.874096 0.211173
O O9 0.206580 0.940030 0.990236
O O10 0.000000 0.995970 0.000000
O O11 0.505846 0.211530 0.282495
O O12 0.480258 0.033890 0.266476
O O13 0.500000 0.135855 0.000000
O O14 0.500000 0.340677 0.500000
O O15 0.647034 0.340618 0.738058
O O16 0.000000 0.081326 0.500000
O O17 0.146079 0.012153 0.706457
O O18 0.843352 0.431242 0.757218
O O19 0.500000 0.951989 0.000000
#
# Coordination Sequence:
#
# PCOD8048603 Si02
#       8
#     4   4   4   4   4   4   4   4
#     4  10  20  38  64  92 120 156 205 258 308 365
#     4  11  21  39  63  92 125 163 201 252 312 364
#     4  10  19  34  63  94 117 152 205 261 307 357
#     4  11  24  43  61  85 123 167 210 253 299 366
#     4  11  23  40  61  91 125 158 203 259 311 363
#     4  10  21  38  63  97 127 154 199 258 310 365
#     4  11  20  39  66  92 119 161 204 249 306 366
#     4  10  23  41  61  87 121 157 203 254 298 356
#
# _framework density 22.106608000000001
#
# number of rings (size 3 to 8) (size 9 to 14) (size 15 to 20)
#    0.000    1.500    0.000    8.625    0.000    1.000 
#    0.000   13.125    0.000    0.000    0.000    0.000 
#    0.000    0.000    0.000    0.000    0.000    0.000 
#
# Total GULP energy -198339.443273 kJ/mol
# GULP energy per Si atom -12396.215205 kJ/mol
# Density = 2.205629 g / cm^3
# Si number density = 22.106608 Si / 1000 Ang^3
#
#
#
# Elastic Constant Matrix: (Units=GPa)
#
#
# Indices 1 2 3 4 5 6 
#
# 1 59.1137 24.3773 24.0410 0.0000 -14.0853 0.0000
# 2 24.3773 161.1182 46.4210 0.0000 2.8100 0.0000
# 3 24.0410 46.4210 115.7906 0.0000 -12.4257 0.0000
# 4 0.0000 0.0000 0.0000 4.3657 0.0000 -8.5077
# 5 -14.0853 2.8100 -12.4257 0.0000 28.2341 0.0000
# 6 0.0000 0.0000 0.0000 -8.5077 0.0000 -9.6832
#
#
#
# Elastic Compliance Matrix: (Units=1/GPa)
#
#
# Indices 1 2 3 4 5 6 
#
# 1 0.021334 -0.002749 -0.002263 0.000000 0.009921 0.000000
# 2 -0.002749 0.007484 -0.002789 0.000000 -0.003343 0.000000
# 3 -0.002263 -0.002789 0.010635 0.000000 0.003829 0.000000
# 4 0.000000 0.000000 0.000000 0.084456 0.000000 -0.074203
# 5 0.009921 -0.003343 0.003829 0.000000 0.042385 0.000000
# 6 0.000000 0.000000 0.000000 -0.074203 0.000000 -0.038077
#
#
# Mechanical properties :
#
#
# Convention : Reuss Voigt Hill
#
# Bulk Modulus (GPa) = 41.92361 58.41125 50.16743
# Shear Modulus (GPa) = 32.94476 20.66219 26.80347
#
# Velocity S-wave (km/s) = 3.86459 3.06054 3.48582
# Velocity P-wave (km/s) = 6.23850 6.24252 6.24051
#
# Compressibility (1/GPa) = 0.02385291
#
# Stress axis : x y z
#
# Youngs Moduli (GPa) = 46.87271 133.61334 94.02974
#
# Poissons Ratio (x) = 0.36730 0.21277
# Poissons Ratio (y) = 0.12885 0.26220
# Poissons Ratio (z) = 0.10607 0.37258
#
# Static dielectric constant tensor:
#      x y z
#    x 3.805220 0.000000 -0.203570 
#    y 0.000000 4.356830 0.000000 
#    z -0.203570 0.000000 4.238150 
# 
# 
# High freq. dielectric constant tensor:
#      x y z
#    x 1.848180 0.000000 -0.006310 
#    y 0.000000 1.887270 0.000000 
#    z -0.006310 0.000000 1.865660 
# 
# From -- ./inp_files/20672.got.cif
#   From: 2010.03.12/outbox.cif.g09.slc.cpg/sg5_11_cif.got.tgz:20672.got - 2010.03.31 09:47:26.
