data_PCOD8048289
_publ_section_title
;
Structure prediction by ZEFSAII (Michael W. Deem and Ramdas Pophale) SiO2 
 PCOD8048289
Probable space group: C 2
;
_chemical_formula_sum "Si O2"
_cell_formula_units_Z 26
_cell_length_a 10.588567
_cell_length_b 15.948012
_cell_length_c 8.588641
_cell_angle_alpha 90.000000
_cell_angle_beta 113.000567
_cell_angle_gamma 90.000000
_cell_volume 1335.034384
_symmetry_space_group_name_H-M "C 2"
_symmetry_group_IT_number 5
_symmetry_cell_setting 'monoclinic'
loop_
_space_group_symop_operation_xyz
x,y,z
-x,y,-z
1/2+x,1/2+y,z
1/2-x,1/2+y,-z
loop_
_atom_site_type_symbol
_atom_site_label
_atom_site_fract_x
_atom_site_fract_y
_atom_site_fract_z
Si Si1 0.230997 0.456000 0.393565
Si Si2 0.838444 0.128374 0.399127
Si Si3 0.299326 0.796422 0.204934
Si Si4 0.225993 0.822436 0.830308
Si Si5 0.921203 0.855325 0.689027
Si Si6 0.354239 0.197106 0.445529
Si Si7 0.000000 0.407324 0.500000
O O1 0.268716 0.540188 0.316191
O O2 0.194723 0.382952 0.251998
O O3 0.360884 0.435337 0.567768
O O4 0.098654 0.465721 0.442919
O O5 0.803458 0.197942 0.252623
O O6 0.767478 0.146406 0.531959
O O7 0.000000 0.120479 0.500000
O O8 0.154883 0.837917 0.184749
O O9 0.420022 0.844507 0.348865
O O10 0.315430 0.808273 0.028020
O O11 0.202946 0.729601 0.747749
O O12 0.081321 0.867824 0.798899
O O13 0.893041 0.777763 0.564147
O O14 0.500000 0.146117 0.500000
#
# Coordination Sequence:
#
# PCOD8048289 Si02
#       7
#     4   4   4   4   4   4   2
#     4  10  21  36  61  85 115 156 199 249 297 351
#     4  11  21  36  58  87 121 154 194 253 300 348
#     4  10  20  35  60  85 118 158 200 242 291 358
#     4  10  18  34  60  87 113 152 201 245 288 362
#     4   8  16  34  57  83 108 150 196 235 290 360
#     4   8  17  33  56  81 111 155 197 230 289 361
#     4  10  22  42  56  82 116 170 206 228 298 370
#
# _framework density 19.475154
#
# number of rings (size 3 to 8) (size 9 to 14) (size 15 to 20)
#    0.000    2.462    0.769    3.692    1.077    0.615 
#    0.000    3.077   10.154    0.000    0.000    0.000 
#    0.000    0.000    0.000    0.000    0.000    0.000 
#
# Total GULP energy -161121.044619 kJ/mol
# GULP energy per Si atom -12393.926509 kJ/mol
# Density = 1.943083 g / cm^3
# Si number density = 19.475154 Si / 1000 Ang^3
#
#
#
# Elastic Constant Matrix: (Units=GPa)
#
#
# Indices 1 2 3 4 5 6 
#
# 1 126.5211 28.0947 33.7038 0.0000 -0.2139 0.0000
# 2 28.0947 74.8949 21.9460 0.0000 -2.0445 0.0000
# 3 33.7038 21.9460 105.6073 0.0000 -12.3832 0.0000
# 4 0.0000 0.0000 0.0000 15.5183 0.0000 -6.4385
# 5 -0.2139 -2.0445 -12.3832 0.0000 21.6763 0.0000
# 6 0.0000 0.0000 0.0000 -6.4385 0.0000 25.1651
#
#
#
# Elastic Compliance Matrix: (Units=1/GPa)
#
#
# Indices 1 2 3 4 5 6 
#
# 1 0.009191 -0.002744 -0.002554 0.000000 -0.001627 0.000000
# 2 -0.002744 0.015040 -0.002236 0.000000 0.000114 0.000000
# 3 -0.002554 -0.002236 0.011491 0.000000 0.006328 0.000000
# 4 0.000000 0.000000 0.000000 0.072093 0.000000 0.018445
# 5 -0.001627 0.000114 0.006328 0.000000 0.049743 0.000000
# 6 0.000000 0.000000 0.000000 0.018445 0.000000 0.044457
#
#
# Mechanical properties :
#
#
# Convention : Reuss Voigt Hill
#
# Bulk Modulus (GPa) = 48.41795 52.72358 50.57077
# Shear Modulus (GPa) = 22.32482 27.35721 24.84102
#
# Velocity S-wave (km/s) = 3.38941 3.75203 3.57532
# Velocity P-wave (km/s) = 6.34294 6.77505 6.56255
#
# Compressibility (1/GPa) = 0.02065350
#
# Stress axis : x y z
#
# Youngs Moduli (GPa) = 108.80675 66.49076 87.02598
#
# Poissons Ratio (x) = 0.18243 0.22224
# Poissons Ratio (y) = 0.29853 0.19462
# Poissons Ratio (z) = 0.27786 0.14870
#
# Static dielectric constant tensor:
#      x y z
#    x 4.314520 0.000000 -0.315480 
#    y 0.000000 3.364360 0.000000 
#    z -0.315480 0.000000 3.343700 
# 
# 
# High freq. dielectric constant tensor:
#      x y z
#    x 1.778930 0.000000 -0.006790 
#    y 0.000000 1.734470 0.000000 
#    z -0.006790 0.000000 1.726700 
# 
# From -- ./inp_files/20464.got.cif
#   From: 2010.03.12/outbox.cif.g09.slc.cpg/sg5_11_cif.got.tgz:20464.got - 2010.03.31 09:47:26.
