data_PCOD8048167
_publ_section_title
;
Structure prediction by ZEFSAII (Michael W. Deem and Ramdas Pophale) SiO2 
 PCOD8048167
Probable space group: C 2
;
_chemical_formula_sum "Si O2"
_cell_formula_units_Z 32
_cell_length_a 19.577094
_cell_length_b 9.383380
_cell_length_c 13.068593
_cell_angle_alpha 90.000000
_cell_angle_beta 42.523071
_cell_angle_gamma 90.000000
_cell_volume 1622.596276
_symmetry_space_group_name_H-M "C 2"
_symmetry_group_IT_number 5
_symmetry_cell_setting 'monoclinic'
loop_
_space_group_symop_operation_xyz
x,y,z
-x,y,-z
1/2+x,1/2+y,z
1/2-x,1/2+y,-z
loop_
_atom_site_type_symbol
_atom_site_label
_atom_site_fract_x
_atom_site_fract_y
_atom_site_fract_z
Si Si1 0.498814 0.497160 0.393367
Si Si2 0.865893 0.909587 0.363355
Si Si3 0.438484 0.879392 0.316258
Si Si4 0.693595 0.102509 0.633384
Si Si5 0.152818 0.373177 0.177557
Si Si6 0.656652 0.742564 0.399108
Si Si7 0.497157 0.614298 0.116681
Si Si8 0.674729 0.585362 0.059340
O O1 0.500000 0.412324 0.500000
O O2 0.438989 0.402253 0.380147
O O3 0.443953 0.647755 0.478701
O O4 0.611909 0.526942 0.227148
O O5 0.830797 0.749775 0.393407
O O6 0.776881 0.020347 0.477404
O O7 0.928978 0.970587 0.196776
O O8 0.541323 0.918926 0.262793
O O9 0.350963 0.857850 0.499247
O O10 0.451377 0.730200 0.243895
O O11 0.405756 0.999902 0.267424
O O12 0.741100 0.144238 0.693546
O O13 0.158940 0.326013 0.289664
O O14 0.199684 0.249081 0.055838
O O15 0.220866 0.509249 0.078989
O O16 0.609334 0.573485 0.028304
O O17 0.500000 0.676124 0.000000
#
# Coordination Sequence:
#
# PCOD8048167 Si02
#       8
#     4   4   4   4   4   4   4   4
#     4  10  17  38  66  87 112 168 215 253 321 391
#     4  10  20  36  59  89 120 156 204 265 320 382
#     4  11  21  42  63  91 126 167 221 275 320 386
#     4  11  21  37  63  92 124 156 212 276 311 379
#     4  11  23  40  65  94 128 172 218 265 332 393
#     4  11  19  39  70  90 117 177 220 252 325 404
#     4  10  21  39  60  82 123 170 207 261 338 387
#     4  10  22  39  61  90 128 166 210 271 318 392
#
# _framework density 19.721481000000001
#
# number of rings (size 3 to 8) (size 9 to 14) (size 15 to 20)
#    0.000    1.500    7.500    0.375    1.750    2.000 
#    4.500    5.625    0.000    0.000    0.000    0.000 
#    0.000    0.000    0.000    0.000    0.000    0.000 
#
# Total GULP energy -198220.456666 kJ/mol
# GULP energy per Si atom -12388.778542 kJ/mol
# Density = 1.967659 g / cm^3
# Si number density = 19.721481 Si / 1000 Ang^3
#
#
#
# Elastic Constant Matrix: (Units=GPa)
#
#
# Indices 1 2 3 4 5 6 
#
# 1 109.2001 27.1556 41.6876 0.0000 -2.0078 0.0000
# 2 27.1556 76.3445 19.4879 0.0000 -19.2270 0.0000
# 3 41.6876 19.4879 61.9565 0.0000 2.6555 0.0000
# 4 0.0000 0.0000 0.0000 23.2716 0.0000 -7.8554
# 5 -2.0078 -19.2270 2.6555 0.0000 31.8543 0.0000
# 6 0.0000 0.0000 0.0000 -7.8554 0.0000 29.8737
#
#
#
# Elastic Compliance Matrix: (Units=1/GPa)
#
#
# Indices 1 2 3 4 5 6 
#
# 1 0.012765 -0.002584 -0.007772 0.000000 -0.000107 0.000000
# 2 -0.002584 0.017904 -0.004365 0.000000 0.011008 0.000000
# 3 -0.007772 -0.004365 0.022958 0.000000 -0.005038 0.000000
# 4 0.000000 0.000000 0.000000 0.047156 0.000000 0.012400
# 5 -0.000107 0.011008 -0.005038 0.000000 0.038450 0.000000
# 6 0.000000 0.000000 0.000000 0.012400 0.000000 0.036735
#
#
# Mechanical properties :
#
#
# Convention : Reuss Voigt Hill
#
# Bulk Modulus (GPa) = 41.34474 47.12925 44.23699
# Shear Modulus (GPa) = 23.42230 27.61126 25.51678
#
# Velocity S-wave (km/s) = 3.44997 3.74580 3.60093
# Velocity P-wave (km/s) = 6.07286 6.53126 6.30622
#
# Compressibility (1/GPa) = 0.02418687
#
# Stress axis : x y z
#
# Youngs Moduli (GPa) = 78.34010 55.85356 43.55692
#
# Poissons Ratio (x) = 0.14430 0.33851
# Poissons Ratio (y) = 0.20240 0.19013
# Poissons Ratio (z) = 0.60883 0.24380
#
# Static dielectric constant tensor:
#      x y z
#    x 4.116760 0.000000 -0.053720 
#    y 0.000000 3.556620 0.000000 
#    z -0.053720 0.000000 3.384080 
# 
# 
# High freq. dielectric constant tensor:
#      x y z
#    x 1.790610 0.000000 -0.009640 
#    y 0.000000 1.749460 0.000000 
#    z -0.009640 0.000000 1.743150 
# 
# From -- ./inp_files/56808.got.cif
#   From: 2010.03.12/outbox.cif.g09.slc.cpg/sg5_29_cif.got.tgz:56808.got - 2010.03.31 09:47:26.
