data_PCOD8048948
_publ_section_title
;
Structure prediction by ZEFSAII (Michael W. Deem and Ramdas Pophale) SiO2 
 PCOD8048948
Probable space group: C 2
;
_chemical_formula_sum "Si O2"
_cell_formula_units_Z 22
_cell_length_a 15.185749
_cell_length_b 12.619757
_cell_length_c 4.948107
_cell_angle_alpha 90.000000
_cell_angle_beta 92.533669
_cell_angle_gamma 90.000000
_cell_volume 947.330512
_symmetry_space_group_name_H-M "C 2"
_symmetry_group_IT_number 5
_symmetry_cell_setting 'monoclinic'
loop_
_space_group_symop_operation_xyz
x,y,z
-x,y,-z
1/2+x,1/2+y,z
1/2-x,1/2+y,-z
loop_
_atom_site_type_symbol
_atom_site_label
_atom_site_fract_x
_atom_site_fract_y
_atom_site_fract_z
Si Si1 0.814308 0.519480 0.099481
Si Si2 0.000000 0.570592 0.000000
Si Si3 0.272601 0.149295 0.592068
Si Si4 0.903657 0.074536 0.543748
Si Si5 0.638047 0.439434 0.960104
Si Si6 0.068716 0.766530 0.306741
O O1 0.801040 0.550254 0.409158
O O2 0.744850 0.425372 0.014607
O O3 0.788337 0.619915 0.907802
O O4 0.918254 0.493591 0.070597
O O5 0.969748 0.649365 0.756180
O O6 0.334650 0.251261 0.536028
O O7 0.168008 0.167848 0.526087
O O8 0.895555 0.034163 0.848829
O O9 0.000000 0.122419 0.500000
O O10 0.884427 0.972144 0.348920
O O11 0.584233 0.333258 0.032748
O O12 0.000000 0.824579 0.500000
#
# Coordination Sequence:
#
# PCOD8048948 Si02
#       6
#     4   2   4   4   4   4
#     4   9  18  35  49  76 105 145 177 212 262 332
#     4  10  20  32  56  76 110 142 184 214 270 328
#     4   9  19  34  50  76 106 140 180 214 264 323
#     4  10  20  35  53  75 108 148 178 211 267 336
#     4  10  22  32  51  81 114 135 174 225 278 312
#     4  11  21  32  53  84 114 134 177 232 278 310
#
# _framework density 23.223154000000001
#
# number of rings (size 3 to 8) (size 9 to 14) (size 15 to 20)
#    0.000    2.182    1.818    1.091    5.091    0.000 
#    0.000    0.000    0.000    0.000   47.273    0.000 
#    0.000    0.000    0.000    0.000    0.000    0.000 
#
# Total GULP energy -136284.823877 kJ/mol
# GULP energy per Si atom -12389.529443 kJ/mol
# Density = 2.317030 g / cm^3
# Si number density = 23.223154 Si / 1000 Ang^3
#
#
#
# Elastic Constant Matrix: (Units=GPa)
#
#
# Indices 1 2 3 4 5 6 
#
# 1 221.8529 25.5936 10.1516 0.0000 -17.7502 0.0000
# 2 25.5936 25.8628 0.1040 0.0000 -5.1886 0.0000
# 3 10.1516 0.1040 69.9617 0.0000 -7.5053 0.0000
# 4 0.0000 0.0000 0.0000 16.2392 0.0000 -1.5487
# 5 -17.7502 -5.1886 -7.5053 0.0000 33.2972 0.0000
# 6 0.0000 0.0000 0.0000 -1.5487 0.0000 26.3005
#
#
#
# Elastic Compliance Matrix: (Units=1/GPa)
#
#
# Indices 1 2 3 4 5 6 
#
# 1 0.005240 -0.004797 -0.000547 0.000000 0.001922 0.000000
# 2 -0.004797 0.044332 0.001124 0.000000 0.004604 0.000000
# 3 -0.000547 0.001124 0.014715 0.000000 0.003200 0.000000
# 4 0.000000 0.000000 0.000000 0.061927 0.000000 0.003647
# 5 0.001922 0.004604 0.003200 0.000000 0.032496 0.000000
# 6 0.000000 0.000000 0.000000 0.003647 0.000000 0.038237
#
#
# Mechanical properties :
#
#
# Convention : Reuss Voigt Hill
#
# Bulk Modulus (GPa) = 17.90634 43.26395 30.58515
# Shear Modulus (GPa) = 22.32119 33.95593 28.13856
#
# Velocity S-wave (km/s) = 3.10362 3.82797 3.48467
# Velocity P-wave (km/s) = 4.53548 6.18125 5.42118
#
# Compressibility (1/GPa) = 0.05584615
#
# Stress axis : x y z
#
# Youngs Moduli (GPa) = 190.84839 22.55699 67.95991
#
# Poissons Ratio (x) = 0.10821 0.03717
# Poissons Ratio (y) = 0.91557 -0.07640
# Poissons Ratio (z) = 0.10438 -0.02536
#
# Static dielectric constant tensor:
#      x y z
#    x 5.072950 0.000000 -0.086370 
#    y 0.000000 3.345490 0.000000 
#    z -0.086370 0.000000 4.117660 
# 
# 
# High freq. dielectric constant tensor:
#      x y z
#    x 1.953890 0.000000 -0.003280 
#    y 0.000000 1.814980 0.000000 
#    z -0.003280 0.000000 1.933380 
# 
# From -- ./inp_files/6720.got.cif
#   From: 2010.03.12/outbox.cif.g09.slc.cpg/sg5_4_cif.got.tgz:6720.got - 2010.03.31 09:47:26.
