data_PCOD8048653
_publ_section_title
;
Structure prediction by ZEFSAII (Michael W. Deem and Ramdas Pophale) SiO2 
 PCOD8048653
Probable space group: C 2
;
_chemical_formula_sum "Si O2"
_cell_formula_units_Z 30
_cell_length_a 18.757174
_cell_length_b 11.810710
_cell_length_c 14.760818
_cell_angle_alpha 90.000000
_cell_angle_beta 29.093843
_cell_angle_gamma 90.000000
_cell_volume 1590.031928
_symmetry_space_group_name_H-M "C 2"
_symmetry_group_IT_number 5
_symmetry_cell_setting 'monoclinic'
loop_
_space_group_symop_operation_xyz
x,y,z
-x,y,-z
1/2+x,1/2+y,z
1/2-x,1/2+y,-z
loop_
_atom_site_type_symbol
_atom_site_label
_atom_site_fract_x
_atom_site_fract_y
_atom_site_fract_z
Si Si1 0.596309 0.645690 0.031418
Si Si2 0.142792 0.097357 0.563644
Si Si3 0.125379 0.850661 0.544200
Si Si4 0.214025 0.815230 0.644454
Si Si5 0.500000 0.454201 0.000000
Si Si6 0.939548 0.660669 0.665816
Si Si7 0.592318 0.999183 0.632029
Si Si8 0.954276 0.371026 0.142629
O O1 0.504892 0.643925 0.226496
O O2 0.564697 0.533568 0.007235
O O3 0.557302 0.761326 0.025079
O O4 0.766547 0.657156 0.862903
O O5 0.225280 0.187636 0.406450
O O6 0.257833 0.068451 0.516294
O O7 0.100728 0.984787 0.554398
O O8 0.115343 0.820446 0.662260
O O9 0.288719 0.822615 0.328519
O O10 0.004183 0.783155 0.621803
O O11 0.363585 0.885710 0.469160
O O12 0.123753 0.867550 0.827529
O O13 0.000000 0.626870 0.500000
O O14 0.984959 0.569763 0.689826
O O15 0.514697 0.961132 0.811946
O O16 0.000000 0.436898 0.000000
#
# Coordination Sequence:
#
# PCOD8048653 Si02
#       8
#     4   4   4   4   2   4   4   4
#     4  12  21  34  65  88 126 163 209 258 314 377
#     4  10  19  41  62  82 118 173 200 258 314 375
#     4  10  21  39  60  84 125 159 214 258 312 370
#     4  10  19  37  66  88 126 162 205 265 310 372
#     4  12  22  36  64 106 122 164 224 260 312 390
#     4  12  25  37  58  94 126 159 209 275 315 371
#     4  10  20  38  60  89 128 157 205 265 320 366
#     4  10  19  35  63  90 114 165 211 253 304 386
#
# _framework density 18.867546000000001
#
# number of rings (size 3 to 8) (size 9 to 14) (size 15 to 20)
#    0.000    1.600    7.333    1.600    0.000    1.067 
#    4.800    0.000    0.000    2.400    0.000    0.000 
#    0.000    0.000    0.000    0.000    0.000    0.000 
#
# Total GULP energy -185912.180532 kJ/mol
# GULP energy per Si atom -12394.145369 kJ/mol
# Density = 1.882460 g / cm^3
# Si number density = 18.867546 Si / 1000 Ang^3
#
#
#
# Elastic Constant Matrix: (Units=GPa)
#
#
# Indices 1 2 3 4 5 6 
#
# 1 73.8561 52.4849 65.1803 0.0000 0.5806 0.0000
# 2 52.4849 130.2233 51.6956 0.0000 1.4175 0.0000
# 3 65.1803 51.6956 117.8218 0.0000 2.6182 0.0000
# 4 0.0000 0.0000 0.0000 29.3128 0.0000 1.0065
# 5 0.5806 1.4175 2.6182 0.0000 37.6957 0.0000
# 6 0.0000 0.0000 0.0000 1.0065 0.0000 28.5694
#
#
#
# Elastic Compliance Matrix: (Units=1/GPa)
#
#
# Indices 1 2 3 4 5 6 
#
# 1 0.030798 -0.006843 -0.014053 0.000000 0.000759 0.000000
# 2 -0.006843 0.010819 -0.000956 0.000000 -0.000235 0.000000
# 3 -0.014053 -0.000956 0.016701 0.000000 -0.000908 0.000000
# 4 0.000000 0.000000 0.000000 0.034156 0.000000 -0.001203
# 5 0.000759 -0.000235 -0.000908 0.000000 0.026588 0.000000
# 6 0.000000 0.000000 0.000000 -0.001203 0.000000 0.035045
#
#
# Mechanical properties :
#
#
# Convention : Reuss Voigt Hill
#
# Bulk Modulus (GPa) = 68.42020 73.40254 70.91137
# Shear Modulus (GPa) = 24.66904 29.28494 26.97699
#
# Velocity S-wave (km/s) = 3.61984 3.94399 3.78538
# Velocity P-wave (km/s) = 7.33574 7.72843 7.53465
#
# Compressibility (1/GPa) = 0.01461557
#
# Stress axis : x y z
#
# Youngs Moduli (GPa) = 32.46927 92.42845 59.87582
#
# Poissons Ratio (x) = 0.63245 0.84141
# Poissons Ratio (y) = 0.22218 0.05726
# Poissons Ratio (z) = 0.45628 0.08840
#
# Static dielectric constant tensor:
#      x y z
#    x 3.192540 0.000000 0.112230 
#    y 0.000000 3.699570 0.000000 
#    z 0.112230 0.000000 3.467430 
# 
# 
# High freq. dielectric constant tensor:
#      x y z
#    x 1.695410 0.000000 0.010000 
#    y 0.000000 1.744400 0.000000 
#    z 0.010000 0.000000 1.734470 
# 
# From -- ./inp_files/55980.got.cif
#   From: 2010.03.12/outbox.cif.g09.slc.cpg/sg5_28_cif.got.tgz:55980.got - 2010.03.31 09:47:26.
