data_PCOD8048032
_publ_section_title
;
Structure prediction by ZEFSAII (Michael W. Deem and Ramdas Pophale) SiO2 
 PCOD8048032
Probable space group: P 21
;
_chemical_formula_sum "Si O2"
_cell_formula_units_Z 16
_cell_length_a 15.000000
_cell_length_b 9.000000
_cell_length_c 15.000000
_cell_angle_alpha 90.000000
_cell_angle_beta 20.000000
_cell_angle_gamma 90.000000
_cell_volume 692.590790
_symmetry_space_group_name_H-M "P 21"
_symmetry_group_IT_number 4
_symmetry_cell_setting 'monoclinic'
loop_
_space_group_symop_operation_xyz
x,y,z
-x,1/2+y,-z
loop_
_atom_site_type_symbol
_atom_site_label
_atom_site_fract_x
_atom_site_fract_y
_atom_site_fract_z
Si Si1 0.270052 0.584050 0.282534
Si Si2 0.138611 0.742488 0.143991
Si Si3 0.656716 0.194992 0.600340
Si Si4 0.236647 0.422254 0.809303
Si Si5 0.694238 0.259517 0.298873
Si Si6 0.224540 0.897742 0.244953
Si Si7 0.844039 0.902013 0.914586
Si Si8 0.404571 0.375540 0.400375
O O1 0.263783 0.582064 0.394980
O O2 0.289016 0.761399 0.249185
O O3 0.004476 0.502743 0.498887
O O4 0.519120 0.498524 0.008505
O O5 0.114150 0.813638 0.263380
O O6 0.153795 0.560211 0.141078
O O7 0.882986 0.800951 0.333036
O O8 0.405817 0.810599 0.853869
O O9 0.897774 0.301384 0.344967
O O10 0.596868 0.058029 0.587684
O O11 0.408441 0.295951 0.862836
O O12 0.509735 0.324393 0.553497
O O13 0.273914 0.580233 0.723356
O O14 0.166318 0.462354 0.975947
O O15 0.982048 0.330527 0.015284
O O16 0.512045 0.309879 0.390294
#
# Coordination Sequence:
#
# PCOD8048032 Si02
#       8
#     2   2   2   2   2   2   2   2
#     4  12  27  48  72 109 146 187 236 286 354 423
#     4  12  24  48  73  99 141 190 236 286 350 415
#     4  12  26  46  73 105 144 182 244 289 346 413
#     4  12  28  49  67 107 140 187 235 293 356 428
#     4  12  28  47  74 100 146 184 238 291 362 423
#     4  12  26  47  73 105 147 189 232 292 351 426
#     4  12  28  45  73 104 144 183 240 298 344 416
#     4  12  25  48  73 101 136 194 233 291 345 422
#
# _framework density 23.101664
#
# number of rings (size 3 to 8) (size 9 to 14) (size 15 to 20)
#    0.000    0.000    3.750    5.250   10.500    0.000 
#    0.000    0.000    0.000    0.000    0.000    0.000 
#    0.000    0.000    0.000    0.000    0.000    0.000 
#
# Total GULP energy -198272.777041 kJ/mol
# GULP energy per Si atom -12392.048565 kJ/mol
# Density = 2.304908 g / cm^3
# Si number density = 23.101664 Si / 1000 Ang^3
#
#
#
# Elastic Constant Matrix: (Units=GPa)
#
#
# Indices 1 2 3 4 5 6 
#
# 1 29.8571 -8.0810 13.4980 0.0000 -6.9523 0.0000
# 2 -8.0810 210.4139 86.7570 0.0000 -17.3045 0.0000
# 3 13.4980 86.7570 203.0226 0.0000 -23.5245 0.0000
# 4 0.0000 0.0000 0.0000 71.3162 0.0000 -7.3691
# 5 -6.9523 -17.3045 -23.5245 0.0000 36.5044 0.0000
# 6 0.0000 0.0000 0.0000 -7.3691 0.0000 39.0743
#
#
#
# Elastic Compliance Matrix: (Units=1/GPa)
#
#
# Indices 1 2 3 4 5 6 
#
# 1 0.037328 0.003261 -0.003104 0.000000 0.006654 0.000000
# 2 0.003261 0.006106 -0.002614 0.000000 0.001831 0.000000
# 3 -0.003104 -0.002614 0.006524 0.000000 0.002374 0.000000
# 4 0.000000 0.000000 0.000000 0.014301 0.000000 0.002697
# 5 0.006654 0.001831 0.002374 0.000000 0.031059 0.000000
# 6 0.000000 0.000000 0.000000 0.002697 0.000000 0.026101
#
#
# Mechanical properties :
#
#
# Convention : Reuss Voigt Hill
#
# Bulk Modulus (GPa) = 22.20062 69.73793 45.96927
# Shear Modulus (GPa) = 35.37361 52.78697 44.08029
#
# Velocity S-wave (km/s) = 3.91732 4.78534 4.37292
# Velocity P-wave (km/s) = 5.48556 7.79651 6.74080
#
# Compressibility (1/GPa) = 0.04504380
#
# Stress axis : x y z
#
# Youngs Moduli (GPa) = 26.78936 163.77009 153.27980
#
# Poissons Ratio (x) = -0.53401 0.47580
# Poissons Ratio (y) = -0.08735 0.40066
# Poissons Ratio (z) = 0.08316 0.42808
#
# Static dielectric constant tensor:
#      x y z
#    x 4.391280 0.000000 0.178770 
#    y 0.000000 4.942620 0.000000 
#    z 0.178770 0.000000 5.001940 
# 
# 
# High freq. dielectric constant tensor:
#      x y z
#    x 1.913060 0.000000 -0.003480 
#    y 0.000000 1.963180 0.000000 
#    z -0.003480 0.000000 1.953540 
# 
# From -- ./inp_files/14178.got.cif
#   From: 2010.06.25/outbox.ucp.g09.slc.cvg/sg4_8_cif.got.tgz:14178.got - 2010.06.28 13:22:43.
