data_PCOD8048277
_publ_section_title
;
Structure prediction by ZEFSAII (Michael W. Deem and Ramdas Pophale) SiO2 
 PCOD8048277
Probable space group: C 2
;
_chemical_formula_sum "Si O2"
_cell_formula_units_Z 28
_cell_length_a 32.917126
_cell_length_b 8.047027
_cell_length_c 9.259077
_cell_angle_alpha 90.000000
_cell_angle_beta 35.020849
_cell_angle_gamma 90.000000
_cell_volume 1407.479157
_symmetry_space_group_name_H-M "C 2"
_symmetry_group_IT_number 5
_symmetry_cell_setting 'monoclinic'
loop_
_space_group_symop_operation_xyz
x,y,z
-x,y,-z
1/2+x,1/2+y,z
1/2-x,1/2+y,-z
loop_
_atom_site_type_symbol
_atom_site_label
_atom_site_fract_x
_atom_site_fract_y
_atom_site_fract_z
Si Si1 0.327222 0.720940 0.417306
Si Si2 0.072676 0.722831 0.026624
Si Si3 0.296712 0.448973 0.304775
Si Si4 0.551704 0.845803 0.111046
Si Si5 0.500000 0.353123 0.500000
Si Si6 0.612527 0.632123 0.171850
Si Si7 0.000000 0.929183 0.000000
Si Si8 0.411031 0.689127 0.442875
O O1 0.291766 0.544978 0.473790
O O2 0.279775 0.876945 0.509791
O O3 0.345075 0.738827 0.534134
O O4 0.404032 0.718316 0.116795
O O5 0.081731 0.526172 0.985600
O O6 0.010313 0.741606 0.327529
O O7 0.052100 0.809739 0.937051
O O8 0.147709 0.798115 0.856485
O O9 0.317060 0.589628 0.125511
O O10 0.567181 0.783027 0.230237
O O11 0.469630 0.831995 0.303344
O O12 0.568506 0.464686 0.309233
O O13 0.630294 0.666846 0.286098
O O14 0.953185 0.032879 0.251731
#
# Coordination Sequence:
#
# PCOD8048277 Si02
#       8
#     4   4   4   4   2   4   2   4
#     4  11  22  40  64  84 121 165 212 256 302 384
#     4  11  23  35  59  95 123 159 205 260 308 373
#     4  10  22  43  60  85 121 174 208 246 316 377
#     4  11  22  37  63  96 125 159 207 255 320 369
#     4  10  18  34  58  84 120 162 198 242 312 370
#     4  10  20  39  63  85 125 167 199 251 318 376
#     4  12  20  38  62  94 124 156 204 262 328 350
#     4  12  20  39  63  93 120 166 202 262 315 371
#
# _framework density 19.893720999999999
#
# number of rings (size 3 to 8) (size 9 to 14) (size 15 to 20)
#    0.000    1.143    5.714    1.714    4.000    0.000 
#    0.000    4.286    0.000    0.000    0.000    0.000 
#    0.000    0.000    0.000    0.000    0.000    0.000 
#
# Total GULP energy -173507.705278 kJ/mol
# GULP energy per Si atom -12393.407520 kJ/mol
# Density = 1.984844 g / cm^3
# Si number density = 19.893721 Si / 1000 Ang^3
#
#
#
# Elastic Constant Matrix: (Units=GPa)
#
#
# Indices 1 2 3 4 5 6 
#
# 1 151.0674 44.0561 36.2725 0.0000 6.6985 0.0000
# 2 44.0561 89.9448 8.9383 0.0000 -3.6326 0.0000
# 3 36.2725 8.9383 47.6859 0.0000 -0.5068 0.0000
# 4 0.0000 0.0000 0.0000 23.6703 0.0000 -4.6925
# 5 6.6985 -3.6326 -0.5068 0.0000 31.9479 0.0000
# 6 0.0000 0.0000 0.0000 -4.6925 0.0000 -9.8042
#
#
#
# Elastic Compliance Matrix: (Units=1/GPa)
#
#
# Indices 1 2 3 4 5 6 
#
# 1 0.009484 -0.004106 -0.006472 0.000000 -0.002558 0.000000
# 2 -0.004106 0.013157 0.000682 0.000000 0.002368 0.000000
# 3 -0.006472 0.000682 0.025785 0.000000 0.001844 0.000000
# 4 0.000000 0.000000 0.000000 0.038586 0.000000 -0.018468
# 5 -0.002558 0.002368 0.001844 0.000000 0.032136 0.000000
# 6 0.000000 0.000000 0.000000 -0.018468 0.000000 -0.093158
#
#
# Mechanical properties :
#
#
# Convention : Reuss Voigt Hill
#
# Bulk Modulus (GPa) = 34.92200 51.91465 43.41833
# Shear Modulus (GPa) = 90.37280 22.45821 56.41550
#
# Velocity S-wave (km/s) = 6.74733 3.36357 5.33104
# Velocity P-wave (km/s) = 8.84841 6.42164 7.73084
#
# Compressibility (1/GPa) = 0.02863524
#
# Stress axis : x y z
#
# Youngs Moduli (GPa) = 105.43751 76.00632 38.78195
#
# Poissons Ratio (x) = 0.31206 0.25099
# Poissons Ratio (y) = 0.43289 -0.02645
# Poissons Ratio (z) = 0.68238 -0.05184
#
# Static dielectric constant tensor:
#      x y z
#    x 3.937480 0.000000 0.549040 
#    y 0.000000 3.483200 0.000000 
#    z 0.549040 0.000000 4.036070 
# 
# 
# High freq. dielectric constant tensor:
#      x y z
#    x 1.774460 0.000000 0.010690 
#    y 0.000000 1.766210 0.000000 
#    z 0.010690 0.000000 1.761990 
# 
# From -- ./inp_files/26714.got.cif
#   From: 2010.03.12/outbox.cif.g09.slc.cpg/sg5_14_cif.got.tgz:26714.got - 2010.03.31 09:47:26.
