data_PCOD8048996
_publ_section_title
;
Structure prediction by ZEFSAII (Michael W. Deem and Ramdas Pophale) SiO2 
 PCOD8048996
Probable space group: C 2
;
_chemical_formula_sum "Si O2"
_cell_formula_units_Z 30
_cell_length_a 14.784142
_cell_length_b 9.989129
_cell_length_c 18.221024
_cell_angle_alpha 90.000000
_cell_angle_beta 35.768990
_cell_angle_gamma 90.000000
_cell_volume 1572.877418
_symmetry_space_group_name_H-M "C 2"
_symmetry_group_IT_number 5
_symmetry_cell_setting 'monoclinic'
loop_
_space_group_symop_operation_xyz
x,y,z
-x,y,-z
1/2+x,1/2+y,z
1/2-x,1/2+y,-z
loop_
_atom_site_type_symbol
_atom_site_label
_atom_site_fract_x
_atom_site_fract_y
_atom_site_fract_z
Si Si1 0.614940 0.782750 0.781761
Si Si2 0.499810 0.081554 0.143185
Si Si3 0.678464 0.196081 0.218238
Si Si4 0.713821 0.897277 0.143184
Si Si5 0.214586 0.239416 0.000000
Si Si6 0.636941 0.838776 0.606459
Si Si7 0.349858 0.140057 0.393541
Si Si8 0.000000 0.739415 0.000000
O O1 0.742798 0.739416 0.757202
O O2 0.464208 0.685709 0.884832
O O3 0.691518 0.783123 0.650535
O O4 0.536470 0.927080 0.846799
O O5 0.395428 0.139204 0.278075
O O6 0.456326 0.151372 0.097541
O O7 0.678743 0.113717 0.045128
O O8 0.492589 0.195708 0.349463
O O9 0.730070 0.051750 0.153200
O O10 0.733875 0.293122 0.115166
O O11 0.731006 0.865113 0.045125
O O12 0.548420 0.839629 0.278074
O O13 0.848589 0.827457 0.097543
O O14 0.705830 0.739417 0.500000
O O15 0.698590 0.989416 0.551411
#
# Coordination Sequence:
#
# PCOD8048996 Si02
#       8
#     4   4   4   4   4   4   4   2
#     4  10  20  34  56  87 115 146 195 243 288 338
#     4   9  20  37  54  83 119 149 190 237 284 350
#     4  10  20  34  56  87 115 146 195 243 288 338
#     4   9  20  37  54  83 119 149 190 237 284 350
#     4   9  17  33  55  80 112 154 177 227 291 341
#     4   9  19  40  60  80 114 154 197 243 285 344
#     4   9  19  40  60  80 114 154 197 243 285 344
#     4  10  20  36  58  80 122 152 178 236 304 334
#
# _framework density 19.073324
#
# number of rings (size 3 to 8) (size 9 to 14) (size 15 to 20)
#    0.000    2.667    0.000    2.800    3.733    0.533 
#    4.800    6.000    0.000    0.000    0.000    0.000 
#    0.000    0.000    0.000    0.000    0.000    0.000 
#
# Total GULP energy -185828.104205 kJ/mol
# GULP energy per Si atom -12388.540280 kJ/mol
# Density = 1.902991 g / cm^3
# Si number density = 19.073324 Si / 1000 Ang^3
#
#
#
# Elastic Constant Matrix: (Units=GPa)
#
#
# Indices 1 2 3 4 5 6 
#
# 1 129.0488 41.8294 43.2903 0.0000 -1.8899 0.0000
# 2 41.8294 85.9493 65.5865 0.0000 0.7074 0.0000
# 3 43.2903 65.5865 98.6562 0.0000 0.9907 -0.0004
# 4 0.0000 0.0000 0.0000 27.4805 -0.0001 1.3353
# 5 -1.8899 0.7074 0.9907 -0.0001 11.1511 0.0003
# 6 0.0000 0.0000 -0.0004 1.3353 0.0003 -17.5295
#
#
#
# Elastic Compliance Matrix: (Units=1/GPa)
#
#
# Indices 1 2 3 4 5 6 
#
# 1 0.009475 -0.002922 -0.002235 0.000000 0.001990 0.000000
# 2 -0.002922 0.024516 -0.015008 0.000000 -0.000717 0.000000
# 3 -0.002235 -0.015008 0.021108 0.000000 -0.001302 0.000000
# 4 0.000000 0.000000 0.000000 0.036255 0.000000 0.002762
# 5 0.001990 -0.000717 -0.001302 0.000000 0.090175 0.000002
# 6 0.000000 0.000000 0.000000 0.002762 0.000002 -0.056836
#
#
# Mechanical properties :
#
#
# Convention : Reuss Voigt Hill
#
# Bulk Modulus (GPa) = 67.71863 68.34073 68.02968
# Shear Modulus (GPa) = 29.42109 15.08362 22.25236
#
# Velocity S-wave (km/s) = 3.93176 2.81521 3.41937
# Velocity P-wave (km/s) = 7.49621 6.81730 7.16480
#
# Compressibility (1/GPa) = 0.01476698
#
# Stress axis : x y z
#
# Youngs Moduli (GPa) = 105.54010 40.79049 47.37636
#
# Poissons Ratio (x) = 0.11920 0.10588
# Poissons Ratio (y) = 0.30841 0.71104
# Poissons Ratio (z) = 0.23588 0.61220
#
# Static dielectric constant tensor:
#      x y z
#    x 3.739110 0.000000 -0.004930 
#    y 0.000000 3.532680 0.000000 
#    z -0.004930 0.000000 3.572480 
# 
# 
# High freq. dielectric constant tensor:
#      x y z
#    x 1.744620 0.000000 -0.000340 
#    y 0.000000 1.732290 0.000000 
#    z -0.000340 0.000000 1.733000 
# 
# From -- ./inp_files/61633.got.cif
#   From: 2010.03.12/outbox.cif.g09.slc.cpg/sg5_31_cif.got.tgz:61633.got - 2010.03.31 09:47:26.
