data_PCOD8048012
_publ_section_title
;
Structure prediction by ZEFSAII (Michael W. Deem and Ramdas Pophale) SiO2 
 PCOD8048012
Probable space group: P 21
;
_chemical_formula_sum "Si O2"
_cell_formula_units_Z 16
_cell_length_a 9.801125
_cell_length_b 8.451356
_cell_length_c 8.082160
_cell_angle_alpha 90.000000
_cell_angle_beta 106.118034
_cell_angle_gamma 90.000000
_cell_volume 643.152351
_symmetry_space_group_name_H-M "P 21"
_symmetry_group_IT_number 4
_symmetry_cell_setting 'monoclinic'
loop_
_space_group_symop_operation_xyz
x,y,z
-x,1/2+y,-z
loop_
_atom_site_type_symbol
_atom_site_label
_atom_site_fract_x
_atom_site_fract_y
_atom_site_fract_z
Si Si1 0.123259 0.376200 0.502588
Si Si2 0.578052 0.872460 0.896569
Si Si3 0.853744 0.213875 0.390233
Si Si4 0.672484 0.207355 0.025734
Si Si5 0.866391 0.755607 0.125441
Si Si6 0.417152 0.267821 0.474248
Si Si7 0.687729 0.434139 0.586961
Si Si8 0.886272 0.441200 0.944715
O O1 0.091872 0.562142 0.491869
O O2 0.113022 0.285645 0.674207
O O3 0.276706 0.363365 0.472569
O O4 0.993430 0.297225 0.354556
O O5 0.443240 0.839844 0.968001
O O6 0.547661 0.800776 0.705962
O O7 0.704779 0.776946 0.021612
O O8 0.606252 0.060430 0.903861
O O9 0.745774 0.144114 0.218623
O O10 0.777163 0.341791 0.480286
O O11 0.798433 0.287403 0.967568
O O12 0.958434 0.883557 0.055752
O O13 0.906561 0.574973 0.091061
O O14 0.560014 0.324915 0.619970
O O15 0.393291 0.085791 0.516570
O O16 0.796455 0.506133 0.757793
#
# Coordination Sequence:
#
# PCOD8048012 Si02
#       8
#     2   2   2   2   2   2   2   2
#     4  12  29  47  80 109 155 201 257 311 386 452
#     4  12  27  50  76 112 152 201 254 317 377 454
#     4  12  27  51  74 111 153 202 253 310 376 459
#     4  12  29  48  78 109 156 199 255 310 385 454
#     4  12  27  50  76 112 152 201 254 317 377 454
#     4  12  29  47  80 109 155 201 257 311 386 452
#     4  12  27  51  74 111 153 202 253 310 376 459
#     4  12  29  48  78 109 156 199 255 310 385 454
#
# _framework density 24.877464
#
# number of rings (size 3 to 8) (size 9 to 14) (size 15 to 20)
#    0.000    0.000    5.000    3.000   10.500    0.000 
#    0.000    0.000    0.000    0.000    0.000    0.000 
#    0.000    0.000    0.000    0.000    0.000    0.000 
#
# Total GULP energy -198446.309842 kJ/mol
# GULP energy per Si atom -12402.894365 kJ/mol
# Density = 2.482084 g / cm^3
# Si number density = 24.877464 Si / 1000 Ang^3
#
#
#
# Elastic Constant Matrix: (Units=GPa)
#
#
# Indices 1 2 3 4 5 6 
#
# 1 116.9507 -5.0650 3.5591 0.0000 8.6929 0.0000
# 2 -5.0650 96.8863 3.1075 0.0000 10.1284 0.0000
# 3 3.5591 3.1075 46.6048 0.0000 -1.0666 0.0000
# 4 0.0000 0.0000 0.0000 34.9904 0.0000 -0.0766
# 5 8.6929 10.1284 -1.0666 0.0000 35.4373 0.0000
# 6 0.0000 0.0000 0.0000 -0.0766 0.0000 52.4253
#
#
#
# Elastic Compliance Matrix: (Units=1/GPa)
#
#
# Indices 1 2 3 4 5 6 
#
# 1 0.008783 0.000734 -0.000774 0.000000 -0.002388 0.000000
# 2 0.000734 0.010729 -0.000846 0.000000 -0.003272 0.000000
# 3 -0.000774 -0.000846 0.021597 0.000000 0.001082 0.000000
# 4 0.000000 0.000000 0.000000 0.028579 0.000000 0.000042
# 5 -0.002388 -0.003272 0.001082 0.000000 0.029772 0.000000
# 6 0.000000 0.000000 0.000000 0.000042 0.000000 0.019075
#
#
# Mechanical properties :
#
#
# Convention : Reuss Voigt Hill
#
# Bulk Modulus (GPa) = 25.42221 29.29387 27.35804
# Shear Modulus (GPa) = 37.47509 41.82662 39.65085
#
# Velocity S-wave (km/s) = 3.88543 4.10482 3.99663
# Velocity P-wave (km/s) = 5.51089 5.85379 5.68493
#
# Compressibility (1/GPa) = 0.03933568
#
# Stress axis : x y z
#
# Youngs Moduli (GPa) = 113.85087 93.20611 46.30201
#
# Poissons Ratio (x) = -0.06838 0.03585
# Poissons Ratio (y) = -0.08352 0.03918
# Poissons Ratio (z) = 0.08816 0.07888
#
# Static dielectric constant tensor:
#      x y z
#    x 4.932170 0.000000 0.390220 
#    y 0.000000 4.380600 0.000000 
#    z 0.390220 0.000000 4.630420 
# 
# 
# High freq. dielectric constant tensor:
#      x y z
#    x 2.013450 0.000000 0.013780 
#    y 0.000000 2.000550 0.000000 
#    z 0.013780 0.000000 1.980890 
# 
# From -- ./inp_files/5752.got.cif
#   From: 2010.03.12/outbox.cif.g09.slc.cpg/sg4_3_cif.got.tgz:5752.got - 2010.03.31 09:31:35.
