data_PCOD8048006
_publ_section_title
;
Structure prediction by ZEFSAII (Michael W. Deem and Ramdas Pophale) SiO2 
 PCOD8048006
Probable space group: P 21
;
_chemical_formula_sum "Si O2"
_cell_formula_units_Z 16
_cell_length_a 10.374017
_cell_length_b 9.286785
_cell_length_c 8.198784
_cell_angle_alpha 90.000000
_cell_angle_beta 129.936219
_cell_angle_gamma 90.000000
_cell_volume 605.648943
_symmetry_space_group_name_H-M "P 21"
_symmetry_group_IT_number 4
_symmetry_cell_setting 'monoclinic'
loop_
_space_group_symop_operation_xyz
x,y,z
-x,1/2+y,-z
loop_
_atom_site_type_symbol
_atom_site_label
_atom_site_fract_x
_atom_site_fract_y
_atom_site_fract_z
Si Si1 0.960951 0.555860 0.338631
Si Si2 0.474901 0.899402 0.610408
Si Si3 0.777616 0.630491 0.518389
Si Si4 0.342818 0.639501 0.663880
Si Si5 0.501404 0.862838 0.266773
Si Si6 0.169399 0.510687 0.025223
Si Si7 0.938927 0.700059 0.004569
Si Si8 0.199243 0.763400 0.841830
O O1 0.905002 0.623412 0.466671
O O2 0.943518 0.381387 0.315900
O O3 0.153698 0.595690 0.463231
O O4 0.856646 0.625782 0.099823
O O5 0.447608 0.728236 0.612798
O O6 0.518170 0.928329 0.459550
O O7 0.638361 0.962622 0.834662
O O8 0.303406 0.973659 0.528646
O O9 0.629912 0.734785 0.342272
O O10 0.846634 0.678800 0.753931
O O11 0.446073 0.498338 0.802972
O O12 0.333983 0.750277 0.807250
O O13 0.309722 0.815146 0.085059
O O14 0.048441 0.370910 0.946446
O O15 0.121428 0.604333 0.822380
O O16 0.122420 0.622768 0.133356
#
# Coordination Sequence:
#
# PCOD8048006 Si02
#       8
#     2   2   2   2   2   2   2   2
#     4  12  30  53  82 123 172 225 286 348 435 511
#     4  12  26  54  78 121 165 222 282 353 428 506
#     4  12  27  53  83 120 172 221 283 358 426 515
#     4  12  31  50  83 120 167 219 284 361 428 514
#     4  12  28  48  82 116 166 221 285 355 431 508
#     4  12  28  51  84 122 167 219 283 349 426 513
#     4  12  29  51  86 122 169 221 279 346 434 511
#     4  12  29  52  82 120 168 224 290 352 430 516
#
# _framework density 26.417945
#
# number of rings (size 3 to 8) (size 9 to 14) (size 15 to 20)
#    0.000    0.000    3.750    3.750   14.000    0.000 
#    0.000    0.000    0.000    0.000    0.000    0.000 
#    0.000    0.000    0.000    0.000    0.000    0.000 
#
# Total GULP energy -198249.641537 kJ/mol
# GULP energy per Si atom -12390.602596 kJ/mol
# Density = 2.635782 g / cm^3
# Si number density = 26.417945 Si / 1000 Ang^3
#
#
#
# Elastic Constant Matrix: (Units=GPa)
#
#
# Indices 1 2 3 4 5 6 
#
# 1 112.5120 53.3522 41.1307 0.0000 -2.1640 0.0000
# 2 53.3522 191.1249 47.8650 0.0000 1.9547 0.0000
# 3 41.1307 47.8650 92.6798 0.0000 -10.7412 0.0000
# 4 0.0000 0.0000 0.0000 37.5093 0.0000 1.6222
# 5 -2.1640 1.9547 -10.7412 0.0000 37.6591 0.0000
# 6 0.0000 0.0000 0.0000 1.6222 0.0000 63.1551
#
#
#
# Elastic Compliance Matrix: (Units=1/GPa)
#
#
# Indices 1 2 3 4 5 6 
#
# 1 0.011360 -0.002176 -0.003960 0.000000 -0.000364 0.000000
# 2 -0.002176 0.006482 -0.002519 0.000000 -0.001180 0.000000
# 3 -0.003960 -0.002519 0.014310 0.000000 0.003985 0.000000
# 4 0.000000 0.000000 0.000000 0.026690 0.000000 -0.000686
# 5 -0.000364 -0.001180 0.003985 0.000000 0.027731 0.000000
# 6 0.000000 0.000000 0.000000 -0.000686 0.000000 0.015852
#
#
# Mechanical properties :
#
#
# Convention : Reuss Voigt Hill
#
# Bulk Modulus (GPa) = 67.37167 75.66806 71.51986
# Shear Modulus (GPa) = 40.10177 44.59597 42.34887
#
# Velocity S-wave (km/s) = 3.90035 4.11310 4.00813
# Velocity P-wave (km/s) = 6.77061 7.15972 6.96788
#
# Compressibility (1/GPa) = 0.01484303
#
# Stress axis : x y z
#
# Youngs Moduli (GPa) = 88.02548 154.26205 69.88054
#
# Poissons Ratio (x) = 0.33563 0.27674
# Poissons Ratio (y) = 0.19152 0.17604
# Poissons Ratio (z) = 0.34859 0.38860
#
# Static dielectric constant tensor:
#      x y z
#    x 5.013610 0.000000 -0.254900 
#    y 0.000000 4.939000 0.000000 
#    z -0.254900 0.000000 4.660250 
# 
# 
# High freq. dielectric constant tensor:
#      x y z
#    x 2.068990 0.000000 -0.008380 
#    y 0.000000 2.077300 0.000000 
#    z -0.008380 0.000000 2.053560 
# 
# From -- ./inp_files/8059.got.cif
#   From: 2010.03.12/outbox.cif.g09.slc.cpg/sg4_5_cif.got.tgz:8059.got - 2010.03.31 09:31:35.
