data_PCOD8048372
_publ_section_title
;
Structure prediction by ZEFSAII (Michael W. Deem and Ramdas Pophale) SiO2 
 PCOD8048372
Probable space group: C 2
;
_chemical_formula_sum "Si O2"
_cell_formula_units_Z 28
_cell_length_a 6.353258
_cell_length_b 21.833668
_cell_length_c 12.265166
_cell_angle_alpha 90.000000
_cell_angle_beta 127.596472
_cell_angle_gamma 90.000000
_cell_volume 1348.035087
_symmetry_space_group_name_H-M "C 2"
_symmetry_group_IT_number 5
_symmetry_cell_setting 'monoclinic'
loop_
_space_group_symop_operation_xyz
x,y,z
-x,y,-z
1/2+x,1/2+y,z
1/2-x,1/2+y,-z
loop_
_atom_site_type_symbol
_atom_site_label
_atom_site_fract_x
_atom_site_fract_y
_atom_site_fract_z
Si Si1 0.268463 0.400110 0.858421
Si Si2 0.497091 0.364625 0.709407
Si Si3 0.236213 0.968656 0.663457
Si Si4 0.279808 0.105070 0.643565
Si Si5 0.000000 0.647765 0.500000
Si Si6 0.059592 0.210484 0.696578
Si Si7 0.495487 0.789138 0.874639
Si Si8 0.000000 0.308765 0.500000
O O1 0.397058 0.363104 0.800577
O O2 0.029988 0.441065 0.731712
O O3 0.172675 0.349570 0.915337
O O4 0.500000 0.437069 0.000000
O O5 0.625150 0.431818 0.731868
O O6 0.697317 0.308948 0.748571
O O7 0.249732 0.352426 0.548780
O O8 0.000000 0.962261 0.500000
O O9 0.292296 0.039743 0.708006
O O10 0.495798 0.108386 0.612557
O O11 0.000000 0.114766 0.500000
O O12 0.285395 0.159442 0.736525
O O13 0.260331 0.688497 0.584004
O O14 0.095597 0.232241 0.832538
O O15 0.098237 0.269221 0.632817
O O16 0.500000 0.766194 0.000000
#
# Coordination Sequence:
#
# PCOD8048372 Si02
#       8
#     4   4   4   4   2   4   4   2
#     4  11  22  40  61  89 122 173 213 251 318 383
#     4  11  23  36  60  89 128 157 205 260 319 373
#     4  10  23  39  61  95 128 159 207 267 316 372
#     4   9  20  38  59  90 122 163 202 253 322 376
#     4  10  18  36  63  90 123 160 202 252 330 368
#     4  11  21  35  61  92 125 161 206 261 315 384
#     4  11  23  38  59  90 125 171 210 251 308 384
#     4  12  20  36  61  98 125 158 196 266 332 376
#
# _framework density 20.770973000000001
#
# number of rings (size 3 to 8) (size 9 to 14) (size 15 to 20)
#    0.000    1.429    5.000    1.714    2.000    3.429 
#    0.000    0.714    0.000    5.143    0.000    0.000 
#    0.000    0.000    0.000    0.000    0.000    0.000 
#
# Total GULP energy -173436.282628 kJ/mol
# GULP energy per Si atom -12388.305902 kJ/mol
# Density = 2.072370 g / cm^3
# Si number density = 20.770973 Si / 1000 Ang^3
#
#
#
# Elastic Constant Matrix: (Units=GPa)
#
#
# Indices 1 2 3 4 5 6 
#
# 1 106.6501 49.3630 34.4951 0.0000 -7.6611 0.0000
# 2 49.3630 119.6565 43.2740 0.0000 -14.4200 0.0000
# 3 34.4951 43.2740 87.0218 0.0000 -5.4449 0.0000
# 4 0.0000 0.0000 0.0000 19.6730 0.0000 -7.4686
# 5 -7.6611 -14.4200 -5.4449 0.0000 44.2531 0.0000
# 6 0.0000 0.0000 0.0000 -7.4686 0.0000 17.1662
#
#
#
# Elastic Compliance Matrix: (Units=1/GPa)
#
#
# Indices 1 2 3 4 5 6 
#
# 1 0.012145 -0.003929 -0.002830 0.000000 0.000474 0.000000
# 2 -0.003929 0.011796 -0.004142 0.000000 0.002654 0.000000
# 3 -0.002830 -0.004142 0.014671 0.000000 -0.000035 0.000000
# 4 0.000000 0.000000 0.000000 0.060888 0.000000 0.026491
# 5 0.000474 0.002654 -0.000035 0.000000 0.023540 0.000000
# 6 0.000000 0.000000 0.000000 0.026491 0.000000 0.069779
#
#
# Mechanical properties :
#
#
# Convention : Reuss Voigt Hill
#
# Bulk Modulus (GPa) = 59.49700 63.06584 61.28142
# Shear Modulus (GPa) = 22.70391 28.63155 25.66773
#
# Velocity S-wave (km/s) = 3.30973 3.71676 3.51914
# Velocity P-wave (km/s) = 6.58120 6.98910 6.78822
#
# Compressibility (1/GPa) = 0.01680757
#
# Stress axis : x y z
#
# Youngs Moduli (GPa) = 82.34036 84.77305 68.16139
#
# Poissons Ratio (x) = 0.33311 0.19293
# Poissons Ratio (y) = 0.32355 0.28235
# Poissons Ratio (z) = 0.23306 0.35116
#
# Static dielectric constant tensor:
#      x y z
#    x 4.598520 0.000000 -0.130260 
#    y 0.000000 3.823320 0.000000 
#    z -0.130260 0.000000 3.632220 
# 
# 
# High freq. dielectric constant tensor:
#      x y z
#    x 1.831290 0.000000 -0.002950 
#    y 0.000000 1.792920 0.000000 
#    z -0.002950 0.000000 1.785310 
# 
# From -- ./inp_files/33992.got.cif
#   From: 2010.03.12/outbox.cif.g09.slc.cpg/sg5_17_cif.got.tgz:33992.got - 2010.03.31 09:47:26.
