data_PCOD8048352
_publ_section_title
;
Structure prediction by ZEFSAII (Michael W. Deem and Ramdas Pophale) SiO2 
 PCOD8048352
Probable space group: C 2
;
_chemical_formula_sum "Si O2"
_cell_formula_units_Z 22
_cell_length_a 16.483013
_cell_length_b 9.480895
_cell_length_c 23.765784
_cell_angle_alpha 90.000000
_cell_angle_beta 160.431388
_cell_angle_gamma 90.000000
_cell_volume 1243.939287
_symmetry_space_group_name_H-M "C 2"
_symmetry_group_IT_number 5
_symmetry_cell_setting 'monoclinic'
loop_
_space_group_symop_operation_xyz
x,y,z
-x,y,-z
1/2+x,1/2+y,z
1/2-x,1/2+y,-z
loop_
_atom_site_type_symbol
_atom_site_label
_atom_site_fract_x
_atom_site_fract_y
_atom_site_fract_z
Si Si1 0.701412 0.135030 0.905649
Si Si2 0.282401 0.938112 0.980920
Si Si3 0.320519 0.760756 0.798535
Si Si4 0.594302 0.222996 0.385876
Si Si5 0.829715 0.010969 0.620750
Si Si6 0.500000 0.119982 0.500000
O O1 0.657830 0.284553 0.909610
O O2 0.500224 0.119527 0.725349
O O3 0.973726 0.139525 0.057027
O O4 0.671658 0.007540 0.929009
O O5 0.102591 0.027471 0.823201
O O6 0.542560 0.912060 0.120342
O O7 0.184657 0.722917 0.652178
O O8 0.141864 0.773118 0.733998
O O9 0.717809 0.363087 0.441742
O O10 0.786953 0.140031 0.549716
O O11 0.638517 0.019306 0.546681
#
# Coordination Sequence:
#
# PCOD8048352 Si02
#       6
#     4   4   4   4   4   2
#     4   9  18  32  55  81 105 143 176 228 260 328
#     4   9  18  34  55  81 111 142 182 220 275 319
#     4   9  19  33  59  81 108 146 181 220 273 334
#     4  10  21  35  56  80 111 143 185 222 277 315
#     4  10  20  35  55  81 111 147 177 230 265 332
#     4  10  18  36  58  84 108 146 188 214 280 326
#
# _framework density 17.685751
#
# number of rings (size 3 to 8) (size 9 to 14) (size 15 to 20)
#    1.091    1.455    1.818    0.545    0.000    4.364 
#    0.000    3.636    0.000    0.000    4.727    0.000 
#    0.000    0.000    0.000    0.000    0.000    0.000 
#
# Total GULP energy -136296.738942 kJ/mol
# GULP energy per Si atom -12390.612631 kJ/mol
# Density = 1.764550 g / cm^3
# Si number density = 17.685751 Si / 1000 Ang^3
#
#
#
# Elastic Constant Matrix: (Units=GPa)
#
#
# Indices 1 2 3 4 5 6 
#
# 1 101.8433 57.4077 55.1486 0.0144 -11.3028 0.0093
# 2 57.4077 60.3163 46.2377 0.1124 -1.2574 -0.0216
# 3 55.1486 46.2377 103.0374 0.3017 -0.8856 -0.0900
# 4 0.0144 0.1124 0.3017 34.4212 -0.0654 -2.9410
# 5 -11.3028 -1.2574 -0.8856 -0.0654 22.3157 0.0142
# 6 0.0093 -0.0216 -0.0900 -2.9410 0.0142 33.5700
#
#
#
# Elastic Compliance Matrix: (Units=1/GPa)
#
#
# Indices 1 2 3 4 5 6 
#
# 1 0.024526 -0.020002 -0.004056 0.000110 0.011135 -0.000026
# 2 -0.020002 0.041608 -0.008035 -0.000072 -0.008106 0.000008
# 3 -0.004056 -0.008035 0.015466 -0.000109 -0.001894 0.000029
# 4 0.000110 -0.000072 -0.000109 0.029272 0.000131 0.002564
# 5 0.011135 -0.008106 -0.001894 0.000131 0.049920 -0.000023
# 6 -0.000026 0.000008 0.000029 0.002564 -0.000023 0.030013
#
#
# Mechanical properties :
#
#
# Convention : Reuss Voigt Hill
#
# Bulk Modulus (GPa) = 57.42700 64.75389 61.09044
# Shear Modulus (GPa) = 19.17217 25.15490 22.16354
#
# Velocity S-wave (km/s) = 3.29606 3.77547 3.54388
# Velocity P-wave (km/s) = 6.85759 7.46315 7.16677
#
# Compressibility (1/GPa) = 0.01741341
#
# Stress axis : x y z
#
# Youngs Moduli (GPa) = 40.77320 24.03408 64.65947
#
# Poissons Ratio (x) = 0.48074 0.26224
# Poissons Ratio (y) = 0.81556 0.51953
# Poissons Ratio (z) = 0.16536 0.19311
#
# Static dielectric constant tensor:
#      x y z
#    x 3.152070 0.000030 -0.090150 
#    y 0.000030 2.969770 -0.000100 
#    z -0.090150 -0.000100 3.415620 
# 
# 
# High freq. dielectric constant tensor:
#      x y z
#    x 1.674030 0.000000 -0.015460 
#    y 0.000000 1.653130 -0.000010 
#    z -0.015460 -0.000010 1.697180 
# 
# From -- ./inp_files/23047.got.cif
#   From: 2010.03.12/outbox.cif.g09.slc.cpg/sg5_12_cif.got.tgz:23047.got - 2010.03.31 09:47:26.
