data_PCOD8048721
_publ_section_title
;
Structure prediction by ZEFSAII (Michael W. Deem and Ramdas Pophale) SiO2 
 PCOD8048721
Probable space group: C 2
;
_chemical_formula_sum "Si O2"
_cell_formula_units_Z 28
_cell_length_a 27.974458
_cell_length_b 8.341894
_cell_length_c 9.545047
_cell_angle_alpha 90.000000
_cell_angle_beta 140.558410
_cell_angle_gamma 90.000000
_cell_volume 1415.067965
_symmetry_space_group_name_H-M "C 2"
_symmetry_group_IT_number 5
_symmetry_cell_setting 'monoclinic'
loop_
_space_group_symop_operation_xyz
x,y,z
-x,y,-z
1/2+x,1/2+y,z
1/2-x,1/2+y,-z
loop_
_atom_site_type_symbol
_atom_site_label
_atom_site_fract_x
_atom_site_fract_y
_atom_site_fract_z
Si Si1 0.667138 0.156880 0.013711
Si Si2 0.808103 0.477624 0.679358
Si Si3 0.169324 0.292100 0.540031
Si Si4 0.012127 0.818362 0.682323
Si Si5 0.551110 0.527947 0.233446
Si Si6 0.831010 0.793234 0.558454
Si Si7 0.368273 0.109012 0.383208
O O1 0.744819 0.248338 0.228316
O O2 0.653769 0.996858 0.080290
O O3 0.598622 0.272064 0.897587
O O4 0.667909 0.109561 0.852742
O O5 0.840690 0.346310 0.646156
O O6 0.814565 0.652564 0.628086
O O7 0.722307 0.440816 0.523638
O O8 0.137897 0.430323 0.570255
O O9 0.115787 0.140909 0.441233
O O10 0.000000 0.885073 0.500000
O O11 0.998807 0.970954 0.750023
O O12 0.955387 0.667248 0.579060
O O13 0.585672 0.367337 0.239016
O O14 0.500000 0.614945 0.000000
O O15 0.820188 0.728599 0.374416
#
# Coordination Sequence:
#
# PCOD8048721 Si02
#       7
#     4   4   4   4   4   4   4
#     4  11  21  37  66  86 119 157 204 238 303 360
#     4  11  20  36  59  86 122 151 199 248 299 342
#     4  11  24  39  60  91 122 151 206 255 295 349
#     4   9  21  42  61  84 119 162 196 239 305 366
#     4  11  22  38  62  86 120 156 202 246 303 353
#     4  10  19  37  56  87 119 156 194 248 293 356
#     4   9  23  39  61  85 123 159 197 246 304 360
#
# _framework density 19.787033999999998
#
# number of rings (size 3 to 8) (size 9 to 14) (size 15 to 20)
#    0.000    1.714    2.857    0.857    2.000    2.286 
#    0.000    5.000    0.000    0.000    0.000    0.000 
#    0.000    0.000    0.000    0.000    0.000    0.000 
#
# Total GULP energy -173475.652872 kJ/mol
# GULP energy per Si atom -12391.118062 kJ/mol
# Density = 1.974200 g / cm^3
# Si number density = 19.787034 Si / 1000 Ang^3
#
#
#
# Elastic Constant Matrix: (Units=GPa)
#
#
# Indices 1 2 3 4 5 6 
#
# 1 120.2559 46.5114 50.7056 0.0000 -6.9776 0.0000
# 2 46.5114 74.8311 40.1647 0.0000 2.1567 0.0000
# 3 50.7056 40.1647 107.8763 0.0000 0.7075 0.0000
# 4 0.0000 0.0000 0.0000 17.5633 0.0000 -2.8789
# 5 -6.9776 2.1567 0.7075 0.0000 33.5310 0.0000
# 6 0.0000 0.0000 0.0000 -2.8789 0.0000 31.1408
#
#
#
# Elastic Compliance Matrix: (Units=1/GPa)
#
#
# Indices 1 2 3 4 5 6 
#
# 1 0.012245 -0.005745 -0.003636 0.000000 0.002994 0.000000
# 2 -0.005745 0.019427 -0.004517 0.000000 -0.002350 0.000000
# 3 -0.003636 -0.004517 0.012665 0.000000 -0.000733 0.000000
# 4 0.000000 0.000000 0.000000 0.057813 0.000000 0.005345
# 5 0.002994 -0.002350 -0.000733 0.000000 0.030613 0.000000
# 6 0.000000 0.000000 0.000000 0.005345 0.000000 0.032606
#
#
# Mechanical properties :
#
#
# Convention : Reuss Voigt Hill
#
# Bulk Modulus (GPa) = 60.45916 64.19184 62.32550
# Shear Modulus (GPa) = 25.16624 27.48578 26.32601
#
# Velocity S-wave (km/s) = 3.57018 3.73108 3.65151
# Velocity P-wave (km/s) = 6.90045 7.14654 7.02457
#
# Compressibility (1/GPa) = 0.01654009
#
# Stress axis : x y z
#
# Youngs Moduli (GPa) = 81.66907 51.47563 78.95488
#
# Poissons Ratio (x) = 0.29575 0.28707
# Poissons Ratio (y) = 0.46922 0.35664
# Poissons Ratio (z) = 0.29694 0.23252
#
# Static dielectric constant tensor:
#      x y z
#    x 3.987450 0.000000 -0.155450 
#    y 0.000000 3.509280 0.000000 
#    z -0.155450 0.000000 3.559020 
# 
# 
# High freq. dielectric constant tensor:
#      x y z
#    x 1.797090 0.000000 -0.009090 
#    y 0.000000 1.757380 0.000000 
#    z -0.009090 0.000000 1.759410 
# 
# From -- ./inp_files/26796.got.cif
#   From: 2010.03.12/outbox.cif.g09.slc.cpg/sg5_14_cif.got.tgz:26796.got - 2010.03.31 09:47:26.
