data_PCOD8048412
_publ_section_title
;
Structure prediction by ZEFSAII (Michael W. Deem and Ramdas Pophale) SiO2 
 PCOD8048412
Probable space group: C 2
;
_chemical_formula_sum "Si O2"
_cell_formula_units_Z 30
_cell_length_a 10.610663
_cell_length_b 16.690061
_cell_length_c 16.574047
_cell_angle_alpha 90.000000
_cell_angle_beta 149.273035
_cell_angle_gamma 90.000000
_cell_volume 1499.703196
_symmetry_space_group_name_H-M "C 2"
_symmetry_group_IT_number 5
_symmetry_cell_setting 'monoclinic'
loop_
_space_group_symop_operation_xyz
x,y,z
-x,y,-z
1/2+x,1/2+y,z
1/2-x,1/2+y,-z
loop_
_atom_site_type_symbol
_atom_site_label
_atom_site_fract_x
_atom_site_fract_y
_atom_site_fract_z
Si Si1 0.651721 0.542760 0.777900
Si Si2 0.941194 0.455898 0.076642
Si Si3 0.873751 0.475337 0.516472
Si Si4 0.180235 0.719702 0.165831
Si Si5 0.708740 0.024228 0.845262
Si Si6 0.961436 0.701709 0.221806
Si Si7 0.000000 0.309471 0.000000
Si Si8 0.622626 0.798114 0.481626
O O1 0.358116 0.535127 0.604911
O O2 0.728087 0.634812 0.817332
O O3 0.791958 0.498468 0.781911
O O4 0.741708 0.502871 0.911267
O O5 0.850666 0.458683 0.118533
O O6 0.975787 0.364494 0.066599
O O7 0.767957 0.386156 0.477098
O O8 0.000000 0.483935 0.500000
O O9 0.092144 0.495297 0.698120
O O10 0.420327 0.775615 0.303446
O O11 0.035863 0.718908 0.170833
O O12 0.000000 0.758201 0.000000
O O13 0.586371 0.108177 0.800092
O O14 0.000000 0.034218 0.000000
O O15 0.175012 0.727912 0.401890
O O16 0.732941 0.752133 0.128213
O O17 0.500000 0.805832 0.500000
#
# Coordination Sequence:
#
# PCOD8048412 Si02
#       8
#     4   4   4   4   4   4   2   4
#     4  10  18  38  61  88 124 161 215 258 314 376
#     4  10  21  39  65  96 122 171 215 258 317 383
#     4  11  24  40  60  88 127 173 213 262 322 379
#     4  11  20  36  65  93 122 158 210 268 317 372
#     4  12  24  39  64  95 130 163 220 268 315 375
#     4  11  21  41  63  93 126 171 211 259 321 383
#     4  10  22  40  68  88 136 174 202 256 328 388
#     4   9  21  37  57  84 118 160 205 251 313 372
#
# _framework density 20.003957
#
# number of rings (size 3 to 8) (size 9 to 14) (size 15 to 20)
#    0.000    1.600    3.333    3.200    0.000    4.267 
#    0.000    0.000    2.933    0.000    0.000    0.000 
#    0.000    0.000    0.000    0.000    0.000    0.000 
#
# Total GULP energy -185958.374922 kJ/mol
# GULP energy per Si atom -12397.224995 kJ/mol
# Density = 1.995843 g / cm^3
# Si number density = 20.003957 Si / 1000 Ang^3
#
#
#
# Elastic Constant Matrix: (Units=GPa)
#
#
# Indices 1 2 3 4 5 6 
#
# 1 80.9442 20.6901 51.0572 -0.0022 -4.9788 -0.0001
# 2 20.6901 67.3240 24.6344 -0.0085 -1.5193 0.0008
# 3 51.0572 24.6344 149.0919 -0.0214 -0.2457 0.0041
# 4 -0.0022 -0.0085 -0.0214 44.0663 -0.0114 11.7174
# 5 -4.9788 -1.5193 -0.2457 -0.0114 32.7240 0.0006
# 6 -0.0001 0.0008 0.0041 11.7174 0.0006 22.4737
#
#
#
# Elastic Compliance Matrix: (Units=1/GPa)
#
#
# Indices 1 2 3 4 5 6 
#
# 1 0.016546 -0.003151 -0.005142 -0.000002 0.002333 0.000002
# 2 -0.003151 0.016426 -0.001635 0.000003 0.000271 -0.000002
# 3 -0.005142 -0.001635 0.008737 0.000004 -0.000793 -0.000004
# 4 -0.000002 0.000003 0.000004 0.026346 0.000009 -0.013736
# 5 0.002333 0.000271 -0.000793 0.000009 0.030920 -0.000006
# 6 0.000002 -0.000002 -0.000004 -0.013736 -0.000006 0.051658
#
#
# Mechanical properties :
#
#
# Convention : Reuss Voigt Hill
#
# Bulk Modulus (GPa) = 45.75706 54.45818 50.10762
# Shear Modulus (GPa) = 28.12571 33.25135 30.68853
#
# Velocity S-wave (km/s) = 3.75374 4.08148 3.92104
# Velocity P-wave (km/s) = 6.45841 7.03520 6.75297
#
# Compressibility (1/GPa) = 0.02185455
#
# Stress axis : x y z
#
# Youngs Moduli (GPa) = 60.43585 60.87861 114.45665
#
# Poissons Ratio (x) = 0.19183 0.58853
# Poissons Ratio (y) = 0.19043 0.18709
# Poissons Ratio (z) = 0.31076 0.09951
#
# Static dielectric constant tensor:
#      x y z
#    x 3.387690 0.000050 -0.045850 
#    y 0.000050 3.765560 0.000050 
#    z -0.045850 0.000050 3.719260 
# 
# 
# High freq. dielectric constant tensor:
#      x y z
#    x 1.768880 0.000000 0.009930 
#    y 0.000000 1.784600 0.000000 
#    z 0.009930 0.000000 1.785850 
# 
# From -- ./inp_files/60658.got.cif
#   From: 2010.03.12/outbox.cif.g09.slc.cpg/sg5_31_cif.got.tgz:60658.got - 2010.03.31 09:47:26.
