data_PCOD8048356
_publ_section_title
;
Structure prediction by ZEFSAII (Michael W. Deem and Ramdas Pophale) SiO2 
 PCOD8048356
Probable space group: C 2
;
_chemical_formula_sum "Si O2"
_cell_formula_units_Z 28
_cell_length_a 9.849215
_cell_length_b 16.970224
_cell_length_c 13.617843
_cell_angle_alpha 90.000000
_cell_angle_beta 40.682886
_cell_angle_gamma 90.000000
_cell_volume 1483.746787
_symmetry_space_group_name_H-M "C 2"
_symmetry_group_IT_number 5
_symmetry_cell_setting 'monoclinic'
loop_
_space_group_symop_operation_xyz
x,y,z
-x,y,-z
1/2+x,1/2+y,z
1/2-x,1/2+y,-z
loop_
_atom_site_type_symbol
_atom_site_label
_atom_site_fract_x
_atom_site_fract_y
_atom_site_fract_z
Si Si1 0.732131 0.265720 0.904242
Si Si2 0.242891 0.321995 0.891240
Si Si3 0.422516 0.620107 0.889592
Si Si4 0.632239 0.882736 0.332463
Si Si5 0.323435 0.155946 0.781949
Si Si6 0.513167 0.464238 0.747522
Si Si7 0.596397 0.029822 0.554604
O O1 0.856581 0.184125 0.845226
O O2 0.846230 0.312259 0.755100
O O3 0.500000 0.245150 0.000000
O O4 0.732788 0.315161 0.004820
O O5 0.359032 0.249872 0.770996
O O6 0.346645 0.402563 0.793474
O O7 0.000000 0.318789 0.000000
O O8 0.666090 0.634548 0.779931
O O9 0.384504 0.532419 0.871671
O O10 0.276020 0.627106 0.063157
O O11 0.500000 0.854467 0.500000
O O12 0.855578 0.913856 0.245995
O O13 0.517183 0.953512 0.336542
O O14 0.542760 0.109629 0.644567
O O15 0.657449 0.508850 0.586780
O O16 0.500000 0.039487 0.500000
#
# Coordination Sequence:
#
# PCOD8048356 Si02
#       7
#     4   4   4   4   4   4   4
#     4  11  21  36  60  90 116 157 207 251 301 365
#     4  11  22  37  61  95 132 156 202 259 318 359
#     4  10  20  34  58  88 117 153 213 243 307 356
#     4   9  19  35  59  89 116 148 204 251 293 359
#     4  10  18  36  58  87 122 161 200 257 293 376
#     4  10  20  37  58  90 117 159 204 255 295 372
#     4   9  18  34  57  87 116 154 213 247 291 362
#
# _framework density 18.871144000000001
#
# number of rings (size 3 to 8) (size 9 to 14) (size 15 to 20)
#    0.000    2.286    7.143    0.000    2.000    0.571 
#    5.143    0.000    0.000    0.000    0.000    0.000 
#    0.000    0.000    0.000    0.000    0.000    0.000 
#
# Total GULP energy -173513.458682 kJ/mol
# GULP energy per Si atom -12393.818477 kJ/mol
# Density = 1.882819 g / cm^3
# Si number density = 18.871144 Si / 1000 Ang^3
#
#
#
# Elastic Constant Matrix: (Units=GPa)
#
#
# Indices 1 2 3 4 5 6 
#
# 1 56.9595 44.0355 28.2971 -0.0003 -1.7905 0.0006
# 2 44.0355 166.7568 72.2582 0.0002 2.1095 0.0004
# 3 28.2971 72.2582 76.0895 -0.0009 -4.3618 0.0010
# 4 -0.0003 0.0002 -0.0009 43.9781 0.0002 4.3980
# 5 -1.7905 2.1095 -4.3618 0.0002 14.5063 -0.0010
# 6 0.0006 0.0004 0.0010 4.3980 -0.0010 20.0597
#
#
#
# Elastic Compliance Matrix: (Units=1/GPa)
#
#
# Indices 1 2 3 4 5 6 
#
# 1 0.023084 -0.004171 -0.004503 0.000000 0.002102 0.000000
# 2 -0.004171 0.011236 -0.009405 0.000000 -0.004977 0.000000
# 3 -0.004503 -0.009405 0.024212 0.000001 0.008092 -0.000001
# 4 0.000000 0.000000 0.000001 0.023248 -0.000001 -0.005097
# 5 0.002102 -0.004977 0.008092 -0.000001 0.072352 0.000003
# 6 0.000000 0.000000 -0.000001 -0.005097 0.000003 0.050969
#
#
# Mechanical properties :
#
#
# Convention : Reuss Voigt Hill
#
# Bulk Modulus (GPa) = 44.69345 65.44306 55.06826
# Shear Modulus (GPa) = 20.10306 26.05648 23.07977
#
# Velocity S-wave (km/s) = 3.26740 3.71989 3.50096
# Velocity P-wave (km/s) = 6.16194 7.29413 6.75181
#
# Compressibility (1/GPa) = 0.02237464
#
# Stress axis : x y z
#
# Youngs Moduli (GPa) = 43.31946 88.99678 41.30157
#
# Poissons Ratio (x) = 0.37122 0.18599
# Poissons Ratio (y) = 0.18069 0.38843
# Poissons Ratio (z) = 0.19508 0.83698
#
# Static dielectric constant tensor:
#      x y z
#    x 3.240350 0.000000 -0.089470 
#    y 0.000000 3.735990 0.000000 
#    z -0.089470 0.000000 3.437980 
# 
# 
# High freq. dielectric constant tensor:
#      x y z
#    x 1.692480 0.000000 -0.005460 
#    y 0.000000 1.742950 0.000000 
#    z -0.005460 0.000000 1.727020 
# 
# From -- ./inp_files/51338.got.cif
#   From: 2010.03.12/outbox.cif.g09.slc.cpg/sg5_26_cif.got.tgz:51338.got - 2010.03.31 09:47:26.
