data_PCOD8048640
_publ_section_title
;
Structure prediction by ZEFSAII (Michael W. Deem and Ramdas Pophale) SiO2 
 PCOD8048640
Probable space group: C 2
;
_chemical_formula_sum "Si O2"
_cell_formula_units_Z 22
_cell_length_a 5.359020
_cell_length_b 26.595516
_cell_length_c 9.295719
_cell_angle_alpha 90.000000
_cell_angle_beta 137.726822
_cell_angle_gamma 90.000000
_cell_volume 891.202483
_symmetry_space_group_name_H-M "C 2"
_symmetry_group_IT_number 5
_symmetry_cell_setting 'monoclinic'
loop_
_space_group_symop_operation_xyz
x,y,z
-x,y,-z
1/2+x,1/2+y,z
1/2-x,1/2+y,-z
loop_
_atom_site_type_symbol
_atom_site_label
_atom_site_fract_x
_atom_site_fract_y
_atom_site_fract_z
Si Si1 0.665687 0.959370 0.244930
Si Si2 0.107627 0.774587 0.881409
Si Si3 0.500000 0.868982 0.000000
Si Si4 0.667630 0.513215 0.246999
Si Si5 0.835472 0.128019 0.755522
Si Si6 0.309268 0.173385 0.734199
O O1 0.000000 0.957785 0.500000
O O2 0.324995 0.993621 0.159336
O O3 0.519228 0.902797 0.152250
O O4 0.821578 0.980248 0.158096
O O5 0.127741 0.832946 0.835854
O O6 0.820983 0.733185 0.698423
O O7 0.500000 0.750347 0.000000
O O8 0.000000 0.777033 0.000000
O O9 0.535814 0.570458 0.179620
O O10 0.000000 0.507465 0.500000
O O11 0.500000 0.135723 0.500000
O O12 0.693438 0.144975 0.854780
O O13 0.182709 0.162543 0.846040
O O14 0.000000 0.148463 0.500000
#
# Coordination Sequence:
#
# PCOD8048640 Si02
#       6
#     4   4   2   4   4   4
#     4  10  21  38  62  89 118 158 202 246 299 363
#     4  10  23  41  58  81 113 166 191 248 316 346
#     4  10  26  42  64  82 124 158 204 258 314 346
#     4   9  18  34  59  91 121 153 194 242 297 360
#     4   9  17  31  58  90 121 152 189 240 300 353
#     4  10  19  35  60  90 115 153 200 243 290 365
#
# _framework density 24.685748
#
# number of rings (size 3 to 8) (size 9 to 14) (size 15 to 20)
#    0.545    1.818    0.000    2.182    2.545    4.364 
#    3.273    0.000   20.000    0.000    0.000    0.000 
#    0.000    0.000    0.000    0.000    0.000    0.000 
#
# Total GULP energy -136276.109458 kJ/mol
# GULP energy per Si atom -12388.737223 kJ/mol
# Density = 2.462956 g / cm^3
# Si number density = 24.685748 Si / 1000 Ang^3
#
#
#
# Elastic Constant Matrix: (Units=GPa)
#
#
# Indices 1 2 3 4 5 6 
#
# 1 225.8401 91.8156 54.7399 0.0000 -12.1442 0.0000
# 2 91.8156 197.1662 19.0194 0.0000 17.2936 0.0000
# 3 54.7399 19.0194 31.0020 0.0000 9.6309 0.0000
# 4 0.0000 0.0000 0.0000 32.4863 0.0000 -2.7725
# 5 -12.1442 17.2936 9.6309 0.0000 39.3858 0.0000
# 6 0.0000 0.0000 0.0000 -2.7725 0.0000 65.4668
#
#
#
# Elastic Compliance Matrix: (Units=1/GPa)
#
#
# Indices 1 2 3 4 5 6 
#
# 1 0.012360 -0.004576 -0.022537 0.000000 0.011331 0.000000
# 2 -0.004576 0.007190 0.005505 0.000000 -0.005914 0.000000
# 3 -0.022537 0.005505 0.077466 0.000000 -0.028309 0.000000
# 4 0.000000 0.000000 0.000000 0.030894 0.000000 0.001308
# 5 0.011331 -0.005914 -0.028309 0.000000 0.038403 0.000000
# 6 0.000000 0.000000 0.000000 0.001308 0.000000 0.015330
#
#
# Mechanical properties :
#
#
# Convention : Reuss Voigt Hill
#
# Bulk Modulus (GPa) = 18.58683 87.23980 52.91332
# Shear Modulus (GPa) = 20.59383 46.69668 33.64525
#
# Velocity S-wave (km/s) = 2.89145 4.35402 3.69581
# Velocity P-wave (km/s) = 4.32355 7.79061 6.30026
#
# Compressibility (1/GPa) = 0.05380154
#
# Stress axis : x y z
#
# Youngs Moduli (GPa) = 80.90622 139.07627 12.90893
#
# Poissons Ratio (x) = 0.63636 0.29093
# Poissons Ratio (y) = 0.37020 -0.07107
# Poissons Ratio (z) = 1.82337 -0.76564
#
# Static dielectric constant tensor:
#      x y z
#    x 4.932620 0.000000 0.007810 
#    y 0.000000 4.455670 0.000000 
#    z 0.007810 0.000000 4.274200 
# 
# 
# High freq. dielectric constant tensor:
#      x y z
#    x 2.011330 0.000000 0.001480 
#    y 0.000000 1.972230 0.000000 
#    z 0.001480 0.000000 2.001310 
# 
# From -- ./inp_files/34155.got.cif
#   From: 2010.03.12/outbox.cif.g09.slc.cpg/sg5_18_cif.got.tgz:34155.got - 2010.03.31 09:47:26.
