data_PCOD8048220
_publ_section_title
;
Structure prediction by ZEFSAII (Michael W. Deem and Ramdas Pophale) SiO2 
 PCOD8048220
Probable space group: C 2
;
_chemical_formula_sum "Si O2"
_cell_formula_units_Z 22
_cell_length_a 23.321347
_cell_length_b 9.130831
_cell_length_c 6.533350
_cell_angle_alpha 90.000000
_cell_angle_beta 113.855323
_cell_angle_gamma 90.000000
_cell_volume 1272.379365
_symmetry_space_group_name_H-M "C 2"
_symmetry_group_IT_number 5
_symmetry_cell_setting 'monoclinic'
loop_
_space_group_symop_operation_xyz
x,y,z
-x,y,-z
1/2+x,1/2+y,z
1/2-x,1/2+y,-z
loop_
_atom_site_type_symbol
_atom_site_label
_atom_site_fract_x
_atom_site_fract_y
_atom_site_fract_z
Si Si1 0.000000 0.531670 0.500000
Si Si2 0.185888 0.207786 0.781040
Si Si3 0.400357 0.895065 0.112174
Si Si4 0.632395 0.121695 0.629853
Si Si5 0.278668 0.379315 0.192605
Si Si6 0.674285 0.888907 0.379718
O O1 0.972623 0.428464 0.276448
O O2 0.943545 0.628748 0.515200
O O3 0.121697 0.245830 0.808226
O O4 0.177046 0.246280 0.528882
O O5 0.198585 0.038643 0.839431
O O6 0.242710 0.303659 0.953885
O O7 0.356936 0.028472 0.144242
O O8 0.387955 0.880920 0.852957
O O9 0.658981 0.284562 0.675005
O O10 0.668476 0.037288 0.500736
O O11 0.236687 0.390427 0.334682
#
# Coordination Sequence:
#
# PCOD8048220 Si02
#       6
#     2   4   4   4   4   4
#     4   8  18  38  58  78 104 146 190 210 260 320
#     4  10  20  32  50  80 112 141 177 222 270 323
#     4   8  18  35  54  80 100 143 182 220 261 311
#     4   9  19  35  54  81 105 143 182 217 262 318
#     4  11  20  33  53  80 116 139 176 223 275 318
#     4  10  18  32  54  80 106 139 179 221 272 312
#
# _framework density 17.290441999999999
#
# number of rings (size 3 to 8) (size 9 to 14) (size 15 to 20)
#    1.091    1.455    0.000    4.364    0.000    2.182 
#    0.000    0.909    0.000    0.000    4.727    0.000 
#    0.000    0.000    0.000    0.000    0.000    0.000 
#
# Total GULP energy -136281.429561 kJ/mol
# GULP energy per Si atom -12389.220869 kJ/mol
# Density = 1.725109 g / cm^3
# Si number density = 17.290442 Si / 1000 Ang^3
#
#
#
# Elastic Constant Matrix: (Units=GPa)
#
#
# Indices 1 2 3 4 5 6 
#
# 1 85.5337 41.4642 36.2056 0.0000 19.1807 0.0000
# 2 41.4642 125.0767 51.5683 0.0000 12.3446 0.0000
# 3 36.2056 51.5683 116.4651 0.0000 8.1451 0.0000
# 4 0.0000 0.0000 0.0000 19.2643 0.0000 6.3666
# 5 19.1807 12.3446 8.1451 0.0000 28.9934 0.0000
# 6 0.0000 0.0000 0.0000 6.3666 0.0000 26.0564
#
#
#
# Elastic Compliance Matrix: (Units=1/GPa)
#
#
# Indices 1 2 3 4 5 6 
#
# 1 0.016561 -0.003379 -0.003046 0.000000 -0.008662 0.000000
# 2 -0.003379 0.010734 -0.003610 0.000000 -0.001320 0.000000
# 3 -0.003046 -0.003610 0.011101 0.000000 0.000434 0.000000
# 4 0.000000 0.000000 0.000000 0.056469 0.000000 -0.013798
# 5 -0.008662 -0.001320 0.000434 0.000000 0.040661 0.000000
# 6 0.000000 0.000000 0.000000 -0.013798 0.000000 0.041750
#
#
# Mechanical properties :
#
#
# Convention : Reuss Voigt Hill
#
# Bulk Modulus (GPa) = 54.56898 65.06131 59.81515
# Shear Modulus (GPa) = 24.57524 28.05198 26.31361
#
# Velocity S-wave (km/s) = 3.77413 4.03227 3.90533
# Velocity P-wave (km/s) = 7.11483 7.70643 7.41653
#
# Compressibility (1/GPa) = 0.01832543
#
# Stress axis : x y z
#
# Youngs Moduli (GPa) = 60.38152 93.16128 90.07908
#
# Poissons Ratio (x) = 0.31483 0.27441
# Poissons Ratio (y) = 0.20405 0.32518
# Poissons Ratio (z) = 0.18394 0.33630
#
# Static dielectric constant tensor:
#      x y z
#    x 3.072880 0.000000 0.053140 
#    y 0.000000 3.023580 0.000000 
#    z 0.053140 0.000000 3.234230 
# 
# 
# High freq. dielectric constant tensor:
#      x y z
#    x 1.653150 0.000000 0.001680 
#    y 0.000000 1.645480 0.000000 
#    z 0.001680 0.000000 1.671370 
# 
# From -- ./inp_files/10666.got.cif
#   From: 2010.03.12/outbox.cif.g09.slc.cpg/sg5_6_cif.got.tgz:10666.got - 2010.03.31 09:47:26.
