data_PCOD8048923
_publ_section_title
;
Structure prediction by ZEFSAII (Michael W. Deem and Ramdas Pophale) SiO2 
 PCOD8048923
Probable space group: C 2
;
_chemical_formula_sum "Si O2"
_cell_formula_units_Z 26
_cell_length_a 9.960153
_cell_length_b 10.812131
_cell_length_c 18.057299
_cell_angle_alpha 90.000000
_cell_angle_beta 146.120052
_cell_angle_gamma 90.000000
_cell_volume 1084.025743
_symmetry_space_group_name_H-M "C 2"
_symmetry_group_IT_number 5
_symmetry_cell_setting 'monoclinic'
loop_
_space_group_symop_operation_xyz
x,y,z
-x,y,-z
1/2+x,1/2+y,z
1/2-x,1/2+y,-z
loop_
_atom_site_type_symbol
_atom_site_label
_atom_site_fract_x
_atom_site_fract_y
_atom_site_fract_z
Si Si1 0.853793 0.308380 0.586879
Si Si2 0.427350 0.049744 0.704806
Si Si3 0.500000 0.118764 0.500000
Si Si4 0.000000 0.479825 0.000000
Si Si5 0.753068 0.920497 0.976117
Si Si6 0.187529 0.083806 0.231022
Si Si7 0.682361 0.708546 0.849225
Si Si8 0.500000 0.726283 0.500000
O O1 0.800314 0.444470 0.595043
O O2 0.653853 0.207861 0.516308
O O3 0.112591 0.271694 0.740590
O O4 0.890494 0.310798 0.515279
O O5 0.627920 0.123140 0.748571
O O6 0.215720 0.141906 0.632330
O O7 0.568699 0.997671 0.840648
O O8 0.339481 0.031290 0.372208
O O9 0.785173 0.573522 0.879129
O O10 0.095439 0.392791 0.977891
O O11 0.848250 0.796833 0.977571
O O12 0.997690 0.988618 0.109686
O O13 0.053713 0.201776 0.205024
#
# Coordination Sequence:
#
# PCOD8048923 Si02
#       8
#     4   4   2   2   4   4   4   2
#     4  10  22  39  65  94 132 180 227 276 341 397
#     4  11  23  41  67  96 139 176 229 283 339 402
#     4  10  19  43  66  94 140 178 223 281 342 398
#     4  10  20  40  60  92 130 166 214 274 332 396
#     4  10  22  41  66  98 128 178 224 275 346 399
#     4  10  21  40  68  97 133 178 220 278 341 408
#     4   9  21  39  65  91 131 177 216 276 338 400
#     4  12  23  43  66 102 136 184 231 287 334 412
#
# _framework density 23.984672
#
# number of rings (size 3 to 8) (size 9 to 14) (size 15 to 20)
#    0.000    1.846    1.538    1.846    4.308    0.615 
#    5.538    1.538    0.000    0.000    0.000    0.000 
#    0.000    0.000    0.000    0.000    0.000    0.000 
#
# Total GULP energy -161045.895082 kJ/mol
# GULP energy per Si atom -12388.145776 kJ/mol
# Density = 2.393008 g / cm^3
# Si number density = 23.984672 Si / 1000 Ang^3
#
#
#
# Elastic Constant Matrix: (Units=GPa)
#
#
# Indices 1 2 3 4 5 6 
#
# 1 113.6385 -4.7315 22.2630 0.0000 -8.5270 -0.0001
# 2 -4.7315 35.4103 16.5162 0.0002 -6.9367 0.0000
# 3 22.2630 16.5162 131.2330 0.0006 -8.3844 -0.0006
# 4 0.0000 0.0002 0.0006 30.8393 0.0000 -0.4765
# 5 -8.5270 -6.9367 -8.3844 0.0000 37.9925 -0.0002
# 6 -0.0001 0.0000 -0.0006 -0.4765 -0.0002 20.2381
#
#
#
# Elastic Compliance Matrix: (Units=1/GPa)
#
#
# Indices 1 2 3 4 5 6 
#
# 1 0.009416 0.002513 -0.001774 0.000000 0.002180 0.000000
# 2 0.002513 0.031527 -0.004047 0.000000 0.005427 0.000000
# 3 -0.001774 -0.004047 0.008477 0.000000 0.000734 0.000000
# 4 0.000000 0.000000 0.000000 0.032438 0.000000 0.000764
# 5 0.002180 0.005427 0.000734 0.000000 0.027963 0.000000
# 6 0.000000 0.000000 0.000000 0.000764 0.000000 0.049430
#
#
# Mechanical properties :
#
#
# Convention : Reuss Voigt Hill
#
# Bulk Modulus (GPa) = 23.36317 38.70856 31.03587
# Shear Modulus (GPa) = 27.75682 34.22959 30.99321
#
# Velocity S-wave (km/s) = 3.40556 3.78186 3.59863
# Velocity P-wave (km/s) = 5.02253 5.93665 5.49862
#
# Compressibility (1/GPa) = 0.04280240
#
# Stress axis : x y z
#
# Youngs Moduli (GPa) = 106.20590 31.71880 117.96239
#
# Poissons Ratio (x) = -0.07970 0.20930
# Poissons Ratio (y) = -0.26688 0.47744
# Poissons Ratio (z) = 0.18844 0.12838
#
# Static dielectric constant tensor:
#      x y z
#    x 4.639390 0.000000 0.051630 
#    y 0.000000 3.922620 0.000000 
#    z 0.051630 0.000000 4.492900 
# 
# 
# High freq. dielectric constant tensor:
#      x y z
#    x 1.969780 0.000000 0.003020 
#    y 0.000000 1.914460 0.000000 
#    z 0.003020 0.000000 1.960800 
# 
# From -- ./inp_files/46319.got.cif
#   From: 2010.03.12/outbox.cif.g09.slc.cpg/sg5_24_cif.got.tgz:46319.got - 2010.03.31 09:47:26.
