data_PCOD8048418
_publ_section_title
;
Structure prediction by ZEFSAII (Michael W. Deem and Ramdas Pophale) SiO2 
 PCOD8048418
Probable space group: C 2
;
_chemical_formula_sum "Si O2"
_cell_formula_units_Z 22
_cell_length_a 6.464314
_cell_length_b 14.003484
_cell_length_c 10.949679
_cell_angle_alpha 90.000000
_cell_angle_beta 90.769491
_cell_angle_gamma 90.000000
_cell_volume 991.107501
_symmetry_space_group_name_H-M "C 2"
_symmetry_group_IT_number 5
_symmetry_cell_setting 'monoclinic'
loop_
_space_group_symop_operation_xyz
x,y,z
-x,y,-z
1/2+x,1/2+y,z
1/2-x,1/2+y,-z
loop_
_atom_site_type_symbol
_atom_site_label
_atom_site_fract_x
_atom_site_fract_y
_atom_site_fract_z
Si Si1 0.488943 0.701440 0.873143
Si Si2 0.606339 0.292955 0.755301
Si Si3 0.500000 0.036515 0.000000
Si Si4 0.572923 0.925468 0.364287
Si Si5 0.337058 0.119799 0.748845
Si Si6 0.769544 0.386967 0.144350
O O1 0.257174 0.731896 0.842214
O O2 0.591840 0.642703 0.762217
O O3 0.634948 0.790879 0.907738
O O4 0.500000 0.640764 0.000000
O O5 0.740228 0.351084 0.657479
O O6 0.452705 0.213732 0.694663
O O7 0.475404 0.370581 0.833093
O O8 0.423941 0.098799 0.885452
O O9 0.690896 0.970854 0.953160
O O10 0.500000 0.909134 0.500000
O O11 0.380797 0.909228 0.273802
O O12 0.649492 0.033839 0.346244
#
# Coordination Sequence:
#
# PCOD8048418 Si02
#       6
#     4   4   2   4   4   4
#     4  10  19  36  58  94 129 161 205 251 313 387
#     4  10  22  41  62  89 129 170 210 261 320 376
#     4  10  18  38  62  94 132 160 206 258 318 396
#     4  10  23  44  62  90 124 164 221 267 318 379
#     4  10  22  38  60  94 126 163 210 263 316 389
#     4   9  20  38  62  91 123 165 209 251 316 380
#
# _framework density 22.197389999999999
#
# number of rings (size 3 to 8) (size 9 to 14) (size 15 to 20)
#    0.000    2.182    0.909    1.091    0.000    7.273 
#    9.818    1.818    0.000    0.000    0.000    0.000 
#    0.000    0.000    0.000    0.000    0.000    0.000 
#
# Total GULP energy -136328.985804 kJ/mol
# GULP energy per Si atom -12393.544164 kJ/mol
# Density = 2.214687 g / cm^3
# Si number density = 22.197390 Si / 1000 Ang^3
#
#
#
# Elastic Constant Matrix: (Units=GPa)
#
#
# Indices 1 2 3 4 5 6 
#
# 1 143.6443 42.4076 38.3403 0.0000 -32.0203 0.0000
# 2 42.4076 101.9310 30.4643 0.0000 -19.6133 0.0000
# 3 38.3403 30.4643 90.1896 0.0000 -30.9756 0.0000
# 4 0.0000 0.0000 0.0000 21.5998 0.0000 -10.7086
# 5 -32.0203 -19.6133 -30.9756 0.0000 25.6000 0.0000
# 6 0.0000 0.0000 0.0000 -10.7086 0.0000 41.0817
#
#
#
# Elastic Compliance Matrix: (Units=1/GPa)
#
#
# Indices 1 2 3 4 5 6 
#
# 1 0.010014 -0.002086 0.000343 0.000000 0.011343 0.000000
# 2 -0.002086 0.012057 -0.001556 0.000000 0.004745 0.000000
# 3 0.000343 -0.001556 0.019173 0.000000 0.022437 0.000000
# 4 0.000000 0.000000 0.000000 0.053168 0.000000 0.013859
# 5 0.011343 0.004745 0.022437 0.000000 0.084033 0.000000
# 6 0.000000 0.000000 0.000000 0.013859 0.000000 0.027954
#
#
# Mechanical properties :
#
#
# Convention : Reuss Voigt Hill
#
# Bulk Modulus (GPa) = 28.86345 62.02102 45.44224
# Shear Modulus (GPa) = 22.26713 32.62648 27.44681
#
# Velocity S-wave (km/s) = 3.17068 3.83800 3.52019
# Velocity P-wave (km/s) = 5.14155 6.90229 6.08594
#
# Compressibility (1/GPa) = 0.03464589
#
# Stress axis : x y z
#
# Youngs Moduli (GPa) = 99.85551 82.94213 52.15597
#
# Poissons Ratio (x) = 0.17306 -0.01790
# Poissons Ratio (y) = 0.20835 0.08115
# Poissons Ratio (z) = -0.03427 0.12905
#
# Static dielectric constant tensor:
#      x y z
#    x 4.313240 0.000000 -0.320610 
#    y 0.000000 4.180730 0.000000 
#    z -0.320610 0.000000 3.466150 
# 
# 
# High freq. dielectric constant tensor:
#      x y z
#    x 1.881530 0.000000 -0.026200 
#    y 0.000000 1.883150 0.000000 
#    z -0.026200 0.000000 1.832400 
# 
# From -- ./inp_files/33214.got.cif
#   From: 2010.03.12/outbox.cif.g09.slc.cpg/sg5_17_cif.got.tgz:33214.got - 2010.03.31 09:47:26.
