data_PCOD8048328
_publ_section_title
;
Structure prediction by ZEFSAII (Michael W. Deem and Ramdas Pophale) SiO2 
 PCOD8048328
Probable space group: C 2
;
_chemical_formula_sum "Si O2"
_cell_formula_units_Z 32
_cell_length_a 14.664932
_cell_length_b 13.376274
_cell_length_c 8.821626
_cell_angle_alpha 90.000000
_cell_angle_beta 73.861426
_cell_angle_gamma 90.000000
_cell_volume 1662.275193
_symmetry_space_group_name_H-M "C 2"
_symmetry_group_IT_number 5
_symmetry_cell_setting 'monoclinic'
loop_
_space_group_symop_operation_xyz
x,y,z
-x,y,-z
1/2+x,1/2+y,z
1/2-x,1/2+y,-z
loop_
_atom_site_type_symbol
_atom_site_label
_atom_site_fract_x
_atom_site_fract_y
_atom_site_fract_z
Si Si1 0.191115 0.955570 0.688947
Si Si2 0.713704 0.913143 0.649327
Si Si3 0.359130 0.941317 0.825966
Si Si4 0.236784 0.283831 0.918130
Si Si5 0.469016 0.813724 0.352025
Si Si6 0.604076 0.280492 0.920346
Si Si7 0.416001 0.643803 0.145964
Si Si8 0.396731 0.055879 0.083896
O O1 0.203446 0.949139 0.501656
O O2 0.294257 0.972919 0.714792
O O3 0.151585 0.852091 0.775189
O O4 0.120169 0.047365 0.746706
O O5 0.761115 0.842659 0.753155
O O6 0.637929 0.853269 0.583068
O O7 0.660381 0.003476 0.756054
O O8 0.463973 0.908222 0.722683
O O9 0.324441 0.845833 0.934882
O O10 0.349029 0.037906 0.941335
O O11 0.173604 0.186882 0.906988
O O12 0.337462 0.264253 0.951035
O O13 0.500000 0.768813 0.500000
O O14 0.466548 0.725570 0.229871
O O15 0.594859 0.168697 0.859665
O O16 0.500000 0.325028 0.000000
O O17 0.500000 0.604826 0.000000
O O18 0.500000 0.007832 0.000000
#
# Coordination Sequence:
#
# PCOD8048328 Si02
#       8
#     4   4   4   4   4   4   4   4
#     4  11  23  38  55  86 126 165 194 247 315 376
#     4  10  21  35  59  88 123 153 194 261 317 362
#     4  10  18  35  60  87 117 151 202 250 303 355
#     4   9  20  37  61  87 112 155 204 253 303 362
#     4  11  20  36  61  93 122 155 204 263 309 354
#     4  10  22  41  60  81 115 163 212 248 297 370
#     4  11  22  38  62  91 125 162 208 254 306 374
#     4  10  19  33  60  87 110 149 202 254 296 358
#
# _framework density 19.250722
#
# number of rings (size 3 to 8) (size 9 to 14) (size 15 to 20)
#    0.000    1.750    3.750    1.125    0.000    2.000 
#    0.000    4.375    0.000    0.000    0.000    0.000 
#    0.000    0.000    0.000    0.000    0.000    0.000 
#
# Total GULP energy -198292.725056 kJ/mol
# GULP energy per Si atom -12393.295316 kJ/mol
# Density = 1.920691 g / cm^3
# Si number density = 19.250722 Si / 1000 Ang^3
#
#
#
# Elastic Constant Matrix: (Units=GPa)
#
#
# Indices 1 2 3 4 5 6 
#
# 1 85.3462 10.8945 42.3636 0.0000 -4.8399 0.0000
# 2 10.8945 70.1207 36.1246 0.0000 -15.8982 0.0000
# 3 42.3636 36.1246 125.2835 0.0000 -10.1360 0.0000
# 4 0.0000 0.0000 0.0000 22.8498 0.0000 -6.5203
# 5 -4.8399 -15.8982 -10.1360 0.0000 26.5784 0.0000
# 6 0.0000 0.0000 0.0000 -6.5203 0.0000 22.9013
#
#
#
# Elastic Compliance Matrix: (Units=1/GPa)
#
#
# Indices 1 2 3 4 5 6 
#
# 1 0.014111 0.000539 -0.004842 0.000000 0.001046 0.000000
# 2 0.000539 0.018829 -0.004842 0.000000 0.009515 0.000000
# 3 -0.004842 -0.004842 0.011051 0.000000 0.000436 0.000000
# 4 0.000000 0.000000 0.000000 0.047634 0.000000 0.013562
# 5 0.001046 0.009515 0.000436 0.000000 0.043673 0.000000
# 6 0.000000 0.000000 0.000000 0.013562 0.000000 0.047527
#
#
# Mechanical properties :
#
#
# Convention : Reuss Voigt Hill
#
# Bulk Modulus (GPa) = 38.90909 51.05730 44.98319
# Shear Modulus (GPa) = 23.84572 27.22374 25.53473
#
# Velocity S-wave (km/s) = 3.52332 3.76462 3.64597
# Velocity P-wave (km/s) = 6.06691 6.74362 6.41419
#
# Compressibility (1/GPa) = 0.02570094
#
# Stress axis : x y z
#
# Youngs Moduli (GPa) = 70.86615 53.10989 90.49165
#
# Poissons Ratio (x) = -0.02865 0.43821
# Poissons Ratio (y) = -0.03822 0.43814
# Poissons Ratio (z) = 0.34317 0.25715
#
# Static dielectric constant tensor:
#      x y z
#    x 3.604660 0.000000 0.064210 
#    y 0.000000 3.342730 0.000000 
#    z 0.064210 0.000000 3.422880 
# 
# 
# High freq. dielectric constant tensor:
#      x y z
#    x 1.748650 0.000000 0.001170 
#    y 0.000000 1.739720 0.000000 
#    z 0.001170 0.000000 1.743610 
# 
# From -- ./inp_files/24622.got.cif
#   From: 2010.03.12/outbox.cif.g09.slc.cpg/sg5_13_cif.got.tgz:24622.got - 2010.03.31 09:47:26.
