data_PCOD8048036
_publ_section_title
;
Structure prediction by ZEFSAII (Michael W. Deem and Ramdas Pophale) SiO2 
 PCOD8048036
Probable space group: C 2
;
_chemical_formula_sum "Si O2"
_cell_formula_units_Z 24
_cell_length_a 28.264054
_cell_length_b 8.336581
_cell_length_c 5.168330
_cell_angle_alpha 90.000000
_cell_angle_beta 79.389361
_cell_angle_gamma 90.000000
_cell_volume 1196.967940
_symmetry_space_group_name_H-M "C 2"
_symmetry_group_IT_number 5
_symmetry_cell_setting 'monoclinic'
loop_
_space_group_symop_operation_xyz
x,y,z
-x,y,-z
1/2+x,1/2+y,z
1/2-x,1/2+y,-z
loop_
_atom_site_type_symbol
_atom_site_label
_atom_site_fract_x
_atom_site_fract_y
_atom_site_fract_z
Si Si1 0.520886 0.598170 0.727112
Si Si2 0.771203 0.727907 0.132272
Si Si3 0.478725 0.235056 0.769518
Si Si4 0.272595 0.589571 0.322831
Si Si5 0.872494 0.014193 0.408944
Si Si6 0.872267 0.808944 0.913736
O O1 0.500000 0.690618 0.500000
O O2 0.498390 0.418205 0.750041
O O3 0.578338 0.613553 0.652402
O O4 0.500000 0.687748 0.000000
O O5 0.761420 0.617578 0.393168
O O6 0.764901 0.909164 0.234492
O O7 0.736935 0.701183 0.917673
O O8 0.825443 0.694284 0.971959
O O9 0.500000 0.143933 0.500000
O O10 0.421289 0.216755 0.801639
O O11 0.500000 0.146726 0.000000
O O12 0.327039 0.622226 0.368170
O O13 0.863381 0.946200 0.706574
O O14 0.878977 0.873483 0.196155
#
# Coordination Sequence:
#
# PCOD8048036 Si02
#       6
#     4   4   4   4   4   4
#     4  10  15  24  40  68 106 139 165 208 283 351
#     4  11  23  39  57  81 112 154 196 239 280 332
#     4  10  15  24  40  68 106 139 165 208 283 351
#     4  11  23  39  57  81 112 154 196 239 280 332
#     4  11  18  29  48  73 106 149 174 219 282 340
#     4  11  18  29  48  73 106 149 174 219 282 340
#
# _framework density 20.050664000000001
#
# number of rings (size 3 to 8) (size 9 to 14) (size 15 to 20)
#    0.000    1.333    6.667    5.000    0.000    0.000 
#    0.000    0.000    0.000    0.000    0.000    0.000 
#    0.000   20.000    0.000    0.000    0.000    0.000 
#
# Total GULP energy -148665.731180 kJ/mol
# GULP energy per Si atom -12388.810932 kJ/mol
# Density = 2.000503 g / cm^3
# Si number density = 20.050664 Si / 1000 Ang^3
#
#
#
# Elastic Constant Matrix: (Units=GPa)
#
#
# Indices 1 2 3 4 5 6 
#
# 1 188.1407 35.8212 78.9415 0.0000 -8.1862 0.0000
# 2 35.8212 23.1405 19.1381 0.0000 -4.7535 0.0000
# 3 78.9415 19.1381 173.1679 0.0000 4.2304 0.0000
# 4 0.0000 0.0000 0.0000 17.1667 0.0000 1.6207
# 5 -8.1862 -4.7535 4.2304 0.0000 48.5148 0.0000
# 6 0.0000 0.0000 0.0000 1.6207 0.0000 13.9543
#
#
#
# Elastic Compliance Matrix: (Units=1/GPa)
#
#
# Indices 1 2 3 4 5 6 
#
# 1 0.008548 -0.010864 -0.002711 0.000000 0.000614 0.000000
# 2 -0.010864 0.062677 -0.002084 0.000000 0.004490 0.000000
# 3 -0.002711 -0.002084 0.007273 0.000000 -0.001296 0.000000
# 4 0.000000 0.000000 0.000000 0.058898 0.000000 -0.006841
# 5 0.000614 0.004490 -0.001296 0.000000 0.021269 0.000000
# 6 0.000000 0.000000 0.000000 -0.006841 0.000000 0.072457
#
#
# Mechanical properties :
#
#
# Convention : Reuss Voigt Hill
#
# Bulk Modulus (GPa) = 21.19562 72.47228 46.83395
# Shear Modulus (GPa) = 17.97493 32.63039 25.30266
#
# Velocity S-wave (km/s) = 2.99737 4.03848 3.55623
# Velocity P-wave (km/s) = 4.75110 7.61372 6.34593
#
# Compressibility (1/GPa) = 0.04717955
#
# Stress axis : x y z
#
# Youngs Moduli (GPa) = 116.98930 15.95488 137.50199
#
# Poissons Ratio (x) = 0.17333 0.37278
# Poissons Ratio (y) = 1.27091 0.28659
# Poissons Ratio (z) = 0.31716 0.03325
#
# Static dielectric constant tensor:
#      x y z
#    x 4.660490 0.000000 1.876440 
#    y 0.000000 2.800380 0.000000 
#    z 1.876440 0.000000 11.484260 
# 
# 
# High freq. dielectric constant tensor:
#      x y z
#    x 1.804130 0.000000 0.007670 
#    y 0.000000 1.680100 0.000000 
#    z 0.007670 0.000000 1.826920 
# 
# From -- ./inp_files/10694.got.cif
#   From: 2010.03.12/outbox.cif.g09.slc.cpg/sg5_6_cif.got.tgz:10694.got - 2010.03.31 09:47:26.
