data_PCOD8048956
_publ_section_title
;
Structure prediction by ZEFSAII (Michael W. Deem and Ramdas Pophale) SiO2 
 PCOD8048956
Probable space group: C 2
;
_chemical_formula_sum "Si O2"
_cell_formula_units_Z 26
_cell_length_a 26.170877
_cell_length_b 5.138578
_cell_length_c 12.942944
_cell_angle_alpha 90.000000
_cell_angle_beta 56.952575
_cell_angle_gamma 90.000000
_cell_volume 1458.989097
_symmetry_space_group_name_H-M "C 2"
_symmetry_group_IT_number 5
_symmetry_cell_setting 'monoclinic'
loop_
_space_group_symop_operation_xyz
x,y,z
-x,y,-z
1/2+x,1/2+y,z
1/2-x,1/2+y,-z
loop_
_atom_site_type_symbol
_atom_site_label
_atom_site_fract_x
_atom_site_fract_y
_atom_site_fract_z
Si Si1 0.036435 0.752420 0.261757
Si Si2 0.271213 0.733846 0.107769
Si Si3 0.175464 0.291364 0.530868
Si Si4 0.234818 0.791985 0.381915
Si Si5 0.500000 0.013315 0.500000
Si Si6 0.326714 0.234547 0.954174
Si Si7 0.962816 0.273085 0.343458
O O1 0.041900 0.695489 0.379638
O O2 0.000549 0.509762 0.248724
O O3 0.102381 0.783978 0.140556
O O4 0.998125 0.009178 0.281209
O O5 0.259784 0.770094 0.240124
O O6 0.301659 0.453689 0.058696
O O7 0.317142 0.954073 0.016117
O O8 0.207188 0.753865 0.118337
O O9 0.187755 0.562294 0.459745
O O10 0.207207 0.278609 0.606948
O O11 0.104057 0.257130 0.630822
O O12 0.199365 0.062387 0.431133
O O13 0.458040 0.829841 0.472825
#
# Coordination Sequence:
#
# PCOD8048956 Si02
#       7
#     4   4   4   4   2   4   4
#     4  10  20  34  51  77 110 138 175 219 267 321
#     4  10  21  36  55  79 105 145 181 223 264 315
#     4  10  21  36  56  85 109 141 178 222 277 323
#     4  10  21  36  58  81 110 142 180 225 270 317
#     4   8  22  30  50  82 102 144 174 200 288 310
#     4  10  21  36  54  79 108 142 183 217 268 319
#     4  10  20  33  52  78 111 136 175 214 272 326
#
# _framework density 17.820557999999998
#
# number of rings (size 3 to 8) (size 9 to 14) (size 15 to 20)
#    0.923    1.231    0.000    3.231    2.154    1.231 
#    0.000    0.000    0.000    5.538    0.000    0.000 
#    0.000    0.000    0.000    0.000    0.000    0.000 
#
# Total GULP energy -161172.578344 kJ/mol
# GULP energy per Si atom -12397.890642 kJ/mol
# Density = 1.778000 g / cm^3
# Si number density = 17.820558 Si / 1000 Ang^3
#
#
#
# Elastic Constant Matrix: (Units=GPa)
#
#
# Indices 1 2 3 4 5 6 
#
# 1 87.8321 32.6157 42.4283 0.0000 -26.5578 0.0001
# 2 32.6157 99.2586 11.9863 0.0003 -5.7643 -0.0004
# 3 42.4283 11.9863 79.5376 0.0000 -2.2993 -0.0001
# 4 0.0000 0.0003 0.0000 17.2297 -0.0001 -4.5331
# 5 -26.5578 -5.7643 -2.2993 -0.0001 33.4402 0.0001
# 6 0.0001 -0.0004 -0.0001 -4.5331 0.0001 19.3207
#
#
#
# Elastic Compliance Matrix: (Units=1/GPa)
#
#
# Indices 1 2 3 4 5 6 
#
# 1 0.024444 -0.005596 -0.011686 0.000000 0.017645 0.000000
# 2 -0.005596 0.011636 0.001163 0.000000 -0.002359 0.000000
# 3 -0.011686 0.001163 0.018405 0.000000 -0.007815 0.000000
# 4 0.000000 0.000000 0.000000 0.061858 0.000000 0.014513
# 5 0.017645 -0.002359 -0.007815 0.000000 0.042973 0.000000
# 6 0.000000 0.000000 0.000000 0.014513 0.000000 0.055163
#
#
# Mechanical properties :
#
#
# Convention : Reuss Voigt Hill
#
# Bulk Modulus (GPa) = 44.94812 48.96545 46.95679
# Shear Modulus (GPa) = 19.67482 25.97131 22.82307
#
# Velocity S-wave (km/s) = 3.32633 3.82171 3.58259
# Velocity P-wave (km/s) = 6.32693 6.85642 6.59699
#
# Compressibility (1/GPa) = 0.02224787
#
# Stress axis : x y z
#
# Youngs Moduli (GPa) = 40.91042 85.93958 54.33289
#
# Poissons Ratio (x) = 0.48093 0.63492
# Poissons Ratio (y) = 0.22894 -0.06321
# Poissons Ratio (z) = 0.47807 -0.09999
#
# Static dielectric constant tensor:
#      x y z
#    x 3.148850 0.000000 -0.017430 
#    y 0.000000 3.591330 0.000000 
#    z -0.017430 0.000000 2.989130 
# 
# 
# High freq. dielectric constant tensor:
#      x y z
#    x 1.675310 0.000000 -0.010500 
#    y 0.000000 1.713090 0.000000 
#    z -0.010500 0.000000 1.668590 
# 
# From -- ./inp_files/47693.got.cif
#   From: 2010.03.12/outbox.cif.g09.slc.cpg/sg5_24_cif.got.tgz:47693.got - 2010.03.31 09:47:26.
