data_PCOD8048783
_publ_section_title
;
Structure prediction by ZEFSAII (Michael W. Deem and Ramdas Pophale) SiO2 
 PCOD8048783
Probable space group: C 2
;
_chemical_formula_sum "Si O2"
_cell_formula_units_Z 22
_cell_length_a 10.215678
_cell_length_b 11.080877
_cell_length_c 10.558684
_cell_angle_alpha 90.000000
_cell_angle_beta 104.854353
_cell_angle_gamma 90.000000
_cell_volume 1155.285198
_symmetry_space_group_name_H-M "C 2"
_symmetry_group_IT_number 5
_symmetry_cell_setting 'monoclinic'
loop_
_space_group_symop_operation_xyz
x,y,z
-x,y,-z
1/2+x,1/2+y,z
1/2-x,1/2+y,-z
loop_
_atom_site_type_symbol
_atom_site_label
_atom_site_fract_x
_atom_site_fract_y
_atom_site_fract_z
Si Si1 0.056451 0.010790 0.148680
Si Si2 0.254112 0.303302 0.465956
Si Si3 0.411002 0.471617 0.356078
Si Si4 0.016239 0.213446 0.708933
Si Si5 0.334306 0.943606 0.311628
Si Si6 0.500000 0.130237 0.500000
O O1 0.023244 0.152846 0.165959
O O2 0.218274 0.995289 0.191646
O O3 0.985860 0.931727 0.243610
O O4 0.000000 0.968328 0.000000
O O5 0.278016 0.389816 0.347400
O O6 0.232904 0.391700 0.578505
O O7 0.377322 0.211191 0.522692
O O8 0.118521 0.227584 0.408758
O O9 0.500000 0.436365 0.500000
O O10 0.386718 0.617026 0.342911
O O11 0.091672 0.338593 0.749027
O O12 0.443448 0.046757 0.372015
#
# Coordination Sequence:
#
# PCOD8048783 Si02
#       6
#     4   4   4   4   4   2
#     4  10  23  44  58  85 129 164 201 241 300 371
#     4  12  20  36  59  93 123 147 196 261 301 343
#     4  10  19  38  59  85 117 157 195 248 299 338
#     4  10  23  36  60  86 122 157 197 247 303 349
#     4  12  22  36  62  91 122 156 201 251 304 354
#     4  12  22  30  58  94 118 152 196 254 306 346
#
# _framework density 19.042916000000002
#
# number of rings (size 3 to 8) (size 9 to 14) (size 15 to 20)
#    1.091    0.000    6.364    1.091    2.545    0.000 
#    3.273    0.000    0.000    0.000    0.000    1.273 
#    0.000    0.000    0.000    0.000    0.000    0.000 
#
# Total GULP energy -136286.405779 kJ/mol
# GULP energy per Si atom -12389.673253 kJ/mol
# Density = 1.899957 g / cm^3
# Si number density = 19.042916 Si / 1000 Ang^3
#
#
#
# Elastic Constant Matrix: (Units=GPa)
#
#
# Indices 1 2 3 4 5 6 
#
# 1 89.6364 47.2844 32.2666 0.0000 10.4687 0.0000
# 2 47.2844 105.9239 19.8305 0.0000 5.2200 0.0000
# 3 32.2666 19.8305 106.9692 0.0000 3.6417 0.0000
# 4 0.0000 0.0000 0.0000 12.2772 0.0000 -1.3026
# 5 10.4687 5.2200 3.6417 0.0000 23.9313 0.0000
# 6 0.0000 0.0000 0.0000 -1.3026 0.0000 34.9592
#
#
#
# Elastic Compliance Matrix: (Units=1/GPa)
#
#
# Indices 1 2 3 4 5 6 
#
# 1 0.016443 -0.006409 -0.003593 0.000000 -0.005248 0.000000
# 2 -0.006409 0.012362 -0.000364 0.000000 0.000163 0.000000
# 3 -0.003593 -0.000364 0.010498 0.000000 0.000054 0.000000
# 4 0.000000 0.000000 0.000000 0.081775 0.000000 0.003047
# 5 -0.005248 0.000163 0.000054 0.000000 0.044039 0.000000
# 6 0.000000 0.000000 0.000000 0.003047 0.000000 0.028718
#
#
# Mechanical properties :
#
#
# Convention : Reuss Voigt Hill
#
# Bulk Modulus (GPa) = 53.84795 55.69917 54.77356
# Shear Modulus (GPa) = 22.64921 27.77674 25.21297
#
# Velocity S-wave (km/s) = 3.45248 3.82336 3.64264
# Velocity P-wave (km/s) = 6.65066 6.98595 6.82037
#
# Compressibility (1/GPa) = 0.01857081
#
# Stress axis : x y z
#
# Youngs Moduli (GPa) = 60.81455 80.89414 95.25602
#
# Poissons Ratio (x) = 0.51845 0.34228
# Poissons Ratio (y) = 0.38976 0.03467
# Poissons Ratio (z) = 0.21852 0.02945
#
# Static dielectric constant tensor:
#      x y z
#    x 3.612190 0.000000 0.036280 
#    y 0.000000 3.629180 0.000000 
#    z 0.036280 0.000000 2.977970 
# 
# 
# High freq. dielectric constant tensor:
#      x y z
#    x 1.742720 0.000000 0.006200 
#    y 0.000000 1.748630 0.000000 
#    z 0.006200 0.000000 1.686830 
# 
# From -- ./inp_files/35487.got.cif
#   From: 2010.03.12/outbox.cif.g09.slc.cpg/sg5_18_cif.got.tgz:35487.got - 2010.03.31 09:47:26.
