data_PCOD8048016
_publ_section_title
;
Structure prediction by ZEFSAII (Michael W. Deem and Ramdas Pophale) SiO2 
 PCOD8048016
Probable space group: P 21
;
_chemical_formula_sum "Si O2"
_cell_formula_units_Z 10
_cell_length_a 11.077038
_cell_length_b 6.532279
_cell_length_c 12.033875
_cell_angle_alpha 90.000000
_cell_angle_beta 156.005773
_cell_angle_gamma 90.000000
_cell_volume 354.086093
_symmetry_space_group_name_H-M "P 21"
_symmetry_group_IT_number 4
_symmetry_cell_setting 'monoclinic'
loop_
_space_group_symop_operation_xyz
x,y,z
-x,1/2+y,-z
loop_
_atom_site_type_symbol
_atom_site_label
_atom_site_fract_x
_atom_site_fract_y
_atom_site_fract_z
Si Si1 0.942121 0.169820 0.105319
Si Si2 0.428084 0.128844 0.826189
Si Si3 0.787424 0.193058 0.345068
Si Si4 0.102921 0.214337 0.998418
Si Si5 0.297537 0.484478 0.503242
O O1 0.242075 0.239426 0.427155
O O2 0.909359 0.925354 0.079819
O O3 0.930226 0.253226 0.968912
O O4 0.635687 0.249426 0.909792
O O5 0.355549 0.898693 0.725070
O O6 0.121582 0.249098 0.588735
O O7 0.603370 0.101983 0.088508
O O8 0.787617 0.023458 0.441551
O O9 0.964575 0.051200 0.800359
O O10 0.417673 0.112567 0.296746
#
# Coordination Sequence:
#
# PCOD8048016 Si02
#       5
#     2   2   2   2   2
#     4  12  29  57  89 126 179 234 292 373 448 529
#     4  12  28  51  85 121 174 232 291 367 450 530
#     4  12  27  53  83 124 172 228 297 362 447 542
#     4  12  29  53  88 126 172 233 295 366 445 532
#     4  12  29  54  87 123 175 229 297 366 444 531
#
# _framework density 28.241719
#
# number of rings (size 3 to 8) (size 9 to 14) (size 15 to 20)
#    0.000    0.000    4.000    3.600    5.600    6.400 
#    0.000    0.000    0.000    0.000    0.000    0.000 
#    0.000    0.000    0.000    0.000    0.000    0.000 
#
# Total GULP energy -123992.520145 kJ/mol
# GULP energy per Si atom -12399.252015 kJ/mol
# Density = 2.817744 g / cm^3
# Si number density = 28.241719 Si / 1000 Ang^3
#
#
#
# Elastic Constant Matrix: (Units=GPa)
#
#
# Indices 1 2 3 4 5 6 
#
# 1 188.9740 52.9214 61.2044 0.0000 -2.8259 0.0000
# 2 52.9214 139.0516 58.8537 0.0000 10.3584 0.0000
# 3 61.2044 58.8537 161.3415 0.0000 1.1066 0.0000
# 4 0.0000 0.0000 0.0000 62.7559 0.0000 4.5750
# 5 -2.8259 10.3584 1.1066 0.0000 37.7795 0.0000
# 6 0.0000 0.0000 0.0000 4.5750 0.0000 37.4309
#
#
#
# Elastic Compliance Matrix: (Units=1/GPa)
#
#
# Indices 1 2 3 4 5 6 
#
# 1 0.006375 -0.001744 -0.001789 0.000000 0.001007 0.000000
# 2 -0.001744 0.009176 -0.002668 0.000000 -0.002568 0.000000
# 3 -0.001789 -0.002668 0.007847 0.000000 0.000368 0.000000
# 4 0.000000 0.000000 0.000000 0.016078 0.000000 -0.001965
# 5 0.001007 -0.002568 0.000368 0.000000 0.027238 0.000000
# 6 0.000000 0.000000 0.000000 -0.001965 0.000000 0.026956
#
#
# Mechanical properties :
#
#
# Convention : Reuss Voigt Hill
#
# Bulk Modulus (GPa) = 90.94166 92.81401 91.87784
# Shear Modulus (GPa) = 45.56350 48.68577 47.12464
#
# Velocity S-wave (km/s) = 4.02100 4.15649 4.08930
# Velocity P-wave (km/s) = 7.33682 7.48135 7.40944
#
# Compressibility (1/GPa) = 0.01099606
#
# Stress axis : x y z
#
# Youngs Moduli (GPa) = 156.87307 108.98202 127.43168
#
# Poissons Ratio (x) = 0.19006 0.22797
# Poissons Ratio (y) = 0.27358 0.33998
# Poissons Ratio (z) = 0.28063 0.29076
#
# Static dielectric constant tensor:
#      x y z
#    x 5.077260 0.000000 -0.013750 
#    y 0.000000 5.325530 0.000000 
#    z -0.013750 0.000000 5.321480 
# 
# 
# High freq. dielectric constant tensor:
#      x y z
#    x 2.149620 0.000000 -0.006050 
#    y 0.000000 2.178460 0.000000 
#    z -0.006050 0.000000 2.153460 
# 
# From -- ./inp_files/11928.got.cif
#   From: 2010.03.12/outbox.cif.g09.slc.cpg/sg4_6_cif.got.tgz:11928.got - 2010.03.31 09:31:35.
