data_PCOD8048458
_publ_section_title
;
Structure prediction by ZEFSAII (Michael W. Deem and Ramdas Pophale) SiO2 
 PCOD8048458
Probable space group: C 2
;
_chemical_formula_sum "Si O2"
_cell_formula_units_Z 30
_cell_length_a 22.070396
_cell_length_b 9.576962
_cell_length_c 8.615294
_cell_angle_alpha 90.000000
_cell_angle_beta 61.255394
_cell_angle_gamma 90.000000
_cell_volume 1596.594691
_symmetry_space_group_name_H-M "C 2"
_symmetry_group_IT_number 5
_symmetry_cell_setting 'monoclinic'
loop_
_space_group_symop_operation_xyz
x,y,z
-x,y,-z
1/2+x,1/2+y,z
1/2-x,1/2+y,-z
loop_
_atom_site_type_symbol
_atom_site_label
_atom_site_fract_x
_atom_site_fract_y
_atom_site_fract_z
Si Si1 0.500000 0.326630 0.000000
Si Si2 0.748013 0.330561 0.824734
Si Si3 0.363745 0.236866 0.288373
Si Si4 0.550355 0.583858 0.115617
Si Si5 0.825487 0.447439 0.453419
Si Si6 0.682624 0.478831 0.471717
Si Si7 0.184371 0.061118 0.127105
Si Si8 0.092629 0.199439 0.737430
O O1 0.439490 0.221107 0.122730
O O2 0.528239 0.425476 0.103853
O O3 0.691883 0.259380 0.780412
O O4 0.810853 0.396257 0.647128
O O5 0.775398 0.208864 0.905884
O O6 0.716856 0.461237 0.956568
O O7 0.371235 0.368174 0.393892
O O8 0.346574 0.108300 0.420771
O O9 0.604280 0.591194 0.188667
O O10 0.481852 0.670109 0.250018
O O11 0.588709 0.651202 0.919885
O O12 0.757255 0.429613 0.435528
O O13 0.888701 0.362253 0.297837
O O14 0.684697 0.476118 0.285265
O O15 0.657473 0.627578 0.568854
#
# Coordination Sequence:
#
# PCOD8048458 Si02
#       8
#     2   4   4   4   4   4   4   4
#     4  10  18  40  60  90 112 162 206 246 292 368
#     4  11  25  40  60  95 126 162 199 259 318 357
#     4  11  21  40  64  85 123 161 206 250 296 376
#     4  10  21  38  66  84 122 160 211 249 292 377
#     4  11  22  39  59  90 123 155 206 251 295 373
#     4  11  20  37  62  88 117 161 203 248 305 356
#     4  12  24  39  61  96 127 157 203 261 316 360
#     4  10  20  41  61  89 114 168 210 239 299 364
#
# _framework density 18.789992000000002
#
# number of rings (size 3 to 8) (size 9 to 14) (size 15 to 20)
#    0.000    1.333    6.667    1.600    3.733    1.600 
#    0.000    0.000    0.000    1.600    0.000    0.000 
#    0.000    0.000    0.000    0.000    0.000    0.000 
#
# Total GULP energy -185966.134926 kJ/mol
# GULP energy per Si atom -12397.742328 kJ/mol
# Density = 1.874723 g / cm^3
# Si number density = 18.789992 Si / 1000 Ang^3
#
#
#
# Elastic Constant Matrix: (Units=GPa)
#
#
# Indices 1 2 3 4 5 6 
#
# 1 90.4048 35.2907 29.1356 0.0000 -9.2111 0.0000
# 2 35.2907 93.7865 30.7195 0.0000 -0.7100 0.0000
# 3 29.1356 30.7195 72.3642 0.0000 -9.8738 0.0000
# 4 0.0000 0.0000 0.0000 32.8588 0.0000 -3.3665
# 5 -9.2111 -0.7100 -9.8738 0.0000 28.0445 0.0000
# 6 0.0000 0.0000 0.0000 -3.3665 0.0000 23.2687
#
#
#
# Elastic Compliance Matrix: (Units=1/GPa)
#
#
# Indices 1 2 3 4 5 6 
#
# 1 0.014143 -0.004158 -0.003477 0.000000 0.003316 0.000000
# 2 -0.004158 0.013677 -0.004487 0.000000 -0.002599 0.000000
# 3 -0.003477 -0.004487 0.017808 0.000000 0.005014 0.000000
# 4 0.000000 0.000000 0.000000 0.030891 0.000000 0.004469
# 5 0.003316 -0.002599 0.005014 0.000000 0.038446 0.000000
# 6 0.000000 0.000000 0.000000 0.004469 0.000000 0.043623
#
#
# Mechanical properties :
#
#
# Convention : Reuss Voigt Hill
#
# Bulk Modulus (GPa) = 46.76193 49.64966 48.20580
# Shear Modulus (GPa) = 26.32159 27.59505 26.95832
#
# Velocity S-wave (km/s) = 3.74683 3.83639 3.79188
# Velocity P-wave (km/s) = 6.60749 6.79005 6.69939
#
# Compressibility (1/GPa) = 0.02138492
#
# Stress axis : x y z
#
# Youngs Moduli (GPa) = 70.70767 73.11563 56.15580
#
# Poissons Ratio (x) = 0.30400 0.19524
# Poissons Ratio (y) = 0.29399 0.25195
# Poissons Ratio (z) = 0.24583 0.32804
#
# Static dielectric constant tensor:
#      x y z
#    x 3.415870 0.000000 -0.129290 
#    y 0.000000 3.399280 0.000000 
#    z -0.129290 0.000000 3.476130 
# 
# 
# High freq. dielectric constant tensor:
#      x y z
#    x 1.719940 0.000000 -0.015580 
#    y 0.000000 1.727480 0.000000 
#    z -0.015580 0.000000 1.729850 
# 
# From -- ./inp_files/30672.got.cif
#   From: 2010.03.12/outbox.cif.g09.slc.cpg/sg5_16_cif.got.tgz:30672.got - 2010.03.31 09:47:26.
