data_PCOD8048867
_publ_section_title
;
Structure prediction by ZEFSAII (Michael W. Deem and Ramdas Pophale) SiO2 
 PCOD8048867
Probable space group: C 2
;
_chemical_formula_sum "Si O2"
_cell_formula_units_Z 32
_cell_length_a 23.968989
_cell_length_b 9.118597
_cell_length_c 15.114194
_cell_angle_alpha 90.000000
_cell_angle_beta 28.427292
_cell_angle_gamma 90.000000
_cell_volume 1572.566655
_symmetry_space_group_name_H-M "C 2"
_symmetry_group_IT_number 5
_symmetry_cell_setting 'monoclinic'
loop_
_space_group_symop_operation_xyz
x,y,z
-x,y,-z
1/2+x,1/2+y,z
1/2-x,1/2+y,-z
loop_
_atom_site_type_symbol
_atom_site_label
_atom_site_fract_x
_atom_site_fract_y
_atom_site_fract_z
Si Si1 0.173752 0.621630 0.645481
Si Si2 0.226919 0.675829 0.764964
Si Si3 0.890299 0.782347 0.811730
Si Si4 0.855211 0.947911 0.037446
Si Si5 0.380610 0.425817 0.341649
Si Si6 0.053346 0.535747 0.141179
Si Si7 0.787062 0.270080 0.092274
Si Si8 0.110280 0.931282 0.466083
O O1 0.164670 0.608509 0.764592
O O2 0.298855 0.564321 0.436496
O O3 0.181284 0.792274 0.619339
O O4 0.068958 0.537654 0.741363
O O5 0.359677 0.606681 0.585496
O O6 0.223888 0.853607 0.781266
O O7 0.151060 0.624052 0.952692
O O8 0.841629 0.885457 0.957496
O O9 0.952749 0.630710 0.758920
O O10 0.780684 0.740175 0.904160
O O11 0.978447 0.879516 0.625076
O O12 0.990728 0.944755 0.878820
O O13 0.819032 0.116081 0.091027
O O14 0.386320 0.384558 0.436415
O O15 0.096885 0.367742 0.092511
O O16 0.709186 0.348271 0.274176
#
# Coordination Sequence:
#
# PCOD8048867 Si02
#       8
#     4   4   4   4   4   4   4   4
#     4  11  20  37  60  82 115 151 192 228 300 340
#     4   9  19  36  61  81 109 155 188 235 285 348
#     4  10  19  40  60  80 116 155 193 235 287 340
#     4  10  21  39  56  89 120 143 200 238 284 349
#     4  10  22  36  58  81 115 151 187 238 283 353
#     4  10  20  36  60  83 116 151 193 233 284 345
#     4  11  22  34  61  88 115 151 189 244 289 336
#     4   9  19  38  56  83 109 151 195 231 284 341
#
# _framework density 20.348898999999999
#
# number of rings (size 3 to 8) (size 9 to 14) (size 15 to 20)
#    0.000    2.000    3.750    1.500    1.750    1.000 
#    0.000    0.000    2.750    4.500    0.000    0.000 
#    0.000    0.000    0.000    0.000    0.000    0.000 
#
# Total GULP energy -198241.364404 kJ/mol
# GULP energy per Si atom -12390.085275 kJ/mol
# Density = 2.030258 g / cm^3
# Si number density = 20.348899 Si / 1000 Ang^3
#
#
#
# Elastic Constant Matrix: (Units=GPa)
#
#
# Indices 1 2 3 4 5 6 
#
# 1 61.1382 43.4300 20.8780 0.0000 -15.8205 0.0000
# 2 43.4300 144.3496 46.0146 -0.0002 -19.7133 0.0000
# 3 20.8780 46.0146 68.5805 -0.0001 -4.7370 0.0000
# 4 0.0000 -0.0002 -0.0001 36.1832 0.0000 -2.2025
# 5 -15.8205 -19.7133 -4.7370 0.0000 19.9532 0.0000
# 6 0.0000 0.0000 0.0000 -2.2025 0.0000 28.0854
#
#
#
# Elastic Compliance Matrix: (Units=1/GPa)
#
#
# Indices 1 2 3 4 5 6 
#
# 1 0.024249 -0.004216 -0.003571 0.000000 0.014213 0.000000
# 2 -0.004216 0.010779 -0.005535 0.000000 0.005992 0.000000
# 3 -0.003571 -0.005535 0.019122 0.000000 -0.003760 0.000000
# 4 0.000000 0.000000 0.000000 0.027770 0.000000 0.002178
# 5 0.014213 0.005992 -0.003760 0.000000 0.066414 0.000000
# 6 0.000000 0.000000 0.000000 0.002178 0.000000 0.035776
#
#
# Mechanical properties :
#
#
# Convention : Reuss Voigt Hill
#
# Bulk Modulus (GPa) = 36.35640 54.96815 45.66228
# Shear Modulus (GPa) = 22.73521 27.76076 25.24799
#
# Velocity S-wave (km/s) = 3.34619 3.69757 3.52626
# Velocity P-wave (km/s) = 5.73015 6.73059 6.25042
#
# Compressibility (1/GPa) = 0.02750547
#
# Stress axis : x y z
#
# Youngs Moduli (GPa) = 41.23908 92.77503 52.29446
#
# Poissons Ratio (x) = 0.39116 0.18677
# Poissons Ratio (y) = 0.17387 0.28943
# Poissons Ratio (z) = 0.14728 0.51348
#
# Static dielectric constant tensor:
#      x y z
#    x 3.683910 0.000000 -0.075930 
#    y 0.000000 3.915960 0.000000 
#    z -0.075930 0.000000 3.760920 
# 
# 
# High freq. dielectric constant tensor:
#      x y z
#    x 1.792260 0.000000 0.000470 
#    y 0.000000 1.793110 0.000000 
#    z 0.000470 0.000000 1.780790 
# 
# From -- ./inp_files/57684.got.cif
#   From: 2010.03.12/outbox.cif.g09.slc.cpg/sg5_29_cif.got.tgz:57684.got - 2010.03.31 09:47:26.
