data_PCOD8048995
_publ_section_title
;
Structure prediction by ZEFSAII (Michael W. Deem and Ramdas Pophale) SiO2 
 PCOD8048995
Probable space group: C 2
;
_chemical_formula_sum "Si O2"
_cell_formula_units_Z 32
_cell_length_a 14.469635
_cell_length_b 14.866532
_cell_length_c 8.071947
_cell_angle_alpha 90.000000
_cell_angle_beta 64.208843
_cell_angle_gamma 90.000000
_cell_volume 1563.414910
_symmetry_space_group_name_H-M "C 2"
_symmetry_group_IT_number 5
_symmetry_cell_setting 'monoclinic'
loop_
_space_group_symop_operation_xyz
x,y,z
-x,y,-z
1/2+x,1/2+y,z
1/2-x,1/2+y,-z
loop_
_atom_site_type_symbol
_atom_site_label
_atom_site_fract_x
_atom_site_fract_y
_atom_site_fract_z
Si Si1 0.017250 0.082730 0.679984
Si Si2 0.275071 0.216712 0.538161
Si Si3 0.597937 0.445202 0.032851
Si Si4 0.410364 0.302292 0.685095
Si Si5 0.973488 0.657888 0.207519
Si Si6 0.941035 0.470260 0.373515
Si Si7 0.558058 0.774287 0.626795
Si Si8 0.723557 0.523626 0.656527
O O1 0.019321 0.184984 0.754203
O O2 0.121313 0.024980 0.622899
O O3 0.000000 0.088740 0.500000
O O4 0.924957 0.035605 0.847118
O O5 0.312575 0.288873 0.643857
O O6 0.359803 0.194439 0.333232
O O7 0.180276 0.258012 0.510113
O O8 0.251264 0.127766 0.665116
O O9 0.624350 0.366052 0.138789
O O10 0.500000 0.415409 0.000000
O O11 0.697270 0.468900 0.845041
O O12 0.500000 0.346062 0.500000
O O13 0.448456 0.206356 0.727148
O O14 0.980175 0.550003 0.224612
O O15 0.000000 0.683625 0.000000
O O16 0.962434 0.372014 0.272193
O O17 0.818158 0.474022 0.495574
O O18 0.000000 0.481294 0.500000
O O19 0.500000 0.779800 0.500000
#
# Coordination Sequence:
#
# PCOD8048995 Si02
#       8
#     4   4   4   4   4   4   4   4
#     4   9  18  35  56  83 111 138 179 230 282 329
#     4   9  19  38  58  80 113 150 183 226 283 329
#     4  10  20  34  56  85 114 144 181 227 280 334
#     4  10  20  35  58  85 115 145 178 230 286 333
#     4  10  20  36  59  86 112 141 184 233 279 332
#     4  10  20  38  57  76 110 151 187 224 272 326
#     4   9  19  36  58  79 104 147 190 221 264 326
#     4   9  19  36  56  78 110 148 181 223 278 331
#
# _framework density 20.468015000000001
#
# number of rings (size 3 to 8) (size 9 to 14) (size 15 to 20)
#    0.000    2.500    0.000    2.625    0.000    6.000 
#    0.000   19.375    0.000    0.000    0.000    0.000 
#    0.000    0.000    0.000    0.000    0.000    0.000 
#
# Total GULP energy -198264.249406 kJ/mol
# GULP energy per Si atom -12391.515588 kJ/mol
# Density = 2.042143 g / cm^3
# Si number density = 20.468015 Si / 1000 Ang^3
#
#
#
# Elastic Constant Matrix: (Units=GPa)
#
#
# Indices 1 2 3 4 5 6 
#
# 1 94.3162 36.4283 27.7951 0.0000 1.5188 0.0000
# 2 36.4283 127.1959 38.0454 0.0000 1.6804 0.0000
# 3 27.7951 38.0454 89.0431 0.0000 6.4633 0.0000
# 4 0.0000 0.0000 0.0000 23.5200 0.0000 9.3817
# 5 1.5188 1.6804 6.4633 0.0000 19.9923 0.0000
# 6 0.0000 0.0000 0.0000 9.3817 0.0000 23.1733
#
#
#
# Elastic Compliance Matrix: (Units=1/GPa)
#
#
# Indices 1 2 3 4 5 6 
#
# 1 0.012468 -0.002758 -0.002726 0.000000 0.000166 0.000000
# 2 -0.002758 0.009629 -0.003287 0.000000 0.000463 0.000000
# 3 -0.002726 -0.003287 0.013774 0.000000 -0.003970 0.000000
# 4 0.000000 0.000000 0.000000 0.050705 0.000000 -0.020528
# 5 0.000166 0.000463 -0.003970 0.000000 0.051251 0.000000
# 6 0.000000 0.000000 0.000000 -0.020528 0.000000 0.051464
#
#
# Mechanical properties :
#
#
# Convention : Reuss Voigt Hill
#
# Bulk Modulus (GPa) = 54.55456 57.23254 55.89355
# Shear Modulus (GPa) = 23.48054 27.22287 25.35171
#
# Velocity S-wave (km/s) = 3.39068 3.65090 3.52319
# Velocity P-wave (km/s) = 6.48386 6.76718 6.62703
#
# Compressibility (1/GPa) = 0.01833027
#
# Stress axis : x y z
#
# Youngs Moduli (GPa) = 80.20270 103.85618 72.60125
#
# Poissons Ratio (x) = 0.28641 0.19789
# Poissons Ratio (y) = 0.22118 0.23863
# Poissons Ratio (z) = 0.21861 0.34135
#
# Static dielectric constant tensor:
#      x y z
#    x 3.759000 0.000000 -0.070340 
#    y 0.000000 4.133220 0.000000 
#    z -0.070340 0.000000 3.421300 
# 
# 
# High freq. dielectric constant tensor:
#      x y z
#    x 1.799630 0.000000 0.001080 
#    y 0.000000 1.818290 0.000000 
#    z 0.001080 0.000000 1.761350 
# 
# From -- ./inp_files/24636.got.cif
#   From: 2010.03.12/outbox.cif.g09.slc.cpg/sg5_13_cif.got.tgz:24636.got - 2010.03.31 09:47:26.
