data_PCOD8048964
_publ_section_title
;
Structure prediction by ZEFSAII (Michael W. Deem and Ramdas Pophale) SiO2 
 PCOD8048964
Probable space group: C 2
;
_chemical_formula_sum "Si O2"
_cell_formula_units_Z 18
_cell_length_a 19.925532
_cell_length_b 8.391580
_cell_length_c 15.778335
_cell_angle_alpha 90.000000
_cell_angle_beta 160.483353
_cell_angle_gamma 90.000000
_cell_volume 881.386221
_symmetry_space_group_name_H-M "C 2"
_symmetry_group_IT_number 5
_symmetry_cell_setting 'monoclinic'
loop_
_space_group_symop_operation_xyz
x,y,z
-x,y,-z
1/2+x,1/2+y,z
1/2-x,1/2+y,-z
loop_
_atom_site_type_symbol
_atom_site_label
_atom_site_fract_x
_atom_site_fract_y
_atom_site_fract_z
Si Si1 0.531850 0.228790 0.281987
Si Si2 0.702722 0.756926 0.767628
Si Si3 0.377188 0.110541 0.273806
Si Si4 0.938914 0.067281 0.755339
Si Si5 0.000000 0.902473 0.000000
O O1 0.496999 0.170388 0.335010
O O2 0.744884 0.168516 0.498909
O O3 0.538979 0.419858 0.283423
O O4 0.349544 0.160799 0.005929
O O5 0.500000 0.659836 0.500000
O O6 0.820510 0.793902 0.821238
O O7 0.630161 0.918615 0.728629
O O8 0.500000 0.180979 0.500000
O O9 0.144759 0.172026 0.994822
O O10 0.911274 0.009314 0.819043
#
# Coordination Sequence:
#
# PCOD8048964 Si02
#       5
#     4   4   4   4   2
#     4  10  20  33  55  83 106 136 175 218 264 307
#     4   9  18  32  55  78 103 139 178 219 253 305
#     4   9  18  33  55  79 103 138 180 217 253 305
#     4  10  20  33  57  80 105 138 174 221 261 307
#     4   8  16  32  54  78  98 136 186 216 246 302
#
# _framework density 20.422374999999999
#
# number of rings (size 3 to 8) (size 9 to 14) (size 15 to 20)
#    0.000    3.111    0.000    4.000    0.000    7.111 
#    0.000    0.000    0.000   60.000    0.000    0.000 
#    0.000    0.000    0.000    0.000    0.000    0.000 
#
# Total GULP energy -111508.891098 kJ/mol
# GULP energy per Si atom -12389.876789 kJ/mol
# Density = 2.037589 g / cm^3
# Si number density = 20.422375 Si / 1000 Ang^3
#
#
#
# Elastic Constant Matrix: (Units=GPa)
#
#
# Indices 1 2 3 4 5 6 
#
# 1 107.8114 30.1632 37.2053 0.0001 8.9469 0.0001
# 2 30.1632 27.7883 25.2641 0.0001 5.1487 0.0001
# 3 37.2053 25.2641 197.1193 0.0001 36.2149 0.0001
# 4 0.0001 0.0001 0.0001 23.7181 0.0001 6.9889
# 5 8.9469 5.1487 36.2149 0.0001 30.5831 0.0001
# 6 0.0001 0.0001 0.0001 6.9889 0.0001 7.8772
#
#
#
# Elastic Compliance Matrix: (Units=1/GPa)
#
#
# Indices 1 2 3 4 5 6 
#
# 1 0.013438 -0.013882 -0.000593 0.000000 -0.000892 0.000000
# 2 -0.013882 0.055091 -0.004451 0.000000 0.000057 0.000000
# 3 -0.000593 -0.004451 0.007139 0.000000 -0.007531 0.000000
# 4 0.000000 0.000000 0.000000 0.057086 0.000000 -0.050648
# 5 -0.000892 0.000057 -0.007531 0.000000 0.041867 0.000000
# 6 0.000000 0.000000 0.000000 -0.050648 0.000000 0.171884
#
#
# Mechanical properties :
#
#
# Convention : Reuss Voigt Hill
#
# Bulk Modulus (GPa) = 26.44438 57.55381 41.99910
# Shear Modulus (GPa) = 12.59563 28.44145 20.51854
#
# Velocity S-wave (km/s) = 2.48615 3.73589 3.17315
# Velocity P-wave (km/s) = 4.60631 6.84486 5.83396
#
# Compressibility (1/GPa) = 0.03781522
#
# Stress axis : x y z
#
# Youngs Moduli (GPa) = 74.41555 18.15180 140.07300
#
# Poissons Ratio (x) = 0.25198 0.08312
# Poissons Ratio (y) = 1.03303 0.62349
# Poissons Ratio (z) = 0.04416 0.08080
#
# Static dielectric constant tensor:
#      x y z
#    x 3.585500 0.000000 0.186960 
#    y 0.000000 3.049960 0.000000 
#    z 0.186960 0.000000 4.493620 
# 
# 
# High freq. dielectric constant tensor:
#      x y z
#    x 1.801430 0.000000 0.012580 
#    y 0.000000 1.724040 0.000000 
#    z 0.012580 0.000000 1.831880 
# 
# From -- ./inp_files/28629.got.cif
#   From: 2010.03.12/outbox.cif.g09.slc.cpg/sg5_15_cif.got.tgz:28629.got - 2010.03.31 09:47:26.
