data_PCOD8048701
_publ_section_title
;
Structure prediction by ZEFSAII (Michael W. Deem and Ramdas Pophale) SiO2 
 PCOD8048701
Probable space group: C 2
;
_chemical_formula_sum "Si O2"
_cell_formula_units_Z 26
_cell_length_a 12.409866
_cell_length_b 13.201706
_cell_length_c 9.608645
_cell_angle_alpha 90.000000
_cell_angle_beta 122.007167
_cell_angle_gamma 90.000000
_cell_volume 1334.891077
_symmetry_space_group_name_H-M "C 2"
_symmetry_group_IT_number 5
_symmetry_cell_setting 'monoclinic'
loop_
_space_group_symop_operation_xyz
x,y,z
-x,y,-z
1/2+x,1/2+y,z
1/2-x,1/2+y,-z
loop_
_atom_site_type_symbol
_atom_site_label
_atom_site_fract_x
_atom_site_fract_y
_atom_site_fract_z
Si Si1 0.500000 0.171340 0.500000
Si Si2 0.639087 0.536820 0.664774
Si Si3 0.769709 0.558086 0.469284
Si Si4 0.309638 0.313010 0.217337
Si Si5 0.887379 0.237699 0.712217
Si Si6 0.829659 0.233358 0.136794
Si Si7 0.858278 0.358841 0.420667
O O1 0.408886 0.105221 0.537060
O O2 0.422460 0.243217 0.345858
O O3 0.500000 0.554758 0.500000
O O4 0.744744 0.546264 0.616543
O O5 0.644808 0.429691 0.750114
O O6 0.674369 0.619453 0.806160
O O7 0.662072 0.622180 0.314706
O O8 0.762165 0.447089 0.397277
O O9 0.186373 0.308793 0.231327
O O10 0.278343 0.264654 0.045950
O O11 0.858537 0.270337 0.534552
O O12 0.035367 0.246328 0.848403
O O13 0.808309 0.312736 0.244541
O O14 0.000000 0.403362 0.500000
#
# Coordination Sequence:
#
# PCOD8048701 Si02
#       7
#     2   4   4   4   4   4   4
#     4  10  24  42  62  92 132 174 214 256 328 392
#     4  12  22  43  70  94 125 177 218 253 327 391
#     4  11  20  38  69  92 120 175 213 260 309 403
#     4  11  24  40  66  92 135 164 217 268 324 375
#     4  10  20  38  64  92 125 172 213 261 313 393
#     4  11  23  41  61 100 131 163 214 279 309 377
#     4  10  19  36  63  91 125 168 217 255 322 383
#
# _framework density 19.477243000000001
#
# number of rings (size 3 to 8) (size 9 to 14) (size 15 to 20)
#    0.000    1.231    6.154    0.923    0.000    2.462 
#    0.000    0.769    0.000    0.000    0.000    0.000 
#    0.000    0.000    0.000    0.000    0.000    0.000 
#
# Total GULP energy -161184.261097 kJ/mol
# GULP energy per Si atom -12398.789315 kJ/mol
# Density = 1.943291 g / cm^3
# Si number density = 19.477243 Si / 1000 Ang^3
#
#
#
# Elastic Constant Matrix: (Units=GPa)
#
#
# Indices 1 2 3 4 5 6 
#
# 1 91.9835 41.6262 39.4065 0.0000 -8.2292 0.0000
# 2 41.6262 122.8621 50.0347 0.0000 6.2806 0.0000
# 3 39.4065 50.0347 131.4259 0.0000 2.2664 0.0000
# 4 0.0000 0.0000 0.0000 29.6632 0.0000 -6.4542
# 5 -8.2292 6.2806 2.2664 0.0000 20.1858 0.0000
# 6 0.0000 0.0000 0.0000 -6.4542 0.0000 31.1621
#
#
#
# Elastic Compliance Matrix: (Units=1/GPa)
#
#
# Indices 1 2 3 4 5 6 
#
# 1 0.014706 -0.004169 -0.002954 0.000000 0.007624 0.000000
# 2 -0.004169 0.010952 -0.002837 0.000000 -0.004789 0.000000
# 3 -0.002954 -0.002837 0.009599 0.000000 -0.001399 0.000000
# 4 0.000000 0.000000 0.000000 0.035303 0.000000 0.007312
# 5 0.007624 -0.004789 -0.001399 0.000000 0.054295 0.000000
# 6 0.000000 0.000000 0.000000 0.007312 0.000000 0.033605
#
#
# Mechanical properties :
#
#
# Convention : Reuss Voigt Hill
#
# Bulk Modulus (GPa) = 65.20210 67.60070 66.40140
# Shear Modulus (GPa) = 27.24950 30.54916 28.89933
#
# Velocity S-wave (km/s) = 3.74444 3.96467 3.85612
# Velocity P-wave (km/s) = 7.22794 7.46599 7.34793
#
# Compressibility (1/GPa) = 0.01533693
#
# Stress axis : x y z
#
# Youngs Moduli (GPa) = 68.00106 91.30910 104.18265
#
# Poissons Ratio (x) = 0.38069 0.30771
# Poissons Ratio (y) = 0.28351 0.29554
# Poissons Ratio (z) = 0.20084 0.25902
#
# Static dielectric constant tensor:
#      x y z
#    x 3.786150 0.000000 -0.092750 
#    y 0.000000 3.643210 0.000000 
#    z -0.092750 0.000000 3.265780 
# 
# 
# High freq. dielectric constant tensor:
#      x y z
#    x 1.766530 0.000000 -0.010680 
#    y 0.000000 1.772590 0.000000 
#    z -0.010680 0.000000 1.732970 
# 
# From -- ./inp_files/20264.got.cif
#   From: 2010.03.12/outbox.cif.g09.slc.cpg/sg5_11_cif.got.tgz:20264.got - 2010.03.31 09:47:26.
