data_PCOD8048853
_publ_section_title
;
Structure prediction by ZEFSAII (Michael W. Deem and Ramdas Pophale) SiO2 
 PCOD8048853
Probable space group: C 2
;
_chemical_formula_sum "Si O2"
_cell_formula_units_Z 22
_cell_length_a 18.618379
_cell_length_b 7.924500
_cell_length_c 7.775477
_cell_angle_alpha 90.000000
_cell_angle_beta 67.745436
_cell_angle_gamma 90.000000
_cell_volume 1061.749468
_symmetry_space_group_name_H-M "C 2"
_symmetry_group_IT_number 5
_symmetry_cell_setting 'monoclinic'
loop_
_space_group_symop_operation_xyz
x,y,z
-x,y,-z
1/2+x,1/2+y,z
1/2-x,1/2+y,-z
loop_
_atom_site_type_symbol
_atom_site_label
_atom_site_fract_x
_atom_site_fract_y
_atom_site_fract_z
Si Si1 0.413367 0.046250 0.013615
Si Si2 0.162819 0.228292 0.027559
Si Si3 0.500000 0.546363 0.500000
Si Si4 0.558651 0.407482 0.103843
Si Si5 0.284710 0.901246 0.335537
Si Si6 0.168140 0.174659 0.397082
O O1 0.400224 0.224341 0.929481
O O2 0.397907 0.885463 0.903128
O O3 0.500000 0.030244 0.000000
O O4 0.353195 0.035308 0.228877
O O5 0.204598 0.214905 0.175057
O O6 0.121637 0.052762 0.021369
O O7 0.222131 0.265060 0.815737
O O8 0.513023 0.428174 0.323760
O O9 0.574957 0.663999 0.466794
O O10 0.500000 0.419836 0.000000
O O11 0.306333 0.818600 0.496027
O O12 0.202632 0.995500 0.428542
#
# Coordination Sequence:
#
# PCOD8048853 Si02
#       6
#     4   4   2   4   4   4
#     4   9  21  41  65 101 127 172 220 261 332 383
#     4   9  22  42  65  91 129 172 217 262 322 386
#     4  10  24  40  70 100 124 178 222 260 332 382
#     4  10  19  39  65  96 134 166 213 272 320 382
#     4  10  25  41  63  99 133 170 216 269 332 382
#     4  11  24  44  67  97 131 176 216 270 330 384
#
# _framework density 20.72052
#
# number of rings (size 3 to 8) (size 9 to 14) (size 15 to 20)
#    1.091    1.091    0.000    1.636    5.091    8.727 
#   13.091    0.000    0.000    0.000    0.000    0.000 
#    0.000    0.000    0.000    0.000    0.000    0.000 
#
# Total GULP energy -136325.287035 kJ/mol
# GULP energy per Si atom -12393.207912 kJ/mol
# Density = 2.067336 g / cm^3
# Si number density = 20.720520 Si / 1000 Ang^3
#
#
#
# Elastic Constant Matrix: (Units=GPa)
#
#
# Indices 1 2 3 4 5 6 
#
# 1 100.5006 41.6446 34.3515 0.0000 13.1566 0.0000
# 2 41.6446 130.3140 19.8741 0.0000 18.6421 0.0000
# 3 34.3515 19.8741 72.0015 0.0000 28.6431 0.0000
# 4 0.0000 0.0000 0.0000 32.9663 0.0000 -7.7994
# 5 13.1566 18.6421 28.6431 0.0000 36.2106 0.0000
# 6 0.0000 0.0000 0.0000 -7.7994 0.0000 22.1039
#
#
#
# Elastic Compliance Matrix: (Units=1/GPa)
#
#
# Indices 1 2 3 4 5 6 
#
# 1 0.013267 -0.003575 -0.006066 0.000000 0.001819 0.000000
# 2 -0.003575 0.009284 0.000770 0.000000 -0.004090 0.000000
# 3 -0.006066 0.000770 0.023129 0.000000 -0.016488 0.000000
# 4 0.000000 0.000000 0.000000 0.033097 0.000000 0.011678
# 5 0.001819 -0.004090 -0.016488 0.000000 0.042103 0.000000
# 6 0.000000 0.000000 0.000000 0.011678 0.000000 0.049362
#
#
# Mechanical properties :
#
#
# Convention : Reuss Voigt Hill
#
# Bulk Modulus (GPa) = 35.79380 54.95073 45.37227
# Shear Modulus (GPa) = 25.34256 32.05256 28.69756
#
# Velocity S-wave (km/s) = 3.50103 3.93733 3.72557
# Velocity P-wave (km/s) = 5.80129 6.87369 6.36014
#
# Compressibility (1/GPa) = 0.02793780
#
# Stress axis : x y z
#
# Youngs Moduli (GPa) = 75.37580 107.71482 43.23500
#
# Poissons Ratio (x) = 0.38505 0.26228
# Poissons Ratio (y) = 0.26944 -0.03328
# Poissons Ratio (z) = 0.45725 -0.08292
#
# Static dielectric constant tensor:
#      x y z
#    x 3.566450 0.000000 0.101360 
#    y 0.000000 3.865340 0.000000 
#    z 0.101360 0.000000 3.770110 
# 
# 
# High freq. dielectric constant tensor:
#      x y z
#    x 1.803640 0.000000 0.009130 
#    y 0.000000 1.811390 0.000000 
#    z 0.009130 0.000000 1.807860 
# 
# From -- ./inp_files/28519.got.cif
#   From: 2010.03.12/outbox.cif.g09.slc.cpg/sg5_15_cif.got.tgz:28519.got - 2010.03.31 09:47:26.
