data_PCOD8048257
_publ_section_title
;
Structure prediction by ZEFSAII (Michael W. Deem and Ramdas Pophale) SiO2 
 PCOD8048257
Probable space group: C 2
;
_chemical_formula_sum "Si O2"
_cell_formula_units_Z 32
_cell_length_a 23.832196
_cell_length_b 8.298657
_cell_length_c 13.549713
_cell_angle_alpha 90.000000
_cell_angle_beta 36.890810
_cell_angle_gamma 90.000000
_cell_volume 1608.660854
_symmetry_space_group_name_H-M "C 2"
_symmetry_group_IT_number 5
_symmetry_cell_setting 'monoclinic'
loop_
_space_group_symop_operation_xyz
x,y,z
-x,y,-z
1/2+x,1/2+y,z
1/2-x,1/2+y,-z
loop_
_atom_site_type_symbol
_atom_site_label
_atom_site_fract_x
_atom_site_fract_y
_atom_site_fract_z
Si Si1 0.404160 0.738970 0.677613
Si Si2 0.276977 0.080268 0.145932
Si Si3 0.668867 0.573152 0.643682
Si Si4 0.219775 0.236209 0.764500
Si Si5 0.982917 0.235132 0.913423
Si Si6 0.443852 0.950550 0.797851
Si Si7 0.121380 0.497289 0.443196
Si Si8 0.745736 0.272137 0.637053
O O1 0.500000 0.658732 0.500000
O O2 0.318785 0.617422 0.778070
O O3 0.411138 0.790218 0.782812
O O4 0.389942 0.909388 0.644252
O O5 0.266014 0.919677 0.225569
O O6 0.301197 0.218845 0.192707
O O7 0.357532 0.065734 0.949753
O O8 0.710218 0.707424 0.660742
O O9 0.557887 0.596547 0.782471
O O10 0.678702 0.389898 0.668178
O O11 0.724907 0.611204 0.464124
O O12 0.310940 0.145187 0.675461
O O13 0.123270 0.166160 0.947768
O O14 0.993898 0.388111 0.826783
O O15 0.000000 0.301166 0.000000
O O16 0.520213 0.052965 0.628068
O O17 0.162058 0.374915 0.467892
#
# Coordination Sequence:
#
# PCOD8048257 Si02
#       8
#     4   4   4   4   4   4   4   4
#     4   9  20  38  60  83 111 157 194 234 297 355
#     4  10  21  37  59  88 118 145 198 244 290 347
#     4  10  18  33  59  84 115 159 202 231 289 343
#     4   9  19  34  58  83 116 153 192 237 286 343
#     4   9  18  33  57  82 113 156 193 230 284 347
#     4  10  19  36  61  85 113 156 194 235 296 342
#     4   9  18  36  61  82 113 152 194 235 293 349
#     4  10  19  33  60  82 118 155 196 242 280 351
#
# _framework density 19.892320999999999
#
# number of rings (size 3 to 8) (size 9 to 14) (size 15 to 20)
#    0.000    2.500    1.250    0.750    0.000    2.000 
#    0.000    3.125   46.750    0.000    0.000    0.000 
#    0.000    0.000    0.000    0.000    0.000    0.000 
#
# Total GULP energy -198257.842495 kJ/mol
# GULP energy per Si atom -12391.115156 kJ/mol
# Density = 1.984705 g / cm^3
# Si number density = 19.892321 Si / 1000 Ang^3
#
#
#
# Elastic Constant Matrix: (Units=GPa)
#
#
# Indices 1 2 3 4 5 6 
#
# 1 68.3316 26.6902 42.8808 0.0004 -10.1265 0.0000
# 2 26.6902 69.1847 46.1002 0.0023 -12.5964 -0.0004
# 3 42.8808 46.1002 131.1926 0.0009 -14.6197 -0.0002
# 4 0.0004 0.0023 0.0009 26.8157 -0.0003 -6.9858
# 5 -10.1265 -12.5964 -14.6197 -0.0003 33.6293 0.0000
# 6 0.0000 -0.0004 -0.0002 -6.9858 0.0000 35.6945
#
#
#
# Elastic Compliance Matrix: (Units=1/GPa)
#
#
# Indices 1 2 3 4 5 6 
#
# 1 0.019485 -0.003945 -0.004722 0.000000 0.002337 0.000000
# 2 -0.003945 0.020312 -0.005394 -0.000001 0.004075 0.000000
# 3 -0.004722 -0.005394 0.011221 0.000000 0.001436 0.000000
# 4 0.000000 -0.000001 0.000000 0.039295 0.000000 0.007690
# 5 0.002337 0.004075 0.001436 0.000000 0.032590 0.000000
# 6 0.000000 0.000000 0.000000 0.007690 0.000000 0.029521
#
#
# Mechanical properties :
#
#
# Convention : Reuss Voigt Hill
#
# Bulk Modulus (GPa) = 43.67520 55.56126 49.61823
# Shear Modulus (GPa) = 26.57050 29.43043 28.00047
#
# Velocity S-wave (km/s) = 3.65871 3.85058 3.75587
# Velocity P-wave (km/s) = 6.31282 6.91093 6.61863
#
# Compressibility (1/GPa) = 0.02289629
#
# Stress axis : x y z
#
# Youngs Moduli (GPa) = 51.32138 49.23162 89.11682
#
# Poissons Ratio (x) = 0.19422 0.42082
# Poissons Ratio (y) = 0.20246 0.48069
# Poissons Ratio (z) = 0.24234 0.26555
#
# Static dielectric constant tensor:
#      x y z
#    x 3.814490 0.000000 -0.106020 
#    y 0.000000 3.169280 0.000000 
#    z -0.106020 0.000000 3.772660 
# 
# 
# High freq. dielectric constant tensor:
#      x y z
#    x 1.781360 0.000000 0.001630 
#    y 0.000000 1.730610 0.000000 
#    z 0.001630 0.000000 1.784070 
# 
# From -- ./inp_files/58098.got.cif
#   From: 2010.03.12/outbox.cif.g09.slc.cpg/sg5_30_cif.got.tgz:58098.got - 2010.03.31 09:47:26.
