data_PCOD8048600
_publ_section_title
;
Structure prediction by ZEFSAII (Michael W. Deem and Ramdas Pophale) SiO2 
 PCOD8048600
Probable space group: C 2
;
_chemical_formula_sum "Si O2"
_cell_formula_units_Z 30
_cell_length_a 12.866321
_cell_length_b 7.080037
_cell_length_c 15.698207
_cell_angle_alpha 90.000000
_cell_angle_beta 117.482859
_cell_angle_gamma 90.000000
_cell_volume 1268.634436
_symmetry_space_group_name_H-M "C 2"
_symmetry_group_IT_number 5
_symmetry_cell_setting 'monoclinic'
loop_
_space_group_symop_operation_xyz
x,y,z
-x,y,-z
1/2+x,1/2+y,z
1/2-x,1/2+y,-z
loop_
_atom_site_type_symbol
_atom_site_label
_atom_site_fract_x
_atom_site_fract_y
_atom_site_fract_z
Si Si1 0.443220 0.634210 0.658929
Si Si2 0.348602 0.673525 0.151930
Si Si3 0.500000 0.517734 0.500000
Si Si4 0.822355 0.769059 0.213386
Si Si5 0.122880 0.238310 0.032250
Si Si6 0.748578 0.398434 0.629601
Si Si7 0.070918 0.716596 0.282322
Si Si8 0.902884 0.659881 0.902487
O O1 0.535644 0.747603 0.754216
O O2 0.505783 0.634483 0.589923
O O3 0.321531 0.743281 0.606241
O O4 0.406230 0.431570 0.682107
O O5 0.355625 0.446465 0.164962
O O6 0.226141 0.755484 0.142293
O O7 0.350684 0.745282 0.056716
O O8 0.619806 0.397767 0.538919
O O9 0.729395 0.639563 0.125354
O O10 0.761246 0.845964 0.275180
O O11 0.944373 0.657778 0.277141
O O12 0.111600 0.445230 0.070330
O O13 0.000000 0.128452 0.000000
O O14 0.818101 0.595628 0.643733
O O15 0.050821 0.681812 0.175035
O O16 0.000000 0.759762 0.000000
#
# Coordination Sequence:
#
# PCOD8048600 Si02
#       8
#     4   4   2   4   4   4   4   4
#     4  11  27  47  76 109 142 201 242 307 380 437
#     4  10  19  40  61  96 151 181 241 306 345 421
#     4  12  26  54  76 110 156 174 254 324 360 452
#     4  10  21  43  64 105 143 189 250 300 352 439
#     4  10  19  34  62  95 142 195 241 288 352 423
#     4  12  25  51  77 106 150 185 242 313 374 445
#     4  11  22  48  74 102 152 192 242 307 371 431
#     4  10  20  36  64 100 139 197 245 284 360 428
#
# _framework density 23.647475
#
# number of rings (size 3 to 8) (size 9 to 14) (size 15 to 20)
#    0.000    1.333    5.333    1.600    3.733    0.000 
#    4.800   12.000    0.000    0.000    0.000    0.000 
#    0.000    0.000    0.000    0.000    0.000    0.000 
#
# Total GULP energy -185857.115475 kJ/mol
# GULP energy per Si atom -12390.474365 kJ/mol
# Density = 2.359365 g / cm^3
# Si number density = 23.647475 Si / 1000 Ang^3
#
#
#
# Elastic Constant Matrix: (Units=GPa)
#
#
# Indices 1 2 3 4 5 6 
#
# 1 161.1522 25.7520 26.9400 0.0000 37.2508 0.0000
# 2 25.7520 59.0246 16.9592 0.0000 -5.0423 0.0000
# 3 26.9400 16.9592 89.2891 0.0000 19.4721 0.0000
# 4 0.0000 0.0000 0.0000 19.3548 0.0000 -5.8477
# 5 37.2508 -5.0423 19.4721 0.0000 67.3815 0.0000
# 6 0.0000 0.0000 0.0000 -5.8477 0.0000 3.9438
#
#
#
# Elastic Compliance Matrix: (Units=1/GPa)
#
#
# Indices 1 2 3 4 5 6 
#
# 1 0.007936 -0.003631 -0.000735 0.000000 -0.004447 0.000000
# 2 -0.003631 0.019979 -0.003696 0.000000 0.004571 0.000000
# 3 -0.000735 -0.003696 0.012909 0.000000 -0.003601 0.000000
# 4 0.000000 0.000000 0.000000 0.093598 0.000000 0.138784
# 5 -0.004447 0.004571 -0.003601 0.000000 0.018682 0.000000
# 6 0.000000 0.000000 0.000000 0.138784 0.000000 0.459346
#
#
# Mechanical properties :
#
#
# Convention : Reuss Voigt Hill
#
# Bulk Modulus (GPa) = 40.48689 49.86312 45.17501
# Shear Modulus (GPa) = 7.85168 34.12368 20.98768
#
# Velocity S-wave (km/s) = 1.82415 3.80283 2.98236
# Velocity P-wave (km/s) = 4.64703 6.35718 5.56815
#
# Compressibility (1/GPa) = 0.02469935
#
# Stress axis : x y z
#
# Youngs Moduli (GPa) = 126.00233 50.05321 77.46815
#
# Poissons Ratio (x) = 0.18176 0.05694
# Poissons Ratio (y) = 0.45755 0.28631
# Poissons Ratio (z) = 0.09262 0.18499
#
# Static dielectric constant tensor:
#      x y z
#    x 5.103950 0.000000 0.658270 
#    y 0.000000 3.780050 0.000000 
#    z 0.658270 0.000000 4.541410 
# 
# 
# High freq. dielectric constant tensor:
#      x y z
#    x 1.966780 0.000000 0.017230 
#    y 0.000000 1.894110 0.000000 
#    z 0.017230 0.000000 1.937750 
# 
# From -- ./inp_files/52490.got.cif
#   From: 2010.03.12/outbox.cif.g09.slc.cpg/sg5_27_cif.got.tgz:52490.got - 2010.03.31 09:47:26.
