data_PCOD8048697
_publ_section_title
;
Structure prediction by ZEFSAII (Michael W. Deem and Ramdas Pophale) SiO2 
 PCOD8048697
Probable space group: C 2
;
_chemical_formula_sum "Si O2"
_cell_formula_units_Z 30
_cell_length_a 19.356826
_cell_length_b 14.517872
_cell_length_c 14.004346
_cell_angle_alpha 90.000000
_cell_angle_beta 22.261640
_cell_angle_gamma 90.000000
_cell_volume 1490.911677
_symmetry_space_group_name_H-M "C 2"
_symmetry_group_IT_number 5
_symmetry_cell_setting 'monoclinic'
loop_
_space_group_symop_operation_xyz
x,y,z
-x,y,-z
1/2+x,1/2+y,z
1/2-x,1/2+y,-z
loop_
_atom_site_type_symbol
_atom_site_label
_atom_site_fract_x
_atom_site_fract_y
_atom_site_fract_z
Si Si1 0.676503 0.350990 0.831893
Si Si2 0.419106 0.343195 0.470895
Si Si3 0.877486 0.468631 0.428173
Si Si4 0.005590 0.642006 0.382303
Si Si5 0.243873 0.431180 0.867636
Si Si6 0.500000 0.735711 0.500000
Si Si7 0.360714 0.603611 0.827155
Si Si8 0.461818 0.466202 0.251192
O O1 0.811893 0.386790 0.578693
O O2 0.805140 0.288282 0.735660
O O3 0.500000 0.305986 0.000000
O O4 0.607671 0.436776 0.984357
O O5 0.383214 0.233794 0.524022
O O6 0.274875 0.404243 0.717100
O O7 0.626081 0.362101 0.240261
O O8 0.402136 0.373388 0.383229
O O9 0.718313 0.507960 0.565246
O O10 0.933337 0.554764 0.418988
O O11 0.034704 0.419804 0.164767
O O12 0.000000 0.615561 0.500000
O O13 0.206437 0.658943 0.082747
O O14 0.291767 0.537461 0.829474
O O15 0.488192 0.677635 0.612779
O O16 0.465614 0.542964 0.770491
#
# Coordination Sequence:
#
# PCOD8048697 Si02
#       8
#     4   4   4   4   4   2   4   4
#     4  10  24  42  63  90 125 166 212 252 306 377
#     4  10  19  36  63  85 122 149 205 255 292 357
#     4  10  23  39  61  87 123 165 199 243 322 369
#     4  11  21  36  62  95 116 151 206 258 299 361
#     4   9  19  38  61  87 117 160 200 247 302 372
#     4  12  24  40  66  94 124 166 208 260 312 362
#     4  10  22  37  62  91 120 157 208 245 308 367
#     4  10  21  43  61  84 126 163 199 251 305 377
#
# _framework density 20.121917
#
# number of rings (size 3 to 8) (size 9 to 14) (size 15 to 20)
#    0.000    1.867    1.333    3.200    8.400    0.533 
#    9.600    0.000    8.800    0.000    0.000    0.000 
#    0.000    0.000    0.000    0.000    0.000    0.000 
#
# Total GULP energy -185887.610726 kJ/mol
# GULP energy per Si atom -12392.507382 kJ/mol
# Density = 2.007612 g / cm^3
# Si number density = 20.121917 Si / 1000 Ang^3
#
#
#
# Elastic Constant Matrix: (Units=GPa)
#
#
# Indices 1 2 3 4 5 6 
#
# 1 80.6671 19.6990 42.4702 -0.0007 0.2857 0.0031
# 2 19.6990 63.7990 37.5458 -0.0025 -1.5944 0.0037
# 3 42.4702 37.5458 140.8859 -0.0071 7.5265 0.0062
# 4 -0.0007 -0.0025 -0.0071 17.1810 -0.0007 7.5928
# 5 0.2857 -1.5944 7.5265 -0.0007 25.4800 -0.0011
# 6 0.0031 0.0037 0.0062 7.5928 -0.0011 23.6752
#
#
#
# Elastic Compliance Matrix: (Units=1/GPa)
#
#
# Indices 1 2 3 4 5 6 
#
# 1 0.015043 -0.002286 -0.003971 -0.000001 0.000861 0.000000
# 2 -0.002286 0.019117 -0.004543 0.000002 0.002564 -0.000002
# 3 -0.003971 -0.004543 0.009671 0.000004 -0.003096 -0.000003
# 4 -0.000001 0.000002 0.000004 0.067815 0.000000 -0.021749
# 5 0.000861 0.002564 -0.003096 0.000000 0.040312 0.000002
# 6 0.000000 -0.000002 -0.000003 -0.021749 0.000002 0.049213
#
#
# Mechanical properties :
#
#
# Convention : Reuss Voigt Hill
#
# Bulk Modulus (GPa) = 44.98165 53.86465 49.42315
# Shear Modulus (GPa) = 21.72192 25.64307 23.68249
#
# Velocity S-wave (km/s) = 3.28916 3.57373 3.43439
# Velocity P-wave (km/s) = 6.06860 6.62238 6.35153
#
# Compressibility (1/GPa) = 0.02223129
#
# Stress axis : x y z
#
# Youngs Moduli (GPa) = 66.47732 52.30819 103.40016
#
# Poissons Ratio (x) = 0.11957 0.41065
# Poissons Ratio (y) = 0.15196 0.46971
# Poissons Ratio (z) = 0.26401 0.23762
#
# Static dielectric constant tensor:
#      x y z
#    x 3.762200 0.000000 0.168560 
#    y 0.000000 3.496740 0.000010 
#    z 0.168560 0.000010 3.968380 
# 
# 
# High freq. dielectric constant tensor:
#      x y z
#    x 1.782460 0.000000 0.020490 
#    y 0.000000 1.771890 0.000000 
#    z 0.020490 0.000000 1.793530 
# 
# From -- ./inp_files/57131.got.cif
#   From: 2010.03.12/outbox.cif.g09.slc.cpg/sg5_29_cif.got.tgz:57131.got - 2010.03.31 09:47:26.
