data_PCOD8048196
_publ_section_title
;
Structure prediction by ZEFSAII (Michael W. Deem and Ramdas Pophale) SiO2 
 PCOD8048196
Probable space group: C 2
;
_chemical_formula_sum "Si O2"
_cell_formula_units_Z 26
_cell_length_a 10.629482
_cell_length_b 15.767312
_cell_length_c 14.261868
_cell_angle_alpha 90.000000
_cell_angle_beta 147.673445
_cell_angle_gamma 90.000000
_cell_volume 1278.180341
_symmetry_space_group_name_H-M "C 2"
_symmetry_group_IT_number 5
_symmetry_cell_setting 'monoclinic'
loop_
_space_group_symop_operation_xyz
x,y,z
-x,y,-z
1/2+x,1/2+y,z
1/2-x,1/2+y,-z
loop_
_atom_site_type_symbol
_atom_site_label
_atom_site_fract_x
_atom_site_fract_y
_atom_site_fract_z
Si Si1 0.500000 0.654990 0.000000
Si Si2 0.500000 0.452954 0.500000
Si Si3 0.171433 0.830555 0.027614
Si Si4 0.384937 0.286009 0.216443
Si Si5 0.764860 0.979338 0.176595
Si Si6 0.000000 0.446584 0.500000
Si Si7 0.169242 0.345393 0.425176
Si Si8 0.491069 0.510952 0.852896
O O1 0.274556 0.713561 0.838174
O O2 0.557600 0.596276 0.947970
O O3 0.359852 0.510853 0.337295
O O4 0.303783 0.400162 0.432442
O O5 0.436692 0.810604 0.228180
O O6 0.118880 0.780099 0.899008
O O7 0.000000 0.795004 0.000000
O O8 0.125500 0.931167 0.984743
O O9 0.285138 0.377320 0.185125
O O10 0.648301 0.272765 0.424186
O O11 0.500000 0.009967 0.000000
O O12 0.922326 0.024078 0.197930
O O13 0.107766 0.393372 0.482688
O O14 0.209267 0.501309 0.676779
#
# Coordination Sequence:
#
# PCOD8048196 Si02
#       8
#     2   2   4   4   4   2   4   4
#     4  12  24  44  58  92 144 170 208 266 350 378
#     4  10  18  30  55  94 127 150 204 280 312 356
#     4  11  19  37  67  94 121 168 220 262 317 383
#     4  10  22  37  58  91 132 164 210 272 311 390
#     4  10  19  37  62  94 123 163 218 263 313 379
#     4  12  18  40  63  98 133 162 232 270 304 388
#     4  11  20  33  63  95 128 161 219 268 320 367
#     4  11  22  38  63  97 133 176 210 270 324 393
#
# _framework density 20.341417
#
# number of rings (size 3 to 8) (size 9 to 14) (size 15 to 20)
#    0.000    1.231    7.692    1.846    2.154    0.000 
#    2.769    0.769    0.000    0.000    4.000    0.000 
#    0.000    0.000    0.000    0.000    0.000    0.000 
#
# Total GULP energy -161146.182072 kJ/mol
# GULP energy per Si atom -12395.860159 kJ/mol
# Density = 2.029512 g / cm^3
# Si number density = 20.341417 Si / 1000 Ang^3
#
#
#
# Elastic Constant Matrix: (Units=GPa)
#
#
# Indices 1 2 3 4 5 6 
#
# 1 137.0544 21.3266 52.1102 -0.0019 -5.6452 -0.0016
# 2 21.3266 57.5351 23.7701 0.0027 1.5251 0.0000
# 3 52.1102 23.7701 197.1181 0.0012 9.1881 -0.0007
# 4 -0.0019 0.0027 0.0012 6.7246 0.0006 3.5604
# 5 -5.6452 1.5251 9.1881 0.0006 47.4283 -0.0006
# 6 -0.0016 0.0000 -0.0007 3.5604 -0.0006 22.2707
#
#
#
# Elastic Compliance Matrix: (Units=1/GPa)
#
#
# Indices 1 2 3 4 5 6 
#
# 1 0.008495 -0.002349 -0.002032 0.000004 0.001480 0.000000
# 2 -0.002349 0.018943 -0.001637 -0.000009 -0.000572 0.000001
# 3 -0.002032 -0.001637 0.005869 -0.000001 -0.001326 0.000000
# 4 0.000004 -0.000009 -0.000001 0.162458 -0.000001 -0.025972
# 5 0.001480 -0.000572 -0.001326 -0.000001 0.021536 0.000001
# 6 0.000000 0.000001 0.000000 -0.025972 0.000001 0.049054
#
#
# Mechanical properties :
#
#
# Convention : Reuss Voigt Hill
#
# Bulk Modulus (GPa) = 47.00772 65.12459 56.06616
# Shear Modulus (GPa) = 17.51429 34.91811 26.21620
#
# Velocity S-wave (km/s) = 2.93749 4.14768 3.59389
# Velocity P-wave (km/s) = 5.88767 7.41775 6.69655
#
# Compressibility (1/GPa) = 0.02127310
#
# Stress axis : x y z
#
# Youngs Moduli (GPa) = 117.71251 52.79086 170.37663
#
# Poissons Ratio (x) = 0.12400 0.34613
# Poissons Ratio (y) = 0.27649 0.27885
# Poissons Ratio (z) = 0.23914 0.08640
#
# Static dielectric constant tensor:
#      x y z
#    x 4.210940 0.000000 -0.002850 
#    y 0.000000 3.053020 -0.000010 
#    z -0.002850 -0.000010 4.345690 
# 
# 
# High freq. dielectric constant tensor:
#      x y z
#    x 1.820740 0.000000 -0.003510 
#    y 0.000000 1.720130 0.000000 
#    z -0.003510 0.000000 1.819740 
# 
# From -- ./inp_files/53255.got.cif
#   From: 2010.03.12/outbox.cif.g09.slc.cpg/sg5_27_cif.got.tgz:53255.got - 2010.03.31 09:47:26.
