data_PCOD8048928
_publ_section_title
;
Structure prediction by ZEFSAII (Michael W. Deem and Ramdas Pophale) SiO2 
 PCOD8048928
Probable space group: C 2
;
_chemical_formula_sum "Si O2"
_cell_formula_units_Z 22
_cell_length_a 9.264855
_cell_length_b 11.331952
_cell_length_c 14.902605
_cell_angle_alpha 90.000000
_cell_angle_beta 39.313154
_cell_angle_gamma 90.000000
_cell_volume 991.270714
_symmetry_space_group_name_H-M "C 2"
_symmetry_group_IT_number 5
_symmetry_cell_setting 'monoclinic'
loop_
_space_group_symop_operation_xyz
x,y,z
-x,y,-z
1/2+x,1/2+y,z
1/2-x,1/2+y,-z
loop_
_atom_site_type_symbol
_atom_site_label
_atom_site_fract_x
_atom_site_fract_y
_atom_site_fract_z
Si Si1 0.500000 0.896850 0.500000
Si Si2 0.013748 0.991645 0.705183
Si Si3 0.538733 0.762020 0.297322
Si Si4 0.177243 0.336495 0.774205
Si Si5 0.500000 0.232939 0.000000
Si Si6 0.805019 0.531057 0.981938
Si Si7 0.500000 0.649475 0.000000
O O1 0.500353 0.815326 0.412696
O O2 0.719679 0.980014 0.401649
O O3 0.928024 0.888293 0.677748
O O4 0.963362 0.120743 0.689310
O O5 0.879218 0.974383 0.862661
O O6 0.341775 0.801016 0.321502
O O7 0.784962 0.807948 0.140641
O O8 0.008888 0.441795 0.877160
O O9 0.109296 0.224289 0.866735
O O10 0.403411 0.155248 0.966180
O O11 0.694553 0.560616 0.939987
#
# Coordination Sequence:
#
# PCOD8048928 Si02
#       7
#     2   4   4   4   2   4   2
#     4  12  32  46  70  98 142 198 222 276 350 420
#     4  11  25  48  65 101 143 177 239 275 335 430
#     4  11  27  47  71 103 138 184 231 288 341 406
#     4  12  23  41  74 103 137 180 224 290 356 390
#     4  10  19  45  72 102 138 164 233 299 328 394
#     4  11  22  41  70 110 139 169 228 297 339 405
#     4  12  23  37  68 114 138 172 215 295 356 392
#
# _framework density 22.193735
#
# number of rings (size 3 to 8) (size 9 to 14) (size 15 to 20)
#    0.000    0.727    9.091    0.000    7.636    3.636 
#    0.000    0.000    0.000    0.000    0.000    0.000 
#    0.000    0.000    0.000    0.000    0.000    0.000 
#
# Total GULP energy -136397.176543 kJ/mol
# GULP energy per Si atom -12399.743322 kJ/mol
# Density = 2.214322 g / cm^3
# Si number density = 22.193735 Si / 1000 Ang^3
#
#
#
# Elastic Constant Matrix: (Units=GPa)
#
#
# Indices 1 2 3 4 5 6 
#
# 1 150.5209 16.9775 44.6740 -0.0002 0.5303 0.0001
# 2 16.9775 35.4738 26.1851 0.0000 2.6029 0.0003
# 3 44.6740 26.1851 60.5963 -0.0014 9.2439 -0.0004
# 4 -0.0002 0.0000 -0.0014 51.1473 0.0006 4.3100
# 5 0.5303 2.6029 9.2439 0.0006 47.4571 0.0001
# 6 0.0001 0.0003 -0.0004 4.3100 0.0001 45.9789
#
#
#
# Elastic Compliance Matrix: (Units=1/GPa)
#
#
# Indices 1 2 3 4 5 6 
#
# 1 0.008586 0.000896 -0.006900 0.000000 0.001199 0.000000
# 2 0.000896 0.041559 -0.018830 0.000000 0.001378 0.000000
# 3 -0.006900 -0.018830 0.030462 0.000001 -0.004824 0.000000
# 4 0.000000 0.000000 0.000001 0.019707 0.000000 -0.001847
# 5 0.001199 0.001378 -0.004824 0.000000 0.021922 0.000000
# 6 0.000000 0.000000 0.000000 -0.001847 0.000000 0.021922
#
#
# Mechanical properties :
#
#
# Convention : Reuss Voigt Hill
#
# Bulk Modulus (GPa) = 32.32042 46.91826 39.61934
# Shear Modulus (GPa) = 24.49302 39.50029 31.99666
#
# Velocity S-wave (km/s) = 3.32565 4.22334 3.80109
# Velocity P-wave (km/s) = 5.41674 6.70584 6.09547
#
# Compressibility (1/GPa) = 0.03094019
#
# Stress axis : x y z
#
# Youngs Moduli (GPa) = 116.46494 24.06227 32.82736
#
# Poissons Ratio (x) = -0.02156 0.22652
# Poissons Ratio (y) = -0.10438 0.61812
# Poissons Ratio (z) = 0.80364 0.45308
#
# Static dielectric constant tensor:
#      x y z
#    x 4.502060 0.000000 -0.045720 
#    y 0.000000 3.953740 0.000000 
#    z -0.045720 0.000000 4.003450 
# 
# 
# High freq. dielectric constant tensor:
#      x y z
#    x 1.898650 0.000000 -0.003530 
#    y 0.000000 1.872050 0.000000 
#    z -0.003530 0.000000 1.845410 
# 
# From -- ./inp_files/35199.got.cif
#   From: 2010.03.12/outbox.cif.g09.slc.cpg/sg5_18_cif.got.tgz:35199.got - 2010.03.31 09:47:26.
