data_PCOD8048148
_publ_section_title
;
Structure prediction by ZEFSAII (Michael W. Deem and Ramdas Pophale) SiO2 
 PCOD8048148
Probable space group: C 2
;
_chemical_formula_sum "Si O2"
_cell_formula_units_Z 32
_cell_length_a 12.146742
_cell_length_b 18.548253
_cell_length_c 9.058826
_cell_angle_alpha 90.000000
_cell_angle_beta 52.227921
_cell_angle_gamma 90.000000
_cell_volume 1613.285074
_symmetry_space_group_name_H-M "C 2"
_symmetry_group_IT_number 5
_symmetry_cell_setting 'monoclinic'
loop_
_space_group_symop_operation_xyz
x,y,z
-x,y,-z
1/2+x,1/2+y,z
1/2-x,1/2+y,-z
loop_
_atom_site_type_symbol
_atom_site_label
_atom_site_fract_x
_atom_site_fract_y
_atom_site_fract_z
Si Si1 0.898354 0.036050 0.719885
Si Si2 0.864054 0.189582 0.697378
Si Si3 0.838979 0.342390 0.785698
Si Si4 0.587118 0.155546 0.783581
Si Si5 0.933484 0.909295 0.896624
Si Si6 0.421266 0.287648 0.410574
Si Si7 0.619076 0.996829 0.796444
Si Si8 0.848906 0.366111 0.432694
O O1 0.901346 0.120480 0.768826
O O2 0.743919 0.013793 0.804146
O O3 0.000000 0.025146 0.500000
O O4 0.952050 0.987331 0.808842
O O5 0.799463 0.257630 0.836286
O O6 0.752143 0.163268 0.670280
O O7 0.000000 0.219413 0.500000
O O8 0.826937 0.369195 0.626494
O O9 0.990562 0.348747 0.733388
O O10 0.729381 0.388417 0.968890
O O11 0.547819 0.208371 0.681152
O O12 0.559784 0.071025 0.769764
O O13 0.500000 0.178884 0.000000
O O14 0.018518 0.849361 0.741568
O O15 0.000000 0.915515 0.000000
O O16 0.500000 0.291641 0.500000
O O17 0.255300 0.306842 0.556204
O O18 0.674444 0.944188 0.622573
O O19 0.500000 0.962657 0.000000
#
# Coordination Sequence:
#
# PCOD8048148 Si02
#       8
#     4   4   4   4   4   4   4   4
#     4  10  22  36  61  87 115 155 194 251 295 352
#     4  10  17  36  61  83 107 151 203 234 285 354
#     4  11  21  36  63  85 116 155 202 244 286 361
#     4  10  20  38  62  84 115 158 200 242 292 360
#     4  12  22  37  60  90 121 156 203 248 302 357
#     4  12  23  38  61  91 124 155 201 254 304 351
#     4  10  21  38  60  84 119 157 200 238 299 363
#     4  11  21  37  59  89 115 154 200 245 293 351
#
# _framework density 19.835303
#
# number of rings (size 3 to 8) (size 9 to 14) (size 15 to 20)
#    0.000    1.250    3.750    3.750    0.000    0.000 
#    2.250    0.000    0.000    2.250    0.000    0.000 
#    0.000    0.000    0.000    0.000    0.000    0.000 
#
# Total GULP energy -198329.368993 kJ/mol
# GULP energy per Si atom -12395.585562 kJ/mol
# Density = 1.979016 g / cm^3
# Si number density = 19.835303 Si / 1000 Ang^3
#
#
#
# Elastic Constant Matrix: (Units=GPa)
#
#
# Indices 1 2 3 4 5 6 
#
# 1 91.8047 21.6019 32.9308 0.0000 2.5756 0.0000
# 2 21.6019 134.9764 39.1313 0.0000 25.2850 0.0000
# 3 32.9308 39.1313 71.5931 0.0000 -5.4898 0.0000
# 4 0.0000 0.0000 0.0000 302.9215 0.0000 26.7770
# 5 2.5756 25.2850 -5.4898 0.0000 36.0184 0.0000
# 6 0.0000 0.0000 0.0000 26.7770 0.0000 30.5522
#
#
#
# Elastic Compliance Matrix: (Units=1/GPa)
#
#
# Indices 1 2 3 4 5 6 
#
# 1 0.013171 0.000065 -0.006243 0.000000 -0.001939 0.000000
# 2 0.000065 0.010976 -0.006699 0.000000 -0.008731 0.000000
# 3 -0.006243 -0.006699 0.021142 0.000000 0.008371 0.000000
# 4 0.000000 0.000000 0.000000 0.003578 0.000000 -0.003136
# 5 -0.001939 -0.008731 0.008371 0.000000 0.035307 0.000000
# 6 0.000000 0.000000 0.000000 -0.003136 0.000000 0.035480
#
#
# Mechanical properties :
#
#
# Convention : Reuss Voigt Hill
#
# Bulk Modulus (GPa) = 51.18438 53.96690 52.57564
# Shear Modulus (GPa) = 32.91233 87.54577 60.22905
#
# Velocity S-wave (km/s) = 4.07785 6.65073 5.51638
# Velocity P-wave (km/s) = 6.93055 9.28670 8.19376
#
# Compressibility (1/GPa) = 0.01953721
#
# Stress axis : x y z
#
# Youngs Moduli (GPa) = 75.92434 91.10965 47.29822
#
# Poissons Ratio (x) = -0.00593 0.29526
# Poissons Ratio (y) = -0.00494 0.31683
# Poissons Ratio (z) = 0.47396 0.61030
#
# Static dielectric constant tensor:
#      x y z
#    x 0.780460 0.000000 -2.048450 
#    y 0.000000 4.035390 0.000000 
#    z -2.048450 0.000000 2.581190 
# 
# 
# High freq. dielectric constant tensor:
#      x y z
#    x 1.767000 0.000000 -0.033980 
#    y 0.000000 1.785160 0.000000 
#    z -0.033980 0.000000 1.760460 
# 
# From -- ./inp_files/21960.got.cif
#   From: 2010.03.12/outbox.cif.g09.slc.cpg/sg5_11_cif.got.tgz:21960.got - 2010.03.31 09:47:26.
