data_PCOD8048559
_publ_section_title
;
Structure prediction by ZEFSAII (Michael W. Deem and Ramdas Pophale) SiO2 
 PCOD8048559
Probable space group: C 2
;
_chemical_formula_sum "Si O2"
_cell_formula_units_Z 32
_cell_length_a 12.093637
_cell_length_b 8.323717
_cell_length_c 30.422713
_cell_angle_alpha 90.000000
_cell_angle_beta 151.098931
_cell_angle_gamma 90.000000
_cell_volume 1480.088955
_symmetry_space_group_name_H-M "C 2"
_symmetry_group_IT_number 5
_symmetry_cell_setting 'monoclinic'
loop_
_space_group_symop_operation_xyz
x,y,z
-x,y,-z
1/2+x,1/2+y,z
1/2-x,1/2+y,-z
loop_
_atom_site_type_symbol
_atom_site_label
_atom_site_fract_x
_atom_site_fract_y
_atom_site_fract_z
Si Si1 0.892180 0.237860 0.779980
Si Si2 0.083751 0.452985 0.921643
Si Si3 0.976889 0.875299 0.409657
Si Si4 0.349011 0.657332 0.212488
Si Si5 0.729901 0.759742 0.053402
Si Si6 0.275930 0.126585 0.406707
Si Si7 0.702570 0.376089 0.241558
Si Si8 0.440894 0.722270 0.578827
O O1 0.687132 0.345778 0.689130
O O2 0.993109 0.316676 0.858232
O O3 0.101539 0.229603 0.818215
O O4 0.792531 0.067253 0.760427
O O5 0.248493 0.574567 0.953163
O O6 0.867207 0.543631 0.867079
O O7 0.232485 0.372960 0.011546
O O8 0.232625 0.818997 0.483905
O O9 0.886025 0.784049 0.421191
O O10 0.986549 0.065635 0.424094
O O11 0.583298 0.555252 0.306652
O O12 0.309288 0.799690 0.234097
O O13 0.944473 0.810893 0.158166
O O14 0.500000 0.784819 0.000000
O O15 0.500000 0.019317 0.500000
O O16 0.135775 0.165507 0.400481
O O17 0.839735 0.333707 0.334320
#
# Coordination Sequence:
#
# PCOD8048559 Si02
#       8
#     4   4   4   4   4   4   4   4
#     4  11  21  37  61  88 118 154 190 232 288 345
#     4  11  24  40  61  87 115 149 195 238 290 349
#     4  10  19  33  59  86 115 157 192 228 286 338
#     4   9  20  38  58  84 119 154 187 237 288 337
#     4  11  24  42  62  86 115 150 193 244 291 342
#     4   8  16  31  54  80 113 150 187 228 274 329
#     4  10  21  39  61  85 116 152 193 239 289 341
#     4  10  19  36  58  84 118 152 192 238 279 337
#
# _framework density 21.620322000000002
#
# number of rings (size 3 to 8) (size 9 to 14) (size 15 to 20)
#    0.000    2.000    0.000    4.500    0.000    3.000 
#    0.000    6.875    0.000   30.750    0.000    0.000 
#    0.000    0.000    0.000    0.000    0.000    0.000 
#
# Total GULP energy -198282.631178 kJ/mol
# GULP energy per Si atom -12392.664449 kJ/mol
# Density = 2.157111 g / cm^3
# Si number density = 21.620322 Si / 1000 Ang^3
#
#
#
# Elastic Constant Matrix: (Units=GPa)
#
#
# Indices 1 2 3 4 5 6 
#
# 1 56.0872 1.5052 16.0017 0.0000 11.8013 0.0000
# 2 1.5052 77.1354 -7.3239 0.0000 4.4301 0.0000
# 3 16.0017 -7.3239 78.4210 0.0002 17.4370 -0.0001
# 4 0.0000 0.0000 0.0002 39.6768 0.0000 -0.1532
# 5 11.8013 4.4301 17.4370 0.0000 20.3770 0.0000
# 6 0.0000 0.0000 -0.0001 -0.1532 0.0000 22.8491
#
#
#
# Elastic Compliance Matrix: (Units=1/GPa)
#
#
# Indices 1 2 3 4 5 6 
#
# 1 0.020532 0.000008 -0.001907 0.000000 -0.010261 0.000000
# 2 0.000008 0.013472 0.002357 0.000000 -0.004951 0.000000
# 3 -0.001907 0.002357 0.016338 0.000000 -0.013389 0.000000
# 4 0.000000 0.000000 0.000000 0.025204 0.000000 0.000169
# 5 -0.010261 -0.004951 -0.013389 0.000000 0.067551 0.000000
# 6 0.000000 0.000000 0.000000 0.000169 0.000000 0.043767
#
#
# Mechanical properties :
#
#
# Convention : Reuss Voigt Hill
#
# Bulk Modulus (GPa) = 19.50925 25.77886 22.64406
# Shear Modulus (GPa) = 24.62630 30.01129 27.31879
#
# Velocity S-wave (km/s) = 3.37862 3.72977 3.55853
# Velocity P-wave (km/s) = 4.92578 5.52246 5.23263
#
# Compressibility (1/GPa) = 0.05125773
#
# Stress axis : x y z
#
# Youngs Moduli (GPa) = 48.70368 74.22680 61.20687
#
# Poissons Ratio (x) = -0.00056 0.11675
# Poissons Ratio (y) = -0.00037 -0.14429
# Poissons Ratio (z) = 0.09290 -0.17498
#
# Static dielectric constant tensor:
#      x y z
#    x 3.720990 0.000000 0.137010 
#    y 0.000000 3.818440 0.000000 
#    z 0.137010 0.000000 4.671330 
# 
# 
# High freq. dielectric constant tensor:
#      x y z
#    x 1.835940 0.000000 0.006260 
#    y 0.000000 1.827450 0.000000 
#    z 0.006260 0.000000 1.875800 
# 
# From -- ./inp_files/71749.got.cif
#   From: 2010.03.12/outbox.cif.g09.slc.cpg/sg5_36_cif.got.tgz:71749.got - 2010.03.31 09:47:26.
