data_PCOD8048845
_publ_section_title
;
Structure prediction by ZEFSAII (Michael W. Deem and Ramdas Pophale) SiO2 
 PCOD8048845
Probable space group: C 2
;
_chemical_formula_sum "Si O2"
_cell_formula_units_Z 28
_cell_length_a 12.866339
_cell_length_b 13.806086
_cell_length_c 10.376750
_cell_angle_alpha 90.000000
_cell_angle_beta 129.602780
_cell_angle_gamma 90.000000
_cell_volume 1420.200274
_symmetry_space_group_name_H-M "C 2"
_symmetry_group_IT_number 5
_symmetry_cell_setting 'monoclinic'
loop_
_space_group_symop_operation_xyz
x,y,z
-x,y,-z
1/2+x,1/2+y,z
1/2-x,1/2+y,-z
loop_
_atom_site_type_symbol
_atom_site_label
_atom_site_fract_x
_atom_site_fract_y
_atom_site_fract_z
Si Si1 0.652338 0.748280 0.625417
Si Si2 0.045383 0.595303 0.807627
Si Si3 0.240900 0.548102 0.349794
Si Si4 0.000000 0.908169 0.000000
Si Si5 0.143929 0.426969 0.049484
Si Si6 0.267721 0.437020 0.638472
Si Si7 0.204704 0.781992 0.003985
Si Si8 0.500000 0.028914 0.500000
O O1 0.500000 0.785875 0.500000
O O2 0.656283 0.637709 0.576405
O O3 0.751932 0.819118 0.620032
O O4 0.690836 0.750269 0.805102
O O5 0.906679 0.598121 0.778848
O O6 0.999639 0.595813 0.624123
O O7 0.124647 0.498909 0.913330
O O8 0.138469 0.686419 0.897009
O O9 0.247311 0.474493 0.234492
O O10 0.272453 0.485781 0.502371
O O11 0.101966 0.969349 0.172777
O O12 0.086296 0.846691 0.967906
O O13 0.215865 0.331921 0.050808
O O14 0.000000 0.398770 0.000000
O O15 0.135021 0.465783 0.612599
#
# Coordination Sequence:
#
# PCOD8048845 Si02
#       8
#     4   4   4   2   4   4   4   2
#     4  11  22  38  62  89 121 167 209 259 316 375
#     4  10  19  39  64  86 122 163 211 258 310 382
#     4  10  22  40  63  91 123 162 212 258 315 378
#     4  10  22  38  66  92 122 164 214 260 312 368
#     4  10  22  39  65  93 126 166 211 260 314 379
#     4  10  21  40  64  90 123 166 213 260 311 379
#     4  11  22  40  65  93 123 170 211 259 318 376
#     4  10  20  38  64  90 120 172 212 256 308 380
#
# _framework density 19.715527999999999
#
# number of rings (size 3 to 8) (size 9 to 14) (size 15 to 20)
#    0.000    1.714    2.143    3.429    5.000    1.143 
#   10.286    0.000    1.571    0.000    0.000    0.000 
#    0.000    0.000    0.000    0.000    0.000    0.000 
#
# Total GULP energy -173553.536807 kJ/mol
# GULP energy per Si atom -12396.681200 kJ/mol
# Density = 1.967065 g / cm^3
# Si number density = 19.715528 Si / 1000 Ang^3
#
#
#
# Elastic Constant Matrix: (Units=GPa)
#
#
# Indices 1 2 3 4 5 6 
#
# 1 84.8073 45.4228 39.4042 0.0000 -6.6136 0.0000
# 2 45.4228 101.8129 50.6531 0.0000 -8.3072 0.0000
# 3 39.4042 50.6531 144.0204 0.0000 1.4902 0.0000
# 4 0.0000 0.0000 0.0000 136.4353 0.0000 114.0247
# 5 -6.6136 -8.3072 1.4902 0.0000 30.6929 0.0000
# 6 0.0000 0.0000 0.0000 114.0247 0.0000 147.5292
#
#
#
# Elastic Compliance Matrix: (Units=1/GPa)
#
#
# Indices 1 2 3 4 5 6 
#
# 1 0.016206 -0.005878 -0.002388 0.000000 0.002017 0.000000
# 2 -0.005878 0.014408 -0.003488 0.000000 0.002803 0.000000
# 3 -0.002388 -0.003488 0.008843 0.000000 -0.001888 0.000000
# 4 0.000000 0.000000 0.000000 0.020701 0.000000 -0.016000
# 5 0.002017 0.002803 -0.001888 0.000000 0.033866 0.000000
# 6 0.000000 0.000000 0.000000 -0.016000 0.000000 0.019145
#
#
# Mechanical properties :
#
#
# Convention : Reuss Voigt Hill
#
# Bulk Modulus (GPa) = 62.69521 66.84453 64.76987
# Shear Modulus (GPa) = 35.21279 75.94218 55.57749
#
# Velocity S-wave (km/s) = 4.23075 6.21310 5.31516
# Velocity P-wave (km/s) = 7.46556 9.24382 8.40187
#
# Compressibility (1/GPa) = 0.01595018
#
# Stress axis : x y z
#
# Youngs Moduli (GPa) = 61.70452 69.40382 113.08175
#
# Poissons Ratio (x) = 0.40794 0.27000
# Poissons Ratio (y) = 0.36269 0.39447
# Poissons Ratio (z) = 0.14733 0.24211
#
# Static dielectric constant tensor:
#      x y z
#    x 3.453390 0.000000 0.054640 
#    y 0.000000 3.420800 0.000000 
#    z 0.054640 0.000000 3.740930 
# 
# 
# High freq. dielectric constant tensor:
#      x y z
#    x 1.759100 0.000000 0.000820 
#    y 0.000000 1.754230 0.000000 
#    z 0.000820 0.000000 1.782590 
# 
# From -- ./inp_files/39931.got.cif
#   From: 2010.03.12/outbox.cif.g09.slc.cpg/sg5_20_cif.got.tgz:39931.got - 2010.03.31 09:47:26.
