data_PCOD8048758
_publ_section_title
;
Structure prediction by ZEFSAII (Michael W. Deem and Ramdas Pophale) SiO2 
 PCOD8048758
Probable space group: C 2
;
_chemical_formula_sum "Si O2"
_cell_formula_units_Z 26
_cell_length_a 15.500270
_cell_length_b 8.465708
_cell_length_c 11.674468
_cell_angle_alpha 90.000000
_cell_angle_beta 54.628068
_cell_angle_gamma 90.000000
_cell_volume 1249.155390
_symmetry_space_group_name_H-M "C 2"
_symmetry_group_IT_number 5
_symmetry_cell_setting 'monoclinic'
loop_
_space_group_symop_operation_xyz
x,y,z
-x,y,-z
1/2+x,1/2+y,z
1/2-x,1/2+y,-z
loop_
_atom_site_type_symbol
_atom_site_label
_atom_site_fract_x
_atom_site_fract_y
_atom_site_fract_z
Si Si1 0.000000 0.268450 0.000000
Si Si2 0.050767 0.036147 0.772839
Si Si3 0.297478 0.961097 0.213970
Si Si4 0.612955 0.040848 0.383634
Si Si5 0.429956 0.361267 0.668164
Si Si6 0.792506 0.812428 0.263520
Si Si7 0.259080 0.733791 0.439627
O O1 0.013762 0.164553 0.104570
O O2 0.893733 0.372288 0.078180
O O3 0.138506 0.123752 0.628407
O O4 0.107164 0.927110 0.826105
O O5 0.982705 0.928380 0.741541
O O6 0.184828 0.939428 0.241349
O O7 0.288438 0.895255 0.350043
O O8 0.319914 0.146906 0.185656
O O9 0.500000 0.960810 0.500000
O O10 0.588169 0.171699 0.304771
O O11 0.663731 0.140535 0.450089
O O12 0.690712 0.899898 0.284172
O O13 0.500000 0.398972 0.500000
O O14 0.774753 0.789556 0.411329
#
# Coordination Sequence:
#
# PCOD8048758 Si02
#       7
#     2   4   4   4   4   4   4
#     4  10  24  46  58  78 116 172 212 238 284 348
#     4  10  21  38  62  83 117 159 202 244 288 358
#     4  10  21  37  59  85 122 155 199 247 290 357
#     4   9  18  30  49  84 127 151 180 233 300 366
#     4  10  19  37  63  93 120 148 186 251 314 346
#     4  11  19  32  58  90 118 155 196 247 305 353
#     4   9  18  34  57  88 121 156 193 241 303 356
#
# _framework density 20.814063000000001
#
# number of rings (size 3 to 8) (size 9 to 14) (size 15 to 20)
#    0.000    2.154    0.000    6.462    0.000    2.462 
#    0.000    4.615    0.000    3.692    0.000    0.000 
#    0.000    0.000    0.000    0.000    0.000    0.000 
#
# Total GULP energy -161108.914888 kJ/mol
# GULP energy per Si atom -12392.993453 kJ/mol
# Density = 2.076669 g / cm^3
# Si number density = 20.814063 Si / 1000 Ang^3
#
#
#
# Elastic Constant Matrix: (Units=GPa)
#
#
# Indices 1 2 3 4 5 6 
#
# 1 121.0331 55.9698 38.8397 0.0000 -22.4530 0.0000
# 2 55.9698 143.4991 37.3242 0.0000 -12.4697 0.0000
# 3 38.8397 37.3242 71.5454 0.0000 -19.0683 0.0000
# 4 0.0000 0.0000 0.0000 25.1095 0.0000 -2.9989
# 5 -22.4530 -12.4697 -19.0683 0.0000 26.6505 0.0000
# 6 0.0000 0.0000 0.0000 -2.9989 0.0000 34.2316
#
#
#
# Elastic Compliance Matrix: (Units=1/GPa)
#
#
# Indices 1 2 3 4 5 6 
#
# 1 0.011954 -0.003313 -0.003077 0.000000 0.006320 0.000000
# 2 -0.003313 0.009000 -0.003112 0.000000 -0.000806 0.000000
# 3 -0.003077 -0.003112 0.020007 0.000000 0.010267 0.000000
# 4 0.000000 0.000000 0.000000 0.040247 0.000000 0.003526
# 5 0.006320 -0.000806 0.010267 0.000000 0.049816 0.000000
# 6 0.000000 0.000000 0.000000 0.003526 0.000000 0.029522
#
#
# Mechanical properties :
#
#
# Convention : Reuss Voigt Hill
#
# Bulk Modulus (GPa) = 45.54092 66.70499 56.12295
# Shear Modulus (GPa) = 26.75695 30.79457 28.77576
#
# Velocity S-wave (km/s) = 3.58931 3.85061 3.72225
# Velocity P-wave (km/s) = 6.25339 7.20328 6.74508
#
# Compressibility (1/GPa) = 0.02195827
#
# Stress axis : x y z
#
# Youngs Moduli (GPa) = 83.65424 111.10921 49.98247
#
# Poissons Ratio (x) = 0.36811 0.15378
# Poissons Ratio (y) = 0.27715 0.15553
# Poissons Ratio (z) = 0.25738 0.34573
#
# Static dielectric constant tensor:
#      x y z
#    x 3.888290 0.000000 -0.366100 
#    y 0.000000 4.094600 0.000000 
#    z -0.366100 0.000000 3.418330 
# 
# 
# High freq. dielectric constant tensor:
#      x y z
#    x 1.814580 0.000000 -0.027950 
#    y 0.000000 1.830450 0.000000 
#    z -0.027950 0.000000 1.774720 
# 
# From -- ./inp_files/41622.got.cif
#   From: 2010.03.12/outbox.cif.g09.slc.cpg/sg5_21_cif.got.tgz:41622.got - 2010.03.31 09:47:26.
