data_PCOD8048942
_publ_section_title
;
Structure prediction by ZEFSAII (Michael W. Deem and Ramdas Pophale) SiO2 
 PCOD8048942
Probable space group: C 2
;
_chemical_formula_sum "Si O2"
_cell_formula_units_Z 30
_cell_length_a 26.310470
_cell_length_b 5.261313
_cell_length_c 21.446800
_cell_angle_alpha 90.000000
_cell_angle_beta 28.019428
_cell_angle_gamma 90.000000
_cell_volume 1394.669758
_symmetry_space_group_name_H-M "C 2"
_symmetry_group_IT_number 5
_symmetry_cell_setting 'monoclinic'
loop_
_space_group_symop_operation_xyz
x,y,z
-x,y,-z
1/2+x,1/2+y,z
1/2-x,1/2+y,-z
loop_
_atom_site_type_symbol
_atom_site_label
_atom_site_fract_x
_atom_site_fract_y
_atom_site_fract_z
Si Si1 0.320685 0.356400 0.064366
Si Si2 0.491430 0.984654 0.115925
Si Si3 0.473173 0.652879 0.812805
Si Si4 0.268076 0.484534 0.252689
Si Si5 0.690076 0.430145 0.543100
Si Si6 0.500000 0.606564 0.000000
Si Si7 0.746012 0.499861 0.345579
Si Si8 0.205885 0.155910 0.076734
O O1 0.251684 0.476814 0.195698
O O2 0.236682 0.180734 0.116438
O O3 0.424477 0.214005 0.981969
O O4 0.369545 0.562198 0.964773
O O5 0.370703 0.051117 0.226716
O O6 0.484402 0.899921 0.196290
O O7 0.537455 0.769513 0.019653
O O8 0.570391 0.450278 0.702467
O O9 0.421973 0.714712 0.799939
O O10 0.395353 0.443117 0.131849
O O11 0.204450 0.250774 0.354148
O O12 0.226692 0.753522 0.323542
O O13 0.735576 0.152485 0.508791
O O14 0.678196 0.465500 0.482024
O O15 0.273065 0.363541 0.964455
#
# Coordination Sequence:
#
# PCOD8048942 Si02
#       8
#     4   4   4   4   4   2   4   4
#     4  11  21  37  62  89 121 158 198 254 313 368
#     4  11  19  35  53  85 124 155 196 236 304 361
#     4  11  23  38  60  89 122 160 202 253 304 359
#     4  11  22  36  56  84 119 156 193 243 300 360
#     4  12  25  41  62  86 125 170 208 247 297 362
#     4  10  20  32  50  86 118 156 184 236 302 368
#     4  11  24  37  55  86 121 159 199 238 291 363
#     4  10  22  38  59  89 123 155 199 250 309 367
#
# _framework density 21.510467999999999
#
# number of rings (size 3 to 8) (size 9 to 14) (size 15 to 20)
#    0.000    1.067    4.000    4.000    3.733    0.533 
#    0.000    0.000    0.000    0.800    0.000    3.733 
#    0.000    0.000    0.000    0.000    0.000    0.000 
#
# Total GULP energy -185916.634051 kJ/mol
# GULP energy per Si atom -12394.442270 kJ/mol
# Density = 2.146151 g / cm^3
# Si number density = 21.510468 Si / 1000 Ang^3
#
#
#
# Elastic Constant Matrix: (Units=GPa)
#
#
# Indices 1 2 3 4 5 6 
#
# 1 90.1878 11.6105 18.7028 -0.0224 6.2955 0.0269
# 2 11.6105 85.3267 4.0888 -0.1452 5.9401 0.0230
# 3 18.7028 4.0888 43.5493 -0.0398 17.8286 0.0267
# 4 -0.0224 -0.1452 -0.0398 22.1097 -0.0131 10.0804
# 5 6.2955 5.9401 17.8286 -0.0131 28.1984 0.0296
# 6 0.0269 0.0230 0.0267 10.0804 0.0296 30.3397
#
#
#
# Elastic Compliance Matrix: (Units=1/GPa)
#
#
# Indices 1 2 3 4 5 6 
#
# 1 0.012369 -0.001491 -0.005627 -0.000005 0.001110 -0.000004
# 2 -0.001491 0.012074 0.000555 0.000094 -0.002562 -0.000037
# 3 -0.005627 0.000555 0.033543 0.000058 -0.020068 -0.000025
# 4 -0.000005 0.000094 0.000058 0.053305 -0.000012 -0.017711
# 5 0.001110 -0.002562 -0.020068 -0.000012 0.048443 -0.000025
# 6 -0.000004 -0.000037 -0.000025 -0.017711 -0.000025 0.038845
#
#
# Mechanical properties :
#
#
# Convention : Reuss Voigt Hill
#
# Bulk Modulus (GPa) = 22.29035 31.98534 27.13784
# Shear Modulus (GPa) = 22.05983 28.44034 25.25009
#
# Velocity S-wave (km/s) = 3.20588 3.64010 3.42987
# Velocity P-wave (km/s) = 4.90801 5.70693 5.32248
#
# Compressibility (1/GPa) = 0.04486247
#
# Stress axis : x y z
#
# Youngs Moduli (GPa) = 80.84586 82.81985 29.81287
#
# Poissons Ratio (x) = 0.12346 0.16774
# Poissons Ratio (y) = 0.12052 -0.01656
# Poissons Ratio (z) = 0.45488 -0.04600
#
# Static dielectric constant tensor:
#      x y z
#    x 4.279900 -0.000220 0.226990 
#    y -0.000220 3.804280 0.000270 
#    z 0.226990 0.000270 3.638750 
# 
# 
# High freq. dielectric constant tensor:
#      x y z
#    x 1.845110 -0.000020 0.025900 
#    y -0.000020 1.851320 0.000030 
#    z 0.025900 0.000030 1.796390 
# 
# From -- ./inp_files/46970.got.cif
#   From: 2010.03.12/outbox.cif.g09.slc.cpg/sg5_24_cif.got.tgz:46970.got - 2010.03.31 09:47:26.
