data_PCOD8048849
_publ_section_title
;
Structure prediction by ZEFSAII (Michael W. Deem and Ramdas Pophale) SiO2 
 PCOD8048849
Probable space group: C 2
;
_chemical_formula_sum "Si O2"
_cell_formula_units_Z 24
_cell_length_a 22.056607
_cell_length_b 5.599883
_cell_length_c 14.683864
_cell_angle_alpha 90.000000
_cell_angle_beta 35.999689
_cell_angle_gamma 90.000000
_cell_volume 1066.039882
_symmetry_space_group_name_H-M "C 2"
_symmetry_group_IT_number 5
_symmetry_cell_setting 'monoclinic'
loop_
_space_group_symop_operation_xyz
x,y,z
-x,y,-z
1/2+x,1/2+y,z
1/2-x,1/2+y,-z
loop_
_atom_site_type_symbol
_atom_site_label
_atom_site_fract_x
_atom_site_fract_y
_atom_site_fract_z
Si Si1 0.690530 0.924110 0.586083
Si Si2 0.575388 0.093452 0.561622
Si Si3 0.269341 0.907114 0.269297
Si Si4 0.787440 0.163717 0.069336
Si Si5 0.358453 0.783576 0.673696
Si Si6 0.390960 0.446173 0.786541
O O1 0.736563 0.658678 0.513570
O O2 0.654651 0.935698 0.736117
O O3 0.595532 0.951314 0.631564
O O4 0.667692 0.272259 0.428493
O O5 0.468286 0.228319 0.702735
O O6 0.562958 0.913619 0.491512
O O7 0.327043 0.759603 0.119421
O O8 0.230328 0.159568 0.279388
O O9 0.727237 0.371960 0.089016
O O10 0.702407 0.959973 0.186336
O O11 0.886124 0.084544 0.889378
O O12 0.424388 0.607026 0.659097
#
# Coordination Sequence:
#
# PCOD8048849 Si02
#       6
#     4   4   4   4   4   4
#     4  10  19  39  65 100 132 169 223 283 349 391
#     4  10  22  36  62 101 127 170 221 291 325 397
#     4   9  20  36  63  94 124 169 221 276 340 389
#     4  10  21  37  60  90 127 182 209 268 333 422
#     4  10  20  39  58  88 131 166 217 272 333 397
#     4  11  22  38  60  95 133 174 221 259 349 402
#
# _framework density 22.513228000000002
#
# number of rings (size 3 to 8) (size 9 to 14) (size 15 to 20)
#    0.000    2.000    3.333    0.000    0.000    8.667 
#    0.000    0.000    0.000    1.000   13.000    0.000 
#    0.000    0.000    0.000    0.000    0.000    0.000 
#
# Total GULP energy -148714.133045 kJ/mol
# GULP energy per Si atom -12392.844420 kJ/mol
# Density = 2.246199 g / cm^3
# Si number density = 22.513228 Si / 1000 Ang^3
#
#
#
# Elastic Constant Matrix: (Units=GPa)
#
#
# Indices 1 2 3 4 5 6 
#
# 1 136.9336 30.0035 64.0981 0.0221 43.9294 -0.0025
# 2 30.0035 95.3740 34.6801 -0.0627 13.6097 0.0983
# 3 64.0981 34.6801 100.5541 -0.1245 33.5219 0.0444
# 4 0.0221 -0.0627 -0.1245 38.3406 0.0442 6.4293
# 5 43.9294 13.6097 33.5219 0.0442 34.8975 -0.0160
# 6 -0.0025 0.0983 0.0444 6.4293 -0.0160 36.5519
#
#
#
# Elastic Compliance Matrix: (Units=1/GPa)
#
#
# Indices 1 2 3 4 5 6 
#
# 1 0.013478 -0.000963 -0.004014 -0.000008 -0.012735 0.000004
# 2 -0.000963 0.012083 -0.003511 0.000014 -0.000127 -0.000031
# 3 -0.004014 -0.003511 0.017026 0.000068 -0.009933 -0.000028
# 4 -0.000008 0.000014 0.000068 0.026875 -0.000096 -0.004727
# 5 -0.012735 -0.000127 -0.009933 -0.000096 0.054278 0.000052
# 6 0.000004 -0.000031 -0.000028 -0.004727 0.000052 0.028190
#
#
# Mechanical properties :
#
#
# Convention : Reuss Voigt Hill
#
# Bulk Modulus (GPa) = 39.04563 65.60281 52.32422
# Shear Modulus (GPa) = 28.17806 35.56333 31.87069
#
# Velocity S-wave (km/s) = 3.54167 3.97881 3.76658
# Velocity P-wave (km/s) = 5.84000 7.09301 6.49678
#
# Compressibility (1/GPa) = 0.02561106
#
# Stress axis : x y z
#
# Youngs Moduli (GPa) = 74.19289 82.76185 58.73417
#
# Poissons Ratio (x) = 0.07972 0.23576
# Poissons Ratio (y) = 0.07147 0.20620
# Poissons Ratio (z) = 0.29781 0.29056
#
# Static dielectric constant tensor:
#      x y z
#    x 4.483930 -0.000190 0.608870 
#    y -0.000190 4.343320 0.000010 
#    z 0.608870 0.000010 3.583870 
# 
# 
# High freq. dielectric constant tensor:
#      x y z
#    x 1.887170 -0.000010 0.044060 
#    y -0.000010 1.907280 0.000010 
#    z 0.044060 0.000010 1.847870 
# 
# From -- ./inp_files/56474.got.cif
#   From: 2010.03.12/outbox.cif.g09.slc.cpg/sg5_29_cif.got.tgz:56474.got - 2010.03.31 09:47:26.
