data_PCOD8048465
_publ_section_title
;
Structure prediction by ZEFSAII (Michael W. Deem and Ramdas Pophale) SiO2 
 PCOD8048465
Probable space group: C 2
;
_chemical_formula_sum "Si O2"
_cell_formula_units_Z 30
_cell_length_a 18.154433
_cell_length_b 6.734627
_cell_length_c 21.623386
_cell_angle_alpha 90.000000
_cell_angle_beta 147.733752
_cell_angle_gamma 90.000000
_cell_volume 1411.375924
_symmetry_space_group_name_H-M "C 2"
_symmetry_group_IT_number 5
_symmetry_cell_setting 'monoclinic'
loop_
_space_group_symop_operation_xyz
x,y,z
-x,y,-z
1/2+x,1/2+y,z
1/2-x,1/2+y,-z
loop_
_atom_site_type_symbol
_atom_site_label
_atom_site_fract_x
_atom_site_fract_y
_atom_site_fract_z
Si Si1 0.093714 0.860570 0.979281
Si Si2 0.747068 0.510941 0.558125
Si Si3 0.364048 0.689613 0.840730
Si Si4 0.417583 0.873200 0.566997
Si Si5 0.974647 0.793985 0.764277
Si Si6 0.500000 0.040256 0.000000
Si Si7 0.257548 0.610958 0.633533
Si Si8 0.161807 0.581482 0.803502
O O1 0.057957 0.772179 0.886988
O O2 0.104869 0.682521 0.036994
O O3 0.980238 0.019665 0.922149
O O4 0.245798 0.957994 0.081962
O O5 0.604257 0.635517 0.450909
O O6 0.801566 0.473589 0.528155
O O7 0.715042 0.303869 0.565917
O O8 0.857537 0.625561 0.679195
O O9 0.271115 0.673840 0.714076
O O10 0.265597 0.677658 0.829500
O O11 0.430660 0.906715 0.896925
O O12 0.374631 0.964198 0.469345
O O13 0.567567 0.926726 0.698260
O O14 0.076926 0.754112 0.778842
O O15 0.901090 0.010700 0.710513
#
# Coordination Sequence:
#
# PCOD8048465 Si02
#       8
#     4   4   4   4   4   2   4   4
#     4  11  22  45  64  95 136 170 216 272 326 395
#     4  10  18  40  62  94 119 167 210 254 326 388
#     4  11  23  43  67  89 129 179 218 261 328 399
#     4  10  21  36  66  90 127 163 209 264 321 380
#     4   9  23  39  64  95 123 166 213 269 325 374
#     4  12  20  40  70  90 120 188 214 254 326 404
#     4  10  21  41  67  88 125 167 216 263 317 393
#     4  11  22  44  61  97 133 166 215 274 322 378
#
# _framework density 21.255855
#
# number of rings (size 3 to 8) (size 9 to 14) (size 15 to 20)
#    0.000    1.600    4.000    0.800    0.000    1.600 
#   16.800    0.000    0.000    0.000    0.000    0.000 
#    0.000    0.000    0.000    0.000    0.000    0.000 
#
# Total GULP energy -185906.886953 kJ/mol
# GULP energy per Si atom -12393.792464 kJ/mol
# Density = 2.120748 g / cm^3
# Si number density = 21.255855 Si / 1000 Ang^3
#
#
#
# Elastic Constant Matrix: (Units=GPa)
#
#
# Indices 1 2 3 4 5 6 
#
# 1 66.0297 22.0346 28.0408 0.0000 -1.0726 0.0000
# 2 22.0346 105.6935 24.1217 -0.0001 -4.8008 -0.0002
# 3 28.0408 24.1217 100.7526 0.0000 -15.5265 0.0000
# 4 0.0000 -0.0001 0.0000 37.5856 0.0000 -6.4478
# 5 -1.0726 -4.8008 -15.5265 0.0000 32.1480 0.0000
# 6 0.0000 -0.0002 0.0000 -6.4478 0.0000 27.8468
#
#
#
# Elastic Compliance Matrix: (Units=1/GPa)
#
#
# Indices 1 2 3 4 5 6 
#
# 1 0.018023 -0.002786 -0.004668 0.000000 -0.002069 0.000000
# 2 -0.002786 0.010443 -0.001619 0.000000 0.000684 0.000000
# 3 -0.004668 -0.001619 0.012480 0.000000 0.005630 0.000000
# 4 0.000000 0.000000 0.000000 0.027706 0.000000 0.006415
# 5 -0.002069 0.000684 0.005630 0.000000 0.033858 0.000000
# 6 0.000000 0.000000 0.000000 0.006415 0.000000 0.037396
#
#
# Mechanical properties :
#
#
# Convention : Reuss Voigt Hill
#
# Bulk Modulus (GPa) = 43.86139 46.76334 45.31236
# Shear Modulus (GPa) = 30.18360 32.73466 31.45913
#
# Velocity S-wave (km/s) = 3.77239 3.92858 3.85128
# Velocity P-wave (km/s) = 6.29717 6.52888 6.41407
#
# Compressibility (1/GPa) = 0.02279909
#
# Stress axis : x y z
#
# Youngs Moduli (GPa) = 55.48421 95.75975 80.13007
#
# Poissons Ratio (x) = 0.26679 0.37404
# Poissons Ratio (y) = 0.15458 0.12975
# Poissons Ratio (z) = 0.25900 0.15506
#
# Static dielectric constant tensor:
#      x y z
#    x 3.744060 0.000000 -0.305340 
#    y 0.000000 3.968670 0.000000 
#    z -0.305340 0.000000 4.140860 
# 
# 
# High freq. dielectric constant tensor:
#      x y z
#    x 1.804850 0.000000 -0.022300 
#    y 0.000000 1.836780 0.000000 
#    z -0.022300 0.000000 1.847120 
# 
# From -- ./inp_files/69382.got.cif
#   From: 2010.03.12/outbox.cif.g09.slc.cpg/sg5_35_cif.got.tgz:69382.got - 2010.03.31 09:47:26.
