data_PCOD8048748
_publ_section_title
;
Structure prediction by ZEFSAII (Michael W. Deem and Ramdas Pophale) SiO2 
 PCOD8048748
Probable space group: C 2
;
_chemical_formula_sum "Si O2"
_cell_formula_units_Z 30
_cell_length_a 9.739414
_cell_length_b 13.204649
_cell_length_c 11.397822
_cell_angle_alpha 90.000000
_cell_angle_beta 107.068715
_cell_angle_gamma 90.000000
_cell_volume 1401.258606
_symmetry_space_group_name_H-M "C 2"
_symmetry_group_IT_number 5
_symmetry_cell_setting 'monoclinic'
loop_
_space_group_symop_operation_xyz
x,y,z
-x,y,-z
1/2+x,1/2+y,z
1/2-x,1/2+y,-z
loop_
_atom_site_type_symbol
_atom_site_label
_atom_site_fract_x
_atom_site_fract_y
_atom_site_fract_z
Si Si1 0.824118 0.933670 0.656220
Si Si2 0.500000 0.006556 0.000000
Si Si3 0.748159 0.667514 0.131103
Si Si4 0.627804 0.368624 0.772147
Si Si5 0.600564 0.971604 0.785087
Si Si6 0.209041 0.081535 0.876035
Si Si7 0.557105 0.652465 0.300668
Si Si8 0.659904 0.862797 0.391192
O O1 0.743899 0.924911 0.762209
O O2 0.715932 0.895501 0.530923
O O3 0.960567 0.860007 0.696456
O O4 0.873396 0.048319 0.634175
O O5 0.575693 0.938301 0.916653
O O6 0.382322 0.077448 0.903079
O O7 0.824311 0.775485 0.135177
O O8 0.874349 0.592521 0.208019
O O9 0.616226 0.675498 0.186533
O O10 0.676768 0.629862 0.993558
O O11 0.651248 0.466888 0.857835
O O12 0.714504 0.369670 0.672303
O O13 0.463326 0.941965 0.674638
O O14 0.117847 0.143155 0.754576
O O15 0.596836 0.748711 0.390800
#
# Coordination Sequence:
#
# PCOD8048748 Si02
#       8
#     4   2   4   4   4   4   4   4
#     4  10  22  41  64  92 130 168 211 273 308 377
#     4  10  20  38  64  88 126 170 200 268 324 380
#     4   9  20  37  63  91 125 167 209 259 319 388
#     4  10  21  40  63  93 127 169 219 253 323 386
#     4  10  21  40  63  91 128 163 214 259 325 369
#     4  10  19  37  61  88 126 160 215 257 313 380
#     4   9  21  39  62  91 123 169 214 254 323 386
#     4  11  21  40  65  95 125 173 216 258 319 384
#
# _framework density 21.409324000000002
#
# number of rings (size 3 to 8) (size 9 to 14) (size 15 to 20)
#    0.000    2.133    1.333    1.200    0.000    4.267 
#    4.800    9.333   17.600    0.000    0.000    0.000 
#    0.000    0.000    0.000    0.000    0.000    0.000 
#
# Total GULP energy -185879.427128 kJ/mol
# GULP energy per Si atom -12391.961809 kJ/mol
# Density = 2.136060 g / cm^3
# Si number density = 21.409324 Si / 1000 Ang^3
#
#
#
# Elastic Constant Matrix: (Units=GPa)
#
#
# Indices 1 2 3 4 5 6 
#
# 1 121.3899 29.2183 48.0989 0.0000 21.7231 0.0000
# 2 29.2183 107.1238 54.5727 0.0000 13.3167 0.0000
# 3 48.0989 54.5727 102.1010 0.0000 17.3451 0.0000
# 4 0.0000 0.0000 0.0000 32.0436 0.0000 1.1897
# 5 21.7231 13.3167 17.3451 0.0000 41.1863 0.0000
# 6 0.0000 0.0000 0.0000 1.1897 0.0000 21.9134
#
#
#
# Elastic Compliance Matrix: (Units=1/GPa)
#
#
# Indices 1 2 3 4 5 6 
#
# 1 0.010653 -0.000285 -0.004230 0.000000 -0.003745 0.000000
# 2 -0.000285 0.012906 -0.006549 0.000000 -0.001264 0.000000
# 3 -0.004230 -0.006549 0.015670 0.000000 -0.002251 0.000000
# 4 0.000000 0.000000 0.000000 0.031270 0.000000 -0.001698
# 5 -0.003745 -0.001264 -0.002251 0.000000 0.027612 0.000000
# 6 0.000000 0.000000 0.000000 -0.001698 0.000000 0.045726
#
#
# Mechanical properties :
#
#
# Convention : Reuss Voigt Hill
#
# Bulk Modulus (GPa) = 58.47810 66.04382 62.26096
# Shear Modulus (GPa) = 29.12629 32.27698 30.70164
#
# Velocity S-wave (km/s) = 3.69243 3.88701 3.79097
# Velocity P-wave (km/s) = 6.74925 7.14565 6.95027
#
# Compressibility (1/GPa) = 0.01710042
#
# Stress axis : x y z
#
# Youngs Moduli (GPa) = 93.87258 77.48090 63.81731
#
# Poissons Ratio (x) = 0.02210 0.26993
# Poissons Ratio (y) = 0.02677 0.41796
# Poissons Ratio (z) = 0.39706 0.50744
#
# Static dielectric constant tensor:
#      x y z
#    x 4.152920 0.000000 0.103650 
#    y 0.000000 3.912160 0.000000 
#    z 0.103650 0.000000 3.726590 
# 
# 
# High freq. dielectric constant tensor:
#      x y z
#    x 1.852340 0.000000 0.011070 
#    y 0.000000 1.825720 0.000000 
#    z 0.011070 0.000000 1.826490 
# 
# From -- ./inp_files/36467.got.cif
#   From: 2010.03.12/outbox.cif.g09.slc.cpg/sg5_19_cif.got.tgz:36467.got - 2010.03.31 09:47:26.
