data_PCOD8048678
_publ_section_title
;
Structure prediction by ZEFSAII (Michael W. Deem and Ramdas Pophale) SiO2 
 PCOD8048678
Probable space group: C 2
;
_chemical_formula_sum "Si O2"
_cell_formula_units_Z 24
_cell_length_a 14.152767
_cell_length_b 7.914460
_cell_length_c 10.047298
_cell_angle_alpha 90.000000
_cell_angle_beta 98.081872
_cell_angle_gamma 90.000000
_cell_volume 1114.235613
_symmetry_space_group_name_H-M "C 2"
_symmetry_group_IT_number 5
_symmetry_cell_setting 'monoclinic'
loop_
_space_group_symop_operation_xyz
x,y,z
-x,y,-z
1/2+x,1/2+y,z
1/2-x,1/2+y,-z
loop_
_atom_site_type_symbol
_atom_site_label
_atom_site_fract_x
_atom_site_fract_y
_atom_site_fract_z
Si Si1 0.297124 0.845540 0.931556
Si Si2 0.500000 0.594385 0.500000
Si Si3 0.315780 0.814229 0.423236
Si Si4 0.805456 0.718449 0.839129
Si Si5 0.500000 0.667579 0.000000
Si Si6 0.249269 0.663737 0.665905
Si Si7 0.942552 0.966041 0.752227
O O1 0.402246 0.770213 0.971882
O O2 0.232060 0.759676 0.802533
O O3 0.320073 0.036966 0.903101
O O4 0.235593 0.842779 0.054540
O O5 0.415298 0.727813 0.472063
O O6 0.498539 0.463113 0.623485
O O7 0.268150 0.708024 0.296114
O O8 0.250997 0.798580 0.544775
O O9 0.325960 0.012610 0.382814
O O10 0.907354 0.786038 0.803131
O O11 0.512212 0.552319 0.872274
O O12 0.350539 0.576541 0.703086
#
# Coordination Sequence:
#
# PCOD8048678 Si02
#       7
#     4   2   4   4   2   4   4
#     4  11  22  38  62  89 119 158 198 243 297 353
#     4  10  20  36  64  92 120 156 196 252 302 336
#     4  10  19  36  60  86 120 159 197 242 291 350
#     4  11  22  38  60  88 119 159 202 240 293 364
#     4  10  20  38  60  88 122 150 190 250 298 346
#     4   9  19  35  58  85 117 157 195 235 291 354
#     4   9  20  36  58  86 118 154 195 241 296 349
#
# _framework density 21.539429999999999
#
# number of rings (size 3 to 8) (size 9 to 14) (size 15 to 20)
#    0.000    2.000    0.000    5.000    0.000    0.667 
#    0.000    0.000    0.000   69.000    0.000    0.000 
#    0.000    0.000    0.000    0.000    0.000    0.000 
#
# Total GULP energy -148714.610885 kJ/mol
# GULP energy per Si atom -12392.884240 kJ/mol
# Density = 2.149040 g / cm^3
# Si number density = 21.539430 Si / 1000 Ang^3
#
#
#
# Elastic Constant Matrix: (Units=GPa)
#
#
# Indices 1 2 3 4 5 6 
#
# 1 58.3339 38.0800 44.0620 0.0000 -6.4438 0.0000
# 2 38.0800 123.4263 52.6764 0.0000 1.0569 0.0000
# 3 44.0620 52.6764 167.6566 0.0000 -11.2361 0.0000
# 4 0.0000 0.0000 0.0000 34.7533 0.0000 -3.6722
# 5 -6.4438 1.0569 -11.2361 0.0000 30.2767 0.0000
# 6 0.0000 0.0000 0.0000 -3.6722 0.0000 21.7928
#
#
#
# Elastic Compliance Matrix: (Units=1/GPa)
#
#
# Indices 1 2 3 4 5 6 
#
# 1 0.024656 -0.005755 -0.004417 0.000000 0.003809 0.000000
# 2 -0.005755 0.010763 -0.002027 0.000000 -0.002353 0.000000
# 3 -0.004417 -0.002027 0.007900 0.000000 0.002063 0.000000
# 4 0.000000 0.000000 0.000000 0.029296 0.000000 0.004937
# 5 0.003809 -0.002353 0.002063 0.000000 0.034687 0.000000
# 6 0.000000 0.000000 0.000000 0.004937 0.000000 0.046718
#
#
# Mechanical properties :
#
#
# Convention : Reuss Voigt Hill
#
# Bulk Modulus (GPa) = 52.84575 68.78372 60.81474
# Shear Modulus (GPa) = 27.06738 31.67114 29.36926
#
# Velocity S-wave (km/s) = 3.54876 3.83871 3.69658
# Velocity P-wave (km/s) = 6.43267 7.18685 6.82019
#
# Compressibility (1/GPa) = 0.01892300
#
# Stress axis : x y z
#
# Youngs Moduli (GPa) = 40.55789 92.91419 126.57713
#
# Poissons Ratio (x) = 0.53470 0.55903
# Poissons Ratio (y) = 0.23340 0.25655
# Poissons Ratio (z) = 0.17912 0.18832
#
# Static dielectric constant tensor:
#      x y z
#    x 3.689160 0.000000 -0.100520 
#    y 0.000000 3.878630 0.000000 
#    z -0.100520 0.000000 4.639660 
# 
# 
# High freq. dielectric constant tensor:
#      x y z
#    x 1.816600 0.000000 0.006150 
#    y 0.000000 1.836350 0.000000 
#    z 0.006150 0.000000 1.878290 
# 
# From -- ./inp_files/22874.got.cif
#   From: 2010.03.12/outbox.cif.g09.slc.cpg/sg5_12_cif.got.tgz:22874.got - 2010.03.31 09:47:26.
