data_PCOD8048266
_publ_section_title
;
Structure prediction by ZEFSAII (Michael W. Deem and Ramdas Pophale) SiO2 
 PCOD8048266
Probable space group: C 2
;
_chemical_formula_sum "Si O2"
_cell_formula_units_Z 26
_cell_length_a 10.182547
_cell_length_b 24.748337
_cell_length_c 10.210643
_cell_angle_alpha 90.000000
_cell_angle_beta 150.834973
_cell_angle_gamma 90.000000
_cell_volume 1253.937182
_symmetry_space_group_name_H-M "C 2"
_symmetry_group_IT_number 5
_symmetry_cell_setting 'monoclinic'
loop_
_space_group_symop_operation_xyz
x,y,z
-x,y,-z
1/2+x,1/2+y,z
1/2-x,1/2+y,-z
loop_
_atom_site_type_symbol
_atom_site_label
_atom_site_fract_x
_atom_site_fract_y
_atom_site_fract_z
Si Si1 0.904305 0.742960 0.660387
Si Si2 0.462177 0.480191 0.612354
Si Si3 0.000000 0.186066 0.500000
Si Si4 0.588309 0.601242 0.780406
Si Si5 0.453236 0.926744 0.113734
Si Si6 0.997511 0.630768 0.646813
Si Si7 0.948073 0.303350 0.108522
O O1 0.735004 0.723159 0.640424
O O2 0.053826 0.694235 0.714027
O O3 0.155547 0.783156 0.906657
O O4 0.688662 0.770255 0.379865
O O5 0.500000 0.456225 0.500000
O O6 0.549657 0.542463 0.685696
O O7 0.151199 0.465389 0.373030
O O8 0.650643 0.447852 0.878528
O O9 0.173820 0.146530 0.748109
O O10 0.302642 0.621795 0.573494
O O11 0.793587 0.597652 0.081106
O O12 0.500000 0.934702 0.000000
O O13 0.479657 0.865132 0.181936
O O14 0.000000 0.611100 0.500000
O O15 0.000000 0.298088 0.000000
#
# Coordination Sequence:
#
# PCOD8048266 Si02
#       7
#     4   4   2   4   4   4   4
#     4  11  23  37  59  83 123 166 196 251 296 358
#     4  10  18  34  55  87 118 154 183 245 320 364
#     4  10  24  40  56  96 126 166 216 238 300 380
#     4  11  22  37  60  85 124 158 195 253 295 368
#     4   9  19  32  54  85 119 144 197 252 305 365
#     4  11  23  38  56  85 118 157 204 239 292 360
#     4  11  21  37  59  89 118 160 205 254 308 358
#
# _framework density 20.734691999999999
#
# number of rings (size 3 to 8) (size 9 to 14) (size 15 to 20)
#    0.000    1.538    0.769    5.538    0.000    8.000 
#    0.000    0.000    0.000    0.000   30.000    0.000 
#    0.000    0.000    0.000    0.000    0.000    0.000 
#
# Total GULP energy -161077.347195 kJ/mol
# GULP energy per Si atom -12390.565169 kJ/mol
# Density = 2.068750 g / cm^3
# Si number density = 20.734692 Si / 1000 Ang^3
#
#
#
# Elastic Constant Matrix: (Units=GPa)
#
#
# Indices 1 2 3 4 5 6 
#
# 1 34.0570 30.1868 18.2900 0.0001 -4.7757 0.0001
# 2 30.1868 104.3808 57.5911 -0.0001 4.3645 0.0000
# 3 18.2900 57.5911 170.4894 0.0002 1.3227 0.0002
# 4 0.0001 -0.0001 0.0002 15.4837 0.0001 -21.5103
# 5 -4.7757 4.3645 1.3227 0.0001 26.4841 0.0001
# 6 0.0001 0.0000 0.0002 -21.5103 0.0001 3.3944
#
#
#
# Elastic Compliance Matrix: (Units=1/GPa)
#
#
# Indices 1 2 3 4 5 6 
#
# 1 0.041794 -0.012257 -0.000418 0.000000 0.009577 0.000000
# 2 -0.012257 0.015450 -0.003869 0.000000 -0.004563 0.000000
# 3 -0.000418 -0.003869 0.007216 0.000000 0.000202 0.000000
# 4 0.000000 0.000000 0.000000 -0.008276 0.000000 -0.052447
# 5 0.009577 -0.004563 0.000202 0.000000 0.040227 0.000000
# 6 0.000000 0.000000 0.000000 -0.052447 0.000000 -0.037753
#
#
# Mechanical properties :
#
#
# Convention : Reuss Voigt Hill
#
# Bulk Modulus (GPa) = 31.87423 57.89589 44.88506
# Shear Modulus (GPa) = 48.92295 22.59640 35.75967
#
# Velocity S-wave (km/s) = 4.86271 3.30477 4.15737
# Velocity P-wave (km/s) = 6.85082 6.52264 6.68874
#
# Compressibility (1/GPa) = 0.03137331
#
# Stress axis : x y z
#
# Youngs Moduli (GPa) = 23.92711 64.72373 138.58901
#
# Poissons Ratio (x) = 0.79330 0.05787
# Poissons Ratio (y) = 0.29327 0.53617
# Poissons Ratio (z) = 0.00999 0.25040
#
# Static dielectric constant tensor:
#      x y z
#    x 3.761080 0.000000 -0.342550 
#    y 0.000000 3.981210 0.000000 
#    z -0.342550 0.000000 4.200640 
# 
# 
# High freq. dielectric constant tensor:
#      x y z
#    x 1.766280 0.000000 0.010710 
#    y 0.000000 1.815040 0.000000 
#    z 0.010710 0.000000 1.836160 
# 
# From -- ./inp_files/40835.got.cif
#   From: 2010.03.12/outbox.cif.g09.slc.cpg/sg5_21_cif.got.tgz:40835.got - 2010.03.31 09:47:26.
