data_PCOD8048176
_publ_section_title
;
Structure prediction by ZEFSAII (Michael W. Deem and Ramdas Pophale) SiO2 
 PCOD8048176
Probable space group: C 2
;
_chemical_formula_sum "Si O2"
_cell_formula_units_Z 28
_cell_length_a 19.082882
_cell_length_b 5.365767
_cell_length_c 13.092552
_cell_angle_alpha 90.000000
_cell_angle_beta 77.129185
_cell_angle_gamma 90.000000
_cell_volume 1306.919748
_symmetry_space_group_name_H-M "C 2"
_symmetry_group_IT_number 5
_symmetry_cell_setting 'monoclinic'
loop_
_space_group_symop_operation_xyz
x,y,z
-x,y,-z
1/2+x,1/2+y,z
1/2-x,1/2+y,-z
loop_
_atom_site_type_symbol
_atom_site_label
_atom_site_fract_x
_atom_site_fract_y
_atom_site_fract_z
Si Si1 0.500416 0.496000 0.877941
Si Si2 0.131671 0.002076 0.693916
Si Si3 0.700234 0.001266 0.346682
Si Si4 0.555508 0.996044 0.074826
Si Si5 0.718609 0.982192 0.963033
Si Si6 0.281835 0.501067 0.723306
Si Si7 0.339448 0.001949 0.405360
O O1 0.581610 0.502799 0.810074
O O2 0.456754 0.742756 0.855048
O O3 0.459910 0.244494 0.852422
O O4 0.500000 0.488345 0.000000
O O5 0.214018 0.002627 0.703698
O O6 0.114920 0.251748 0.633401
O O7 0.115069 0.752738 0.633044
O O8 0.669265 0.250126 0.300950
O O9 0.683323 0.000644 0.470499
O O10 0.669576 0.752927 0.300149
O O11 0.500000 0.986968 0.000000
O O12 0.634466 0.008968 0.004404
O O13 0.733145 0.001354 0.838603
O O14 0.757293 0.211029 0.006449
O O15 0.232993 0.502436 0.637344
#
# Coordination Sequence:
#
# PCOD8048176 Si02
#       7
#     4   4   4   4   4   4   4
#     4  10  21  31  52  81 116 153 203 240 292 363
#     4  10  18  28  47  74 119 156 178 235 312 362
#     4  10  19  31  53  83 121 149 197 253 318 371
#     4  10  23  38  60  83 119 156 214 256 299 342
#     4  12  26  43  61  87 127 173 216 249 298 371
#     4  10  20  32  56  75 115 162 196 234 318 353
#     4  10  19  31  51  83 121 153 193 251 320 372
#
# _framework density 21.424422
#
# number of rings (size 3 to 8) (size 9 to 14) (size 15 to 20)
#    0.000    1.714    0.000    6.857   16.000    0.000 
#    0.000    0.000    0.000    0.000    0.000    0.000 
#    0.000  132.571    0.000    0.000    0.000    0.000 
#
# Total GULP energy -173483.489117 kJ/mol
# GULP energy per Si atom -12391.677794 kJ/mol
# Density = 2.137566 g / cm^3
# Si number density = 21.424422 Si / 1000 Ang^3
#
#
#
# Elastic Constant Matrix: (Units=GPa)
#
#
# Indices 1 2 3 4 5 6 
#
# 1 43.4213 7.5862 18.1632 0.0000 -11.7710 0.0000
# 2 7.5862 247.8114 40.0507 0.0000 -13.2686 0.0000
# 3 18.1632 40.0507 102.6289 0.0000 -30.8398 0.0000
# 4 0.0000 0.0000 0.0000 34.5640 0.0000 -11.1255
# 5 -11.7710 -13.2686 -30.8398 0.0000 17.8949 0.0000
# 6 0.0000 0.0000 0.0000 -11.1255 0.0000 14.9008
#
#
#
# Elastic Compliance Matrix: (Units=1/GPa)
#
#
# Indices 1 2 3 4 5 6 
#
# 1 0.028100 0.000049 0.001188 0.000000 0.020568 0.000000
# 2 0.000049 0.004310 -0.001495 0.000000 0.000652 0.000000
# 3 0.001188 -0.001495 0.020780 0.000000 0.035486 0.000000
# 4 0.000000 0.000000 0.000000 0.038085 0.000000 0.028435
# 5 0.020568 0.000652 0.035486 0.000000 0.131051 0.000000
# 6 0.000000 0.000000 0.000000 0.028435 0.000000 0.088341
#
#
# Mechanical properties :
#
#
# Convention : Reuss Voigt Hill
#
# Bulk Modulus (GPa) = 18.98388 58.38465 38.68427
# Shear Modulus (GPa) = 15.20953 35.34270 25.27611
#
# Velocity S-wave (km/s) = 2.66731 4.06599 3.43852
# Velocity P-wave (km/s) = 4.28558 7.02521 5.81893
#
# Compressibility (1/GPa) = 0.05267626
#
# Stress axis : x y z
#
# Youngs Moduli (GPa) = 35.58681 232.00078 48.12252
#
# Poissons Ratio (x) = -0.01137 -0.05719
# Poissons Ratio (y) = -0.00174 0.07193
# Poissons Ratio (z) = -0.04229 0.34680
#
# Static dielectric constant tensor:
#      x y z
#    x 3.260060 0.000000 -0.264010 
#    y 0.000000 7.671030 0.000000 
#    z -0.264010 0.000000 3.703660 
# 
# 
# High freq. dielectric constant tensor:
#      x y z
#    x 1.759980 0.000000 -0.025820 
#    y 0.000000 1.899290 0.000000 
#    z -0.025820 0.000000 1.834580 
# 
# From -- ./inp_files/45638.got.cif
#   From: 2010.03.12/outbox.cif.g09.slc.cpg/sg5_23_cif.got.tgz:45638.got - 2010.03.31 09:47:26.
