data_PCOD8048446
_publ_section_title
;
Structure prediction by ZEFSAII (Michael W. Deem and Ramdas Pophale) SiO2 
 PCOD8048446
Probable space group: C 2
;
_chemical_formula_sum "Si O2"
_cell_formula_units_Z 30
_cell_length_a 14.832988
_cell_length_b 10.705115
_cell_length_c 11.468366
_cell_angle_alpha 90.000000
_cell_angle_beta 63.849675
_cell_angle_gamma 90.000000
_cell_volume 1634.647513
_symmetry_space_group_name_H-M "C 2"
_symmetry_group_IT_number 5
_symmetry_cell_setting 'monoclinic'
loop_
_space_group_symop_operation_xyz
x,y,z
-x,y,-z
1/2+x,1/2+y,z
1/2-x,1/2+y,-z
loop_
_atom_site_type_symbol
_atom_site_label
_atom_site_fract_x
_atom_site_fract_y
_atom_site_fract_z
Si Si1 0.576781 0.275130 0.561340
Si Si2 0.926220 0.832168 0.834652
Si Si3 0.716514 0.901722 0.881049
Si Si4 0.043976 0.488880 0.600295
Si Si5 0.290824 0.845841 0.363426
Si Si6 0.000000 0.984581 0.000000
Si Si7 0.363416 0.052775 0.857944
Si Si8 0.820205 0.144110 0.170278
O O1 0.500000 0.295038 0.500000
O O2 0.528211 0.339169 0.702383
O O3 0.593118 0.126806 0.569948
O O4 0.679919 0.349014 0.481797
O O5 0.836884 0.905355 0.821742
O O6 0.896805 0.690141 0.873259
O O7 0.938066 0.896829 0.950995
O O8 0.696310 0.939209 0.756493
O O9 0.675655 0.759756 0.924690
O O10 0.663594 0.989625 0.004068
O O11 0.128625 0.387111 0.585931
O O12 0.000000 0.451172 0.500000
O O13 0.954473 0.479411 0.745477
O O14 0.304244 0.702596 0.308935
O O15 0.923613 0.070315 0.115053
O O16 0.271730 0.054586 0.817114
#
# Coordination Sequence:
#
# PCOD8048446 Si02
#       8
#     4   4   4   4   4   2   4   4
#     4  10  18  39  63  82 115 156 201 240 294 357
#     4  10  21  35  58  90 114 156 194 242 290 355
#     4   9  19  37  61  85 114 153 196 241 294 346
#     4  10  22  36  62  86 115 159 201 250 288 347
#     4  10  21  37  64  87 114 154 208 236 304 351
#     4  12  22  36  56  92 122 152 188 246 312 352
#     4  10  19  39  62  85 121 156 202 239 290 356
#     4   9  21  35  58  84 117 163 184 238 306 353
#
# _framework density 18.35258
#
# number of rings (size 3 to 8) (size 9 to 14) (size 15 to 20)
#    0.800    1.333    2.667    1.600    1.867    4.800 
#    0.000    0.000    2.933    0.000    0.000    0.000 
#    0.000    0.000    0.000    0.000    0.000    0.000 
#
# Total GULP energy -185893.619102 kJ/mol
# GULP energy per Si atom -12392.907940 kJ/mol
# Density = 1.831081 g / cm^3
# Si number density = 18.352580 Si / 1000 Ang^3
#
#
#
# Elastic Constant Matrix: (Units=GPa)
#
#
# Indices 1 2 3 4 5 6 
#
# 1 110.3524 35.3106 44.3630 0.0000 -5.5801 0.0000
# 2 35.3106 35.1201 38.7910 0.0000 -6.5667 0.0000
# 3 44.3630 38.7910 116.4521 0.0000 -12.2692 0.0000
# 4 0.0000 0.0000 0.0000 23.6083 0.0000 11.2141
# 5 -5.5801 -6.5667 -12.2692 0.0000 34.9482 0.0000
# 6 0.0000 0.0000 0.0000 11.2141 0.0000 16.1902
#
#
#
# Elastic Compliance Matrix: (Units=1/GPa)
#
#
# Indices 1 2 3 4 5 6 
#
# 1 0.013440 -0.012494 -0.001017 0.000000 -0.000559 0.000000
# 2 -0.012494 0.057037 -0.013832 0.000000 0.003866 0.000000
# 3 -0.001017 -0.013832 0.013802 0.000000 0.002084 0.000000
# 4 0.000000 0.000000 0.000000 0.063128 0.000000 -0.043726
# 5 -0.000559 0.003866 0.002084 0.000000 0.029983 0.000000
# 6 0.000000 0.000000 0.000000 -0.043726 0.000000 0.092052
#
#
# Mechanical properties :
#
#
# Convention : Reuss Voigt Hill
#
# Bulk Modulus (GPa) = 33.79329 55.42818 44.61073
# Shear Modulus (GPa) = 14.97034 24.51334 19.74184
#
# Velocity S-wave (km/s) = 2.85916 3.65867 3.28334
# Velocity P-wave (km/s) = 5.41785 6.93652 6.22368
#
# Compressibility (1/GPa) = 0.02959167
#
# Stress axis : x y z
#
# Youngs Moduli (GPa) = 74.40203 17.53251 72.45400
#
# Poissons Ratio (x) = 0.21906 0.07369
# Poissons Ratio (y) = 0.92961 1.00220
# Poissons Ratio (z) = 0.07567 0.24251
#
# Static dielectric constant tensor:
#      x y z
#    x 3.405950 0.000000 -0.047470 
#    y 0.000000 3.105580 0.000000 
#    z -0.047470 0.000000 3.459400 
# 
# 
# High freq. dielectric constant tensor:
#      x y z
#    x 1.713740 0.000000 -0.008510 
#    y 0.000000 1.682920 0.000000 
#    z -0.008510 0.000000 1.712840 
# 
# From -- ./inp_files/42445.got.cif
#   From: 2010.03.12/outbox.cif.g09.slc.cpg/sg5_22_cif.got.tgz:42445.got - 2010.03.31 09:47:26.
