data_PCOD8048984
_publ_section_title
;
Structure prediction by ZEFSAII (Michael W. Deem and Ramdas Pophale) SiO2 
 PCOD8048984
Probable space group: C 2
;
_chemical_formula_sum "Si O2"
_cell_formula_units_Z 22
_cell_length_a 16.607422
_cell_length_b 8.674012
_cell_length_c 12.603174
_cell_angle_alpha 90.000000
_cell_angle_beta 43.135542
_cell_angle_gamma 90.000000
_cell_volume 1241.322524
_symmetry_space_group_name_H-M "C 2"
_symmetry_group_IT_number 5
_symmetry_cell_setting 'monoclinic'
loop_
_space_group_symop_operation_xyz
x,y,z
-x,y,-z
1/2+x,1/2+y,z
1/2-x,1/2+y,-z
loop_
_atom_site_type_symbol
_atom_site_label
_atom_site_fract_x
_atom_site_fract_y
_atom_site_fract_z
Si Si1 0.226758 0.421660 0.762801
Si Si2 0.426045 0.630820 0.476072
Si Si3 0.500000 0.089512 0.000000
Si Si4 0.912344 0.687814 0.303463
Si Si5 0.942567 0.823244 0.664121
Si Si6 0.187282 0.352262 0.576221
O O1 0.302393 0.563390 0.639277
O O2 0.301623 0.330657 0.779943
O O3 0.188473 0.310711 0.701053
O O4 0.109665 0.484377 0.932058
O O5 0.500000 0.713803 0.500000
O O6 0.507120 0.491844 0.355890
O O7 0.405072 0.748642 0.400090
O O8 0.459998 0.191706 0.137877
O O9 0.848528 0.530573 0.400098
O O10 0.819545 0.827741 0.404823
O O11 0.025546 0.709883 0.270785
O O12 0.000000 0.761793 0.500000
#
# Coordination Sequence:
#
# PCOD8048984 Si02
#       6
#     4   4   2   4   4   4
#     4   9  18  33  57  75 111 144 180 211 284 321
#     4   9  17  32  52  81 107 140 180 230 265 312
#     4  10  20  34  54  82 110 156 170 216 284 340
#     4  11  20  33  60  82 110 142 188 224 270 322
#     4   9  17  35  57  80 107 144 182 230 268 314
#     4  11  17  32  55  83 102 144 186 226 253 326
#
# _framework density 17.723033999999998
#
# number of rings (size 3 to 8) (size 9 to 14) (size 15 to 20)
#    0.000    2.545    7.273    0.000    0.000    0.727 
#    0.000    7.273    4.000   17.455    0.000    0.000 
#    0.000    0.000    0.000    0.000    0.000    0.000 
#
# Total GULP energy -136296.214592 kJ/mol
# GULP energy per Si atom -12390.564963 kJ/mol
# Density = 1.768270 g / cm^3
# Si number density = 17.723034 Si / 1000 Ang^3
#
#
#
# Elastic Constant Matrix: (Units=GPa)
#
#
# Indices 1 2 3 4 5 6 
#
# 1 163.1590 50.9326 38.9131 0.0000 4.6686 0.0000
# 2 50.9326 53.6125 29.4080 0.0000 8.2380 0.0000
# 3 38.9131 29.4080 77.5208 0.0000 3.9127 0.0000
# 4 0.0000 0.0000 0.0000 22.2033 0.0000 -0.3001
# 5 4.6686 8.2380 3.9127 0.0000 29.0349 0.0000
# 6 0.0000 0.0000 0.0000 -0.3001 0.0000 40.0901
#
#
#
# Elastic Compliance Matrix: (Units=1/GPa)
#
#
# Indices 1 2 3 4 5 6 
#
# 1 0.008891 -0.007730 -0.001580 0.000000 0.000977 0.000000
# 2 -0.007730 0.031186 -0.007618 0.000000 -0.006579 0.000000
# 3 -0.001580 -0.007618 0.016574 0.000000 0.000182 0.000000
# 4 0.000000 0.000000 0.000000 0.045043 0.000000 0.000337
# 5 0.000977 -0.006579 0.000182 0.000000 0.036126 0.000000
# 6 0.000000 0.000000 0.000000 0.000337 0.000000 0.024946
#
#
# Mechanical properties :
#
#
# Convention : Reuss Voigt Hill
#
# Bulk Modulus (GPa) = 43.87093 59.19998 51.53546
# Shear Modulus (GPa) = 24.48342 29.93487 27.20915
#
# Velocity S-wave (km/s) = 3.72081 4.11425 3.92247
# Velocity P-wave (km/s) = 6.57774 7.48630 7.04668
#
# Compressibility (1/GPa) = 0.02279413
#
# Stress axis : x y z
#
# Youngs Moduli (GPa) = 112.47530 32.06605 60.33678
#
# Poissons Ratio (x) = 0.24787 0.09532
# Poissons Ratio (y) = 0.86942 0.45966
# Poissons Ratio (z) = 0.17769 0.24429
#
# Static dielectric constant tensor:
#      x y z
#    x 3.855410 0.000000 -0.070060 
#    y 0.000000 2.959060 0.000000 
#    z -0.070060 0.000000 2.945380 
# 
# 
# High freq. dielectric constant tensor:
#      x y z
#    x 1.720430 0.000000 -0.006220 
#    y 0.000000 1.646770 0.000000 
#    z -0.006220 0.000000 1.647600 
# 
# From -- ./inp_files/41612.got.cif
#   From: 2010.03.12/outbox.cif.g09.slc.cpg/sg5_21_cif.got.tgz:41612.got - 2010.03.31 09:47:26.
