data_PCOD8048618
_publ_section_title
;
Structure prediction by ZEFSAII (Michael W. Deem and Ramdas Pophale) SiO2 
 PCOD8048618
Probable space group: C 2
;
_chemical_formula_sum "Si O2"
_cell_formula_units_Z 28
_cell_length_a 8.903374
_cell_length_b 10.027031
_cell_length_c 13.396378
_cell_angle_alpha 90.000000
_cell_angle_beta 112.443193
_cell_angle_gamma 90.000000
_cell_volume 1105.370372
_symmetry_space_group_name_H-M "C 2"
_symmetry_group_IT_number 5
_symmetry_cell_setting 'monoclinic'
loop_
_space_group_symop_operation_xyz
x,y,z
-x,y,-z
1/2+x,1/2+y,z
1/2-x,1/2+y,-z
loop_
_atom_site_type_symbol
_atom_site_label
_atom_site_fract_x
_atom_site_fract_y
_atom_site_fract_z
Si Si1 0.383593 0.739580 0.190477
Si Si2 0.726176 0.560208 0.562347
Si Si3 0.671299 0.351283 0.708440
Si Si4 0.044402 0.407829 0.613586
Si Si5 0.406401 0.212664 0.756120
Si Si6 0.662707 0.590406 0.326220
Si Si7 0.020921 0.464075 0.117225
O O1 0.494465 0.818214 0.300835
O O2 0.191578 0.736641 0.164152
O O3 0.486983 0.599056 0.221291
O O4 0.404755 0.832796 0.098249
O O5 0.636879 0.443254 0.602756
O O6 0.752486 0.686922 0.642399
O O7 0.627120 0.596716 0.437205
O O8 0.913368 0.528024 0.580142
O O9 0.508966 0.333825 0.735562
O O10 0.721055 0.207274 0.682438
O O11 0.794883 0.421065 0.815757
O O12 0.233753 0.455959 0.669996
O O13 0.000000 0.328731 0.500000
O O14 0.520032 0.083486 0.813134
O O15 0.000000 0.518336 0.000000
#
# Coordination Sequence:
#
# PCOD8048618 Si02
#       7
#     4   4   4   4   4   4   4
#     4  11  23  40  62  93 127 170 212 263 323 387
#     4  10  20  36  59  92 126 173 220 256 304 374
#     4  10  20  41  65  93 126 171 215 261 327 386
#     4  10  19  35  57  88 124 167 213 260 306 369
#     4  11  23  39  65  92 128 165 212 266 329 387
#     4  10  20  36  62  86 131 174 216 254 312 372
#     4  10  23  46  68  91 123 158 216 281 329 388
#
# _framework density 25.330877000000001
#
# number of rings (size 3 to 8) (size 9 to 14) (size 15 to 20)
#    0.000    1.714    5.714    0.000    2.000    3.429 
#    0.000    5.714    0.000    0.000    0.000    0.000 
#    0.000    0.000    0.000    0.000    0.000    0.000 
#
# Total GULP energy -173455.378914 kJ/mol
# GULP energy per Si atom -12389.669922 kJ/mol
# Density = 2.527322 g / cm^3
# Si number density = 25.330877 Si / 1000 Ang^3
#
#
#
# Elastic Constant Matrix: (Units=GPa)
#
#
# Indices 1 2 3 4 5 6 
#
# 1 135.0375 22.4467 9.7050 0.0000 5.4924 0.0000
# 2 22.4467 24.4435 3.2574 0.0000 1.4906 0.0000
# 3 9.7050 3.2574 75.1577 0.0000 -16.5949 0.0000
# 4 0.0000 0.0000 0.0000 24.7118 0.0000 -9.4438
# 5 5.4924 1.4906 -16.5949 0.0000 22.1812 0.0000
# 6 0.0000 0.0000 0.0000 -9.4438 0.0000 40.3228
#
#
#
# Elastic Compliance Matrix: (Units=1/GPa)
#
#
# Indices 1 2 3 4 5 6 
#
# 1 0.008921 -0.007836 -0.001418 0.000000 -0.002743 0.000000
# 2 -0.007836 0.048483 -0.001654 0.000000 -0.002555 0.000000
# 3 -0.001418 -0.001654 0.016366 0.000000 0.012706 0.000000
# 4 0.000000 0.000000 0.000000 0.044444 0.000000 0.010409
# 5 -0.002743 -0.002555 0.012706 0.000000 0.055440 0.000000
# 6 0.000000 0.000000 0.000000 0.010409 0.000000 0.027238
#
#
# Mechanical properties :
#
#
# Convention : Reuss Voigt Hill
#
# Bulk Modulus (GPa) = 19.24775 33.93967 26.59371
# Shear Modulus (GPa) = 20.83102 30.72514 25.77808
#
# Velocity S-wave (km/s) = 2.87079 3.48652 3.19353
# Velocity P-wave (km/s) = 4.31319 5.44384 4.91116
#
# Compressibility (1/GPa) = 0.05195412
#
# Stress axis : x y z
#
# Youngs Moduli (GPa) = 112.08919 20.62577 61.10343
#
# Poissons Ratio (x) = 0.16163 0.08665
# Poissons Ratio (y) = 0.87838 0.10104
# Poissons Ratio (z) = 0.15896 0.03411
#
# Static dielectric constant tensor:
#      x y z
#    x 4.655220 0.000000 -0.223760 
#    y 0.000000 4.663780 0.000000 
#    z -0.223760 0.000000 4.054990 
# 
# 
# High freq. dielectric constant tensor:
#      x y z
#    x 2.029070 0.000000 -0.003630 
#    y 0.000000 2.020340 0.000000 
#    z -0.003630 0.000000 1.955340 
# 
# From -- ./inp_files/50558.got.cif
#   From: 2010.03.12/outbox.cif.g09.slc.cpg/sg5_26_cif.got.tgz:50558.got - 2010.03.31 09:47:26.
