data_PCOD8048754
_publ_section_title
;
Structure prediction by ZEFSAII (Michael W. Deem and Ramdas Pophale) SiO2 
 PCOD8048754
Probable space group: C 2
;
_chemical_formula_sum "Si O2"
_cell_formula_units_Z 24
_cell_length_a 20.185031
_cell_length_b 8.352478
_cell_length_c 9.836357
_cell_angle_alpha 90.000000
_cell_angle_beta 132.014208
_cell_angle_gamma 90.000000
_cell_volume 1232.127098
_symmetry_space_group_name_H-M "C 2"
_symmetry_group_IT_number 5
_symmetry_cell_setting 'monoclinic'
loop_
_space_group_symop_operation_xyz
x,y,z
-x,y,-z
1/2+x,1/2+y,z
1/2-x,1/2+y,-z
loop_
_atom_site_type_symbol
_atom_site_label
_atom_site_fract_x
_atom_site_fract_y
_atom_site_fract_z
Si Si1 0.158153 0.837410 0.500945
Si Si2 0.415375 0.926201 0.962861
Si Si3 0.265843 0.725683 0.887147
Si Si4 0.285935 0.356473 0.899268
Si Si5 0.234904 0.631843 0.377691
Si Si6 0.976518 0.749714 0.125773
O O1 0.185433 0.811846 0.695338
O O2 0.221551 0.720472 0.501349
O O3 0.055231 0.801275 0.334150
O O4 0.177072 0.022410 0.487968
O O5 0.452795 0.062317 0.117429
O O6 0.500000 0.848880 0.000000
O O7 0.362517 0.788122 0.969261
O O8 0.350532 0.019439 0.768973
O O9 0.254145 0.537915 0.849546
O O10 0.256920 0.766780 0.032096
O O11 0.250669 0.263847 0.718724
O O12 0.392899 0.357505 0.052703
O O13 0.000000 0.779770 0.000000
#
# Coordination Sequence:
#
# PCOD8048754 Si02
#       6
#     4   4   4   4   4   4
#     4  11  20  36  60  94 114 163 200 249 296 354
#     4   9  17  37  59  89 118 156 192 244 297 362
#     4  11  24  37  63  86 120 161 207 248 303 360
#     4  11  22  43  57  86 122 163 201 251 307 363
#     4  10  20  36  61  87 124 152 204 245 297 357
#     4  10  19  37  63  86 123 158 196 248 304 352
#
# _framework density 19.478508999999999
#
# number of rings (size 3 to 8) (size 9 to 14) (size 15 to 20)
#    0.000    1.667    5.000    4.000    0.000    1.333 
#    3.000    0.000    0.000    2.000    0.000    0.000 
#    0.000    0.000    0.000    0.000    0.000    0.000 
#
# Total GULP energy -148805.836538 kJ/mol
# GULP energy per Si atom -12400.486378 kJ/mol
# Density = 1.943418 g / cm^3
# Si number density = 19.478509 Si / 1000 Ang^3
#
#
#
# Elastic Constant Matrix: (Units=GPa)
#
#
# Indices 1 2 3 4 5 6 
#
# 1 74.7363 15.8936 10.2279 0.0000 3.2330 0.0000
# 2 15.8936 90.1507 5.3259 0.0000 8.3517 0.0000
# 3 10.2279 5.3259 47.8792 0.0000 14.8362 0.0000
# 4 0.0000 0.0000 0.0000 30.5680 0.0000 0.1897
# 5 3.2330 8.3517 14.8362 0.0000 32.1910 0.0000
# 6 0.0000 0.0000 0.0000 0.1897 0.0000 35.5687
#
#
#
# Elastic Compliance Matrix: (Units=1/GPa)
#
#
# Indices 1 2 3 4 5 6 
#
# 1 0.014269 -0.002392 -0.002952 0.000000 0.000548 0.000000
# 2 -0.002392 0.011774 0.000086 0.000000 -0.002854 0.000000
# 3 -0.002952 0.000086 0.024991 0.000000 -0.011244 0.000000
# 4 0.000000 0.000000 0.000000 0.032715 0.000000 -0.000174
# 5 0.000548 -0.002854 -0.011244 0.000000 0.036932 0.000000
# 6 0.000000 0.000000 0.000000 -0.000174 0.000000 0.028116
#
#
# Mechanical properties :
#
#
# Convention : Reuss Voigt Hill
#
# Bulk Modulus (GPa) = 24.68088 30.62901 27.65495
# Shear Modulus (GPa) = 28.93204 31.75346 30.34275
#
# Velocity S-wave (km/s) = 3.85818 4.04193 3.95112
# Velocity P-wave (km/s) = 5.70489 6.12712 5.91977
#
# Compressibility (1/GPa) = 0.04051719
#
# Stress axis : x y z
#
# Youngs Moduli (GPa) = 70.08020 84.93595 40.01448
#
# Poissons Ratio (x) = 0.20317 0.11812
# Poissons Ratio (y) = 0.16764 -0.00343
# Poissons Ratio (z) = 0.20687 -0.00727
#
# Static dielectric constant tensor:
#      x y z
#    x 3.607530 0.000000 0.091370 
#    y 0.000000 3.642310 0.000000 
#    z 0.091370 0.000000 3.415650 
# 
# 
# High freq. dielectric constant tensor:
#      x y z
#    x 1.751230 0.000000 0.001410 
#    y 0.000000 1.761590 0.000000 
#    z 0.001410 0.000000 1.745060 
# 
# From -- ./inp_files/26554.got.cif
#   From: 2010.03.12/outbox.cif.g09.slc.cpg/sg5_14_cif.got.tgz:26554.got - 2010.03.31 09:47:26.
