data_PCOD8048309
_publ_section_title
;
Structure prediction by ZEFSAII (Michael W. Deem and Ramdas Pophale) SiO2 
 PCOD8048309
Probable space group: C 2
;
_chemical_formula_sum "Si O2"
_cell_formula_units_Z 20
_cell_length_a 11.482258
_cell_length_b 14.275700
_cell_length_c 8.349848
_cell_angle_alpha 90.000000
_cell_angle_beta 47.567716
_cell_angle_gamma 90.000000
_cell_volume 1010.192043
_symmetry_space_group_name_H-M "C 2"
_symmetry_group_IT_number 5
_symmetry_cell_setting 'monoclinic'
loop_
_space_group_symop_operation_xyz
x,y,z
-x,y,-z
1/2+x,1/2+y,z
1/2-x,1/2+y,-z
loop_
_atom_site_type_symbol
_atom_site_label
_atom_site_fract_x
_atom_site_fract_y
_atom_site_fract_z
Si Si1 0.698418 0.843270 0.595458
Si Si2 0.168870 0.716100 0.282278
Si Si3 0.500000 0.902039 0.500000
Si Si4 0.535355 0.401732 0.288101
Si Si5 0.790179 0.528739 0.912542
Si Si6 0.000000 0.475765 0.000000
O O1 0.723911 0.744159 0.662976
O O2 0.577895 0.833564 0.559753
O O3 0.631024 0.914334 0.789777
O O4 0.865043 0.879761 0.368072
O O5 0.143815 0.807859 0.194050
O O6 0.251602 0.633167 0.108026
O O7 0.000000 0.678794 0.500000
O O8 0.368827 0.968167 0.699787
O O9 0.500000 0.436829 0.500000
O O10 0.623104 0.481956 0.108903
O O11 0.906487 0.538424 0.957510
#
# Coordination Sequence:
#
# PCOD8048309 Si02
#       6
#     4   4   2   4   4   2
#     4   9  19  38  61  90 124 169 205 257 311 364
#     4   9  18  37  63  94 124 166 207 249 311 372
#     4  10  22  34  64  94 124 166 212 250 318 372
#     4   9  18  37  65  90 124 166 204 256 312 367
#     4  11  19  36  66  95 124 166 212 253 314 377
#     4  10  18  34  64  88 128 162 204 254 314 370
#
# _framework density 19.798216
#
# number of rings (size 3 to 8) (size 9 to 14) (size 15 to 20)
#    0.000    2.800    5.000    0.000    0.000    0.800 
#    0.000    6.000    2.200    0.000    2.600    0.000 
#    0.000    0.000    0.000    0.000    0.000    0.000 
#
# Total GULP energy -123951.439917 kJ/mol
# GULP energy per Si atom -12395.143992 kJ/mol
# Density = 1.975315 g / cm^3
# Si number density = 19.798216 Si / 1000 Ang^3
#
#
#
# Elastic Constant Matrix: (Units=GPa)
#
#
# Indices 1 2 3 4 5 6 
#
# 1 123.6443 64.5125 36.9078 0.0000 10.1561 -0.0001
# 2 64.5125 123.6862 73.2685 0.0000 1.6210 0.0000
# 3 36.9078 73.2685 94.5659 0.0000 -4.1010 0.0000
# 4 0.0000 0.0000 0.0000 40.1771 0.0000 7.2288
# 5 10.1561 1.6210 -4.1010 0.0000 28.4696 0.0000
# 6 -0.0001 0.0000 0.0000 7.2288 0.0000 22.2440
#
#
#
# Elastic Compliance Matrix: (Units=1/GPa)
#
#
# Indices 1 2 3 4 5 6 
#
# 1 0.011501 -0.005902 -0.000080 0.000000 -0.003778 0.000000
# 2 -0.005902 0.018156 -0.011791 0.000000 -0.000627 0.000000
# 3 -0.000080 -0.011791 0.019896 0.000000 0.003566 0.000000
# 4 0.000000 0.000000 0.000000 0.026436 0.000000 -0.008591
# 5 -0.003778 -0.000627 0.003566 0.000000 0.037022 0.000000
# 6 0.000000 0.000000 0.000000 -0.008591 0.000000 0.047748
#
#
# Mechanical properties :
#
#
# Convention : Reuss Voigt Hill
#
# Bulk Modulus (GPa) = 71.38854 76.80822 74.09838
# Shear Modulus (GPa) = 24.87883 29.32532 27.10207
#
# Velocity S-wave (km/s) = 3.54873 3.85282 3.70390
# Velocity P-wave (km/s) = 7.27514 7.65977 7.46993
#
# Compressibility (1/GPa) = 0.01400785
#
# Stress axis : x y z
#
# Youngs Moduli (GPa) = 86.94605 55.07744 50.26177
#
# Poissons Ratio (x) = 0.32507 0.00401
# Poissons Ratio (y) = 0.51317 0.59263
# Poissons Ratio (z) = 0.00694 0.64941
#
# Static dielectric constant tensor:
#      x y z
#    x 3.689390 0.000000 -0.083060 
#    y 0.000000 3.239790 0.000000 
#    z -0.083060 0.000000 3.620740 
# 
# 
# High freq. dielectric constant tensor:
#      x y z
#    x 1.773060 0.000000 -0.007450 
#    y 0.000000 1.736960 0.000000 
#    z -0.007450 0.000000 1.771280 
# 
# From -- ./inp_files/19481.got.cif
#   From: 2010.03.12/outbox.cif.g09.slc.cpg/sg5_10_cif.got.tgz:19481.got - 2010.03.31 09:47:26.
