data_PCOD8048805
_publ_section_title
;
Structure prediction by ZEFSAII (Michael W. Deem and Ramdas Pophale) SiO2 
 PCOD8048805
Probable space group: C 2
;
_chemical_formula_sum "Si O2"
_cell_formula_units_Z 30
_cell_length_a 19.049389
_cell_length_b 11.190145
_cell_length_c 7.042433
_cell_angle_alpha 90.000000
_cell_angle_beta 91.182467
_cell_angle_gamma 90.000000
_cell_volume 1500.883536
_symmetry_space_group_name_H-M "C 2"
_symmetry_group_IT_number 5
_symmetry_cell_setting 'monoclinic'
loop_
_space_group_symop_operation_xyz
x,y,z
-x,y,-z
1/2+x,1/2+y,z
1/2-x,1/2+y,-z
loop_
_atom_site_type_symbol
_atom_site_label
_atom_site_fract_x
_atom_site_fract_y
_atom_site_fract_z
Si Si1 0.611328 0.807250 0.851825
Si Si2 0.308008 0.147057 0.243013
Si Si3 0.721492 0.906294 0.586466
Si Si4 0.000000 0.709397 0.500000
Si Si5 0.420770 0.609215 0.436732
Si Si6 0.165458 0.248764 0.254257
Si Si7 0.945181 0.555380 0.154123
Si Si8 0.869043 0.855356 0.481768
O O1 0.685739 0.838386 0.760402
O O2 0.582256 0.687399 0.754551
O O3 0.554726 0.912833 0.811125
O O4 0.617789 0.794133 0.078989
O O5 0.230397 0.176308 0.159884
O O6 0.364561 0.094280 0.093946
O O7 0.340744 0.269157 0.318232
O O8 0.297094 0.047281 0.408421
O O9 0.693800 0.859611 0.381259
O O10 0.804601 0.880622 0.622392
O O11 0.033228 0.622382 0.655203
O O12 0.062297 0.793675 0.417434
O O13 0.500000 0.593723 0.500000
O O14 0.378851 0.664051 0.611257
O O15 0.389886 0.479803 0.383948
O O16 0.000000 0.595210 0.000000
#
# Coordination Sequence:
#
# PCOD8048805 Si02
#       8
#     4   4   4   2   4   4   4   4
#     4  10  24  39  60  93 118 154 206 245 304 358
#     4   9  19  39  62  90 118 155 203 244 295 363
#     4   9  19  40  63  90 117 154 200 249 299 355
#     4  10  22  40  62  88 116 162 198 244 304 356
#     4  11  23  39  63  86 122 161 197 244 303 358
#     4  10  21  40  63  89 121 155 198 253 297 355
#     4  10  23  39  60  88 120 151 203 248 297 356
#     4  10  19  38  64  86 120 160 198 239 302 359
#
# _framework density 19.988226999999998
#
# number of rings (size 3 to 8) (size 9 to 14) (size 15 to 20)
#    0.000    2.133    2.000    0.000    2.800    4.267 
#    9.600    2.667    0.000    0.000    0.000    0.000 
#    0.000    0.000    0.000    0.000    0.000    0.000 
#
# Total GULP energy -185879.457198 kJ/mol
# GULP energy per Si atom -12391.963813 kJ/mol
# Density = 1.994273 g / cm^3
# Si number density = 19.988227 Si / 1000 Ang^3
#
#
#
# Elastic Constant Matrix: (Units=GPa)
#
#
# Indices 1 2 3 4 5 6 
#
# 1 106.1435 36.0462 26.3509 0.0000 -21.9800 0.0000
# 2 36.0462 136.8108 35.3807 0.0000 1.2129 0.0000
# 3 26.3509 35.3807 79.5853 0.0000 -4.3706 0.0000
# 4 0.0000 0.0000 0.0000 7.4962 0.0000 0.9022
# 5 -21.9800 1.2129 -4.3706 0.0000 23.6386 0.0000
# 6 0.0000 0.0000 0.0000 0.9022 0.0000 33.0595
#
#
#
# Elastic Compliance Matrix: (Units=1/GPa)
#
#
# Indices 1 2 3 4 5 6 
#
# 1 0.013640 -0.003064 -0.002474 0.000000 0.012383 0.000000
# 2 -0.003064 0.008976 -0.003190 0.000000 -0.003899 0.000000
# 3 -0.002474 -0.003190 0.014836 0.000000 0.000606 0.000000
# 4 0.000000 0.000000 0.000000 0.133840 0.000000 -0.003652
# 5 0.012383 -0.003899 0.000606 0.000000 0.054130 0.000000
# 6 0.000000 0.000000 0.000000 -0.003652 0.000000 0.030348
#
#
# Mechanical properties :
#
#
# Convention : Reuss Voigt Hill
#
# Bulk Modulus (GPa) = 50.01038 57.56613 53.78826
# Shear Modulus (GPa) = 17.86404 27.82298 22.84351
#
# Velocity S-wave (km/s) = 2.99277 3.73496 3.38427
# Velocity P-wave (km/s) = 6.08412 6.88930 6.49919
#
# Compressibility (1/GPa) = 0.01999585
#
# Stress axis : x y z
#
# Youngs Moduli (GPa) = 73.31321 111.40618 67.40418
#
# Poissons Ratio (x) = 0.34132 0.16677
# Poissons Ratio (y) = 0.22461 0.21503
# Poissons Ratio (z) = 0.18139 0.35541
#
# Static dielectric constant tensor:
#      x y z
#    x 4.238100 0.000000 -0.231950 
#    y 0.000000 3.946040 0.000000 
#    z -0.231950 0.000000 3.137390 
# 
# 
# High freq. dielectric constant tensor:
#      x y z
#    x 1.804280 0.000000 -0.017080 
#    y 0.000000 1.797140 0.000000 
#    z -0.017080 0.000000 1.726790 
# 
# From -- ./inp_files/9591.got.cif
#   From: 2010.03.12/outbox.cif.g09.slc.cpg/sg5_5_cif.got.tgz:9591.got - 2010.03.31 09:47:26.
