data_PCOD8048020
_publ_section_title
;
Structure prediction by ZEFSAII (Michael W. Deem and Ramdas Pophale) SiO2 
 PCOD8048020
Probable space group: P 21
;
_chemical_formula_sum "Si O2"
_cell_formula_units_Z 10
_cell_length_a 18.464560
_cell_length_b 5.042333
_cell_length_c 7.508376
_cell_angle_alpha 90.000000
_cell_angle_beta 35.909264
_cell_angle_gamma 90.000000
_cell_volume 410.002945
_symmetry_space_group_name_H-M "P 21"
_symmetry_group_IT_number 4
_symmetry_cell_setting 'monoclinic'
loop_
_space_group_symop_operation_xyz
x,y,z
-x,1/2+y,-z
loop_
_atom_site_type_symbol
_atom_site_label
_atom_site_fract_x
_atom_site_fract_y
_atom_site_fract_z
Si Si1 0.586304 0.231030 0.326134
Si Si2 0.749687 0.377338 0.690145
Si Si3 0.582687 0.733228 0.834664
Si Si4 0.000169 0.517885 0.380503
Si Si5 0.250864 0.590950 0.687296
O O1 0.496714 0.476217 0.479721
O O2 0.678169 0.273625 0.311096
O O3 0.674849 0.195088 0.977838
O O4 0.670639 0.648161 0.823295
O O5 0.883900 0.447947 0.492069
O O6 0.761417 0.236397 0.476668
O O7 0.667227 0.824634 0.500773
O O8 0.502385 0.478978 0.931158
O O9 0.016233 0.312181 0.509711
O O10 0.117516 0.502487 0.019062
#
# Coordination Sequence:
#
# PCOD8048020 Si02
#       5
#     2   2   2   2   2
#     4  12  32  50  84 122 168 210 266 338 416 486
#     4  12  31  54  87 120 162 221 276 337 407 488
#     4  12  28  48  84 124 162 206 270 334 402 492
#     4  12  32  58  84 118 168 212 282 346 408 482
#     4  12  31  54  87 120 162 221 276 337 407 488
#
# _framework density 24.390070999999999
#
# number of rings (size 3 to 8) (size 9 to 14) (size 15 to 20)
#    0.000    0.000    4.000    1.200   22.400    0.000 
#    0.000    0.000    0.000    0.000    0.000    0.000 
#    0.000    0.000    0.000    0.000    0.000    0.000 
#
# Total GULP energy -124020.871216 kJ/mol
# GULP energy per Si atom -12402.087122 kJ/mol
# Density = 2.433456 g / cm^3
# Si number density = 24.390071 Si / 1000 Ang^3
#
#
#
# Elastic Constant Matrix: (Units=GPa)
#
#
# Indices 1 2 3 4 5 6 
#
# 1 179.5710 34.9197 76.5613 0.0000 -14.8909 0.0000
# 2 34.9197 119.5160 51.8818 0.0000 -10.7325 0.0000
# 3 76.5613 51.8818 210.9839 0.0000 -13.1211 0.0000
# 4 0.0000 0.0000 0.0000 27.7297 0.0000 6.8070
# 5 -14.8909 -10.7325 -13.1211 0.0000 51.8769 0.0000
# 6 0.0000 0.0000 0.0000 6.8070 0.0000 31.1616
#
#
#
# Elastic Compliance Matrix: (Units=1/GPa)
#
#
# Indices 1 2 3 4 5 6 
#
# 1 0.006768 -0.000935 -0.002151 0.000000 0.001205 0.000000
# 2 -0.000935 0.009594 -0.001944 0.000000 0.001225 0.000000
# 3 -0.002151 -0.001944 0.006030 0.000000 0.000506 0.000000
# 4 0.000000 0.000000 0.000000 0.038106 0.000000 -0.008324
# 5 0.001205 0.001225 0.000506 0.000000 0.020004 0.000000
# 6 0.000000 0.000000 0.000000 -0.008324 0.000000 0.033909
#
#
# Mechanical properties :
#
#
# Convention : Reuss Voigt Hill
#
# Bulk Modulus (GPa) = 81.09298 92.97738 87.03518
# Shear Modulus (GPa) = 38.88628 45.26751 42.07690
#
# Velocity S-wave (km/s) = 3.99726 4.31278 4.15802
# Velocity P-wave (km/s) = 7.39085 7.93750 7.66905
#
# Compressibility (1/GPa) = 0.01233152
#
# Stress axis : x y z
#
# Youngs Moduli (GPa) = 147.76046 104.23078 165.84893
#
# Poissons Ratio (x) = 0.09750 0.35672
# Poissons Ratio (y) = 0.13822 0.32234
# Poissons Ratio (z) = 0.31781 0.20258
#
# Static dielectric constant tensor:
#      x y z
#    x 4.604360 0.000000 -0.108270 
#    y 0.000000 5.151540 0.000000 
#    z -0.108270 0.000000 4.758880 
# 
# 
# High freq. dielectric constant tensor:
#      x y z
#    x 1.984100 0.000000 -0.004880 
#    y 0.000000 1.972410 0.000000 
#    z -0.004880 0.000000 1.989040 
# 
# From -- ./inp_files/9741.got.cif
#   From: 2010.03.12/outbox.cif.g09.slc.cpg/sg4_5_cif.got.tgz:9741.got - 2010.03.31 09:31:35.
