data_PCOD8048568
_publ_section_title
;
Structure prediction by ZEFSAII (Michael W. Deem and Ramdas Pophale) SiO2 
 PCOD8048568
Probable space group: C 2
;
_chemical_formula_sum "Si O2"
_cell_formula_units_Z 24
_cell_length_a 19.271117
_cell_length_b 17.510429
_cell_length_c 11.217641
_cell_angle_alpha 90.000000
_cell_angle_beta 160.110108
_cell_angle_gamma 90.000000
_cell_volume 1287.825322
_symmetry_space_group_name_H-M "C 2"
_symmetry_group_IT_number 5
_symmetry_cell_setting 'monoclinic'
loop_
_space_group_symop_operation_xyz
x,y,z
-x,y,-z
1/2+x,1/2+y,z
1/2-x,1/2+y,-z
loop_
_atom_site_type_symbol
_atom_site_label
_atom_site_fract_x
_atom_site_fract_y
_atom_site_fract_z
Si Si1 0.733842 0.288170 0.389431
Si Si2 0.500511 0.669004 0.277209
Si Si3 0.067019 0.396437 0.978063
Si Si4 0.235206 0.741385 0.658079
Si Si5 0.623019 0.159591 0.815123
Si Si6 0.684665 0.538015 0.714706
O O1 0.777468 0.244649 0.585358
O O2 0.809583 0.228228 0.411600
O O3 0.858978 0.367371 0.577617
O O4 0.500000 0.309874 0.000000
O O5 0.590792 0.584060 0.448600
O O6 0.381449 0.677757 0.958050
O O7 0.343679 0.691580 0.130225
O O8 0.221224 0.325386 0.221318
O O9 0.180656 0.466112 0.101892
O O10 0.000000 0.423081 0.000000
O O11 0.000746 0.724093 0.312359
O O12 0.500000 0.130869 0.500000
O O13 0.655473 0.089653 0.956080
O O14 0.500000 0.510305 0.500000
#
# Coordination Sequence:
#
# PCOD8048568 Si02
#       6
#     4   4   4   4   4   4
#     4  10  19  34  55  79 107 141 180 221 262 314
#     4   9  18  32  53  79 104 133 175 218 261 312
#     4   9  20  36  52  75 107 140 176 219 265 312
#     4   9  18  35  57  78 105 138 175 219 264 314
#     4   9  18  33  53  78 106 135 173 220 263 315
#     4  10  20  34  54  79 107 139 176 219 268 315
#
# _framework density 18.636068000000002
#
# number of rings (size 3 to 8) (size 9 to 14) (size 15 to 20)
#    0.000    2.667    0.000    2.500    0.000    5.333 
#    0.000   10.000    0.000   16.000    0.000    0.000 
#    0.000    0.000    0.000    0.000    0.000    0.000 
#
# Total GULP energy -148672.815915 kJ/mol
# GULP energy per Si atom -12389.401326 kJ/mol
# Density = 1.859365 g / cm^3
# Si number density = 18.636068 Si / 1000 Ang^3
#
#
#
# Elastic Constant Matrix: (Units=GPa)
#
#
# Indices 1 2 3 4 5 6 
#
# 1 80.2569 74.1612 51.1484 0.0000 15.1111 0.0000
# 2 74.1612 121.1870 71.4842 0.0000 19.4649 0.0000
# 3 51.1484 71.4842 115.2875 -0.0001 22.7515 0.0000
# 4 0.0000 0.0000 -0.0001 22.9664 0.0000 14.6894
# 5 15.1111 19.4649 22.7515 0.0000 38.4884 0.0000
# 6 0.0000 0.0000 0.0000 14.6894 0.0000 34.8370
#
#
#
# Elastic Compliance Matrix: (Units=1/GPa)
#
#
# Indices 1 2 3 4 5 6 
#
# 1 0.029414 -0.016118 -0.002700 0.000000 -0.001801 0.000000
# 2 -0.016118 0.021987 -0.006268 0.000000 -0.001086 0.000000
# 3 -0.002700 -0.006268 0.014630 0.000000 -0.004418 0.000000
# 4 0.000000 0.000000 0.000000 0.059622 0.000000 -0.025140
# 5 -0.001801 -0.001086 -0.004418 0.000000 0.029850 0.000000
# 6 0.000000 0.000000 0.000000 -0.025140 0.000000 0.039306
#
#
# Mechanical properties :
#
#
# Convention : Reuss Voigt Hill
#
# Bulk Modulus (GPa) = 63.05653 78.92432 70.99043
# Shear Modulus (GPa) = 19.97875 27.25419 23.61647
#
# Velocity S-wave (km/s) = 3.27777 3.82834 3.56370
# Velocity P-wave (km/s) = 6.94508 7.87298 7.42354
#
# Compressibility (1/GPa) = 0.01585879
#
# Stress axis : x y z
#
# Youngs Moduli (GPa) = 33.99789 45.48221 68.35140
#
# Poissons Ratio (x) = 0.73307 0.18458
# Poissons Ratio (y) = 0.54797 0.42840
# Poissons Ratio (z) = 0.09181 0.28507
#
# Static dielectric constant tensor:
#      x y z
#    x 3.588490 0.000000 0.114960 
#    y 0.000000 3.130570 0.000000 
#    z 0.114960 0.000000 3.725540 
# 
# 
# High freq. dielectric constant tensor:
#      x y z
#    x 1.728500 0.000000 0.016320 
#    y 0.000000 1.688220 0.000000 
#    z 0.016320 0.000000 1.735430 
# 
# From -- ./inp_files/15728.got.cif
#   From: 2010.03.12/outbox.cif.g09.slc.cpg/sg5_8_cif.got.tgz:15728.got - 2010.03.31 09:47:26.
