data_PCOD8048490
_publ_section_title
;
Structure prediction by ZEFSAII (Michael W. Deem and Ramdas Pophale) SiO2 
 PCOD8048490
Probable space group: C 2
;
_chemical_formula_sum "Si O2"
_cell_formula_units_Z 20
_cell_length_a 11.487775
_cell_length_b 14.635322
_cell_length_c 8.950856
_cell_angle_alpha 90.000000
_cell_angle_beta 39.182052
_cell_angle_gamma 90.000000
_cell_volume 950.764873
_symmetry_space_group_name_H-M "C 2"
_symmetry_group_IT_number 5
_symmetry_cell_setting 'monoclinic'
loop_
_space_group_symop_operation_xyz
x,y,z
-x,y,-z
1/2+x,1/2+y,z
1/2-x,1/2+y,-z
loop_
_atom_site_type_symbol
_atom_site_label
_atom_site_fract_x
_atom_site_fract_y
_atom_site_fract_z
Si Si1 0.500000 0.402000 0.500000
Si Si2 0.000000 0.904678 0.000000
Si Si3 0.906357 0.640757 0.253881
Si Si4 0.752054 0.959888 0.494574
Si Si5 0.826094 0.783226 0.915924
Si Si6 0.433146 0.775006 0.404328
O O1 0.385214 0.467191 0.505081
O O2 0.356251 0.341819 0.737481
O O3 0.867485 0.970479 0.226830
O O4 0.120258 0.839355 0.987571
O O5 0.891516 0.542025 0.347186
O O6 0.707064 0.690095 0.443734
O O7 0.041201 0.696149 0.227831
O O8 0.000000 0.629872 0.000000
O O9 0.659333 0.860404 0.587061
O O10 0.615357 0.748585 0.129258
O O11 0.500000 0.806616 0.500000
#
# Coordination Sequence:
#
# PCOD8048490 Si02
#       6
#     2   2   4   4   4   4
#     4  10  24  44  66 102 138 176 220 292 332 388
#     4  10  18  48  68  90 132 182 222 266 332 412
#     4  12  24  44  68 105 134 174 234 277 327 411
#     4  11  25  42  70 103 135 178 228 281 338 397
#     4  11  21  45  72  93 137 178 223 274 335 406
#     4  12  22  45  75  94 128 192 225 266 347 405
#
# _framework density 21.035696000000002
#
# number of rings (size 3 to 8) (size 9 to 14) (size 15 to 20)
#    0.000    0.800    9.000    0.000    4.200    0.000 
#    9.000    0.000    0.000    0.000    0.000    0.000 
#    0.000    0.000    0.000    0.000    0.000    0.000 
#
# Total GULP energy -124008.080231 kJ/mol
# GULP energy per Si atom -12400.808023 kJ/mol
# Density = 2.098782 g / cm^3
# Si number density = 21.035696 Si / 1000 Ang^3
#
#
#
# Elastic Constant Matrix: (Units=GPa)
#
#
# Indices 1 2 3 4 5 6 
#
# 1 62.0121 14.5825 34.5277 0.0014 1.8883 -0.0012
# 2 14.5825 102.0444 46.2889 0.0011 2.3742 -0.0009
# 3 34.5277 46.2889 160.8007 0.0010 -13.5953 -0.0010
# 4 0.0014 0.0011 0.0010 43.4295 -0.0015 -7.3198
# 5 1.8883 2.3742 -13.5953 -0.0015 35.6298 0.0012
# 6 -0.0012 -0.0009 -0.0010 -7.3198 0.0012 15.2005
#
#
#
# Elastic Compliance Matrix: (Units=1/GPa)
#
#
# Indices 1 2 3 4 5 6 
#
# 1 0.018599 -0.000800 -0.003970 0.000000 -0.002447 0.000001
# 2 -0.000800 0.011453 -0.003292 0.000000 -0.001977 0.000000
# 3 -0.003970 -0.003292 0.008324 0.000000 0.003606 0.000000
# 4 0.000000 0.000000 0.000000 0.025060 0.000001 0.012067
# 5 -0.002447 -0.001977 0.003606 0.000001 0.029704 -0.000002
# 6 0.000001 0.000000 0.000000 0.012067 -0.000002 0.071598
#
#
# Mechanical properties :
#
#
# Convention : Reuss Voigt Hill
#
# Bulk Modulus (GPa) = 44.94127 57.29504 51.11815
# Shear Modulus (GPa) = 26.55607 34.14917 30.35262
#
# Velocity S-wave (km/s) = 3.55692 4.03350 3.80269
# Velocity P-wave (km/s) = 6.18705 6.99917 6.60560
#
# Compressibility (1/GPa) = 0.02225126
#
# Stress axis : x y z
#
# Youngs Moduli (GPa) = 53.76595 87.30976 120.13371
#
# Poissons Ratio (x) = 0.06984 0.47697
# Poissons Ratio (y) = 0.04301 0.39553
# Poissons Ratio (z) = 0.21347 0.28746
#
# Static dielectric constant tensor:
#      x y z
#    x 3.773270 0.000000 -0.081820 
#    y 0.000000 3.548690 0.000000 
#    z -0.081820 0.000000 4.187040 
# 
# 
# High freq. dielectric constant tensor:
#      x y z
#    x 1.816000 0.000000 -0.005640 
#    y 0.000000 1.802870 0.000000 
#    z -0.005640 0.000000 1.844370 
# 
# From -- ./inp_files/20873.got.cif
#   From: 2010.03.12/outbox.cif.g09.slc.cpg/sg5_11_cif.got.tgz:20873.got - 2010.03.31 09:47:26.
