data_PCOD8048771
_publ_section_title
;
Structure prediction by ZEFSAII (Michael W. Deem and Ramdas Pophale) SiO2 
 PCOD8048771
Probable space group: C 2
;
_chemical_formula_sum "Si O2"
_cell_formula_units_Z 20
_cell_length_a 6.987952
_cell_length_b 27.750892
_cell_length_c 5.074509
_cell_angle_alpha 90.000000
_cell_angle_beta 106.012099
_cell_angle_gamma 90.000000
_cell_volume 945.880380
_symmetry_space_group_name_H-M "C 2"
_symmetry_group_IT_number 5
_symmetry_cell_setting 'monoclinic'
loop_
_space_group_symop_operation_xyz
x,y,z
-x,y,-z
1/2+x,1/2+y,z
1/2-x,1/2+y,-z
loop_
_atom_site_type_symbol
_atom_site_label
_atom_site_fract_x
_atom_site_fract_y
_atom_site_fract_z
Si Si1 0.640015 0.131010 0.802147
Si Si2 0.500000 0.493193 0.500000
Si Si3 0.134925 0.735160 0.801813
Si Si4 0.500000 0.559227 0.000000
Si Si5 0.639757 0.339171 0.803500
Si Si6 0.624072 0.928188 0.284668
O O1 0.500000 0.121605 0.500000
O O2 0.751374 0.183968 0.823088
O O3 0.500000 0.126335 0.000000
O O4 0.808283 0.091269 0.873926
O O5 0.465263 0.525922 0.235571
O O6 0.306405 0.460140 0.455092
O O7 0.250898 0.786366 0.875339
O O8 0.000000 0.741591 0.500000
O O9 0.000000 0.727835 0.000000
O O10 0.500000 0.340218 0.500000
O O11 0.807929 0.379015 0.832538
O O12 0.500000 0.350764 0.000000
O O13 0.500000 0.916432 0.500000
O O14 0.500000 0.954474 0.000000
#
# Coordination Sequence:
#
# PCOD8048771 Si02
#       6
#     4   2   4   2   4   4
#     4  10  21  40  65  92 130 161 206 261 309 374
#     4  12  28  46  64  90 130 164 214 272 316 372
#     4   8  16  32  59  91 122 168 199 241 315 371
#     4  12  26  42  68  94 118 170 216 258 324 368
#     4  10  19  37  66  91 130 171 204 254 315 373
#     4  12  26  43  67  94 128 168 215 263 321 377
#
# _framework density 21.144321999999999
#
# number of rings (size 3 to 8) (size 9 to 14) (size 15 to 20)
#    0.000    1.600    1.000    3.600    1.400    4.800 
#    1.800    0.000    2.200    0.000    0.000    0.000 
#    0.000    0.000    0.000    0.000    0.000    0.000 
#
# Total GULP energy -123881.012812 kJ/mol
# GULP energy per Si atom -12388.101281 kJ/mol
# Density = 2.109620 g / cm^3
# Si number density = 21.144322 Si / 1000 Ang^3
#
#
#
# Elastic Constant Matrix: (Units=GPa)
#
#
# Indices 1 2 3 4 5 6 
#
# 1 98.1334 64.0035 47.9588 0.0000 -7.5211 0.0000
# 2 64.0035 155.1021 35.8768 0.0000 -1.4155 0.0000
# 3 47.9588 35.8768 148.9421 0.0000 -19.9568 0.0000
# 4 0.0000 0.0000 0.0000 32.7362 0.0000 -6.4731
# 5 -7.5211 -1.4155 -19.9568 0.0000 37.9459 0.0000
# 6 0.0000 0.0000 0.0000 -6.4731 0.0000 -14.6664
#
#
#
# Elastic Compliance Matrix: (Units=1/GPa)
#
#
# Indices 1 2 3 4 5 6 
#
# 1 0.015685 -0.005641 -0.003554 0.000000 0.001029 0.000000
# 2 -0.005641 0.008872 -0.000458 0.000000 -0.001028 0.000000
# 3 -0.003554 -0.000458 0.008469 0.000000 0.003733 0.000000
# 4 0.000000 0.000000 0.000000 0.028095 0.000000 -0.012400
# 5 0.001029 -0.001028 0.003733 0.000000 0.028482 0.000000
# 6 0.000000 0.000000 0.000000 -0.012400 0.000000 -0.062710
#
#
# Mechanical properties :
#
#
# Convention : Reuss Voigt Hill
#
# Bulk Modulus (GPa) = 72.89039 77.53952 75.21496
# Shear Modulus (GPa) = 98.47860 28.15905 63.31882
#
# Velocity S-wave (km/s) = 6.83195 3.65328 5.47823
# Velocity P-wave (km/s) = 9.83777 7.38556 8.69851
#
# Compressibility (1/GPa) = 0.01371923
#
# Stress axis : x y z
#
# Youngs Moduli (GPa) = 63.75504 112.71639 118.07967
#
# Poissons Ratio (x) = 0.63584 0.41963
# Poissons Ratio (y) = 0.35965 0.05413
# Poissons Ratio (z) = 0.22657 0.05167
#
# Static dielectric constant tensor:
#      x y z
#    x 3.486660 0.000000 -0.083540 
#    y 0.000000 4.682870 0.000000 
#    z -0.083540 0.000000 3.960920 
# 
# 
# High freq. dielectric constant tensor:
#      x y z
#    x 1.795380 0.000000 -0.012620 
#    y 0.000000 1.854110 0.000000 
#    z -0.012620 0.000000 1.855830 
# 
# From -- ./inp_files/1107.got.cif
#   From: 2010.03.12/outbox.cif.g09.slc.cpg/sg5_1_cif.got.tgz:1107.got - 2010.03.31 09:47:26.
