data_PCOD8048212
_publ_section_title
;
Structure prediction by ZEFSAII (Michael W. Deem and Ramdas Pophale) SiO2 
 PCOD8048212
Probable space group: C 2
;
_chemical_formula_sum "Si O2"
_cell_formula_units_Z 32
_cell_length_a 23.048920
_cell_length_b 15.561564
_cell_length_c 5.315951
_cell_angle_alpha 90.000000
_cell_angle_beta 76.670700
_cell_angle_gamma 90.000000
_cell_volume 1855.345969
_symmetry_space_group_name_H-M "C 2"
_symmetry_group_IT_number 5
_symmetry_cell_setting 'monoclinic'
loop_
_space_group_symop_operation_xyz
x,y,z
-x,y,-z
1/2+x,1/2+y,z
1/2-x,1/2+y,-z
loop_
_atom_site_type_symbol
_atom_site_label
_atom_site_fract_x
_atom_site_fract_y
_atom_site_fract_z
Si Si1 0.213153 0.798930 0.036673
Si Si2 0.185833 0.195608 0.564375
Si Si3 0.777068 0.544305 0.473201
Si Si4 0.225352 0.856960 0.524468
Si Si5 0.464341 0.876372 0.785647
Si Si6 0.151794 0.263449 0.098395
Si Si7 0.965246 0.578703 0.784744
Si Si8 0.832807 0.609386 0.917473
O O1 0.185657 0.846039 0.817541
O O2 0.284961 0.813820 0.964783
O O3 0.202765 0.697957 0.047164
O O4 0.185663 0.846079 0.310710
O O5 0.219103 0.104436 0.531022
O O6 0.231468 0.274601 0.518805
O O7 0.145827 0.202989 0.352268
O O8 0.145845 0.202951 0.856506
O O9 0.759228 0.445753 0.490602
O O10 0.816458 0.557901 0.185487
O O11 0.816314 0.557704 0.682807
O O12 0.500000 0.848128 0.500000
O O13 0.399953 0.833388 0.849984
O O14 0.452747 0.977576 0.797264
O O15 0.500000 0.848117 0.000000
O O16 0.000000 0.607428 0.500000
O O17 0.902837 0.628684 0.847105
O O18 0.000000 0.607436 0.000000
#
# Coordination Sequence:
#
# PCOD8048212 Si02
#       8
#     4   4   4   4   4   4   4   4
#     4  10  19  36  48  80 105 139 176 232 269 328
#     4  10  19  33  46  76 110 134 178 222 259 330
#     4  12  21  33  53  82 107 152 177 212 283 343
#     4  10  20  31  49  72 113 135 178 212 263 339
#     4  10  21  35  50  75 107 146 192 221 253 319
#     4  10  18  32  52  66 107 139 169 222 271 295
#     4  10  23  38  49  75 107 143 192 226 251 319
#     4  12  21  36  57  74 112 148 186 223 277 317
#
# _framework density 17.247454999999999
#
# number of rings (size 3 to 8) (size 9 to 14) (size 15 to 20)
#    0.000    1.500    5.000    2.250    7.000    0.000 
#    0.000    0.000    0.000    0.000    0.000    0.000 
#    0.000   20.000    0.000    0.000    0.000    0.000 
#
# Total GULP energy -198327.593647 kJ/mol
# GULP energy per Si atom -12395.474603 kJ/mol
# Density = 1.720820 g / cm^3
# Si number density = 17.247455 Si / 1000 Ang^3
#
#
#
# Elastic Constant Matrix: (Units=GPa)
#
#
# Indices 1 2 3 4 5 6 
#
# 1 42.5463 19.4754 25.8774 0.0000 5.7857 0.0000
# 2 19.4754 51.7758 23.3079 0.0000 1.2177 0.0000
# 3 25.8774 23.3079 163.0967 0.0000 39.2969 0.0000
# 4 0.0000 0.0000 0.0000 2.3233 0.0000 -3.1824
# 5 5.7857 1.2177 39.2969 0.0000 28.3956 0.0000
# 6 0.0000 0.0000 0.0000 -3.1824 0.0000 11.2093
#
#
#
# Elastic Compliance Matrix: (Units=1/GPa)
#
#
# Indices 1 2 3 4 5 6 
#
# 1 0.030075 -0.009940 -0.002967 0.000000 -0.001596 0.000000
# 2 -0.009940 0.024372 -0.003214 0.000000 0.005427 0.000000
# 3 -0.002967 -0.003214 0.010325 0.000000 -0.013547 0.000000
# 4 0.000000 0.000000 0.000000 0.704308 0.000000 0.199956
# 5 -0.001596 0.005427 -0.013547 0.000000 0.054057 0.000000
# 6 0.000000 0.000000 0.000000 0.199956 0.000000 0.145980
#
#
# Mechanical properties :
#
#
# Convention : Reuss Voigt Hill
#
# Bulk Modulus (GPa) = 30.73873 43.86002 37.29938
# Shear Modulus (GPa) = 4.93973 20.96953 12.95463
#
# Velocity S-wave (km/s) = 1.69418 3.49062 2.74360
# Velocity P-wave (km/s) = 4.65702 6.45995 5.63111
#
# Compressibility (1/GPa) = 0.03253225
#
# Stress axis : x y z
#
# Youngs Moduli (GPa) = 33.25007 41.03099 96.84905
#
# Poissons Ratio (x) = 0.40783 0.28734
# Poissons Ratio (y) = 0.33049 0.31123
# Poissons Ratio (z) = 0.09865 0.13186
#
# Static dielectric constant tensor:
#      x y z
#    x 3.080830 0.000000 0.754910 
#    y 0.000000 2.947160 0.000000 
#    z 0.754910 0.000000 5.094450 
# 
# 
# High freq. dielectric constant tensor:
#      x y z
#    x 1.624740 0.000000 0.029440 
#    y 0.000000 1.639960 0.000000 
#    z 0.029440 0.000000 1.702920 
# 
# From -- ./inp_files/9742.got.cif
#   From: 2010.03.12/outbox.cif.g09.slc.cpg/sg5_5_cif.got.tgz:9742.got - 2010.03.31 09:47:26.
