data_PCOD8048707
_publ_section_title
;
Structure prediction by ZEFSAII (Michael W. Deem and Ramdas Pophale) SiO2 
 PCOD8048707
Probable space group: C 2
;
_chemical_formula_sum "Si O2"
_cell_formula_units_Z 32
_cell_length_a 15.194070
_cell_length_b 11.686689
_cell_length_c 18.634687
_cell_angle_alpha 90.000000
_cell_angle_beta 151.746701
_cell_angle_gamma 90.000000
_cell_volume 1566.349952
_symmetry_space_group_name_H-M "C 2"
_symmetry_group_IT_number 5
_symmetry_cell_setting 'monoclinic'
loop_
_space_group_symop_operation_xyz
x,y,z
-x,y,-z
1/2+x,1/2+y,z
1/2-x,1/2+y,-z
loop_
_atom_site_type_symbol
_atom_site_label
_atom_site_fract_x
_atom_site_fract_y
_atom_site_fract_z
Si Si1 0.222464 0.267090 0.980188
Si Si2 0.207122 0.597002 0.175175
Si Si3 0.207121 0.419782 0.675175
Si Si4 0.394769 0.415169 0.221299
Si Si5 0.879760 0.324211 0.243541
Si Si6 0.777537 0.749693 0.519813
Si Si7 0.620243 0.192572 0.256461
Si Si8 0.394771 0.601612 0.721300
O O1 0.245012 0.349855 0.064281
O O2 0.397033 0.180870 0.097537
O O3 0.204630 0.346216 0.895838
O O4 0.038874 0.191056 0.858928
O O5 0.281523 0.473399 0.204879
O O6 0.340402 0.692950 0.237469
O O7 0.209840 0.604217 0.264115
O O8 0.000000 0.621531 0.000000
O O9 0.209838 0.412566 0.764114
O O10 0.340399 0.323832 0.737467
O O11 0.281525 0.543384 0.704881
O O12 0.000000 0.395254 0.500000
O O13 0.538870 0.325724 0.358926
O O14 0.500002 0.508390 0.250001
O O15 0.102970 0.335914 0.402465
O O16 0.795369 0.670567 0.604160
O O17 0.754986 0.666928 0.435717
#
# Coordination Sequence:
#
# PCOD8048707 Si02
#       8
#     4   4   4   4   4   4   4   4
#     4  10  20  38  65  93 123 165 212 255 308 380
#     4  11  20  35  63  92 124 158 203 268 315 350
#     4  11  20  35  63  92 124 158 203 268 315 350
#     4  11  21  40  63  91 132 165 206 263 312 363
#     4  10  19  36  64  93 121 154 213 263 308 364
#     4  10  20  38  65  93 123 165 212 255 308 380
#     4  10  19  36  64  93 121 154 213 263 308 364
#     4  11  21  40  63  91 132 165 206 263 312 363
#
# _framework density 20.429662
#
# number of rings (size 3 to 8) (size 9 to 14) (size 15 to 20)
#    0.000    1.500    7.500    0.000    0.000    0.000 
#    0.000   12.500    0.000    0.000    0.000    0.000 
#    0.000    0.000    0.000    0.000    0.000    0.000 
#
# Total GULP energy -198410.669616 kJ/mol
# GULP energy per Si atom -12400.666851 kJ/mol
# Density = 2.038316 g / cm^3
# Si number density = 20.429662 Si / 1000 Ang^3
#
#
#
# Elastic Constant Matrix: (Units=GPa)
#
#
# Indices 1 2 3 4 5 6 
#
# 1 104.8689 64.3880 49.3196 0.0019 -14.0915 0.0006
# 2 64.3880 99.1533 49.2382 0.0043 -16.6897 0.0015
# 3 49.3196 49.2382 129.7874 0.0060 -13.6740 0.0021
# 4 0.0019 0.0043 0.0060 25.6309 0.0029 -2.4268
# 5 -14.0915 -16.6897 -13.6740 0.0029 17.3911 0.0011
# 6 0.0006 0.0015 0.0021 -2.4268 0.0011 50.4753
#
#
#
# Elastic Compliance Matrix: (Units=1/GPa)
#
#
# Indices 1 2 3 4 5 6 
#
# 1 0.016720 -0.009095 -0.002612 0.000001 0.002766 0.000000
# 2 -0.009095 0.018802 -0.002783 -0.000003 0.008486 -0.000001
# 3 -0.002612 -0.002783 0.010084 -0.000002 0.003142 0.000000
# 4 0.000001 -0.000003 -0.000002 0.039194 -0.000011 0.001884
# 5 0.002766 0.008486 0.003142 -0.000011 0.070356 -0.000002
# 6 0.000000 -0.000001 0.000000 0.001884 -0.000002 0.019902
#
#
# Mechanical properties :
#
#
# Convention : Reuss Voigt Hill
#
# Bulk Modulus (GPa) = 60.14405 73.30015 66.72210
# Shear Modulus (GPa) = 23.85732 30.09037 26.97385
#
# Velocity S-wave (km/s) = 3.42098 3.84197 3.63757
# Velocity P-wave (km/s) = 6.71622 7.45910 7.09739
#
# Compressibility (1/GPa) = 0.01662675
#
# Stress axis : x y z
#
# Youngs Moduli (GPa) = 59.80911 53.18658 99.16565
#
# Poissons Ratio (x) = 0.48373 0.25900
# Poissons Ratio (y) = 0.54396 0.27595
# Poissons Ratio (z) = 0.15621 0.14800
#
# Static dielectric constant tensor:
#      x y z
#    x 3.760840 0.000000 -0.052290 
#    y 0.000000 3.546440 0.000000 
#    z -0.052290 0.000000 3.840970 
# 
# 
# High freq. dielectric constant tensor:
#      x y z
#    x 1.787910 0.000000 0.000670 
#    y 0.000000 1.762980 0.000000 
#    z 0.000670 0.000000 1.813000 
# 
# From -- ./inp_files/61731.got.cif
#   From: 2010.03.12/outbox.cif.g09.slc.cpg/sg5_31_cif.got.tgz:61731.got - 2010.03.31 09:47:26.
