data_PCOD8048373
_publ_section_title
;
Structure prediction by ZEFSAII (Michael W. Deem and Ramdas Pophale) SiO2 
 PCOD8048373
Probable space group: C 2
;
_chemical_formula_sum "Si O2"
_cell_formula_units_Z 32
_cell_length_a 26.878424
_cell_length_b 10.152405
_cell_length_c 10.862991
_cell_angle_alpha 90.000000
_cell_angle_beta 31.764949
_cell_angle_gamma 90.000000
_cell_volume 1560.513557
_symmetry_space_group_name_H-M "C 2"
_symmetry_group_IT_number 5
_symmetry_cell_setting 'monoclinic'
loop_
_space_group_symop_operation_xyz
x,y,z
-x,y,-z
1/2+x,1/2+y,z
1/2-x,1/2+y,-z
loop_
_atom_site_type_symbol
_atom_site_label
_atom_site_fract_x
_atom_site_fract_y
_atom_site_fract_z
Si Si1 0.986865 0.987710 0.884419
Si Si2 0.706835 0.780908 0.228436
Si Si3 0.110148 0.782416 0.303314
Si Si4 0.365946 0.058320 0.563163
Si Si5 0.777883 0.018262 0.347815
Si Si6 0.925490 0.061997 0.545915
Si Si7 0.238834 0.727339 0.624306
Si Si8 0.022191 0.686411 0.089712
O O1 0.018781 0.834551 0.805260
O O2 0.037078 0.076615 0.674010
O O3 0.000000 0.034831 0.000000
O O4 0.878450 0.001473 0.071532
O O5 0.651920 0.673868 0.262064
O O6 0.700509 0.729927 0.380326
O O7 0.648572 0.917594 0.341161
O O8 0.818314 0.794771 0.962634
O O9 0.154569 0.667428 0.291559
O O10 0.000000 0.754941 0.500000
O O11 0.120948 0.918410 0.353025
O O12 0.295010 0.074163 0.598140
O O13 0.472236 0.085046 0.289323
O O14 0.788521 0.120654 0.434974
O O15 0.753001 0.872971 0.453909
O O16 0.000000 0.073423 0.500000
O O17 0.133287 0.680827 0.877059
O O18 0.000000 0.635771 0.000000
#
# Coordination Sequence:
#
# PCOD8048373 Si02
#       8
#     4   4   4   4   4   4   4   4
#     4  10  21  39  66  92 125 165 217 256 305 381
#     4  11  25  41  61  94 134 161 202 273 319 374
#     4  11  24  42  70  89 118 169 221 252 308 385
#     4  11  22  39  63  93 126 159 209 258 320 365
#     4  10  22  36  64  94 126 164 207 263 313 375
#     4  11  25  43  67  94 127 169 215 258 321 377
#     4  10  21  39  61  92 129 162 213 257 318 370
#     4  10  18  36  63  94 121 163 210 256 305 378
#
# _framework density 20.506070000000001
#
# number of rings (size 3 to 8) (size 9 to 14) (size 15 to 20)
#    0.000    1.500    2.500    2.250   10.500    1.500 
#    2.250    1.875    0.000    0.000    0.000    0.000 
#    0.000    0.000    0.000    0.000    0.000    0.000 
#
# Total GULP energy -198307.506417 kJ/mol
# GULP energy per Si atom -12394.219151 kJ/mol
# Density = 2.045940 g / cm^3
# Si number density = 20.506070 Si / 1000 Ang^3
#
#
#
# Elastic Constant Matrix: (Units=GPa)
#
#
# Indices 1 2 3 4 5 6 
#
# 1 67.9854 62.9284 31.8428 0.0000 4.7646 0.0000
# 2 62.9284 131.2979 57.5409 0.0000 -3.8728 0.0000
# 3 31.8428 57.5409 95.5434 0.0000 4.2524 0.0000
# 4 0.0000 0.0000 0.0000 20.5912 0.0000 1.6421
# 5 4.7646 -3.8728 4.2524 0.0000 29.6810 0.0000
# 6 0.0000 0.0000 0.0000 1.6421 0.0000 36.0642
#
#
#
# Elastic Compliance Matrix: (Units=1/GPa)
#
#
# Indices 1 2 3 4 5 6 
#
# 1 0.027610 -0.012895 -0.001171 0.000000 -0.005947 0.000000
# 2 -0.012895 0.016522 -0.005878 0.000000 0.005068 0.000000
# 3 -0.001171 -0.005878 0.014515 0.000000 -0.002659 0.000000
# 4 0.000000 0.000000 0.000000 0.048741 0.000000 -0.002219
# 5 -0.005947 0.005068 -0.002659 0.000000 0.035688 0.000000
# 6 0.000000 0.000000 0.000000 -0.002219 0.000000 0.027829
#
#
# Mechanical properties :
#
#
# Convention : Reuss Voigt Hill
#
# Bulk Modulus (GPa) = 53.30925 66.60566 59.95746
# Shear Modulus (GPa) = 23.03617 26.76826 24.90221
#
# Velocity S-wave (km/s) = 3.35533 3.61693 3.48858
# Velocity P-wave (km/s) = 6.40814 7.07067 6.74754
#
# Compressibility (1/GPa) = 0.01875847
#
# Stress axis : x y z
#
# Youngs Moduli (GPa) = 36.21817 60.52393 68.89247
#
# Poissons Ratio (x) = 0.78047 0.08069
# Poissons Ratio (y) = 0.46704 0.40498
# Poissons Ratio (z) = 0.04242 0.35578
#
# Static dielectric constant tensor:
#      x y z
#    x 3.610630 0.000000 0.034800 
#    y 0.000000 3.786550 0.000000 
#    z 0.034800 0.000000 3.702100 
# 
# 
# High freq. dielectric constant tensor:
#      x y z
#    x 1.801680 0.000000 0.001200 
#    y 0.000000 1.793640 0.000000 
#    z 0.001200 0.000000 1.801230 
# 
# From -- ./inp_files/48387.got.cif
#   From: 2010.03.12/outbox.cif.g09.slc.cpg/sg5_25_cif.got.tgz:48387.got - 2010.03.31 09:47:26.
