data_PCOD8048310
_publ_section_title
;
Structure prediction by ZEFSAII (Michael W. Deem and Ramdas Pophale) SiO2 
 PCOD8048310
Probable space group: C 2
;
_chemical_formula_sum "Si O2"
_cell_formula_units_Z 24
_cell_length_a 9.890000
_cell_length_b 18.589325
_cell_length_c 9.329702
_cell_angle_alpha 90.000000
_cell_angle_beta 135.281593
_cell_angle_gamma 90.000000
_cell_volume 1206.890097
_symmetry_space_group_name_H-M "C 2"
_symmetry_group_IT_number 5
_symmetry_cell_setting 'monoclinic'
loop_
_space_group_symop_operation_xyz
x,y,z
-x,y,-z
1/2+x,1/2+y,z
1/2-x,1/2+y,-z
loop_
_atom_site_type_symbol
_atom_site_label
_atom_site_fract_x
_atom_site_fract_y
_atom_site_fract_z
Si Si1 0.036772 0.368560 0.361531
Si Si2 0.334616 0.268157 0.663195
Si Si3 0.738734 0.262267 0.057568
Si Si4 0.845139 0.116121 0.508042
Si Si5 0.484760 0.035090 0.319246
Si Si6 0.610515 0.617029 0.945368
O O1 0.253465 0.336717 0.512183
O O2 0.000000 0.351321 0.500000
O O3 0.895997 0.324653 0.148277
O O4 0.013533 0.451469 0.307990
O O5 0.320608 0.271695 0.823432
O O6 0.216916 0.199124 0.517860
O O7 0.564469 0.268314 0.811040
O O8 0.818433 0.182531 0.098235
O O9 0.644668 0.073462 0.340826
O O10 0.000000 0.104900 0.500000
O O11 0.945749 0.080873 0.723713
O O12 0.500000 0.052982 0.500000
O O13 0.276122 0.060062 0.107520
O O14 0.500000 0.647017 0.000000
#
# Coordination Sequence:
#
# PCOD8048310 Si02
#       6
#     4   4   4   4   4   4
#     4   9  19  37  58  87 121 154 201 254 298 359
#     4  10  18  34  64  90 114 153 206 253 295 352
#     4  10  19  34  61  91 113 155 206 251 296 353
#     4  12  22  38  65  91 122 163 210 251 297 363
#     4  11  24  40  60  92 129 163 199 252 312 363
#     4  12  23  37  63  92 122 162 207 251 305 365
#
# _framework density 19.885819000000001
#
# number of rings (size 3 to 8) (size 9 to 14) (size 15 to 20)
#    0.000    1.333    6.667    0.500    0.000    2.000 
#    3.000    0.000    7.333    0.000    0.000    0.000 
#    0.000    0.000    0.000    0.000    0.000    0.000 
#
# Total GULP energy -148665.208629 kJ/mol
# GULP energy per Si atom -12388.767386 kJ/mol
# Density = 1.984056 g / cm^3
# Si number density = 19.885819 Si / 1000 Ang^3
#
#
#
# Elastic Constant Matrix: (Units=GPa)
#
#
# Indices 1 2 3 4 5 6 
#
# 1 51.7322 16.5310 26.7220 0.0000 16.5051 0.0000
# 2 16.5310 112.5407 43.2028 0.0000 15.0763 0.0000
# 3 26.7220 43.2028 128.6137 0.0000 26.8327 0.0000
# 4 0.0000 0.0000 0.0000 34.1748 0.0000 4.2794
# 5 16.5051 15.0763 26.8327 0.0000 30.4062 0.0000
# 6 0.0000 0.0000 0.0000 4.2794 0.0000 18.8399
#
#
#
# Elastic Compliance Matrix: (Units=1/GPa)
#
#
# Indices 1 2 3 4 5 6 
#
# 1 0.024321 -0.001230 -0.002467 0.000000 -0.010415 0.000000
# 2 -0.001230 0.010420 -0.002826 0.000000 -0.002005 0.000000
# 3 -0.002467 -0.002826 0.010621 0.000000 -0.006632 0.000000
# 4 0.000000 0.000000 0.000000 0.030118 0.000000 -0.006841
# 5 -0.010415 -0.002005 -0.006632 0.000000 0.045388 0.000000
# 6 0.000000 0.000000 0.000000 -0.006841 0.000000 0.054633
#
#
# Mechanical properties :
#
#
# Convention : Reuss Voigt Hill
#
# Bulk Modulus (GPa) = 30.94621 51.75536 41.35079
# Shear Modulus (GPa) = 25.08547 30.44623 27.76585
#
# Velocity S-wave (km/s) = 3.55558 3.91711 3.74072
# Velocity P-wave (km/s) = 5.69666 6.82210 6.28463
#
# Compressibility (1/GPa) = 0.03231414
#
# Stress axis : x y z
#
# Youngs Moduli (GPa) = 41.11754 95.97015 94.15435
#
# Poissons Ratio (x) = 0.11806 0.23228
# Poissons Ratio (y) = 0.05058 0.26611
# Poissons Ratio (z) = 0.10144 0.27125
#
# Static dielectric constant tensor:
#      x y z
#    x 3.476020 0.000000 0.402090 
#    y 0.000000 3.420690 0.000000 
#    z 0.402090 0.000000 4.047380 
# 
# 
# High freq. dielectric constant tensor:
#      x y z
#    x 1.750250 0.000000 0.030880 
#    y 0.000000 1.758770 0.000000 
#    z 0.030880 0.000000 1.792840 
# 
# From -- ./inp_files/16676.got.cif
#   From: 2010.03.12/outbox.cif.g09.slc.cpg/sg5_9_cif.got.tgz:16676.got - 2010.03.31 09:47:26.
