data_PCOD8048549
_publ_section_title
;
Structure prediction by ZEFSAII (Michael W. Deem and Ramdas Pophale) SiO2 
 PCOD8048549
Probable space group: C 2
;
_chemical_formula_sum "Si O2"
_cell_formula_units_Z 24
_cell_length_a 10.236701
_cell_length_b 27.105378
_cell_length_c 5.098318
_cell_angle_alpha 90.000000
_cell_angle_beta 129.908041
_cell_angle_gamma 90.000000
_cell_volume 1085.126338
_symmetry_space_group_name_H-M "C 2"
_symmetry_group_IT_number 5
_symmetry_cell_setting 'monoclinic'
loop_
_space_group_symop_operation_xyz
x,y,z
-x,y,-z
1/2+x,1/2+y,z
1/2-x,1/2+y,-z
loop_
_atom_site_type_symbol
_atom_site_label
_atom_site_fract_x
_atom_site_fract_y
_atom_site_fract_z
Si Si1 0.697420 0.065770 0.269952
Si Si2 0.695671 0.720833 0.198591
Si Si3 0.801715 0.502940 0.227890
Si Si4 0.388173 0.825342 0.100337
Si Si5 0.109581 0.904314 0.899064
Si Si6 0.806692 0.172860 0.302271
O O1 0.748335 0.041593 0.611084
O O2 0.802825 0.115521 0.369559
O O3 0.500000 0.079940 0.000000
O O4 0.746229 0.026879 0.110154
O O5 0.783648 0.706530 0.588749
O O6 0.500000 0.706227 0.000000
O O7 0.714165 0.777773 0.138673
O O8 0.784178 0.686233 0.090791
O O9 0.000000 0.488657 0.500000
O O10 0.693002 0.453823 0.120252
O O11 0.500000 0.810915 0.500000
O O12 0.500000 0.845795 0.000000
O O13 0.255832 0.866435 0.012335
O O14 0.000000 0.915434 0.500000
O O15 0.000000 0.882237 0.000000
O O16 0.000000 0.189949 0.500000
#
# Coordination Sequence:
#
# PCOD8048549 Si02
#       6
#     4   4   4   4   4   4
#     4  10  21  37  58  85 116 154 202 246 288 353
#     4   9  18  34  57  84 113 150 198 242 279 343
#     4  10  22  41  62  83 115 162 207 241 289 367
#     4  11  22  41  68  90 118 165 212 245 293 368
#     4  12  26  42  62  94 129 153 194 261 320 360
#     4  10  19  33  55  84 116 150 190 241 295 343
#
# _framework density 22.117242000000001
#
# number of rings (size 3 to 8) (size 9 to 14) (size 15 to 20)
#    0.000    1.667    0.000    6.000    0.000    4.000 
#    0.000    2.500    0.000    0.000    0.000    0.000 
#    0.000    0.000    0.000    0.000    0.000    0.000 
#
# Total GULP energy -148777.500992 kJ/mol
# GULP energy per Si atom -12398.125083 kJ/mol
# Density = 2.206690 g / cm^3
# Si number density = 22.117242 Si / 1000 Ang^3
#
#
#
# Elastic Constant Matrix: (Units=GPa)
#
#
# Indices 1 2 3 4 5 6 
#
# 1 119.3951 54.0141 37.2972 0.0000 -36.2835 0.0000
# 2 54.0141 112.6874 20.8687 0.0000 -0.0448 0.0000
# 3 37.2972 20.8687 70.9163 0.0000 -24.9817 0.0000
# 4 0.0000 0.0000 0.0000 15.5596 0.0000 -11.1805
# 5 -36.2835 -0.0448 -24.9817 0.0000 31.7832 0.0000
# 6 0.0000 0.0000 0.0000 -11.1805 0.0000 37.3373
#
#
#
# Elastic Compliance Matrix: (Units=1/GPa)
#
#
# Indices 1 2 3 4 5 6 
#
# 1 0.019193 -0.009281 0.000485 0.000000 0.022279 0.000000
# 2 -0.009281 0.014082 -0.004133 0.000000 -0.013823 0.000000
# 3 0.000485 -0.004133 0.021096 0.000000 0.017130 0.000000
# 4 0.000000 0.000000 0.000000 0.081889 0.000000 0.024521
# 5 0.022279 -0.013823 0.017130 0.000000 0.070341 0.000000
# 6 0.000000 0.000000 0.000000 0.024521 0.000000 0.034126
#
#
# Mechanical properties :
#
#
# Convention : Reuss Voigt Hill
#
# Bulk Modulus (GPa) = 35.06882 58.59542 46.83212
# Shear Modulus (GPa) = 18.11011 29.65728 23.88369
#
# Velocity S-wave (km/s) = 2.86461 3.66582 3.28970
# Velocity P-wave (km/s) = 5.17993 6.66845 5.97076
#
# Compressibility (1/GPa) = 0.02851536
#
# Stress axis : x y z
#
# Youngs Moduli (GPa) = 52.10250 71.01078 47.40129
#
# Poissons Ratio (x) = 0.65902 -0.02299
# Poissons Ratio (y) = 0.48354 0.19589
# Poissons Ratio (z) = -0.02527 0.29345
#
# Static dielectric constant tensor:
#      x y z
#    x 4.185050 0.000000 -0.509060 
#    y 0.000000 3.738930 0.000000 
#    z -0.509060 0.000000 4.246370 
# 
# 
# High freq. dielectric constant tensor:
#      x y z
#    x 1.875500 0.000000 -0.036050 
#    y 0.000000 1.869230 0.000000 
#    z -0.036050 0.000000 1.864920 
# 
# From -- ./inp_files/6001.got.cif
#   From: 2010.03.12/outbox.cif.g09.slc.cpg/sg5_4_cif.got.tgz:6001.got - 2010.03.31 09:47:26.
