data_PCOD8048969
_publ_section_title
;
Structure prediction by ZEFSAII (Michael W. Deem and Ramdas Pophale) SiO2 
 PCOD8048969
Probable space group: C 2
;
_chemical_formula_sum "Si O2"
_cell_formula_units_Z 26
_cell_length_a 10.536969
_cell_length_b 24.513219
_cell_length_c 10.325389
_cell_angle_alpha 90.000000
_cell_angle_beta 151.747185
_cell_angle_gamma 90.000000
_cell_volume 1262.457389
_symmetry_space_group_name_H-M "C 2"
_symmetry_group_IT_number 5
_symmetry_cell_setting 'monoclinic'
loop_
_space_group_symop_operation_xyz
x,y,z
-x,y,-z
1/2+x,1/2+y,z
1/2-x,1/2+y,-z
loop_
_atom_site_type_symbol
_atom_site_label
_atom_site_fract_x
_atom_site_fract_y
_atom_site_fract_z
Si Si1 0.500000 0.801010 0.500000
Si Si2 0.457176 0.422390 0.613005
Si Si3 0.428114 0.862510 0.177108
Si Si4 0.945741 0.249603 0.094195
Si Si5 0.471110 0.547656 0.626584
Si Si6 0.475881 0.102563 0.124339
Si Si7 0.367591 0.223437 0.674206
O O1 0.386645 0.839312 0.284482
O O2 0.749072 0.762843 0.679152
O O3 0.500000 0.411221 0.500000
O O4 0.515198 0.484814 0.701807
O O5 0.151034 0.409516 0.374078
O O6 0.649193 0.385345 0.872919
O O7 0.535130 0.812824 0.184103
O O8 0.130869 0.214029 0.356645
O O9 0.631324 0.249022 0.846370
O O10 0.000000 0.226860 0.000000
O O11 0.500000 0.558540 0.500000
O O12 0.174182 0.568650 0.396469
O O13 0.673843 0.585755 0.892622
O O14 0.542082 0.166246 0.185597
O O15 0.500000 0.080567 0.000000
#
# Coordination Sequence:
#
# PCOD8048969 Si02
#       7
#     2   4   4   4   4   4   4
#     4  10  26  40  58  96 132 160 218 236 302 382
#     4  11  21  37  61  88 118 155 202 253 309 355
#     4  11  23  37  59  85 121 165 191 249 295 358
#     4  11  23  40  58  87 120 160 208 244 294 363
#     4   9  19  34  53  87 117 145 195 255 305 364
#     4  10  20  33  57  86 120 151 187 245 322 362
#     4  11  24  37  62  87 126 164 196 256 299 366
#
# _framework density 20.594753999999998
#
# number of rings (size 3 to 8) (size 9 to 14) (size 15 to 20)
#    0.000    1.538    0.000    5.538    7.538    5.538 
#    0.000    0.000    0.000    0.000   40.000    0.000 
#    0.000    0.000    0.000    0.000    0.000    0.000 
#
# Total GULP energy -161164.286739 kJ/mol
# GULP energy per Si atom -12397.252826 kJ/mol
# Density = 2.054788 g / cm^3
# Si number density = 20.594754 Si / 1000 Ang^3
#
#
#
# Elastic Constant Matrix: (Units=GPa)
#
#
# Indices 1 2 3 4 5 6 
#
# 1 99.1703 29.9905 44.5980 0.0000 1.4901 0.0000
# 2 29.9905 98.6861 51.8200 0.0000 -7.3049 0.0000
# 3 44.5980 51.8200 146.7971 0.0000 7.9093 0.0000
# 4 0.0000 0.0000 0.0000 46.6898 0.0000 1.1936
# 5 1.4901 -7.3049 7.9093 0.0000 32.6652 0.0000
# 6 0.0000 0.0000 0.0000 1.1936 0.0000 17.8208
#
#
#
# Elastic Compliance Matrix: (Units=1/GPa)
#
#
# Indices 1 2 3 4 5 6 
#
# 1 0.012038 -0.002176 -0.002871 0.000000 -0.000341 0.000000
# 2 -0.002176 0.013342 -0.004270 0.000000 0.004117 0.000000
# 3 -0.002871 -0.004270 0.009358 0.000000 -0.003090 0.000000
# 4 0.000000 0.000000 0.000000 0.021455 0.000000 -0.001437
# 5 -0.000341 0.004117 -0.003090 0.000000 0.032298 0.000000
# 6 0.000000 0.000000 0.000000 -0.001437 0.000000 0.056210
#
#
# Mechanical properties :
#
#
# Convention : Reuss Voigt Hill
#
# Bulk Modulus (GPa) = 62.09872 66.38561 64.24216
# Shear Modulus (GPa) = 29.63797 33.98483 31.81140
#
# Velocity S-wave (km/s) = 3.79767 4.06663 3.93445
# Velocity P-wave (km/s) = 7.03192 7.37253 7.20424
#
# Compressibility (1/GPa) = 0.01610339
#
# Stress axis : x y z
#
# Youngs Moduli (GPa) = 83.07146 74.95394 106.85862
#
# Poissons Ratio (x) = 0.16311 0.30675
# Poissons Ratio (y) = 0.18077 0.45632
# Poissons Ratio (z) = 0.23847 0.32008
#
# Static dielectric constant tensor:
#      x y z
#    x 3.386790 0.000000 0.050820 
#    y 0.000000 3.602620 0.000000 
#    z 0.050820 0.000000 4.157160 
# 
# 
# High freq. dielectric constant tensor:
#      x y z
#    x 1.759510 0.000000 0.005330 
#    y 0.000000 1.804170 0.000000 
#    z 0.005330 0.000000 1.834790 
# 
# From -- ./inp_files/40850.got.cif
#   From: 2010.03.12/outbox.cif.g09.slc.cpg/sg5_21_cif.got.tgz:40850.got - 2010.03.31 09:47:26.
