data_PCOD8048153
_publ_section_title
;
Structure prediction by ZEFSAII (Michael W. Deem and Ramdas Pophale) SiO2 
 PCOD8048153
Probable space group: C 2
;
_chemical_formula_sum "Si O2"
_cell_formula_units_Z 32
_cell_length_a 12.793460
_cell_length_b 11.315221
_cell_length_c 11.878744
_cell_angle_alpha 90.000000
_cell_angle_beta 71.500763
_cell_angle_gamma 90.000000
_cell_volume 1630.722630
_symmetry_space_group_name_H-M "C 2"
_symmetry_group_IT_number 5
_symmetry_cell_setting 'monoclinic'
loop_
_space_group_symop_operation_xyz
x,y,z
-x,y,-z
1/2+x,1/2+y,z
1/2-x,1/2+y,-z
loop_
_atom_site_type_symbol
_atom_site_label
_atom_site_fract_x
_atom_site_fract_y
_atom_site_fract_z
Si Si1 0.875239 0.490690 0.054470
Si Si2 0.505946 0.258387 0.680790
Si Si3 0.400041 0.258534 0.110109
Si Si4 0.212441 0.104117 0.679624
Si Si5 0.562701 0.016089 0.376713
Si Si6 0.892552 0.963254 0.482073
Si Si7 0.232959 0.852898 0.283801
Si Si8 0.277538 0.946448 0.848360
O O1 0.879177 0.621476 0.100655
O O2 0.805268 0.412641 0.163371
O O3 0.813654 0.495847 0.956078
O O4 0.000000 0.440155 0.000000
O O5 0.568684 0.286288 0.773704
O O6 0.512040 0.118270 0.654512
O O7 0.574026 0.329803 0.564105
O O8 0.379690 0.303276 0.732612
O O9 0.287270 0.324582 0.115765
O O10 0.500000 0.305710 0.000000
O O11 0.337040 0.083397 0.594929
O O12 0.192268 0.244642 0.694779
O O13 0.133404 0.045503 0.614968
O O14 0.200577 0.042333 0.808137
O O15 0.500000 0.948163 0.500000
O O16 0.610315 0.926515 0.265515
O O17 0.793827 0.946696 0.606661
O O18 0.000000 0.024882 0.500000
#
# Coordination Sequence:
#
# PCOD8048153 Si02
#       8
#     4   4   4   4   4   4   4   4
#     4  11  25  41  60  88 121 165 208 252 304 366
#     4  10  17  36  63  92 114 154 205 252 298 360
#     4  11  22  38  64  88 116 158 211 256 300 367
#     4   9  20  38  61  90 125 157 198 252 305 362
#     4   9  17  31  59  91 117 152 193 244 300 360
#     4  10  20  37  62  95 122 157 208 249 302 372
#     4  10  22  38  66  87 127 159 198 259 313 354
#     4  10  22  39  59  93 120 152 207 255 301 365
#
# _framework density 19.623204000000001
#
# number of rings (size 3 to 8) (size 9 to 14) (size 15 to 20)
#    0.750    1.250    1.250    4.125    1.750    3.000 
#    0.000    3.125    0.000    2.250    0.000    0.000 
#    0.000    0.000    0.000    0.000    0.000    0.000 
#
# Total GULP energy -198268.449372 kJ/mol
# GULP energy per Si atom -12391.778086 kJ/mol
# Density = 1.957854 g / cm^3
# Si number density = 19.623204 Si / 1000 Ang^3
#
#
#
# Elastic Constant Matrix: (Units=GPa)
#
#
# Indices 1 2 3 4 5 6 
#
# 1 77.0075 32.6061 48.9867 0.0000 20.3310 0.0000
# 2 32.6061 61.6592 44.5131 0.0000 -4.8638 0.0000
# 3 48.9867 44.5131 138.6279 0.0000 -4.9547 0.0000
# 4 0.0000 0.0000 0.0000 28.1513 0.0000 -2.2309
# 5 20.3310 -4.8638 -4.9547 0.0000 44.4424 0.0000
# 6 0.0000 0.0000 0.0000 -2.2309 0.0000 27.9312
#
#
#
# Elastic Compliance Matrix: (Units=1/GPa)
#
#
# Indices 1 2 3 4 5 6 
#
# 1 0.024148 -0.009485 -0.005943 0.000000 -0.012747 0.000000
# 2 -0.009485 0.024946 -0.004423 0.000000 0.006576 0.000000
# 3 -0.005943 -0.004423 0.010857 0.000000 0.003445 0.000000
# 4 0.000000 0.000000 0.000000 0.035749 0.000000 0.002855
# 5 -0.012747 0.006576 0.003445 0.000000 0.029436 0.000000
# 6 0.000000 0.000000 0.000000 0.002855 0.000000 0.036030
#
#
# Mechanical properties :
#
#
# Convention : Reuss Voigt Hill
#
# Bulk Modulus (GPa) = 49.38694 58.83405 54.11050
# Shear Modulus (GPa) = 24.08270 30.18424 27.13347
#
# Velocity S-wave (km/s) = 3.50702 3.92623 3.72253
# Velocity P-wave (km/s) = 6.45145 7.11342 6.79050
#
# Compressibility (1/GPa) = 0.02024827
#
# Stress axis : x y z
#
# Youngs Moduli (GPa) = 41.41171 40.08680 92.10493
#
# Poissons Ratio (x) = 0.38021 0.54739
# Poissons Ratio (y) = 0.39278 0.40742
# Poissons Ratio (z) = 0.24612 0.17732
#
# Static dielectric constant tensor:
#      x y z
#    x 3.643240 0.000000 0.057790 
#    y 0.000000 3.287750 0.000000 
#    z 0.057790 0.000000 3.633400 
# 
# 
# High freq. dielectric constant tensor:
#      x y z
#    x 1.757070 0.000000 0.009310 
#    y 0.000000 1.736810 0.000000 
#    z 0.009310 0.000000 1.775130 
# 
# From -- ./inp_files/39412.got.cif
#   From: 2010.03.12/outbox.cif.g09.slc.cpg/sg5_20_cif.got.tgz:39412.got - 2010.03.31 09:47:26.
