data_PCOD8048700
_publ_section_title
;
Structure prediction by ZEFSAII (Michael W. Deem and Ramdas Pophale) SiO2 
 PCOD8048700
Probable space group: C 2
;
_chemical_formula_sum "Si O2"
_cell_formula_units_Z 30
_cell_length_a 15.740559
_cell_length_b 15.247297
_cell_length_c 12.887792
_cell_angle_alpha 90.000000
_cell_angle_beta 150.673647
_cell_angle_gamma 90.000000
_cell_volume 1514.940879
_symmetry_space_group_name_H-M "C 2"
_symmetry_group_IT_number 5
_symmetry_cell_setting 'monoclinic'
loop_
_space_group_symop_operation_xyz
x,y,z
-x,y,-z
1/2+x,1/2+y,z
1/2-x,1/2+y,-z
loop_
_atom_site_type_symbol
_atom_site_label
_atom_site_fract_x
_atom_site_fract_y
_atom_site_fract_z
Si Si1 0.923202 0.675070 0.814066
Si Si2 0.129731 0.621758 0.548810
Si Si3 0.423425 0.473808 0.141433
Si Si4 0.000000 0.049998 0.000000
Si Si5 0.371463 0.549487 0.458645
Si Si6 0.884629 0.398833 0.786158
Si Si7 0.948096 0.526544 0.183245
Si Si8 0.410711 0.294899 0.616746
O O1 0.735554 0.637185 0.640466
O O2 0.892892 0.758036 0.711513
O O3 0.059861 0.604895 0.910444
O O4 0.000000 0.714140 0.000000
O O5 0.054160 0.717293 0.429804
O O6 0.000000 0.592110 0.500000
O O7 0.102656 0.552583 0.426674
O O8 0.331220 0.613315 0.800579
O O9 0.473978 0.486923 0.073674
O O10 0.536267 0.537714 0.332689
O O11 0.452222 0.375658 0.222772
O O12 0.227778 0.507431 0.943558
O O13 0.500000 0.559010 0.500000
O O14 0.241619 0.469862 0.294649
O O15 0.778677 0.323899 0.618294
O O16 0.003639 0.438001 0.823251
O O17 0.000000 0.356936 0.000000
#
# Coordination Sequence:
#
# PCOD8048700 Si02
#       8
#     4   4   4   2   4   4   4   4
#     4  10  20  38  61  84 124 164 198 267 324 371
#     4  11  23  43  63  97 133 169 218 273 323 392
#     4  11  22  39  65  94 124 171 216 265 318 390
#     4  12  24  42  74  92 128 186 224 258 330 400
#     4  10  19  36  63  91 116 154 220 259 309 390
#     4  10  20  36  60  88 122 165 204 266 326 377
#     4  10  20  41  64  91 123 163 220 262 311 394
#     4  10  24  39  57  94 132 161 212 273 321 379
#
# _framework density 19.802752999999999
#
# number of rings (size 3 to 8) (size 9 to 14) (size 15 to 20)
#    0.000    1.600    1.333    6.400    1.867    3.200 
#    0.000    2.667    0.000    0.000    0.000    0.000 
#    0.000    0.000    0.000    0.000    0.000    0.000 
#
# Total GULP energy -185843.456748 kJ/mol
# GULP energy per Si atom -12389.563783 kJ/mol
# Density = 1.975768 g / cm^3
# Si number density = 19.802753 Si / 1000 Ang^3
#
#
#
# Elastic Constant Matrix: (Units=GPa)
#
#
# Indices 1 2 3 4 5 6 
#
# 1 117.7969 22.4246 44.3017 0.0000 -0.9358 0.0000
# 2 22.4246 58.3164 35.9413 0.0000 -3.7239 0.0000
# 3 44.3017 35.9413 130.7565 0.0000 -7.8257 0.0000
# 4 0.0000 0.0000 0.0000 26.3325 0.0000 -4.4241
# 5 -0.9358 -3.7239 -7.8257 0.0000 40.2032 0.0000
# 6 0.0000 0.0000 0.0000 -4.4241 0.0000 15.9231
#
#
#
# Elastic Compliance Matrix: (Units=1/GPa)
#
#
# Indices 1 2 3 4 5 6 
#
# 1 0.009949 -0.002121 -0.002818 0.000000 -0.000514 0.000000
# 2 -0.002121 0.021124 -0.005032 0.000000 0.000928 0.000000
# 3 -0.002818 -0.005032 0.010071 0.000000 0.001429 0.000000
# 4 0.000000 0.000000 0.000000 0.039835 0.000000 0.011068
# 5 -0.000514 0.000928 0.001429 0.000000 0.025226 0.000000
# 6 0.000000 0.000000 0.000000 0.011068 0.000000 0.065877
#
#
# Mechanical properties :
#
#
# Convention : Reuss Voigt Hill
#
# Bulk Modulus (GPa) = 47.16862 56.91165 52.04013
# Shear Modulus (GPa) = 25.11382 30.10525 27.60953
#
# Velocity S-wave (km/s) = 3.56504 3.90328 3.73799
# Velocity P-wave (km/s) = 6.38881 7.00826 6.70569
#
# Compressibility (1/GPa) = 0.02120054
#
# Stress axis : x y z
#
# Youngs Moduli (GPa) = 100.51338 47.33899 99.29088
#
# Poissons Ratio (x) = 0.10043 0.27984
# Poissons Ratio (y) = 0.21323 0.49965
# Poissons Ratio (z) = 0.28329 0.23822
#
# Static dielectric constant tensor:
#      x y z
#    x 3.757050 0.000000 -0.056580 
#    y 0.000000 3.492620 0.000000 
#    z -0.056580 0.000000 3.896490 
# 
# 
# High freq. dielectric constant tensor:
#      x y z
#    x 1.778010 0.000000 -0.015180 
#    y 0.000000 1.749040 0.000000 
#    z -0.015180 0.000000 1.787180 
# 
# From -- ./inp_files/43328.got.cif
#   From: 2010.03.12/outbox.cif.g09.slc.cpg/sg5_22_cif.got.tgz:43328.got - 2010.03.31 09:47:26.
