data_PCOD8048089
_publ_section_title
;
Structure prediction by ZEFSAII (Michael W. Deem and Ramdas Pophale) SiO2 
 PCOD8048089
Probable space group: C 2
;
_chemical_formula_sum "Si O2"
_cell_formula_units_Z 32
_cell_length_a 11.006482
_cell_length_b 25.978638
_cell_length_c 5.310792
_cell_angle_alpha 90.000000
_cell_angle_beta 97.646312
_cell_angle_gamma 90.000000
_cell_volume 1505.030557
_symmetry_space_group_name_H-M "C 2"
_symmetry_group_IT_number 5
_symmetry_cell_setting 'monoclinic'
loop_
_space_group_symop_operation_xyz
x,y,z
-x,y,-z
1/2+x,1/2+y,z
1/2-x,1/2+y,-z
loop_
_atom_site_type_symbol
_atom_site_label
_atom_site_fract_x
_atom_site_fract_y
_atom_site_fract_z
Si Si1 0.643008 0.317160 0.912275
Si Si2 0.272044 0.687544 0.461994
Si Si3 0.642718 0.082075 0.534484
Si Si4 0.142376 0.519902 0.038282
Si Si5 0.365655 0.283005 0.590740
Si Si6 0.369087 0.854052 0.504601
Si Si7 0.862489 0.235936 0.996838
Si Si8 0.800678 0.406704 0.971084
O O1 0.566151 0.291505 0.660079
O O2 0.769387 0.284206 0.010298
O O3 0.671892 0.377161 0.876852
O O4 0.570108 0.311771 0.155893
O O5 0.228857 0.629687 0.489884
O O6 0.151224 0.722446 0.373326
O O7 0.333958 0.703846 0.739084
O O8 0.356831 0.696892 0.237671
O O9 0.500000 0.098466 0.500000
O O10 0.673387 0.042911 0.318800
O O11 0.676347 0.058107 0.816739
O O12 0.220539 0.467766 0.031297
O O13 0.000000 0.504653 0.000000
O O14 0.233686 0.310246 0.483432
O O15 0.500000 0.825790 0.500000
O O16 0.385884 0.889933 0.758696
O O17 0.344797 0.890442 0.259395
O O18 0.000000 0.257963 0.000000
#
# Coordination Sequence:
#
# PCOD8048089 Si02
#       8
#     4   4   4   4   4   4   4   4
#     4   8  16  26  38  60  91 121 144 164 197 260
#     4  10  19  32  47  63  88 123 156 191 228 260
#     4  10  21  35  48  62  83 119 165 204 233 256
#     4  10  19  30  44  61  81 111 156 199 227 258
#     4   8  16  25  37  56  79 111 146 174 206 250
#     4  10  17  24  36  57  86 115 140 165 202 262
#     4  10  19  30  47  72  98 123 147 172 217 281
#     4  10  18  26  38  57  83 115 146 175 207 249
#
# _framework density 21.262028000000001
#
# number of rings (size 3 to 8) (size 9 to 14) (size 15 to 20)
#    0.000    2.500    0.000    3.000    0.000   10.500 
#    0.000    0.000    0.000    0.000    0.000    0.000 
#    0.000    0.000    0.000  202.500    0.000   10.500 
#
# Total GULP energy -198259.847444 kJ/mol
# GULP energy per Si atom -12391.240465 kJ/mol
# Density = 2.121363 g / cm^3
# Si number density = 21.262028 Si / 1000 Ang^3
#
#
#
# Elastic Constant Matrix: (Units=GPa)
#
#
# Indices 1 2 3 4 5 6 
#
# 1 71.6607 25.5013 11.8239 0.0000 -15.5366 0.0000
# 2 25.5013 116.2178 31.4777 0.0000 -10.3113 0.0000
# 3 11.8239 31.4777 154.2917 0.0000 -24.9721 0.0000
# 4 0.0000 0.0000 0.0000 31.4640 0.0000 -2.8414
# 5 -15.5366 -10.3113 -24.9721 0.0000 24.5568 0.0000
# 6 0.0000 0.0000 0.0000 -2.8414 0.0000 9.9021
#
#
#
# Elastic Compliance Matrix: (Units=1/GPa)
#
#
# Indices 1 2 3 4 5 6 
#
# 1 0.017195 -0.003111 0.001037 0.000000 0.010627 0.000000
# 2 -0.003111 0.009782 -0.001689 0.000000 0.000422 0.000000
# 3 0.001037 -0.001689 0.008065 0.000000 0.008148 0.000000
# 4 0.000000 0.000000 0.000000 0.032628 0.000000 0.009363
# 5 0.010627 0.000422 0.008148 0.000000 0.055909 0.000000
# 6 0.000000 0.000000 0.000000 0.009363 0.000000 0.103675
#
#
# Mechanical properties :
#
#
# Convention : Reuss Voigt Hill
#
# Bulk Modulus (GPa) = 36.34276 53.30846 44.82561
# Shear Modulus (GPa) = 20.49585 31.40906 25.95246
#
# Velocity S-wave (km/s) = 3.10815 3.84765 3.49750
# Velocity P-wave (km/s) = 5.47820 6.69820 6.11868
#
# Compressibility (1/GPa) = 0.02751579
#
# Stress axis : x y z
#
# Youngs Moduli (GPa) = 58.15763 102.22808 123.98990
#
# Poissons Ratio (x) = 0.31803 -0.12857
# Poissons Ratio (y) = 0.18093 0.20942
# Poissons Ratio (z) = -0.06031 0.17267
#
# Static dielectric constant tensor:
#      x y z
#    x 3.793410 0.000000 -0.309540 
#    y 0.000000 3.591790 0.000000 
#    z -0.309540 0.000000 4.720070 
# 
# 
# High freq. dielectric constant tensor:
#      x y z
#    x 1.826350 0.000000 -0.016200 
#    y 0.000000 1.802730 0.000000 
#    z -0.016200 0.000000 1.890800 
# 
# From -- ./inp_files/5968.got.cif
#   From: 2010.03.12/outbox.cif.g09.slc.cpg/sg5_3_cif.got.tgz:5968.got - 2010.03.31 09:47:26.
