data_PCOD8048936
_publ_section_title
;
Structure prediction by ZEFSAII (Michael W. Deem and Ramdas Pophale) SiO2 
 PCOD8048936
Probable space group: C 2
;
_chemical_formula_sum "Si O2"
_cell_formula_units_Z 32
_cell_length_a 18.827462
_cell_length_b 20.509039
_cell_length_c 8.369853
_cell_angle_alpha 90.000000
_cell_angle_beta 30.949597
_cell_angle_gamma 90.000000
_cell_volume 1662.102445
_symmetry_space_group_name_H-M "C 2"
_symmetry_group_IT_number 5
_symmetry_cell_setting 'monoclinic'
loop_
_space_group_symop_operation_xyz
x,y,z
-x,y,-z
1/2+x,1/2+y,z
1/2-x,1/2+y,-z
loop_
_atom_site_type_symbol
_atom_site_label
_atom_site_fract_x
_atom_site_fract_y
_atom_site_fract_z
Si Si1 0.157231 0.562750 0.731349
Si Si2 0.845218 0.318232 0.238134
Si Si3 0.556265 0.893256 0.234002
Si Si4 0.254880 0.506859 0.856325
Si Si5 0.892233 0.101552 0.835948
Si Si6 0.285131 0.931414 0.570332
Si Si7 0.153601 0.172799 0.776904
Si Si8 0.984846 0.984495 0.839416
O O1 0.180328 0.554387 0.874782
O O2 0.205528 0.496219 0.554914
O O3 0.248887 0.623072 0.501585
O O4 0.000000 0.579919 0.000000
O O5 0.754664 0.368414 0.517804
O O6 0.784218 0.245533 0.366977
O O7 0.850457 0.343226 0.045399
O O8 0.000000 0.318516 0.000000
O O9 0.500000 0.856233 0.500000
O O10 0.429461 0.923050 0.379496
O O11 0.648081 0.952901 0.121723
O O12 0.289671 0.552290 0.941792
O O13 0.383595 0.467087 0.525625
O O14 0.000000 0.130420 0.500000
O O15 0.964833 0.060579 0.837821
O O16 0.831983 0.160664 0.057508
O O17 0.151286 0.941152 0.944861
O O18 0.000000 0.169239 0.000000
O O19 0.000000 0.975447 0.000000
#
# Coordination Sequence:
#
# PCOD8048936 Si02
#       8
#     4   4   4   4   4   4   4   4
#     4  12  21  36  59  85 118 145 188 247 286 337
#     4   9  20  38  58  82 113 153 195 234 277 342
#     4  11  21  35  56  86 116 151 188 230 293 342
#     4  11  21  33  53  87 118 144 184 239 291 335
#     4  10  20  31  50  84 117 140 184 235 286 330
#     4  11  19  37  59  85 113 148 191 241 284 336
#     4  11  22  39  60  82 115 156 196 234 281 342
#     4  11  18  31  54  80 110 146 184 235 285 326
#
# _framework density 19.252723
#
# number of rings (size 3 to 8) (size 9 to 14) (size 15 to 20)
#    0.000    1.250    5.000    3.000    0.000    0.500 
#    0.000    3.125    0.000    0.000    0.000    7.000 
#    0.000    0.000    0.000    0.000    0.000    0.000 
#
# Total GULP energy -198248.799022 kJ/mol
# GULP energy per Si atom -12390.549939 kJ/mol
# Density = 1.920890 g / cm^3
# Si number density = 19.252723 Si / 1000 Ang^3
#
#
#
# Elastic Constant Matrix: (Units=GPa)
#
#
# Indices 1 2 3 4 5 6 
#
# 1 61.3439 23.4068 14.9919 0.0003 1.1358 -0.0002
# 2 23.4068 119.7776 34.8966 0.0002 2.0022 -0.0001
# 3 14.9919 34.8966 75.7929 0.0007 -6.2429 -0.0003
# 4 0.0003 0.0002 0.0007 22.4663 -0.0005 3.8059
# 5 1.1358 2.0022 -6.2429 -0.0005 32.4266 0.0001
# 6 -0.0002 -0.0001 -0.0003 3.8059 0.0001 17.9360
#
#
#
# Elastic Compliance Matrix: (Units=1/GPa)
#
#
# Indices 1 2 3 4 5 6 
#
# 1 0.017962 -0.002816 -0.002331 0.000000 -0.000904 0.000000
# 2 -0.002816 0.010153 -0.004228 0.000000 -0.001342 0.000000
# 3 -0.002331 -0.004228 0.015882 0.000000 0.003400 0.000000
# 4 0.000000 0.000000 0.000000 0.046171 0.000001 -0.009797
# 5 -0.000904 -0.001342 0.003400 0.000001 0.031608 0.000000
# 6 0.000000 0.000000 0.000000 -0.009797 0.000000 0.057833
#
#
# Mechanical properties :
#
#
# Convention : Reuss Voigt Hill
#
# Bulk Modulus (GPa) = 39.60852 44.83387 42.22119
# Shear Modulus (GPa) = 24.18078 26.80704 25.49391
#
# Velocity S-wave (km/s) = 3.54781 3.73550 3.64286
# Velocity P-wave (km/s) = 6.11557 6.47633 6.29854
#
# Compressibility (1/GPa) = 0.02524709
#
# Stress axis : x y z
#
# Youngs Moduli (GPa) = 55.67178 98.48845 62.96501
#
# Poissons Ratio (x) = 0.27734 0.14677
# Poissons Ratio (y) = 0.15677 0.26624
# Poissons Ratio (z) = 0.12977 0.41645
#
# Static dielectric constant tensor:
#      x y z
#    x 3.753920 0.000000 -0.052890 
#    y 0.000000 3.518280 0.000000 
#    z -0.052890 0.000000 3.845060 
# 
# 
# High freq. dielectric constant tensor:
#      x y z
#    x 1.753850 0.000000 0.008150 
#    y 0.000000 1.720390 0.000000 
#    z 0.008150 0.000000 1.744690 
# 
# From -- ./inp_files/30064.got.cif
#   From: 2010.03.12/outbox.cif.g09.slc.cpg/sg5_16_cif.got.tgz:30064.got - 2010.03.31 09:47:26.
