data_PCOD8048550
_publ_section_title
;
Structure prediction by ZEFSAII (Michael W. Deem and Ramdas Pophale) SiO2 
 PCOD8048550
Probable space group: C 2
;
_chemical_formula_sum "Si O2"
_cell_formula_units_Z 32
_cell_length_a 23.782856
_cell_length_b 16.821543
_cell_length_c 12.462945
_cell_angle_alpha 90.000000
_cell_angle_beta 19.363257
_cell_angle_gamma 90.000000
_cell_volume 1653.132456
_symmetry_space_group_name_H-M "C 2"
_symmetry_group_IT_number 5
_symmetry_cell_setting 'monoclinic'
loop_
_space_group_symop_operation_xyz
x,y,z
-x,y,-z
1/2+x,1/2+y,z
1/2-x,1/2+y,-z
loop_
_atom_site_type_symbol
_atom_site_label
_atom_site_fract_x
_atom_site_fract_y
_atom_site_fract_z
Si Si1 0.678140 0.068590 0.621003
Si Si2 0.775600 0.328333 0.237669
Si Si3 0.332067 0.559760 0.561815
Si Si4 0.576937 0.739185 0.620583
Si Si5 0.009524 0.922965 0.358179
Si Si6 0.376736 0.874920 0.625131
Si Si7 0.181960 0.745675 0.618009
Si Si8 0.491055 0.974608 0.799744
O O1 0.817903 0.043657 0.458389
O O2 0.713344 0.157241 0.513719
O O3 0.661885 0.005824 0.552602
O O4 0.500000 0.070754 0.000000
O O5 0.624944 0.353897 0.428826
O O6 0.698245 0.307947 0.492374
O O7 0.876455 0.253968 0.003565
O O8 0.908423 0.400837 0.013029
O O9 0.388692 0.649902 0.479948
O O10 0.473898 0.501988 0.353491
O O11 0.151588 0.544336 0.947148
O O12 0.644955 0.796015 0.405380
O O13 0.674959 0.762693 0.552132
O O14 0.000000 0.943899 0.500000
O O15 0.195925 0.895639 0.996559
O O16 0.500000 0.855140 0.500000
O O17 0.455052 0.948119 0.416048
O O18 0.000000 0.755817 0.000000
#
# Coordination Sequence:
#
# PCOD8048550 Si02
#       8
#     4   4   4   4   4   4   4   4
#     4   8  16  32  55  81 113 146 177 217 271 330
#     4  10  21  36  57  83 114 150 188 232 283 340
#     4   9  19  36  58  85 114 147 184 225 279 339
#     4  10  21  37  58  84 114 151 187 228 284 343
#     4  11  23  40  58  80 111 147 191 242 285 335
#     4  11  23  40  59  81 109 147 192 238 288 340
#     4  10  19  33  55  85 116 147 185 232 280 334
#     4   9  19  36  59  83 113 151 186 228 281 339
#
# _framework density 19.357191
#
# number of rings (size 3 to 8) (size 9 to 14) (size 15 to 20)
#    0.000    2.250    0.000    4.125    0.000   10.500 
#    0.000    3.125    0.000    8.250    0.000    0.000 
#    0.000    0.000    0.000    0.000    0.000    0.000 
#
# Total GULP energy -198365.120407 kJ/mol
# GULP energy per Si atom -12397.820025 kJ/mol
# Density = 1.931313 g / cm^3
# Si number density = 19.357191 Si / 1000 Ang^3
#
#
#
# Elastic Constant Matrix: (Units=GPa)
#
#
# Indices 1 2 3 4 5 6 
#
# 1 94.9000 53.4599 22.3829 -0.0008 -7.3305 0.0003
# 2 53.4599 107.4322 48.0743 -0.0013 -2.3638 0.0034
# 3 22.3829 48.0743 91.2862 0.0019 -3.1261 0.0011
# 4 -0.0008 -0.0013 0.0019 24.1447 -0.0012 -9.8288
# 5 -7.3305 -2.3638 -3.1261 -0.0012 30.9244 -0.0017
# 6 0.0003 0.0034 0.0011 -9.8288 -0.0017 13.4181
#
#
#
# Elastic Compliance Matrix: (Units=1/GPa)
#
#
# Indices 1 2 3 4 5 6 
#
# 1 0.014922 -0.007546 0.000418 0.000001 0.003003 0.000003
# 2 -0.007546 0.015997 -0.006616 -0.000001 -0.001235 -0.000004
# 3 0.000418 -0.006616 0.014372 -0.000002 0.001046 -0.000001
# 4 0.000001 -0.000001 -0.000002 0.059014 0.000005 0.043228
# 5 0.003003 -0.001235 0.001046 0.000005 0.033060 0.000008
# 6 0.000003 -0.000004 -0.000001 0.043228 0.000008 0.106191
#
#
# Mechanical properties :
#
#
# Convention : Reuss Voigt Hill
#
# Bulk Modulus (GPa) = 56.17405 60.16140 58.16773
# Shear Modulus (GPa) = 18.05187 25.01086 21.53136
#
# Velocity S-wave (km/s) = 3.05711 3.59844 3.33876
# Velocity P-wave (km/s) = 6.44546 6.95788 6.70657
#
# Compressibility (1/GPa) = 0.01780181
#
# Stress axis : x y z
#
# Youngs Moduli (GPa) = 67.01596 62.51164 69.57827
#
# Poissons Ratio (x) = 0.47174 -0.02910
# Poissons Ratio (y) = 0.50573 0.46036
# Poissons Ratio (z) = -0.02803 0.41361
#
# Static dielectric constant tensor:
#      x y z
#    x 3.710640 0.000000 -0.144780 
#    y 0.000000 3.675790 0.000000 
#    z -0.144780 0.000000 3.522650 
# 
# 
# High freq. dielectric constant tensor:
#      x y z
#    x 1.749460 0.000000 -0.007650 
#    y 0.000000 1.751490 0.000000 
#    z -0.007650 0.000000 1.747220 
# 
# From -- ./inp_files/47567.got.cif
#   From: 2010.03.12/outbox.cif.g09.slc.cpg/sg5_24_cif.got.tgz:47567.got - 2010.03.31 09:47:26.
