data_PCOD8048424
_publ_section_title
;
Structure prediction by ZEFSAII (Michael W. Deem and Ramdas Pophale) SiO2 
 PCOD8048424
Probable space group: C 2
;
_chemical_formula_sum "Si O2"
_cell_formula_units_Z 28
_cell_length_a 14.255440
_cell_length_b 18.541911
_cell_length_c 8.509342
_cell_angle_alpha 90.000000
_cell_angle_beta 40.727767
_cell_angle_gamma 90.000000
_cell_volume 1467.536153
_symmetry_space_group_name_H-M "C 2"
_symmetry_group_IT_number 5
_symmetry_cell_setting 'monoclinic'
loop_
_space_group_symop_operation_xyz
x,y,z
-x,y,-z
1/2+x,1/2+y,z
1/2-x,1/2+y,-z
loop_
_atom_site_type_symbol
_atom_site_label
_atom_site_fract_x
_atom_site_fract_y
_atom_site_fract_z
Si Si1 0.706610 0.515450 0.482738
Si Si2 0.851949 0.282666 0.609731
Si Si3 0.852466 0.362110 0.281019
Si Si4 0.849604 0.665404 0.273448
Si Si5 0.000000 0.955540 0.500000
Si Si6 0.122291 0.869693 0.072718
Si Si7 0.096135 0.767642 0.532798
Si Si8 0.500000 0.483103 0.000000
O O1 0.796993 0.442494 0.383974
O O2 0.811538 0.581547 0.322109
O O3 0.596429 0.508366 0.479659
O O4 0.610058 0.531510 0.760002
O O5 0.877453 0.326872 0.418620
O O6 0.766459 0.209918 0.679190
O O7 0.000000 0.258366 0.500000
O O8 0.772483 0.331611 0.842465
O O9 0.738582 0.315872 0.321089
O O10 0.000000 0.364695 0.000000
O O11 0.858790 0.692469 0.443024
O O12 0.000000 0.674754 0.000000
O O13 0.108615 0.903026 0.265532
O O14 0.994931 0.810801 0.219259
O O15 0.099094 0.933738 0.982001
O O16 0.000000 0.752760 0.500000
#
# Coordination Sequence:
#
# PCOD8048424 Si02
#       8
#     4   4   4   4   2   4   4   2
#     4  11  22  41  61  92 123 165 209 255 312 376
#     4  11  25  39  63  93 130 161 208 263 309 369
#     4  11  23  38  63  95 125 154 210 275 310 352
#     4  11  24  43  62  86 127 174 204 250 314 381
#     4  10  22  34  72  92 116 160 206 264 308 368
#     4  11  17  38  66  93 113 155 211 253 306 369
#     4  11  21  40  67  91 120 162 213 250 310 380
#     4  10  18  38  64  86 120 158 204 258 306 366
#
# _framework density 19.079598000000001
#
# number of rings (size 3 to 8) (size 9 to 14) (size 15 to 20)
#    0.000    1.143    6.429    1.286    5.000    0.000 
#    5.143    3.571    0.000    0.000    0.000    0.000 
#    0.000    0.000    0.000    0.000    0.000    0.000 
#
# Total GULP energy -173560.819636 kJ/mol
# GULP energy per Si atom -12397.201403 kJ/mol
# Density = 1.903617 g / cm^3
# Si number density = 19.079598 Si / 1000 Ang^3
#
#
#
# Elastic Constant Matrix: (Units=GPa)
#
#
# Indices 1 2 3 4 5 6 
#
# 1 127.6822 48.9280 47.6545 -0.0002 -6.3621 0.0003
# 2 48.9280 105.9341 32.8224 -0.0001 -3.1514 0.0001
# 3 47.6545 32.8224 124.9879 -0.0004 -6.4274 0.0002
# 4 -0.0002 -0.0001 -0.0004 30.0517 0.0002 -9.4813
# 5 -6.3621 -3.1514 -6.4274 0.0002 32.5686 -0.0002
# 6 0.0003 0.0001 0.0002 -9.4813 -0.0002 20.7065
#
#
#
# Elastic Compliance Matrix: (Units=1/GPa)
#
#
# Indices 1 2 3 4 5 6 
#
# 1 0.010467 -0.003900 -0.002910 0.000000 0.001093 0.000000
# 2 -0.003900 0.011736 -0.001592 0.000000 0.000060 0.000000
# 3 -0.002910 -0.001592 0.009589 0.000000 0.001170 0.000000
# 4 0.000000 0.000000 0.000000 0.038895 0.000000 0.017810
# 5 0.001093 0.000060 0.001170 0.000000 0.031155 0.000000
# 6 0.000000 0.000000 0.000000 0.017810 0.000000 0.056449
#
#
# Mechanical properties :
#
#
# Convention : Reuss Voigt Hill
#
# Bulk Modulus (GPa) = 66.72453 68.60155 67.66304
# Shear Modulus (GPa) = 27.76372 31.94532 29.85452
#
# Velocity S-wave (km/s) = 3.81878 4.09628 3.95996
# Velocity P-wave (km/s) = 7.38185 7.64240 7.51325
#
# Compressibility (1/GPa) = 0.01498699
#
# Stress axis : x y z
#
# Youngs Moduli (GPa) = 95.53615 85.20626 104.29006
#
# Poissons Ratio (x) = 0.33232 0.30353
# Poissons Ratio (y) = 0.37261 0.16602
# Poissons Ratio (z) = 0.27805 0.13564
#
# Static dielectric constant tensor:
#      x y z
#    x 3.790080 0.000000 0.454060 
#    y 0.000000 3.318150 0.000000 
#    z 0.454060 0.000000 4.180540 
# 
# 
# High freq. dielectric constant tensor:
#      x y z
#    x 1.742710 0.000000 0.003620 
#    y 0.000000 1.727250 0.000000 
#    z 0.003620 0.000000 1.751280 
# 
# From -- ./inp_files/21837.got.cif
#   From: 2010.03.12/outbox.cif.g09.slc.cpg/sg5_11_cif.got.tgz:21837.got - 2010.03.31 09:47:26.
