data_PCOD8048363
_publ_section_title
;
Structure prediction by ZEFSAII (Michael W. Deem and Ramdas Pophale) SiO2 
 PCOD8048363
Probable space group: C 2
;
_chemical_formula_sum "Si O2"
_cell_formula_units_Z 30
_cell_length_a 16.780229
_cell_length_b 16.426332
_cell_length_c 12.622235
_cell_angle_alpha 90.000000
_cell_angle_beta 155.561869
_cell_angle_gamma 90.000000
_cell_volume 1439.365831
_symmetry_space_group_name_H-M "C 2"
_symmetry_group_IT_number 5
_symmetry_cell_setting 'monoclinic'
loop_
_space_group_symop_operation_xyz
x,y,z
-x,y,-z
1/2+x,1/2+y,z
1/2-x,1/2+y,-z
loop_
_atom_site_type_symbol
_atom_site_label
_atom_site_fract_x
_atom_site_fract_y
_atom_site_fract_z
Si Si1 0.048142 0.945250 0.335339
Si Si2 0.062908 0.579495 0.923527
Si Si3 0.309678 0.840880 0.074157
Si Si4 0.692245 0.605561 0.585822
Si Si5 0.042546 0.394428 0.168791
Si Si6 0.000000 0.434790 0.500000
Si Si7 0.701418 0.659791 0.961376
Si Si8 0.360295 0.545256 0.927023
O O1 0.230303 0.888097 0.533155
O O2 0.111199 0.013603 0.495539
O O3 0.873089 0.896179 0.173633
O O4 0.988643 0.986900 0.154198
O O5 0.206611 0.623754 0.180161
O O6 0.149645 0.596239 0.912905
O O7 0.048450 0.483900 0.927813
O O8 0.848100 0.615982 0.679063
O O9 0.448373 0.836145 0.141093
O O10 0.422587 0.875273 0.313529
O O11 0.222867 0.749726 0.973974
O O12 0.512957 0.663829 0.347942
O O13 0.000000 0.361258 0.000000
O O14 0.170044 0.494130 0.661705
O O15 0.695693 0.628119 0.076167
O O16 0.500000 0.570708 0.000000
#
# Coordination Sequence:
#
# PCOD8048363 Si02
#       8
#     4   4   4   4   4   2   4   4
#     4   9  19  39  61  90 114 157 206 258 293 357
#     4  10  18  36  61  93 113 144 200 244 308 361
#     4  11  25  38  58  92 127 164 202 250 320 367
#     4   9  18  35  62  90 113 149 192 250 301 360
#     4  11  20  38  64  91 118 154 203 259 307 365
#     4  10  22  44  66  82 118 174 218 258 286 378
#     4  11  24  36  58  91 128 157 192 258 314 367
#     4  10  21  40  64  86 115 169 220 248 294 367
#
# _framework density 20.842513
#
# number of rings (size 3 to 8) (size 9 to 14) (size 15 to 20)
#    0.000    1.867    2.667    3.600    1.867    4.267 
#    0.000    1.333    0.000    0.000    0.000    0.000 
#    0.000    0.000    0.000    0.000    0.000    0.000 
#
# Total GULP energy -185920.533040 kJ/mol
# GULP energy per Si atom -12394.702203 kJ/mol
# Density = 2.079507 g / cm^3
# Si number density = 20.842513 Si / 1000 Ang^3
#
#
#
# Elastic Constant Matrix: (Units=GPa)
#
#
# Indices 1 2 3 4 5 6 
#
# 1 126.7988 30.6488 28.9524 0.0000 10.4956 0.0000
# 2 30.6488 65.6500 28.9864 0.0000 -1.6253 0.0000
# 3 28.9524 28.9864 90.8405 0.0000 13.2027 0.0000
# 4 0.0000 0.0000 0.0000 14.9859 0.0000 -1.0297
# 5 10.4956 -1.6253 13.2027 0.0000 22.6439 0.0000
# 6 0.0000 0.0000 0.0000 -1.0297 0.0000 19.0908
#
#
#
# Elastic Compliance Matrix: (Units=1/GPa)
#
#
# Indices 1 2 3 4 5 6 
#
# 1 0.009447 -0.004000 -0.001154 0.000000 -0.003993 0.000000
# 2 -0.004000 0.019956 -0.006086 0.000000 0.006835 0.000000
# 3 -0.001154 -0.006086 0.014536 0.000000 -0.008377 0.000000
# 4 0.000000 0.000000 0.000000 0.066978 0.000000 0.003613
# 5 -0.003993 0.006835 -0.008377 0.000000 0.051388 0.000000
# 6 0.000000 0.000000 0.000000 0.003613 0.000000 0.052576
#
#
# Mechanical properties :
#
#
# Convention : Reuss Voigt Hill
#
# Bulk Modulus (GPa) = 46.60212 51.16272 48.88242
# Shear Modulus (GPa) = 20.44866 24.32421 22.38644
#
# Velocity S-wave (km/s) = 3.13565 3.41991 3.28086
# Velocity P-wave (km/s) = 5.95965 6.33995 6.15274
#
# Compressibility (1/GPa) = 0.02145825
#
# Stress axis : x y z
#
# Youngs Moduli (GPa) = 105.84942 50.11005 68.79519
#
# Poissons Ratio (x) = 0.20042 0.07942
# Poissons Ratio (y) = 0.42336 0.41872
# Poissons Ratio (z) = 0.12220 0.30499
#
# Static dielectric constant tensor:
#      x y z
#    x 3.803140 0.000000 0.213630 
#    y 0.000000 3.426400 0.000000 
#    z 0.213630 0.000000 4.170580 
# 
# 
# High freq. dielectric constant tensor:
#      x y z
#    x 1.815470 0.000000 0.015580 
#    y 0.000000 1.781820 0.000000 
#    z 0.015580 0.000000 1.826810 
# 
# From -- ./inp_files/43331.got.cif
#   From: 2010.03.12/outbox.cif.g09.slc.cpg/sg5_22_cif.got.tgz:43331.got - 2010.03.31 09:47:26.
