data_PCOD8048223
_publ_section_title
;
Structure prediction by ZEFSAII (Michael W. Deem and Ramdas Pophale) SiO2 
 PCOD8048223
Probable space group: C 2
;
_chemical_formula_sum "Si O2"
_cell_formula_units_Z 22
_cell_length_a 13.165809
_cell_length_b 13.945156
_cell_length_c 11.094913
_cell_angle_alpha 90.000000
_cell_angle_beta 31.306089
_cell_angle_gamma 90.000000
_cell_volume 1058.454657
_symmetry_space_group_name_H-M "C 2"
_symmetry_group_IT_number 5
_symmetry_cell_setting 'monoclinic'
loop_
_space_group_symop_operation_xyz
x,y,z
-x,y,-z
1/2+x,1/2+y,z
1/2-x,1/2+y,-z
loop_
_atom_site_type_symbol
_atom_site_label
_atom_site_fract_x
_atom_site_fract_y
_atom_site_fract_z
Si Si1 0.500000 0.454320 0.000000
Si Si2 0.784537 0.608139 0.693870
Si Si3 0.698466 0.392660 0.029829
Si Si4 0.265259 0.611859 0.984437
Si Si5 0.407834 0.238001 0.363475
Si Si6 0.475910 0.763935 0.385092
O O1 0.345298 0.522369 0.230039
O O2 0.614203 0.390031 0.979280
O O3 0.793179 0.700586 0.598372
O O4 0.000000 0.565858 0.500000
O O5 0.690996 0.634950 0.918719
O O6 0.726995 0.498800 0.052929
O O7 0.542052 0.329658 0.264824
O O8 0.909003 0.341640 0.812981
O O9 0.433406 0.659340 0.733292
O O10 0.051110 0.654104 0.167607
O O11 0.252261 0.266269 0.418759
O O12 0.500000 0.789400 0.500000
#
# Coordination Sequence:
#
# PCOD8048223 Si02
#       6
#     2   4   4   4   4   4
#     4  10  18  32  56  82 112 144 178 230 276 316
#     4   9  18  34  59  83 105 138 182 227 275 322
#     4  10  21  35  55  86 112 138 187 231 267 326
#     4   9  21  39  57  82 112 141 184 231 272 327
#     4  10  20  35  58  83 112 145 179 228 279 318
#     4  11  23  37  56  82 114 150 184 220 271 330
#
# _framework density 20.785018999999998
#
# number of rings (size 3 to 8) (size 9 to 14) (size 15 to 20)
#    0.000    2.182    0.000    3.273    0.000   13.818 
#    0.000    4.545    0.000    8.727    0.000    0.000 
#    0.000    0.000    0.000    0.000    0.000    0.000 
#
# Total GULP energy -136360.048012 kJ/mol
# GULP energy per Si atom -12396.368001 kJ/mol
# Density = 2.073771 g / cm^3
# Si number density = 20.785019 Si / 1000 Ang^3
#
#
#
# Elastic Constant Matrix: (Units=GPa)
#
#
# Indices 1 2 3 4 5 6 
#
# 1 58.6303 9.3960 12.2415 -0.0008 -23.1108 0.0005
# 2 9.3960 133.8625 34.4111 -0.0011 -12.4509 0.0008
# 3 12.2415 34.4111 76.4271 -0.0005 -12.1226 0.0005
# 4 -0.0008 -0.0011 -0.0005 31.7210 0.0008 -4.6403
# 5 -23.1108 -12.4509 -12.1226 0.0008 34.5381 -0.0007
# 6 0.0005 0.0008 0.0005 -4.6403 -0.0007 26.4985
#
#
#
# Elastic Compliance Matrix: (Units=1/GPa)
#
#
# Indices 1 2 3 4 5 6 
#
# 1 0.023296 0.000130 -0.001387 0.000000 0.015148 0.000000
# 2 0.000130 0.008557 -0.003569 0.000000 0.001919 0.000000
# 3 -0.001387 -0.003569 0.015421 0.000000 0.003198 0.000000
# 4 0.000000 0.000000 0.000000 0.032354 0.000000 0.005666
# 5 0.015148 0.001919 0.003198 0.000000 0.040904 0.000001
# 6 0.000000 0.000000 0.000000 0.005666 0.000001 0.038730
#
#
# Mechanical properties :
#
#
# Convention : Reuss Voigt Hill
#
# Bulk Modulus (GPa) = 26.58050 42.33523 34.45787
# Shear Modulus (GPa) = 27.55509 32.74295 30.14902
#
# Velocity S-wave (km/s) = 3.64499 3.97333 3.81270
# Velocity P-wave (km/s) = 5.52546 6.43911 5.99970
#
# Compressibility (1/GPa) = 0.03762156
#
# Stress axis : x y z
#
# Youngs Moduli (GPa) = 42.92607 116.85984 64.84737
#
# Poissons Ratio (x) = -0.01524 0.08996
# Poissons Ratio (y) = -0.00560 0.23146
# Poissons Ratio (z) = 0.05955 0.41711
#
# Static dielectric constant tensor:
#      x y z
#    x 3.612170 0.000000 -0.253420 
#    y 0.000000 3.812490 0.000000 
#    z -0.253420 0.000000 3.858180 
# 
# 
# High freq. dielectric constant tensor:
#      x y z
#    x 1.788550 0.000000 -0.029810 
#    y 0.000000 1.809520 0.000000 
#    z -0.029810 0.000000 1.816310 
# 
# From -- ./inp_files/42852.got.cif
#   From: 2010.03.12/outbox.cif.g09.slc.cpg/sg5_22_cif.got.tgz:42852.got - 2010.03.31 09:47:26.
