data_PCOD8048541
_publ_section_title
;
Structure prediction by ZEFSAII (Michael W. Deem and Ramdas Pophale) SiO2 
 PCOD8048541
Probable space group: C 2
;
_chemical_formula_sum "Si O2"
_cell_formula_units_Z 24
_cell_length_a 17.897836
_cell_length_b 8.897603
_cell_length_c 23.500492
_cell_angle_alpha 90.000000
_cell_angle_beta 19.275122
_cell_angle_gamma 90.000000
_cell_volume 1235.384156
_symmetry_space_group_name_H-M "C 2"
_symmetry_group_IT_number 5
_symmetry_cell_setting 'monoclinic'
loop_
_space_group_symop_operation_xyz
x,y,z
-x,y,-z
1/2+x,1/2+y,z
1/2-x,1/2+y,-z
loop_
_atom_site_type_symbol
_atom_site_label
_atom_site_fract_x
_atom_site_fract_y
_atom_site_fract_z
Si Si1 0.084338 0.354750 0.660262
Si Si2 0.258891 0.857158 0.654258
Si Si3 0.906837 0.679408 0.507878
Si Si4 0.769770 0.198963 0.149772
Si Si5 0.411624 0.377597 0.005223
Si Si6 0.621256 0.210211 0.642803
O O1 0.215676 0.288495 0.620117
O O2 0.169136 0.285169 0.540107
O O3 0.122149 0.532724 0.631245
O O4 0.820472 0.307397 0.852789
O O5 0.500000 0.789168 0.500000
O O6 0.137319 0.745245 0.697695
O O7 0.104837 0.866785 0.819892
O O8 0.293363 0.018436 0.600234
O O9 0.000000 0.748501 0.500000
O O10 0.118819 0.660845 0.313356
O O11 0.610669 0.281130 0.217434
O O12 0.000000 0.293766 0.000000
O O13 0.865164 0.050194 0.052033
O O14 0.500000 0.297081 0.000000
#
# Coordination Sequence:
#
# PCOD8048541 Si02
#       6
#     4   4   4   4   4   4
#     4  10  21  36  57  79 110 143 176 221 268 316
#     4  11  21  34  57  81 107 142 182 220 264 320
#     4  10  20  35  57  82 108 143 179 218 265 318
#     4   9  17  32  54  77 106 139 175 217 262 313
#     4  10  19  33  54  79 106 140 180 221 263 315
#     4  10  20  36  55  80 107 143 180 219 268 314
#
# _framework density 19.427157000000001
#
# number of rings (size 3 to 8) (size 9 to 14) (size 15 to 20)
#    0.000    2.000    0.000    8.000    0.000    4.667 
#    0.000    0.000    0.000   21.000    0.000    1.167 
#    0.000    0.000    0.000    0.000    0.000    0.000 
#
# Total GULP energy -148729.658631 kJ/mol
# GULP energy per Si atom -12394.138219 kJ/mol
# Density = 1.938294 g / cm^3
# Si number density = 19.427157 Si / 1000 Ang^3
#
#
#
# Elastic Constant Matrix: (Units=GPa)
#
#
# Indices 1 2 3 4 5 6 
#
# 1 165.1669 35.0439 85.5323 -0.0115 -5.0771 -0.0049
# 2 35.0439 48.9831 31.0987 0.0040 -3.0470 -0.0035
# 3 85.5323 31.0987 178.9162 0.0396 -5.3279 0.0105
# 4 -0.0115 0.0040 0.0396 19.8777 -0.0162 -0.3065
# 5 -5.0771 -3.0470 -5.3279 -0.0162 43.3764 -0.0017
# 6 -0.0049 -0.0035 0.0105 -0.3065 -0.0017 33.5263
#
#
#
# Elastic Compliance Matrix: (Units=1/GPa)
#
#
# Indices 1 2 3 4 5 6 
#
# 1 0.008705 -0.004015 -0.003454 0.000013 0.000313 0.000002
# 2 -0.004015 0.024855 -0.002371 -0.000002 0.000985 0.000003
# 3 -0.003454 -0.002371 0.007664 -0.000017 0.000370 -0.000003
# 4 0.000013 -0.000002 -0.000017 0.050315 0.000018 0.000460
# 5 0.000313 0.000985 0.000370 0.000018 0.023205 0.000001
# 6 0.000002 0.000003 -0.000003 0.000460 0.000001 0.029832
#
#
# Mechanical properties :
#
#
# Convention : Reuss Voigt Hill
#
# Bulk Modulus (GPa) = 46.42167 77.37954 61.90061
# Shear Modulus (GPa) = 29.16531 35.44884 32.30708
#
# Velocity S-wave (km/s) = 3.87882 4.27629 4.08240
# Velocity P-wave (km/s) = 6.63381 8.01868 7.35890
#
# Compressibility (1/GPa) = 0.02154166
#
# Stress axis : x y z
#
# Youngs Moduli (GPa) = 114.87981 40.23407 130.48511
#
# Poissons Ratio (x) = 0.16155 0.45072
# Poissons Ratio (y) = 0.46126 0.30942
# Poissons Ratio (z) = 0.39681 0.09541
#
# Static dielectric constant tensor:
#      x y z
#    x 4.119020 0.000000 -0.545770 
#    y 0.000000 3.121880 0.000050 
#    z -0.545770 0.000050 4.077320 
# 
# 
# High freq. dielectric constant tensor:
#      x y z
#    x 1.780170 0.000000 -0.013420 
#    y 0.000000 1.707350 0.000010 
#    z -0.013420 0.000010 1.771120 
# 
# From -- ./inp_files/69072.got.cif
#   From: 2010.03.12/outbox.cif.g09.slc.cpg/sg5_35_cif.got.tgz:69072.got - 2010.03.31 09:47:26.
