data_PCOD8048393
_publ_section_title
;
Structure prediction by ZEFSAII (Michael W. Deem and Ramdas Pophale) SiO2 
 PCOD8048393
Probable space group: C 2
;
_chemical_formula_sum "Si O2"
_cell_formula_units_Z 24
_cell_length_a 17.282063
_cell_length_b 9.118143
_cell_length_c 23.192634
_cell_angle_alpha 90.000000
_cell_angle_beta 159.941972
_cell_angle_gamma 90.000000
_cell_volume 1253.459496
_symmetry_space_group_name_H-M "C 2"
_symmetry_group_IT_number 5
_symmetry_cell_setting 'monoclinic'
loop_
_space_group_symop_operation_xyz
x,y,z
-x,y,-z
1/2+x,1/2+y,z
1/2-x,1/2+y,-z
loop_
_atom_site_type_symbol
_atom_site_label
_atom_site_fract_x
_atom_site_fract_y
_atom_site_fract_z
Si Si1 0.218729 0.718220 0.890647
Si Si2 0.089769 0.433020 0.125403
Si Si3 0.347686 0.177387 0.023205
Si Si4 0.958533 0.893053 0.616517
Si Si5 0.054076 0.188110 0.334123
Si Si6 0.801746 0.908353 0.904655
O O1 0.138004 0.695609 0.898970
O O2 0.194047 0.564687 0.841551
O O3 0.057877 0.831976 0.745764
O O4 0.473747 0.781211 0.064800
O O5 0.357320 0.404363 0.306059
O O6 0.033370 0.558538 0.132557
O O7 0.000000 0.486623 0.000000
O O8 0.402906 0.336286 0.034090
O O9 0.094910 0.128923 0.824736
O O10 0.764153 0.784089 0.457944
O O11 0.867956 0.056120 0.569372
O O12 0.891605 0.300144 0.256466
O O13 0.000000 0.931667 0.000000
#
# Coordination Sequence:
#
# PCOD8048393 Si02
#       6
#     4   4   4   4   4   4
#     4  11  20  33  60  89 114 145 198 242 287 335
#     4  10  18  37  60  84 111 160 196 233 275 360
#     4  10  20  36  58  87 112 148 197 240 282 339
#     4  11  21  38  59  85 117 156 195 239 290 349
#     4  10  22  35  60  83 118 149 199 235 295 337
#     4  10  19  33  58  85 110 148 196 234 277 347
#
# _framework density 19.147008
#
# number of rings (size 3 to 8) (size 9 to 14) (size 15 to 20)
#    1.000    0.667    3.333    5.000    0.000    0.000 
#    0.000    0.833    0.000    3.000    0.000    0.000 
#    0.000    0.000    0.000    0.000    0.000    0.000 
#
# Total GULP energy -148703.784727 kJ/mol
# GULP energy per Si atom -12391.982061 kJ/mol
# Density = 1.910343 g / cm^3
# Si number density = 19.147008 Si / 1000 Ang^3
#
#
#
# Elastic Constant Matrix: (Units=GPa)
#
#
# Indices 1 2 3 4 5 6 
#
# 1 130.3470 31.7666 -10.2652 -0.0061 -7.1900 0.0448
# 2 31.7666 122.2422 27.4074 0.0046 15.2385 0.0181
# 3 -10.2652 27.4074 173.5578 -0.0058 80.2825 -0.0707
# 4 -0.0061 0.0046 -0.0058 24.3455 0.0055 2.9099
# 5 -7.1900 15.2385 80.2825 0.0055 56.3049 -0.0957
# 6 0.0448 0.0181 -0.0707 2.9099 -0.0957 13.6510
#
#
#
# Elastic Compliance Matrix: (Units=1/GPa)
#
#
# Indices 1 2 3 4 5 6 
#
# 1 0.008350 -0.002394 0.000232 0.000004 0.001383 -0.000014
# 2 -0.002394 0.009192 -0.000884 0.000000 -0.001533 -0.000020
# 3 0.000232 -0.000884 0.017009 0.000020 -0.023984 -0.000084
# 4 0.000004 0.000000 0.000020 0.042149 -0.000047 -0.008985
# 5 0.001383 -0.001533 -0.023984 -0.000047 0.052550 0.000252
# 6 -0.000014 -0.000020 -0.000084 -0.008985 0.000252 0.075171
#
#
# Mechanical properties :
#
#
# Convention : Reuss Voigt Hill
#
# Bulk Modulus (GPa) = 35.13879 58.21830 46.67854
# Shear Modulus (GPa) = 22.72716 44.00949 33.36833
#
# Velocity S-wave (km/s) = 3.44900 4.79947 4.17915
# Velocity P-wave (km/s) = 5.85258 7.82210 6.90789
#
# Compressibility (1/GPa) = 0.02845858
#
# Stress axis : x y z
#
# Youngs Moduli (GPa) = 119.76135 108.79018 58.79107
#
# Poissons Ratio (x) = 0.26048 -0.01364
# Poissons Ratio (y) = 0.28675 0.05198
# Poissons Ratio (z) = -0.02779 0.09618
#
# Static dielectric constant tensor:
#      x y z
#    x 3.327520 0.000240 0.214230 
#    y 0.000240 3.432280 -0.000330 
#    z 0.214230 -0.000330 3.416490 
# 
# 
# High freq. dielectric constant tensor:
#      x y z
#    x 1.717120 0.000000 0.025220 
#    y 0.000000 1.764430 0.000000 
#    z 0.025220 0.000000 1.717460 
# 
# From -- ./inp_files/43919.got.cif
#   From: 2010.03.12/outbox.cif.g09.slc.cpg/sg5_22_cif.got.tgz:43919.got - 2010.03.31 09:47:26.
