data_PCOD8048163
_publ_section_title
;
Structure prediction by ZEFSAII (Michael W. Deem and Ramdas Pophale) SiO2 
 PCOD8048163
Probable space group: C 2
;
_chemical_formula_sum "Si O2"
_cell_formula_units_Z 30
_cell_length_a 8.709541
_cell_length_b 19.243822
_cell_length_c 15.708852
_cell_angle_alpha 90.000000
_cell_angle_beta 35.814102
_cell_angle_gamma 90.000000
_cell_volume 1540.648838
_symmetry_space_group_name_H-M "C 2"
_symmetry_group_IT_number 5
_symmetry_cell_setting 'monoclinic'
loop_
_space_group_symop_operation_xyz
x,y,z
-x,y,-z
1/2+x,1/2+y,z
1/2-x,1/2+y,-z
loop_
_atom_site_type_symbol
_atom_site_label
_atom_site_fract_x
_atom_site_fract_y
_atom_site_fract_z
Si Si1 0.241072 0.529650 0.495986
Si Si2 0.602920 0.805970 0.691426
Si Si3 0.284582 0.621632 0.910846
Si Si4 0.000000 0.926757 0.500000
Si Si5 0.167621 0.002399 0.742645
Si Si6 0.626779 0.755050 0.035663
Si Si7 0.068460 0.862672 0.875634
Si Si8 0.774992 0.165700 0.414877
O O1 0.446775 0.478454 0.446554
O O2 0.283139 0.512106 0.378612
O O3 0.311400 0.612548 0.478632
O O4 0.946377 0.517108 0.663717
O O5 0.581687 0.776063 0.797055
O O6 0.748403 0.749397 0.562992
O O7 0.752881 0.878499 0.630736
O O8 0.331666 0.818630 0.765828
O O9 0.432555 0.553031 0.879960
O O10 0.253769 0.678320 0.999941
O O11 0.468843 0.657120 0.758115
O O12 0.000000 0.602244 0.000000
O O13 0.085284 0.924369 0.800694
O O14 0.500000 0.755125 0.000000
O O15 0.856618 0.810749 0.933084
O O16 0.000000 0.892522 0.000000
O O17 0.500000 0.137571 0.500000
#
# Coordination Sequence:
#
# PCOD8048163 Si02
#       8
#     4   4   4   2   4   4   4   4
#     4  10  21  38  61  90 120 160 202 264 311 367
#     4  10  21  37  64  89 118 168 205 246 315 381
#     4  10  20  38  61  87 116 163 204 251 309 372
#     4  12  22  36  64  92 124 152 210 270 310 360
#     4  10  20  39  63  82 120 164 204 245 313 374
#     4  10  22  38  59  88 124 156 203 257 305 364
#     4  10  21  40  58  85 126 161 198 253 311 364
#     4  10  17  37  64  82 115 165 206 240 306 377
#
# _framework density 19.472315999999999
#
# number of rings (size 3 to 8) (size 9 to 14) (size 15 to 20)
#    0.000    1.867    4.667    2.000    1.867    1.067 
#    7.200    4.000    2.933    0.000    0.000    0.000 
#    0.000    0.000    0.000    0.000    0.000    0.000 
#
# Total GULP energy -185832.764854 kJ/mol
# GULP energy per Si atom -12388.850990 kJ/mol
# Density = 1.942800 g / cm^3
# Si number density = 19.472316 Si / 1000 Ang^3
#
#
#
# Elastic Constant Matrix: (Units=GPa)
#
#
# Indices 1 2 3 4 5 6 
#
# 1 80.9845 56.8586 29.6912 0.0001 -9.8561 0.0152
# 2 56.8586 166.1910 44.5178 -0.0003 -2.5346 0.0318
# 3 29.6912 44.5178 78.6535 0.0105 -17.3555 0.0767
# 4 0.0001 -0.0003 0.0105 36.0603 0.0011 -0.7777
# 5 -9.8561 -2.5346 -17.3555 0.0011 17.5942 -0.0232
# 6 0.0152 0.0318 0.0767 -0.7777 -0.0232 21.8976
#
#
#
# Elastic Compliance Matrix: (Units=1/GPa)
#
#
# Indices 1 2 3 4 5 6 
#
# 1 0.017781 -0.005420 -0.002069 0.000001 0.007139 0.000010
# 2 -0.005420 0.008944 -0.004349 0.000002 -0.006037 0.000000
# 3 -0.002069 -0.004349 0.019892 -0.000007 0.017837 -0.000043
# 4 0.000001 0.000002 -0.000007 0.027753 -0.000007 0.000986
# 5 0.007139 -0.006037 0.017837 -0.000007 0.077561 0.000023
# 6 0.000010 0.000000 -0.000043 0.000986 0.000023 0.045702
#
#
# Mechanical properties :
#
#
# Convention : Reuss Voigt Hill
#
# Bulk Modulus (GPa) = 43.58888 65.32938 54.45913
# Shear Modulus (GPa) = 21.83821 28.09452 24.96636
#
# Velocity S-wave (km/s) = 3.35251 3.80253 3.58459
# Velocity P-wave (km/s) = 6.11714 7.27336 6.72016
#
# Compressibility (1/GPa) = 0.02294163
#
# Stress axis : x y z
#
# Youngs Moduli (GPa) = 56.23993 111.80207 50.27078
#
# Poissons Ratio (x) = 0.60599 0.10402
# Poissons Ratio (y) = 0.30483 0.21861
# Poissons Ratio (z) = 0.11637 0.48618
#
# Static dielectric constant tensor:
#      x y z
#    x 3.345070 -0.000030 -0.246230 
#    y -0.000030 3.948200 0.000040 
#    z -0.246230 0.000040 3.611430 
# 
# 
# High freq. dielectric constant tensor:
#      x y z
#    x 1.724210 0.000000 -0.026890 
#    y 0.000000 1.781890 0.000000 
#    z -0.026890 0.000000 1.753980 
# 
# From -- ./inp_files/59897.got.cif
#   From: 2010.03.12/outbox.cif.g09.slc.cpg/sg5_30_cif.got.tgz:59897.got - 2010.03.31 09:47:26.
