data_PCOD8048143
_publ_section_title
;
Structure prediction by ZEFSAII (Michael W. Deem and Ramdas Pophale) SiO2 
 PCOD8048143
Probable space group: C 2
;
_chemical_formula_sum "Si O2"
_cell_formula_units_Z 32
_cell_length_a 19.989793
_cell_length_b 14.427645
_cell_length_c 15.097552
_cell_angle_alpha 90.000000
_cell_angle_beta 160.762726
_cell_angle_gamma 90.000000
_cell_volume 1434.632224
_symmetry_space_group_name_H-M "C 2"
_symmetry_group_IT_number 5
_symmetry_cell_setting 'monoclinic'
loop_
_space_group_symop_operation_xyz
x,y,z
-x,y,-z
1/2+x,1/2+y,z
1/2-x,1/2+y,-z
loop_
_atom_site_type_symbol
_atom_site_label
_atom_site_fract_x
_atom_site_fract_y
_atom_site_fract_z
Si Si1 0.573940 0.841140 0.302699
Si Si2 0.736468 0.732746 0.775804
Si Si3 0.136672 0.953163 0.441295
Si Si4 0.158640 0.657233 0.912724
Si Si5 0.128027 0.154254 0.462045
Si Si6 0.555364 0.980448 0.428057
Si Si7 0.899095 0.833099 0.279450
Si Si8 0.202354 0.935554 0.113852
O O1 0.685551 0.877916 0.353770
O O2 0.638995 0.734024 0.400392
O O3 0.646115 0.904951 0.474573
O O4 0.334133 0.856163 0.991864
O O5 0.500000 0.740887 0.500000
O O6 0.760511 0.685154 0.711456
O O7 0.832179 0.833925 0.890059
O O8 0.858969 0.676498 0.004396
O O9 0.007095 0.919779 0.364923
O O10 0.231141 0.055679 0.569406
O O11 0.005525 0.968281 0.188404
O O12 0.010551 0.573264 0.703990
O O13 0.082920 0.745192 0.762350
O O14 0.391053 0.632791 0.182652
O O15 0.368114 0.930670 0.242800
O O16 0.726516 0.003358 0.716993
O O17 0.000000 0.812105 0.500000
#
# Coordination Sequence:
#
# PCOD8048143 Si02
#       8
#     4   4   4   4   4   4   4   4
#     4  11  24  44  68  98 138 176 226 283 339 402
#     4  10  17  35  65  96 134 172 227 279 331 392
#     4  12  25  43  70  98 140 176 231 282 340 405
#     4  10  20  36  68 103 132 179 228 277 340 407
#     4  10  21  40  64 101 135 176 224 289 332 404
#     4  11  20  36  66  99 136 173 225 277 336 396
#     4  11  25  44  67  95 135 185 226 274 346 409
#     4  11  19  38  67  98 132 178 227 278 328 402
#
# _framework density 22.305367
#
# number of rings (size 3 to 8) (size 9 to 14) (size 15 to 20)
#    0.000    1.250    6.250    0.750    1.750    4.500 
#    0.000    0.000    0.000    3.000    0.000    0.000 
#    0.000    0.000    0.000    0.000    0.000    0.000 
#
# Total GULP energy -198367.431058 kJ/mol
# GULP energy per Si atom -12397.964441 kJ/mol
# Density = 2.225460 g / cm^3
# Si number density = 22.305367 Si / 1000 Ang^3
#
#
#
# Elastic Constant Matrix: (Units=GPa)
#
#
# Indices 1 2 3 4 5 6 
#
# 1 73.7494 45.1101 44.9997 -0.0034 -13.6452 -0.0029
# 2 45.1101 154.9814 34.3787 -0.0037 -13.5778 -0.0032
# 3 44.9997 34.3787 77.2245 -0.0054 -25.4703 -0.0049
# 4 -0.0034 -0.0037 -0.0054 34.8850 -0.0030 -8.4229
# 5 -13.6452 -13.5778 -25.4703 -0.0030 34.4417 -0.0023
# 6 -0.0029 -0.0032 -0.0049 -8.4229 -0.0023 29.8825
#
#
#
# Elastic Compliance Matrix: (Units=1/GPa)
#
#
# Indices 1 2 3 4 5 6 
#
# 1 0.023295 -0.004205 -0.012175 0.000000 -0.001432 0.000000
# 2 -0.004205 0.007928 -0.000790 0.000001 0.000875 0.000001
# 3 -0.012175 -0.000790 0.024735 0.000005 0.013157 0.000005
# 4 0.000000 0.000001 0.000005 0.030759 0.000007 0.008670
# 5 -0.001432 0.000875 0.013157 0.000007 0.038542 0.000007
# 6 0.000000 0.000001 0.000005 0.008670 0.000007 0.035908
#
#
# Mechanical properties :
#
#
# Convention : Reuss Voigt Hill
#
# Bulk Modulus (GPa) = 46.25848 61.65917 53.95882
# Shear Modulus (GPa) = 24.66520 31.93964 28.30242
#
# Velocity S-wave (km/s) = 3.32896 3.78819 3.56597
# Velocity P-wave (km/s) = 5.96320 6.84376 6.41859
#
# Compressibility (1/GPa) = 0.02161766
#
# Stress axis : x y z
#
# Youngs Moduli (GPa) = 42.92692 126.12831 40.42860
#
# Poissons Ratio (x) = 0.53041 0.49221
# Poissons Ratio (y) = 0.18052 0.03196
# Poissons Ratio (z) = 0.52262 0.09970
#
# Static dielectric constant tensor:
#      x y z
#    x 3.999120 0.000000 -0.243440 
#    y 0.000000 3.950620 0.000000 
#    z -0.243440 0.000000 4.150450 
# 
# 
# High freq. dielectric constant tensor:
#      x y z
#    x 1.863700 0.000000 -0.012370 
#    y 0.000000 1.875260 0.000000 
#    z -0.012370 0.000000 1.874940 
# 
# From -- ./inp_files/57198.got.cif
#   From: 2010.03.12/outbox.cif.g09.slc.cpg/sg5_29_cif.got.tgz:57198.got - 2010.03.31 09:47:26.
