data_PCOD8048955
_publ_section_title
;
Structure prediction by ZEFSAII (Michael W. Deem and Ramdas Pophale) SiO2 
 PCOD8048955
Probable space group: C 2
;
_chemical_formula_sum "Si O2"
_cell_formula_units_Z 32
_cell_length_a 21.316859
_cell_length_b 9.638249
_cell_length_c 19.013475
_cell_angle_alpha 90.000000
_cell_angle_beta 26.881200
_cell_angle_gamma 90.000000
_cell_volume 1766.272745
_symmetry_space_group_name_H-M "C 2"
_symmetry_group_IT_number 5
_symmetry_cell_setting 'monoclinic'
loop_
_space_group_symop_operation_xyz
x,y,z
-x,y,-z
1/2+x,1/2+y,z
1/2-x,1/2+y,-z
loop_
_atom_site_type_symbol
_atom_site_label
_atom_site_fract_x
_atom_site_fract_y
_atom_site_fract_z
Si Si1 0.096737 0.657530 0.186146
Si Si2 0.096737 0.307671 0.620379
Si Si3 0.492803 0.257605 0.430965
Si Si4 0.325070 0.885863 0.957813
Si Si5 0.492804 0.707595 0.583428
Si Si6 0.825070 0.579337 0.392046
Si Si7 0.224995 0.975404 0.351236
Si Si8 0.724995 0.489797 0.198773
O O1 0.182277 0.515598 0.088863
O O2 0.036120 0.652620 0.325918
O O3 0.967002 0.664877 0.261857
O O4 0.191298 0.791302 0.077797
O O5 0.182277 0.449602 0.546582
O O6 0.191298 0.173899 0.539607
O O7 0.967002 0.300323 0.804138
O O8 0.036121 0.312580 0.601841
O O9 0.500000 0.180691 0.500000
O O10 0.339686 0.322286 0.568614
O O11 0.599599 0.383001 0.327898
O O12 0.329980 0.946480 0.032058
O O13 0.500000 0.784507 0.500000
O O14 0.599598 0.582198 0.472907
O O15 0.339686 0.642914 0.752015
O O16 0.829980 0.518720 0.307982
O O17 0.301908 0.982601 0.198092
#
# Coordination Sequence:
#
# PCOD8048955 Si02
#       8
#     4   4   4   4   4   4   4   4
#     4  10  20  33  50  75 104 132 164 202 248 298
#     4  10  20  33  50  75 104 132 164 202 248 298
#     4   8  14  27  49  74  98 128 168 209 243 281
#     4  10  20  33  50  75 104 132 164 202 248 298
#     4   8  14  27  49  74  98 128 168 209 243 281
#     4  10  20  33  50  75 104 132 164 202 248 298
#     4   8  14  27  49  74  98 128 168 209 243 281
#     4   8  14  27  49  74  98 128 168 209 243 281
#
# _framework density 18.117246000000002
#
# number of rings (size 3 to 8) (size 9 to 14) (size 15 to 20)
#    0.000    3.000    0.000    3.000    0.000    3.000 
#    0.000    5.000    0.000    0.000    0.000    3.500 
#    0.000   44.000    0.000    0.000    0.000    0.000 
#
# Total GULP energy -198249.898844 kJ/mol
# GULP energy per Si atom -12390.618678 kJ/mol
# Density = 1.807601 g / cm^3
# Si number density = 18.117246 Si / 1000 Ang^3
#
#
#
# Elastic Constant Matrix: (Units=GPa)
#
#
# Indices 1 2 3 4 5 6 
#
# 1 140.9783 61.0183 70.8281 0.0002 20.3346 -0.0001
# 2 61.0183 78.2417 46.6858 0.0004 12.9757 -0.0002
# 3 70.8281 46.6858 98.6830 0.0003 17.9561 -0.0002
# 4 0.0002 0.0004 0.0003 31.7969 -0.0002 -4.6928
# 5 20.3346 12.9757 17.9561 -0.0002 25.9974 0.0001
# 6 -0.0001 -0.0002 -0.0002 -4.6928 0.0001 26.6135
#
#
#
# Elastic Compliance Matrix: (Units=1/GPa)
#
#
# Indices 1 2 3 4 5 6 
#
# 1 0.013257 -0.006246 -0.005994 0.000000 -0.003112 0.000000
# 2 -0.006246 0.021035 -0.005086 0.000000 -0.002100 0.000000
# 3 -0.005994 -0.005086 0.017758 0.000000 -0.005039 0.000000
# 4 0.000000 0.000000 0.000000 0.032290 0.000000 0.005694
# 5 -0.003112 -0.002100 -0.005039 0.000000 0.045428 0.000000
# 6 0.000000 0.000000 0.000000 0.005694 0.000000 0.038579
#
#
# Mechanical properties :
#
#
# Convention : Reuss Voigt Hill
#
# Bulk Modulus (GPa) = 57.47674 74.99637 66.23656
# Shear Modulus (GPa) = 23.94643 26.17294 25.05969
#
# Velocity S-wave (km/s) = 3.63953 3.80497 3.72317
# Velocity P-wave (km/s) = 7.03245 7.79670 7.42442
#
# Compressibility (1/GPa) = 0.01739834
#
# Stress axis : x y z
#
# Youngs Moduli (GPa) = 75.43247 47.53889 56.31129
#
# Poissons Ratio (x) = 0.29694 0.33751
# Poissons Ratio (y) = 0.47117 0.28642
# Poissons Ratio (z) = 0.45212 0.24180
#
# Static dielectric constant tensor:
#      x y z
#    x 3.749910 0.000000 0.335340 
#    y 0.000000 3.181600 0.000000 
#    z 0.335340 0.000000 3.379480 
# 
# 
# High freq. dielectric constant tensor:
#      x y z
#    x 1.703670 0.000000 0.015320 
#    y 0.000000 1.677710 0.000000 
#    z 0.015320 0.000000 1.686750 
# 
# From -- ./inp_files/62840.got.cif
#   From: 2010.03.12/outbox.cif.g09.slc.cpg/sg5_32_cif.got.tgz:62840.got - 2010.03.31 09:47:26.
