data_PCOD8048291
_publ_section_title
;
Structure prediction by ZEFSAII (Michael W. Deem and Ramdas Pophale) SiO2 
 PCOD8048291
Probable space group: C 2
;
_chemical_formula_sum "Si O2"
_cell_formula_units_Z 32
_cell_length_a 28.790298
_cell_length_b 13.213099
_cell_length_c 9.887452
_cell_angle_alpha 90.000000
_cell_angle_beta 27.571544
_cell_angle_gamma 90.000000
_cell_volume 1740.928716
_symmetry_space_group_name_H-M "C 2"
_symmetry_group_IT_number 5
_symmetry_cell_setting 'monoclinic'
loop_
_space_group_symop_operation_xyz
x,y,z
-x,y,-z
1/2+x,1/2+y,z
1/2-x,1/2+y,-z
loop_
_atom_site_type_symbol
_atom_site_label
_atom_site_fract_x
_atom_site_fract_y
_atom_site_fract_z
Si Si1 0.755478 0.191050 0.533369
Si Si2 0.403788 0.877346 0.155266
Si Si3 0.574963 0.383643 0.195250
Si Si4 0.031452 0.769698 0.066635
Si Si5 0.346472 0.161323 0.948167
Si Si6 0.749461 0.031757 0.332145
Si Si7 0.980611 0.472130 0.692420
Si Si8 0.132074 0.615112 0.402050
O O1 0.834014 0.280628 0.326675
O O2 0.749956 0.153457 0.703961
O O3 0.793828 0.100072 0.338854
O O4 0.644702 0.226181 0.771952
O O5 0.348028 0.972901 0.363622
O O6 0.500000 0.853664 0.000000
O O7 0.425315 0.901302 0.942320
O O8 0.500000 0.431165 0.500000
O O9 0.523649 0.370326 0.180286
O O10 0.603500 0.270691 0.165670
O O11 0.669875 0.455409 0.936160
O O12 0.956097 0.685844 0.316222
O O13 0.000000 0.805303 0.000000
O O14 0.315416 0.153661 0.871533
O O15 0.423078 0.074665 0.797356
O O16 0.717914 0.106241 0.292503
O O17 0.000000 0.412088 0.500000
O O18 0.084744 0.504804 0.494376
#
# Coordination Sequence:
#
# PCOD8048291 Si02
#       8
#     4   4   4   4   4   4   4   4
#     4  11  23  38  58  93 126 158 196 254 311 352
#     4  12  23  39  63  91 124 163 205 249 301 372
#     4  11  21  40  61  88 125 164 195 245 316 368
#     4  11  19  34  61  91 118 147 202 263 300 337
#     4  10  18  34  60  89 121 148 196 260 307 339
#     4  12  23  38  64  94 119 159 213 248 300 363
#     4  10  19  33  58  91 120 151 196 259 305 342
#     4  11  19  33  59  95 115 146 205 261 293 346
#
# _framework density 18.380994000000001
#
# number of rings (size 3 to 8) (size 9 to 14) (size 15 to 20)
#    0.000    1.000   10.000    0.375    0.000    0.000 
#    0.000   10.000    0.000    0.000    0.000    0.000 
#    0.000    0.000    0.000    0.000    0.000    0.000 
#
# Total GULP energy -198313.729367 kJ/mol
# GULP energy per Si atom -12394.608085 kJ/mol
# Density = 1.833916 g / cm^3
# Si number density = 18.380994 Si / 1000 Ang^3
#
#
#
# Elastic Constant Matrix: (Units=GPa)
#
#
# Indices 1 2 3 4 5 6 
#
# 1 116.8603 47.5798 70.8021 0.0000 24.3723 0.0000
# 2 47.5798 65.0280 42.8754 0.0000 2.5842 0.0000
# 3 70.8021 42.8754 111.3379 0.0000 27.6726 0.0000
# 4 0.0000 0.0000 0.0000 27.8003 0.0000 -2.4808
# 5 24.3723 2.5842 27.6726 0.0000 32.4064 0.0000
# 6 0.0000 0.0000 0.0000 -2.4808 0.0000 23.1403
#
#
#
# Elastic Compliance Matrix: (Units=1/GPa)
#
#
# Indices 1 2 3 4 5 6 
#
# 1 0.016930 -0.008271 -0.005814 0.000000 -0.007108 0.000000
# 2 -0.008271 0.025797 -0.007247 0.000000 0.010352 0.000000
# 3 -0.005814 -0.007247 0.018076 0.000000 -0.010485 0.000000
# 4 0.000000 0.000000 0.000000 0.036318 0.000000 0.003894
# 5 -0.007108 0.010352 -0.010485 0.000000 0.044332 0.000000
# 6 0.000000 0.000000 0.000000 0.003894 0.000000 0.043632
#
#
# Mechanical properties :
#
#
# Convention : Reuss Voigt Hill
#
# Bulk Modulus (GPa) = 55.13537 68.41565 61.77551
# Shear Modulus (GPa) = 21.38609 25.46733 23.42671
#
# Velocity S-wave (km/s) = 3.41470 3.72630 3.57390
# Velocity P-wave (km/s) = 6.75336 7.47097 7.12121
#
# Compressibility (1/GPa) = 0.01813718
#
# Stress axis : x y z
#
# Youngs Moduli (GPa) = 59.06632 38.76404 55.32249
#
# Poissons Ratio (x) = 0.32064 0.32165
# Poissons Ratio (y) = 0.48857 0.40094
# Poissons Ratio (z) = 0.34342 0.28093
#
# Static dielectric constant tensor:
#      x y z
#    x 3.742110 0.000000 0.523010 
#    y 0.000000 3.129880 0.000000 
#    z 0.523010 0.000000 3.584040 
# 
# 
# High freq. dielectric constant tensor:
#      x y z
#    x 1.715110 0.000000 0.032340 
#    y 0.000000 1.683790 0.000000 
#    z 0.032340 0.000000 1.710450 
# 
# From -- ./inp_files/31957.got.cif
#   From: 2010.03.12/outbox.cif.g09.slc.cpg/sg5_16_cif.got.tgz:31957.got - 2010.03.31 09:47:26.
