data_PCOD8048637
_publ_section_title
;
Structure prediction by ZEFSAII (Michael W. Deem and Ramdas Pophale) SiO2 
 PCOD8048637
Probable space group: C 2
;
_chemical_formula_sum "Si O2"
_cell_formula_units_Z 24
_cell_length_a 16.481623
_cell_length_b 9.761493
_cell_length_c 22.482361
_cell_angle_alpha 90.000000
_cell_angle_beta 18.498421
_cell_angle_gamma 90.000000
_cell_volume 1147.621863
_symmetry_space_group_name_H-M "C 2"
_symmetry_group_IT_number 5
_symmetry_cell_setting 'monoclinic'
loop_
_space_group_symop_operation_xyz
x,y,z
-x,y,-z
1/2+x,1/2+y,z
1/2-x,1/2+y,-z
loop_
_atom_site_type_symbol
_atom_site_label
_atom_site_fract_x
_atom_site_fract_y
_atom_site_fract_z
Si Si1 0.397193 0.258400 0.007772
Si Si2 0.768685 0.577316 0.287478
Si Si3 0.658134 0.158893 0.445510
Si Si4 0.774982 0.844003 0.781695
Si Si5 0.587384 0.884959 0.127612
Si Si6 0.424455 0.484528 0.789851
O O1 0.232753 0.377212 0.090084
O O2 0.243624 0.115669 0.113141
O O3 0.500000 0.307785 0.000000
O O4 0.647417 0.224858 0.795112
O O5 0.500000 0.606677 0.500000
O O6 0.779703 0.458764 0.229944
O O7 0.943193 0.530199 0.222374
O O8 0.500000 0.100211 0.500000
O O9 0.444707 0.222467 0.637178
O O10 0.875470 0.264509 0.270371
O O11 0.797845 0.032725 0.380691
O O12 0.959137 0.899754 0.705616
O O13 0.500000 0.795729 0.000000
O O14 0.790940 0.885609 0.931710
#
# Coordination Sequence:
#
# PCOD8048637 Si02
#       6
#     4   4   4   4   4   4
#     4  10  19  35  60  87 115 152 190 240 298 345
#     4  11  18  35  59  88 113 150 199 241 276 351
#     4  11  21  38  61  86 114 158 198 239 296 352
#     4  12  18  37  62  86 116 156 198 248 280 345
#     4  10  19  37  59  84 113 157 188 241 292 347
#     4  10  21  37  59  86 119 151 196 244 293 347
#
# _framework density 20.912811999999999
#
# number of rings (size 3 to 8) (size 9 to 14) (size 15 to 20)
#    0.000    1.333    8.333    0.000    0.000    0.000 
#    3.000    5.833    0.000    0.000    0.000    0.000 
#    0.000    0.000    0.000    0.000    0.000    0.000 
#
# Total GULP energy -148671.435494 kJ/mol
# GULP energy per Si atom -12389.286291 kJ/mol
# Density = 2.086521 g / cm^3
# Si number density = 20.912812 Si / 1000 Ang^3
#
#
#
# Elastic Constant Matrix: (Units=GPa)
#
#
# Indices 1 2 3 4 5 6 
#
# 1 178.3016 43.9526 61.4541 -0.3118 -29.7506 0.2801
# 2 43.9526 35.5445 38.2478 0.3892 -4.0266 0.0165
# 3 61.4541 38.2478 144.6822 0.9732 -8.1404 -0.4726
# 4 -0.3118 0.3892 0.9732 39.7361 0.0993 -22.3292
# 5 -29.7506 -4.0266 -8.1404 0.0993 25.7816 -0.0515
# 6 0.2801 0.0165 -0.4726 -22.3292 -0.0515 33.6630
#
#
#
# Elastic Compliance Matrix: (Units=1/GPa)
#
#
# Indices 1 2 3 4 5 6 
#
# 1 0.010137 -0.010325 -0.001028 0.000219 0.009759 0.000066
# 2 -0.010325 0.050055 -0.009239 -0.000593 -0.007013 -0.000472
# 3 -0.001028 -0.009239 0.009818 -0.000118 0.000471 0.000073
# 4 0.000219 -0.000593 -0.000118 0.040134 0.000021 0.026619
# 5 0.009759 -0.007013 0.000471 0.000021 0.049103 0.000018
# 6 0.000066 -0.000472 0.000073 0.026619 0.000018 0.047364
#
#
# Mechanical properties :
#
#
# Convention : Reuss Voigt Hill
#
# Bulk Modulus (GPa) = 34.69119 71.75968 53.22544
# Shear Modulus (GPa) = 19.42471 34.16104 26.79288
#
# Velocity S-wave (km/s) = 3.05100 4.04604 3.58323
# Velocity P-wave (km/s) = 5.38850 7.49770 6.52884
#
# Compressibility (1/GPa) = 0.02882576
#
# Stress axis : x y z
#
# Youngs Moduli (GPa) = 98.65097 19.97797 101.84965
#
# Poissons Ratio (x) = 0.20627 0.10473
# Poissons Ratio (y) = 1.01857 0.94099
# Poissons Ratio (z) = 0.10144 0.18458
#
# Static dielectric constant tensor:
#      x y z
#    x 4.055840 0.000040 -0.123530 
#    y 0.000040 3.364830 0.000040 
#    z -0.123530 0.000040 3.692310 
# 
# 
# High freq. dielectric constant tensor:
#      x y z
#    x 1.830900 0.000000 -0.009250 
#    y 0.000000 1.766500 0.000030 
#    z -0.009250 0.000030 1.827250 
# 
# From -- ./inp_files/23462.got.cif
#   From: 2010.03.12/outbox.cif.g09.slc.cpg/sg5_12_cif.got.tgz:23462.got - 2010.03.31 09:47:26.
