data_PCOD8048848
_publ_section_title
;
Structure prediction by ZEFSAII (Michael W. Deem and Ramdas Pophale) SiO2 
 PCOD8048848
Probable space group: C 2
;
_chemical_formula_sum "Si O2"
_cell_formula_units_Z 26
_cell_length_a 11.292470
_cell_length_b 8.334157
_cell_length_c 25.738762
_cell_angle_alpha 90.000000
_cell_angle_beta 149.785389
_cell_angle_gamma 90.000000
_cell_volume 1219.028094
_symmetry_space_group_name_H-M "C 2"
_symmetry_group_IT_number 5
_symmetry_cell_setting 'monoclinic'
loop_
_space_group_symop_operation_xyz
x,y,z
-x,y,-z
1/2+x,1/2+y,z
1/2-x,1/2+y,-z
loop_
_atom_site_type_symbol
_atom_site_label
_atom_site_fract_x
_atom_site_fract_y
_atom_site_fract_z
Si Si1 0.335950 0.394710 0.391626
Si Si2 0.839838 0.379459 0.249525
Si Si3 0.140706 0.553116 0.638382
Si Si4 0.500000 0.841020 0.500000
Si Si5 0.800644 0.542879 0.759551
Si Si6 0.242128 0.074766 0.118321
Si Si7 0.993096 0.845020 0.719331
O O1 0.500000 0.457899 0.500000
O O2 0.428708 0.237573 0.396713
O O3 0.317041 0.538711 0.342734
O O4 0.093138 0.336501 0.323875
O O5 0.870467 0.516678 0.304699
O O6 0.719027 0.221396 0.225989
O O7 0.685837 0.449484 0.143358
O O8 0.400905 0.501638 0.715887
O O9 0.951406 0.451160 0.532927
O O10 0.756742 0.753272 0.605252
O O11 0.682825 0.405838 0.749572
O O12 0.078386 0.501030 0.856848
O O13 0.373256 0.229325 0.190972
O O14 0.000000 0.126131 0.000000
#
# Coordination Sequence:
#
# PCOD8048848 Si02
#       7
#     4   4   4   2   4   4   4
#     4  11  23  36  60  98 130 179 213 253 325 401
#     4  11  23  42  62  92 132 170 216 280 318 387
#     4  10  19  39  64  93 139 171 207 259 324 395
#     4   8  18  34  66 102 136 172 206 258 322 410
#     4  11  23  43  64  95 132 168 226 267 330 397
#     4  11  26  47  67  94 128 173 234 283 334 383
#     4  10  20  41  69  96 134 174 214 268 330 400
#
# _framework density 21.328467
#
# number of rings (size 3 to 8) (size 9 to 14) (size 15 to 20)
#    0.923    0.615    3.846    0.923    2.154    1.231 
#   12.462    0.769    0.000    0.000    0.000    0.000 
#    0.000    0.000    0.000    0.000    0.000    0.000 
#
# Total GULP energy -161067.321643 kJ/mol
# GULP energy per Si atom -12389.793973 kJ/mol
# Density = 2.127992 g / cm^3
# Si number density = 21.328467 Si / 1000 Ang^3
#
#
#
# Elastic Constant Matrix: (Units=GPa)
#
#
# Indices 1 2 3 4 5 6 
#
# 1 95.6295 27.6846 36.8257 0.0000 -4.1229 0.0000
# 2 27.6846 56.8833 42.2743 0.0000 -5.3502 0.0000
# 3 36.8257 42.2743 159.5391 0.0001 -1.7829 -0.0002
# 4 0.0000 0.0000 0.0001 23.1216 -0.0001 -0.7658
# 5 -4.1229 -5.3502 -1.7829 -0.0001 20.7840 0.0000
# 6 0.0000 0.0000 -0.0002 -0.7658 0.0000 37.7788
#
#
#
# Elastic Compliance Matrix: (Units=1/GPa)
#
#
# Indices 1 2 3 4 5 6 
#
# 1 0.012510 -0.004791 -0.001606 0.000000 0.001111 0.000000
# 2 -0.004791 0.024288 -0.005276 0.000000 0.004849 0.000000
# 3 -0.001606 -0.005276 0.008026 0.000000 -0.000988 0.000000
# 4 0.000000 0.000000 0.000000 0.043279 0.000000 0.000877
# 5 0.001111 0.004849 -0.000988 0.000000 0.049498 0.000000
# 6 0.000000 0.000000 0.000000 0.000877 0.000000 0.026488
#
#
# Mechanical properties :
#
#
# Convention : Reuss Voigt Hill
#
# Bulk Modulus (GPa) = 46.55608 58.40233 52.47921
# Shear Modulus (GPa) = 25.69463 30.02137 27.85800
#
# Velocity S-wave (km/s) = 3.47466 3.75583 3.61798
# Velocity P-wave (km/s) = 6.16224 6.80075 6.48935
#
# Compressibility (1/GPa) = 0.02147947
#
# Stress axis : x y z
#
# Youngs Moduli (GPa) = 79.93478 41.17175 124.60022
#
# Poissons Ratio (x) = 0.19724 0.20009
# Poissons Ratio (y) = 0.38295 0.65738
# Poissons Ratio (z) = 0.12836 0.21722
#
# Static dielectric constant tensor:
#      x y z
#    x 4.128330 0.000000 -0.050130 
#    y 0.000000 3.571720 0.000000 
#    z -0.050130 0.000000 3.540220 
# 
# 
# High freq. dielectric constant tensor:
#      x y z
#    x 1.854180 0.000000 -0.005270 
#    y 0.000000 1.831510 0.000000 
#    z -0.005270 0.000000 1.799410 
# 
# From -- ./inp_files/60197.got.cif
#   From: 2010.03.12/outbox.cif.g09.slc.cpg/sg5_31_cif.got.tgz:60197.got - 2010.03.31 09:47:26.
