data_PCOD8048408
_publ_section_title
;
Structure prediction by ZEFSAII (Michael W. Deem and Ramdas Pophale) SiO2 
 PCOD8048408
Probable space group: C 2
;
_chemical_formula_sum "Si O2"
_cell_formula_units_Z 30
_cell_length_a 7.984237
_cell_length_b 11.832897
_cell_length_c 18.951154
_cell_angle_alpha 90.000000
_cell_angle_beta 130.415245
_cell_angle_gamma 90.000000
_cell_volume 1363.181073
_symmetry_space_group_name_H-M "C 2"
_symmetry_group_IT_number 5
_symmetry_cell_setting 'monoclinic'
loop_
_space_group_symop_operation_xyz
x,y,z
-x,y,-z
1/2+x,1/2+y,z
1/2-x,1/2+y,-z
loop_
_atom_site_type_symbol
_atom_site_label
_atom_site_fract_x
_atom_site_fract_y
_atom_site_fract_z
Si Si1 0.000000 0.455770 0.000000
Si Si2 0.825549 0.793859 0.159794
Si Si3 0.001551 0.889553 0.424970
Si Si4 0.961497 0.134985 0.279292
Si Si5 0.479817 0.059610 0.140975
Si Si6 0.700518 0.430076 0.331655
Si Si7 0.922784 0.264297 0.554433
Si Si8 0.069095 0.337590 0.228177
O O1 0.787589 0.377744 0.926878
O O2 0.073373 0.536102 0.955370
O O3 0.667554 0.786234 0.183705
O O4 0.853093 0.670069 0.132786
O O5 0.062845 0.839029 0.248794
O O6 0.109179 0.949452 0.386924
O O7 0.160601 0.781945 0.484359
O O8 0.000000 0.958205 0.500000
O O9 0.753943 0.852031 0.339354
O O10 0.016761 0.168240 0.374062
O O11 0.907813 0.243647 0.216398
O O12 0.742580 0.060656 0.221685
O O13 0.155874 0.059208 0.294147
O O14 0.422289 0.949662 0.173535
O O15 0.949759 0.385573 0.396993
O O16 0.000000 0.217422 0.500000
#
# Coordination Sequence:
#
# PCOD8048408 Si02
#       8
#     2   4   4   4   4   4   4   4
#     4  10  22  42  66 102 122 152 204 262 318 384
#     4  10  21  44  67  90 131 156 202 262 315 379
#     4  10  18  38  56  86 133 162 220 263 292 365
#     4  12  21  40  66  89 127 174 210 256 313 369
#     4  11  23  44  70  91 124 170 199 256 324 376
#     4  10  21  39  61  89 124 172 207 260 317 361
#     4  10  22  37  58  91 131 168 224 258 301 365
#     4  10  23  41  61  94 127 167 216 253 312 367
#
# _framework density 22.007346999999999
#
# number of rings (size 3 to 8) (size 9 to 14) (size 15 to 20)
#    0.000    1.600    6.667    0.000    0.000    3.733 
#    7.200    0.000    0.000    0.000    0.000    0.000 
#    0.000    0.000    0.000    0.000    0.000    0.000 
#
# Total GULP energy -185879.402698 kJ/mol
# GULP energy per Si atom -12391.960180 kJ/mol
# Density = 2.195726 g / cm^3
# Si number density = 22.007347 Si / 1000 Ang^3
#
#
#
# Elastic Constant Matrix: (Units=GPa)
#
#
# Indices 1 2 3 4 5 6 
#
# 1 37.2132 23.1237 14.4496 0.0000 -4.5701 0.0000
# 2 23.1237 131.6195 41.8128 0.0000 -21.6982 0.0000
# 3 14.4496 41.8128 115.6260 0.0000 -18.7127 0.0000
# 4 0.0000 0.0000 0.0000 33.3695 0.0000 -0.3612
# 5 -4.5701 -21.6982 -18.7127 0.0000 24.4811 0.0000
# 6 0.0000 0.0000 0.0000 -0.3612 0.0000 34.9798
#
#
#
# Elastic Compliance Matrix: (Units=1/GPa)
#
#
# Indices 1 2 3 4 5 6 
#
# 1 0.030621 -0.004717 -0.002137 0.000000 -0.000098 0.000000
# 2 -0.004717 0.010151 -0.002017 0.000000 0.006575 0.000000
# 3 -0.002137 -0.002017 0.010603 0.000000 0.005918 0.000000
# 4 0.000000 0.000000 0.000000 0.029971 0.000000 0.000309
# 5 -0.000098 0.006575 0.005918 0.000000 0.051180 0.000000
# 6 0.000000 0.000000 0.000000 0.000309 0.000000 0.028591
#
#
# Mechanical properties :
#
#
# Convention : Reuss Voigt Hill
#
# Bulk Modulus (GPa) = 29.73293 49.24789 39.49041
# Shear Modulus (GPa) = 26.30610 32.23758 29.27184
#
# Velocity S-wave (km/s) = 3.46111 3.83150 3.65100
# Velocity P-wave (km/s) = 5.43251 6.48077 5.97965
#
# Compressibility (1/GPa) = 0.03363274
#
# Stress axis : x y z
#
# Youngs Moduli (GPa) = 32.65739 98.51149 94.31464
#
# Poissons Ratio (x) = 0.46468 0.20152
# Poissons Ratio (y) = 0.15404 0.19027
# Poissons Ratio (z) = 0.06978 0.19873
#
# Static dielectric constant tensor:
#      x y z
#    x 3.679500 0.000000 -0.121710 
#    y 0.000000 3.873240 0.000000 
#    z -0.121710 0.000000 4.266030 
# 
# 
# High freq. dielectric constant tensor:
#      x y z
#    x 1.841600 0.000000 -0.012090 
#    y 0.000000 1.859650 0.000000 
#    z -0.012090 0.000000 1.876490 
# 
# From -- ./inp_files/59593.got.cif
#   From: 2010.03.12/outbox.cif.g09.slc.cpg/sg5_30_cif.got.tgz:59593.got - 2010.03.31 09:47:26.
