data_PCOD8048865
_publ_section_title
;
Structure prediction by ZEFSAII (Michael W. Deem and Ramdas Pophale) SiO2 
 PCOD8048865
Probable space group: C 2
;
_chemical_formula_sum "Si O2"
_cell_formula_units_Z 24
_cell_length_a 23.103736
_cell_length_b 11.276190
_cell_length_c 9.079702
_cell_angle_alpha 90.000000
_cell_angle_beta 28.272320
_cell_angle_gamma 90.000000
_cell_volume 1120.431889
_symmetry_space_group_name_H-M "C 2"
_symmetry_group_IT_number 5
_symmetry_cell_setting 'monoclinic'
loop_
_space_group_symop_operation_xyz
x,y,z
-x,y,-z
1/2+x,1/2+y,z
1/2-x,1/2+y,-z
loop_
_atom_site_type_symbol
_atom_site_label
_atom_site_fract_x
_atom_site_fract_y
_atom_site_fract_z
Si Si1 0.283574 0.986450 0.153024
Si Si2 0.431630 0.681565 0.863712
Si Si3 0.190640 0.767580 0.889639
Si Si4 0.481100 0.431901 0.370677
Si Si5 0.130744 0.354936 0.760165
Si Si6 0.345547 0.802704 0.801443
O O1 0.154660 0.931267 0.388900
O O2 0.310160 0.948665 0.260424
O O3 0.294777 0.127017 0.130246
O O4 0.374370 0.925294 0.828608
O O5 0.455517 0.545700 0.845324
O O6 0.330273 0.699757 0.961437
O O7 0.547840 0.760928 0.548861
O O8 0.387008 0.729589 0.119649
O O9 0.280848 0.829910 0.573542
O O10 0.222339 0.816770 0.982337
O O11 0.052544 0.810830 0.163532
O O12 0.500000 0.454509 0.500000
O O13 0.000000 0.406064 0.000000
#
# Coordination Sequence:
#
# PCOD8048865 Si02
#       6
#     4   4   4   4   4   4
#     4  11  25  45  65 102 146 176 230 291 343 413
#     4  10  20  41  72  93 125 179 235 280 348 414
#     4  12  25  43  69 104 138 180 233 283 350 415
#     4  12  22  42  71 102 132 178 235 287 347 412
#     4  11  24  45  67  95 134 187 229 281 351 413
#     4  10  19  39  70  98 128 178 226 285 345 408
#
# _framework density 21.420311000000002
#
# number of rings (size 3 to 8) (size 9 to 14) (size 15 to 20)
#    0.000    1.000    6.667    0.000    2.333    0.667 
#    9.000    0.000    0.000    0.000    0.000    0.000 
#    0.000    0.000    0.000    0.000    0.000    0.000 
#
# Total GULP energy -148663.602072 kJ/mol
# GULP energy per Si atom -12388.633506 kJ/mol
# Density = 2.137156 g / cm^3
# Si number density = 21.420311 Si / 1000 Ang^3
#
#
#
# Elastic Constant Matrix: (Units=GPa)
#
#
# Indices 1 2 3 4 5 6 
#
# 1 141.6169 42.9468 33.8673 0.0000 -10.0767 0.0000
# 2 42.9468 111.0180 39.3765 0.0000 -6.4271 0.0000
# 3 33.8673 39.3765 50.7694 0.0000 -16.2298 0.0000
# 4 0.0000 0.0000 0.0000 33.3561 0.0000 -5.5962
# 5 -10.0767 -6.4271 -16.2298 0.0000 30.2943 0.0000
# 6 0.0000 0.0000 0.0000 -5.5962 0.0000 23.5759
#
#
#
# Elastic Compliance Matrix: (Units=1/GPa)
#
#
# Indices 1 2 3 4 5 6 
#
# 1 0.008654 -0.001808 -0.004312 0.000000 0.000185 0.000000
# 2 -0.001808 0.013041 -0.009915 0.000000 -0.003146 0.000000
# 3 -0.004312 -0.009915 0.035152 0.000000 0.015295 0.000000
# 4 0.000000 0.000000 0.000000 0.031223 0.000000 0.007411
# 5 0.000185 -0.003146 0.015295 0.000000 0.040598 0.000000
# 6 0.000000 0.000000 0.000000 0.007411 0.000000 0.044175
#
#
# Mechanical properties :
#
#
# Convention : Reuss Voigt Hill
#
# Bulk Modulus (GPa) = 40.35594 59.53170 49.94382
# Shear Modulus (GPa) = 23.45539 29.92619 26.69079
#
# Velocity S-wave (km/s) = 3.31268 3.74183 3.53377
# Velocity P-wave (km/s) = 5.78902 6.82062 6.32588
#
# Compressibility (1/GPa) = 0.02477950
#
# Stress axis : x y z
#
# Youngs Moduli (GPa) = 115.55651 76.67962 28.44778
#
# Poissons Ratio (x) = 0.13862 0.12265
# Poissons Ratio (y) = 0.20889 0.28205
# Poissons Ratio (z) = 0.49822 0.76025
#
# Static dielectric constant tensor:
#      x y z
#    x 4.329160 0.000000 -0.092560 
#    y 0.000000 3.832310 0.000000 
#    z -0.092560 0.000000 3.764150 
# 
# 
# High freq. dielectric constant tensor:
#      x y z
#    x 1.859700 0.000000 0.003580 
#    y 0.000000 1.830880 0.000000 
#    z 0.003580 0.000000 1.825170 
# 
# From -- ./inp_files/30908.got.cif
#   From: 2010.03.12/outbox.cif.g09.slc.cpg/sg5_16_cif.got.tgz:30908.got - 2010.03.31 09:47:26.
