data_PCOD8048407
_publ_section_title
;
Structure prediction by ZEFSAII (Michael W. Deem and Ramdas Pophale) SiO2 
 PCOD8048407
Probable space group: C 2
;
_chemical_formula_sum "Si O2"
_cell_formula_units_Z 32
_cell_length_a 19.244789
_cell_length_b 22.551014
_cell_length_c 9.156710
_cell_angle_alpha 90.000000
_cell_angle_beta 152.137451
_cell_angle_gamma 90.000000
_cell_volume 1857.217801
_symmetry_space_group_name_H-M "C 2"
_symmetry_group_IT_number 5
_symmetry_cell_setting 'monoclinic'
loop_
_space_group_symop_operation_xyz
x,y,z
-x,y,-z
1/2+x,1/2+y,z
1/2-x,1/2+y,-z
loop_
_atom_site_type_symbol
_atom_site_label
_atom_site_fract_x
_atom_site_fract_y
_atom_site_fract_z
Si Si1 0.883880 0.469580 0.414286
Si Si2 0.136525 0.893588 0.849211
Si Si3 0.660891 0.673641 0.852788
Si Si4 0.109552 0.819269 0.068158
Si Si5 0.112753 0.600906 0.574790
Si Si6 0.870609 0.306044 0.144916
Si Si7 0.060828 0.706625 0.778545
Si Si8 0.436577 0.862832 0.725051
O O1 0.875689 0.535281 0.472121
O O2 0.916099 0.424876 0.604800
O O3 0.000000 0.464726 0.500000
O O4 0.730590 0.452846 0.049971
O O5 0.000000 0.914641 0.500000
O O6 0.076418 0.871651 0.893436
O O7 0.225756 0.840376 0.934235
O O8 0.500000 0.653658 0.500000
O O9 0.660336 0.736728 0.934537
O O10 0.722184 0.621835 0.071507
O O11 0.770801 0.682280 0.919495
O O12 0.283852 0.823876 0.440433
O O13 0.064893 0.759049 0.902334
O O14 0.000000 0.827728 0.000000
O O15 0.000000 0.596832 0.500000
O O16 0.042098 0.653609 0.343757
O O17 0.000000 0.319062 0.500000
O O18 0.927629 0.327469 0.095076
O O19 0.000000 0.724049 0.500000
O O20 0.500000 0.878250 0.000000
#
# Coordination Sequence:
#
# PCOD8048407 Si02
#       8
#     4   4   4   4   4   4   4   4
#     4  10  18  38  55  73 103 140 183 219 248 314
#     4  11  21  31  55  81 106 139 172 217 270 310
#     4   9  16  26  51  78 107 134 167 218 261 303
#     4  11  22  33  49  80 117 135 167 224 265 319
#     4   8  18  30  52  76 100 137 178 216 255 302
#     4  11  17  35  55  76 108 138 177 210 263 323
#     4   9  17  33  51  77 104 140 174 209 262 314
#     4  11  23  35  53  79 105 143 179 216 268 315
#
# _framework density 17.230074999999999
#
# number of rings (size 3 to 8) (size 9 to 14) (size 15 to 20)
#    0.000    2.250    5.000    1.125    3.500    0.500 
#    0.000    0.625    0.000    0.000    0.000   10.500 
#    0.000    0.000    0.000    0.000    0.000    0.000 
#
# Total GULP energy -198222.677229 kJ/mol
# GULP energy per Si atom -12388.917327 kJ/mol
# Density = 1.719086 g / cm^3
# Si number density = 17.230075 Si / 1000 Ang^3
#
#
#
# Elastic Constant Matrix: (Units=GPa)
#
#
# Indices 1 2 3 4 5 6 
#
# 1 92.0816 34.7536 42.6175 0.0000 4.0458 0.0000
# 2 34.7536 127.3118 55.2474 0.0000 0.1622 0.0000
# 3 42.6175 55.2474 120.5436 0.0000 2.3842 0.0000
# 4 0.0000 0.0000 0.0000 99.4542 0.0000 17.9665
# 5 4.0458 0.1622 2.3842 0.0000 23.6305 0.0000
# 6 0.0000 0.0000 0.0000 17.9665 0.0000 16.4939
#
#
#
# Elastic Compliance Matrix: (Units=1/GPa)
#
#
# Indices 1 2 3 4 5 6 
#
# 1 0.013465 -0.002027 -0.003794 0.000000 -0.001909 0.000000
# 2 -0.002027 0.010113 -0.003932 0.000000 0.000674 0.000000
# 3 -0.003794 -0.003932 0.011449 0.000000 -0.000479 0.000000
# 4 0.000000 0.000000 0.000000 0.012518 0.000000 -0.013636
# 5 -0.001909 0.000674 -0.000479 0.000000 0.042689 0.000000
# 6 0.000000 0.000000 0.000000 -0.013636 0.000000 0.075482
#
#
# Mechanical properties :
#
#
# Convention : Reuss Voigt Hill
#
# Bulk Modulus (GPa) = 64.42604 67.24155 65.83380
# Shear Modulus (GPa) = 26.26136 41.73693 33.99914
#
# Velocity S-wave (km/s) = 3.90828 4.92706 4.44694
# Velocity P-wave (km/s) = 7.60520 8.45448 8.04106
#
# Compressibility (1/GPa) = 0.01552167
#
# Stress axis : x y z
#
# Youngs Moduli (GPa) = 74.26907 98.87826 87.34764
#
# Poissons Ratio (x) = 0.20041 0.33136
# Poissons Ratio (y) = 0.15053 0.34344
# Poissons Ratio (z) = 0.28175 0.38878
#
# Static dielectric constant tensor:
#      x y z
#    x 3.024670 0.000000 0.188490 
#    y 0.000000 3.517730 0.000000 
#    z 0.188490 0.000000 3.280720 
# 
# 
# High freq. dielectric constant tensor:
#      x y z
#    x 1.630950 0.000000 0.019360 
#    y 0.000000 1.662570 0.000000 
#    z 0.019360 0.000000 1.671250 
# 
# From -- ./inp_files/28054.got.cif
#   From: 2010.03.12/outbox.cif.g09.slc.cpg/sg5_15_cif.got.tgz:28054.got - 2010.03.31 09:47:26.
