data_PCOD8048655
_publ_section_title
;
Structure prediction by ZEFSAII (Michael W. Deem and Ramdas Pophale) SiO2 
 PCOD8048655
Probable space group: C 2
;
_chemical_formula_sum "Si O2"
_cell_formula_units_Z 30
_cell_length_a 14.053091
_cell_length_b 18.045068
_cell_length_c 11.361752
_cell_angle_alpha 90.000000
_cell_angle_beta 147.863986
_cell_angle_gamma 90.000000
_cell_volume 1532.607484
_symmetry_space_group_name_H-M "C 2"
_symmetry_group_IT_number 5
_symmetry_cell_setting 'monoclinic'
loop_
_space_group_symop_operation_xyz
x,y,z
-x,y,-z
1/2+x,1/2+y,z
1/2-x,1/2+y,-z
loop_
_atom_site_type_symbol
_atom_site_label
_atom_site_fract_x
_atom_site_fract_y
_atom_site_fract_z
Si Si1 0.040740 0.534060 0.409972
Si Si2 0.541709 0.917510 0.863203
Si Si3 0.780334 0.118631 0.019998
Si Si4 0.800128 0.545300 0.834802
Si Si5 0.857608 0.260828 0.955935
Si Si6 0.565007 0.515843 0.195403
Si Si7 0.000000 0.821000 0.500000
Si Si8 0.156483 0.940524 0.512983
O O1 0.247356 0.560653 0.615791
O O2 0.000000 0.517398 0.500000
O O3 0.004524 0.454565 0.310386
O O4 0.922580 0.600387 0.232653
O O5 0.359908 0.914010 0.749248
O O6 0.607684 0.833501 0.928782
O O7 0.689860 0.969702 0.078373
O O8 0.781818 0.109262 0.164873
O O9 0.910633 0.062448 0.092461
O O10 0.845324 0.198344 0.043663
O O11 0.659278 0.522274 0.582651
O O12 0.000000 0.569310 0.000000
O O13 0.667160 0.267180 0.692830
O O14 0.000000 0.243991 0.000000
O O15 0.602152 0.446682 0.319814
O O16 0.500000 0.487409 0.000000
O O17 0.975725 0.876898 0.583226
#
# Coordination Sequence:
#
# PCOD8048655 Si02
#       8
#     4   4   4   4   4   4   2   4
#     4  10  21  37  60  86 117 160 208 247 297 355
#     4   9  18  38  60  86 119 152 195 256 303 346
#     4  11  24  37  60  89 123 164 194 246 312 364
#     4   9  17  38  66  91 116 152 203 260 302 347
#     4  12  24  38  55  89 132 158 197 248 309 364
#     4  11  22  36  59  94 124 154 200 254 300 361
#     4  12  22  34  62  90 116 160 206 246 298 364
#     4  10  19  35  64  92 112 148 207 257 299 348
#
# _framework density 19.574484000000002
#
# number of rings (size 3 to 8) (size 9 to 14) (size 15 to 20)
#    0.000    1.600    4.000    2.400    2.800    0.000 
#    0.000    0.000    2.933    2.400    0.000    0.000 
#    0.000    0.000    0.000    0.000    0.000    0.000 
#
# Total GULP energy -185837.900781 kJ/mol
# GULP energy per Si atom -12389.193385 kJ/mol
# Density = 1.952993 g / cm^3
# Si number density = 19.574484 Si / 1000 Ang^3
#
#
#
# Elastic Constant Matrix: (Units=GPa)
#
#
# Indices 1 2 3 4 5 6 
#
# 1 96.6318 26.1984 17.8036 0.0000 -8.0084 0.0000
# 2 26.1984 70.6683 6.5034 0.0000 -3.1900 0.0000
# 3 17.8036 6.5034 79.2582 0.0000 -4.5191 0.0000
# 4 0.0000 0.0000 0.0000 12.1780 0.0000 3.8975
# 5 -8.0084 -3.1900 -4.5191 0.0000 34.4430 0.0000
# 6 0.0000 0.0000 0.0000 3.8975 0.0000 21.3103
#
#
#
# Elastic Compliance Matrix: (Units=1/GPa)
#
#
# Indices 1 2 3 4 5 6 
#
# 1 0.012070 -0.004172 -0.002248 0.000000 0.002125 0.000000
# 2 -0.004172 0.015748 -0.000330 0.000000 0.000445 0.000000
# 3 -0.002248 -0.000330 0.013216 0.000000 0.001181 0.000000
# 4 0.000000 0.000000 0.000000 0.087220 0.000000 -0.015952
# 5 0.002125 0.000445 0.001181 0.000000 0.029724 0.000000
# 6 0.000000 0.000000 0.000000 -0.015952 0.000000 0.049843
#
#
# Mechanical properties :
#
#
# Convention : Reuss Voigt Hill
#
# Bulk Modulus (GPa) = 36.31694 38.61879 37.46786
# Shear Modulus (GPa) = 21.69219 26.65648 24.17433
#
# Velocity S-wave (km/s) = 3.33256 3.69426 3.51806
# Velocity P-wave (km/s) = 5.77939 6.16187 5.97370
#
# Compressibility (1/GPa) = 0.02753536
#
# Stress axis : x y z
#
# Youngs Moduli (GPa) = 82.85117 63.50158 75.66427
#
# Poissons Ratio (x) = 0.26492 0.17007
# Poissons Ratio (y) = 0.34564 0.02494
# Poissons Ratio (z) = 0.18623 0.02093
#
# Static dielectric constant tensor:
#      x y z
#    x 3.953200 0.000000 0.135580 
#    y 0.000000 3.239000 0.000000 
#    z 0.135580 0.000000 3.930840 
# 
# 
# High freq. dielectric constant tensor:
#      x y z
#    x 1.777840 0.000000 0.014640 
#    y 0.000000 1.710830 0.000000 
#    z 0.014640 0.000000 1.774110 
# 
# From -- ./inp_files/43338.got.cif
#   From: 2010.03.12/outbox.cif.g09.slc.cpg/sg5_22_cif.got.tgz:43338.got - 2010.03.31 09:47:26.
