data_PCOD8048203
_publ_section_title
;
Structure prediction by ZEFSAII (Michael W. Deem and Ramdas Pophale) SiO2 
 PCOD8048203
Probable space group: C 2
;
_chemical_formula_sum "Si O2"
_cell_formula_units_Z 24
_cell_length_a 23.240900
_cell_length_b 9.422857
_cell_length_c 17.774167
_cell_angle_alpha 90.000000
_cell_angle_beta 19.336183
_cell_angle_gamma 90.000000
_cell_volume 1288.835689
_symmetry_space_group_name_H-M "C 2"
_symmetry_group_IT_number 5
_symmetry_cell_setting 'monoclinic'
loop_
_space_group_symop_operation_xyz
x,y,z
-x,y,-z
1/2+x,1/2+y,z
1/2-x,1/2+y,-z
loop_
_atom_site_type_symbol
_atom_site_label
_atom_site_fract_x
_atom_site_fract_y
_atom_site_fract_z
Si Si1 0.983004 0.595480 0.176109
Si Si2 0.334127 0.892019 0.148744
Si Si3 0.720368 0.099046 0.433511
Si Si4 0.030122 0.921017 0.120028
Si Si5 0.811057 0.599621 0.700673
Si Si6 0.681563 0.422505 0.480742
O O1 0.951453 0.566832 0.303965
O O2 0.805876 0.548115 0.354413
O O3 0.020438 0.757252 0.108972
O O4 0.143681 0.503422 0.946384
O O5 0.304707 0.740344 0.146969
O O6 0.165641 0.934657 0.409098
O O7 0.500000 0.889911 0.000000
O O8 0.674324 0.058890 0.404988
O O9 0.766678 0.265542 0.389445
O O10 0.883780 0.004803 0.254847
O O11 0.997831 0.936311 0.250625
O O12 0.218925 0.977373 0.863596
O O13 0.000000 0.626197 0.500000
#
# Coordination Sequence:
#
# PCOD8048203 Si02
#       6
#     4   4   4   4   4   4
#     4   9  17  30  54  83 101 120 159 209 253 291
#     4   9  17  34  56  77  99 125 162 205 247 299
#     4   9  18  34  53  75 102 130 161 201 247 298
#     4  10  18  31  53  76 101 129 161 206 250 287
#     4  11  22  35  49  69  99 140 175 199 237 293
#     4   8  16  30  51  76 102 126 156 198 248 296
#
# _framework density 18.621459000000002
#
# number of rings (size 3 to 8) (size 9 to 14) (size 15 to 20)
#    0.000    2.667    0.000    3.500    0.000    5.333 
#    0.000    5.833    0.000    0.000    0.000    0.000 
#    0.000    0.000    0.000    0.000    0.000    0.000 
#
# Total GULP energy -148667.200314 kJ/mol
# GULP energy per Si atom -12388.933359 kJ/mol
# Density = 1.857908 g / cm^3
# Si number density = 18.621459 Si / 1000 Ang^3
#
#
#
# Elastic Constant Matrix: (Units=GPa)
#
#
# Indices 1 2 3 4 5 6 
#
# 1 48.2127 25.2314 50.4643 0.0001 19.9750 -0.0001
# 2 25.2314 106.2478 58.8567 0.0001 22.0407 -0.0001
# 3 50.4643 58.8567 97.7073 0.0002 34.3770 -0.0001
# 4 0.0001 0.0001 0.0002 28.0957 0.0000 14.6032
# 5 19.9750 22.0407 34.3770 0.0000 36.5633 0.0000
# 6 -0.0001 -0.0001 -0.0001 14.6032 0.0000 15.0044
#
#
#
# Elastic Compliance Matrix: (Units=1/GPa)
#
#
# Indices 1 2 3 4 5 6 
#
# 1 0.046399 0.003469 -0.024507 0.000000 -0.004399 0.000000
# 2 0.003469 0.014399 -0.010079 0.000000 -0.001099 0.000000
# 3 -0.024507 -0.010079 0.033047 0.000000 -0.011607 0.000000
# 4 0.000000 0.000000 0.000000 0.072031 0.000001 -0.070104
# 5 -0.004399 -0.001099 -0.011607 0.000001 0.041328 -0.000001
# 6 0.000000 0.000000 0.000000 -0.070104 -0.000001 0.134877
#
#
# Mechanical properties :
#
#
# Convention : Reuss Voigt Hill
#
# Bulk Modulus (GPa) = 31.63258 57.91917 44.77588
# Shear Modulus (GPa) = 12.05247 23.77372 17.91310
#
# Velocity S-wave (km/s) = 2.54684 3.57695 3.10491
# Velocity P-wave (km/s) = 5.06681 6.94481 6.07877
#
# Compressibility (1/GPa) = 0.03161298
#
# Stress axis : x y z
#
# Youngs Moduli (GPa) = 21.55196 69.44712 30.25971
#
# Poissons Ratio (x) = -0.24094 0.74157
# Poissons Ratio (y) = -0.07477 0.30499
# Poissons Ratio (z) = 0.52817 0.69996
#
# Static dielectric constant tensor:
#      x y z
#    x 3.329090 0.000000 0.780690 
#    y 0.000000 3.482800 0.000000 
#    z 0.780690 0.000000 3.732610 
# 
# 
# High freq. dielectric constant tensor:
#      x y z
#    x 1.685320 0.000000 0.055030 
#    y 0.000000 1.726370 0.000000 
#    z 0.055030 0.000000 1.718210 
# 
# From -- ./inp_files/26514.got.cif
#   From: 2010.03.12/outbox.cif.g09.slc.cpg/sg5_14_cif.got.tgz:26514.got - 2010.03.31 09:47:26.
