data_PCOD8048249
_publ_section_title
;
Structure prediction by ZEFSAII (Michael W. Deem and Ramdas Pophale) SiO2 
 PCOD8048249
Probable space group: C 2
;
_chemical_formula_sum "Si O2"
_cell_formula_units_Z 32
_cell_length_a 12.303998
_cell_length_b 16.256168
_cell_length_c 17.823299
_cell_angle_alpha 90.000000
_cell_angle_beta 27.985883
_cell_angle_gamma 90.000000
_cell_volume 1672.863508
_symmetry_space_group_name_H-M "C 2"
_symmetry_group_IT_number 5
_symmetry_cell_setting 'monoclinic'
loop_
_space_group_symop_operation_xyz
x,y,z
-x,y,-z
1/2+x,1/2+y,z
1/2-x,1/2+y,-z
loop_
_atom_site_type_symbol
_atom_site_label
_atom_site_fract_x
_atom_site_fract_y
_atom_site_fract_z
Si Si1 0.880335 0.208410 0.443442
Si Si2 0.073825 0.827315 0.065805
Si Si3 0.620424 0.152705 0.855791
Si Si4 0.518423 0.116450 0.221020
Si Si5 0.233010 0.284425 0.647460
Si Si6 0.965737 0.428168 0.754962
Si Si7 0.569992 0.875585 0.380936
Si Si8 0.106218 0.250566 0.015061
O O1 0.669381 0.159310 0.610163
O O2 0.817648 0.237080 0.398414
O O3 0.104700 0.151024 0.298764
O O4 0.955443 0.284516 0.450232
O O5 0.005714 0.741055 0.070498
O O6 0.845937 0.879112 0.217766
O O7 0.231457 0.875949 0.910362
O O8 0.205907 0.815051 0.065499
O O9 0.576251 0.107816 0.804986
O O10 0.500000 0.106275 0.000000
O O11 0.568282 0.022783 0.208962
O O12 0.762623 0.164049 0.077950
O O13 0.500000 0.278091 0.500000
O O14 0.164146 0.381275 0.682043
O O15 0.096417 0.241140 0.799411
O O16 0.028327 0.425336 0.629143
O O17 0.500000 0.921186 0.500000
O O18 0.000000 0.281121 0.000000
#
# Coordination Sequence:
#
# PCOD8048249 Si02
#       8
#     4   4   4   4   4   4   4   4
#     4  10  19  34  59  85 109 142 187 233 272 323
#     4   9  18  35  58  80 107 143 185 226 269 327
#     4  10  18  34  60  85 108 140 187 232 269 321
#     4  11  22  36  55  85 118 146 180 225 282 333
#     4  10  21  38  58  79 109 150 192 229 272 330
#     4  10  22  37  54  81 116 149 178 221 281 333
#     4  10  18  33  58  84 105 138 187 232 268 316
#     4  10  20  35  56  81 110 148 190 230 275 327
#
# _framework density 19.128875000000001
#
# number of rings (size 3 to 8) (size 9 to 14) (size 15 to 20)
#    0.000    2.000    0.000    7.500    0.000    3.000 
#    0.000    6.875    0.000    0.000    0.000    0.000 
#    0.000    0.000    0.000    0.000    0.000    0.000 
#
# Total GULP energy -198298.969074 kJ/mol
# GULP energy per Si atom -12393.685567 kJ/mol
# Density = 1.908534 g / cm^3
# Si number density = 19.128875 Si / 1000 Ang^3
#
#
#
# Elastic Constant Matrix: (Units=GPa)
#
#
# Indices 1 2 3 4 5 6 
#
# 1 120.4321 16.1132 50.0107 0.0283 12.0782 -0.0118
# 2 16.1132 76.2561 33.5891 -0.0686 6.9715 -0.0067
# 3 50.0107 33.5891 124.1500 -0.0587 4.3164 -0.0925
# 4 0.0283 -0.0686 -0.0587 15.4277 -0.0096 4.2454
# 5 12.0782 6.9715 4.3164 -0.0096 44.0243 0.0327
# 6 -0.0118 -0.0067 -0.0925 4.2454 0.0327 8.5097
#
#
#
# Elastic Compliance Matrix: (Units=1/GPa)
#
#
# Indices 1 2 3 4 5 6 
#
# 1 0.010222 -0.000187 -0.003984 -0.000036 -0.002384 -0.000002
# 2 -0.000187 0.015064 -0.003932 0.000067 -0.001948 -0.000057
# 3 -0.003984 -0.003932 0.010701 0.000002 0.000667 0.000104
# 4 -0.000036 0.000067 0.000002 0.075134 0.000043 -0.037484
# 5 -0.002384 -0.001948 0.000667 0.000043 0.023612 -0.000110
# 6 -0.000002 -0.000057 0.000104 -0.037484 -0.000110 0.136216
#
#
# Mechanical properties :
#
#
# Convention : Reuss Voigt Hill
#
# Bulk Modulus (GPa) = 50.55916 57.80712 54.18314
# Shear Modulus (GPa) = 17.02136 28.33401 22.67769
#
# Velocity S-wave (km/s) = 2.98623 3.85283 3.44688
# Velocity P-wave (km/s) = 6.19502 7.07657 6.65042
#
# Compressibility (1/GPa) = 0.01977881
#
# Stress axis : x y z
#
# Youngs Moduli (GPa) = 97.82752 66.38541 93.45323
#
# Poissons Ratio (x) = 0.01242 0.37234
# Poissons Ratio (y) = 0.01830 0.36750
# Poissons Ratio (z) = 0.38977 0.26105
#
# Static dielectric constant tensor:
#      x y z
#    x 3.833720 -0.000080 -0.036120 
#    y -0.000080 3.070290 0.000070 
#    z -0.036120 0.000070 3.761580 
# 
# 
# High freq. dielectric constant tensor:
#      x y z
#    x 1.761950 0.000000 0.004720 
#    y 0.000000 1.692380 0.000010 
#    z 0.004720 0.000010 1.759860 
# 
# From -- ./inp_files/60801.got.cif
#   From: 2010.03.12/outbox.cif.g09.slc.cpg/sg5_31_cif.got.tgz:60801.got - 2010.03.31 09:47:26.
