data_PCOD8048190
_publ_section_title
;
Structure prediction by ZEFSAII (Michael W. Deem and Ramdas Pophale) SiO2 
 PCOD8048190
Probable space group: C 2
;
_chemical_formula_sum "Si O2"
_cell_formula_units_Z 32
_cell_length_a 8.602062
_cell_length_b 18.799149
_cell_length_c 20.165846
_cell_angle_alpha 90.000000
_cell_angle_beta 148.558196
_cell_angle_gamma 90.000000
_cell_volume 1701.067887
_symmetry_space_group_name_H-M "C 2"
_symmetry_group_IT_number 5
_symmetry_cell_setting 'monoclinic'
loop_
_space_group_symop_operation_xyz
x,y,z
-x,y,-z
1/2+x,1/2+y,z
1/2-x,1/2+y,-z
loop_
_atom_site_type_symbol
_atom_site_label
_atom_site_fract_x
_atom_site_fract_y
_atom_site_fract_z
Si Si1 0.632686 0.778090 0.726319
Si Si2 0.657213 0.939747 0.736492
Si Si3 0.815872 0.523776 0.499998
Si Si4 0.680135 0.940085 0.000000
Si Si5 0.211213 0.439757 0.263495
Si Si6 0.686048 0.184437 0.500015
Si Si7 0.178961 0.790447 0.000020
Si Si8 0.227483 0.278101 0.273720
O O1 0.682500 0.858549 0.718362
O O2 0.503341 0.725377 0.623471
O O3 0.385746 0.782019 0.692870
O O4 0.946655 0.746328 0.869680
O O5 0.463009 0.943068 0.731503
O O6 0.505117 0.986471 0.625424
O O7 0.985353 0.971372 0.871805
O O8 0.503354 0.486497 0.374540
O O9 0.751286 0.604312 0.500013
O O10 0.000000 0.521312 0.500000
O O11 0.501915 0.971373 0.871821
O O12 0.703265 0.855637 0.999987
O O13 0.500000 0.960300 0.000000
O O14 0.309089 0.358561 0.281662
O O15 0.500000 0.183374 0.500000
O O16 0.509578 0.225399 0.376589
O O17 0.468032 0.746333 0.130367
O O18 0.000000 0.820080 0.000000
#
# Coordination Sequence:
#
# PCOD8048190 Si02
#       8
#     4   4   4   4   4   4   4   4
#     4   8  14  27  49  73  93 122 167 210 242 285
#     4  10  19  34  56  77 100 134 175 211 247 302
#     4  11  22  33  47  73 108 139 170 214 262 299
#     4  10  18  30  51  80 109 129 157 209 265 306
#     4  10  19  34  56  77 100 134 175 211 247 302
#     4   9  17  29  45  69 100 129 164 210 250 287
#     4   8  14  26  47  74  99 125 163 205 245 294
#     4   8  14  27  49  73  93 122 167 210 242 285
#
# _framework density 18.811712
#
# number of rings (size 3 to 8) (size 9 to 14) (size 15 to 20)
#    0.000    2.750    0.000    4.500    0.000    2.000 
#    0.000    1.250    0.000   22.500    0.000    0.000 
#    0.000    0.000    0.000    0.000    0.000    0.000 
#
# Total GULP energy -198252.063455 kJ/mol
# GULP energy per Si atom -12390.753966 kJ/mol
# Density = 1.876890 g / cm^3
# Si number density = 18.811712 Si / 1000 Ang^3
#
#
#
# Elastic Constant Matrix: (Units=GPa)
#
#
# Indices 1 2 3 4 5 6 
#
# 1 58.0265 23.5794 35.7207 -0.0169 -0.3186 -0.0104
# 2 23.5794 99.9564 90.7002 -0.0089 -0.6000 -0.0053
# 3 35.7207 90.7002 222.0919 0.0026 -1.1757 -0.0153
# 4 -0.0169 -0.0089 0.0026 0.2735 -0.0089 0.1294
# 5 -0.3186 -0.6000 -1.1757 -0.0089 28.0131 -0.0111
# 6 -0.0104 -0.0053 -0.0153 0.1294 -0.0111 15.6513
#
#
#
# Elastic Compliance Matrix: (Units=1/GPa)
#
#
# Indices 1 2 3 4 5 6 
#
# 1 0.019610 -0.002802 -0.002009 0.001144 0.000079 0.000001
# 2 -0.002802 0.016295 -0.006204 0.000419 0.000057 -0.000006
# 3 -0.002009 -0.006204 0.007360 -0.000395 0.000153 0.000007
# 4 0.001144 0.000419 -0.000395 3.671048 0.001157 -0.030340
# 5 0.000079 0.000057 0.000153 0.001157 0.035707 0.000016
# 6 0.000001 -0.000006 0.000007 -0.030340 0.000016 0.064143
#
#
# Mechanical properties :
#
#
# Convention : Reuss Voigt Hill
#
# Bulk Modulus (GPa) = 47.09257 75.56393 61.32825
# Shear Modulus (GPa) = 1.30098 24.12586 12.71342
#
# Velocity S-wave (km/s) = 0.83251 3.58507 2.60248
# Velocity P-wave (km/s) = 5.10021 7.57580 6.45774
#
# Compressibility (1/GPa) = 0.02123477
#
# Stress axis : x y z
#
# Youngs Moduli (GPa) = 50.99488 61.36844 135.86648
#
# Poissons Ratio (x) = 0.17196 0.27299
# Poissons Ratio (y) = 0.14290 0.84288
# Poissons Ratio (z) = 0.10246 0.38071
#
# Static dielectric constant tensor:
#      x y z
#    x 3.105280 0.000000 -0.007880 
#    y 0.000000 3.300840 -0.000010 
#    z -0.007880 -0.000010 4.002840 
# 
# 
# High freq. dielectric constant tensor:
#      x y z
#    x 1.697730 0.000000 -0.000570 
#    y 0.000000 1.686240 0.000000 
#    z -0.000570 0.000000 1.762180 
# 
# From -- ./inp_files/64802.got.cif
#   From: 2010.03.12/outbox.cif.g09.slc.cpg/sg5_33_cif.got.tgz:64802.got - 2010.03.31 09:47:26.
