data_PCOD8048218
_publ_section_title
;
Structure prediction by ZEFSAII (Michael W. Deem and Ramdas Pophale) SiO2 
 PCOD8048218
Probable space group: C 2
;
_chemical_formula_sum "Si O2"
_cell_formula_units_Z 28
_cell_length_a 17.918603
_cell_length_b 18.310164
_cell_length_c 5.131348
_cell_angle_alpha 90.000000
_cell_angle_beta 63.073117
_cell_angle_gamma 90.000000
_cell_volume 1501.034510
_symmetry_space_group_name_H-M "C 2"
_symmetry_group_IT_number 5
_symmetry_cell_setting 'monoclinic'
loop_
_space_group_symop_operation_xyz
x,y,z
-x,y,-z
1/2+x,1/2+y,z
1/2-x,1/2+y,-z
loop_
_atom_site_type_symbol
_atom_site_label
_atom_site_fract_x
_atom_site_fract_y
_atom_site_fract_z
Si Si1 0.777328 0.801630 0.036760
Si Si2 0.818715 0.150743 0.826096
Si Si3 0.307429 0.842637 0.339252
Si Si4 0.902724 0.488144 0.214051
Si Si5 0.444318 0.218140 0.824710
Si Si6 0.403002 0.690162 0.183450
Si Si7 0.151308 0.571402 0.174917
O O1 0.754003 0.848216 0.815044
O O2 0.873310 0.780038 0.937171
O O3 0.723197 0.729138 0.115270
O O4 0.753575 0.850831 0.319299
O O5 0.872523 0.140699 0.476360
O O6 0.882437 0.143493 0.961881
O O7 0.748541 0.091369 0.004411
O O8 0.356106 0.766875 0.261136
O O9 0.377194 0.904129 0.279991
O O10 0.876465 0.539834 0.499254
O O11 0.855058 0.509779 0.029524
O O12 0.000000 0.495365 0.000000
O O13 0.500000 0.244262 0.500000
O O14 0.407010 0.138753 0.818628
O O15 0.500000 0.215243 0.000000
O O16 0.500000 0.706852 0.000000
#
# Coordination Sequence:
#
# PCOD8048218 Si02
#       7
#     4   4   4   4   4   4   4
#     4   9  19  34  52  74 104 138 175 216 264 313
#     4   9  19  33  51  74 104 138 172 212 264 314
#     4  10  20  35  51  75 109 142 173 209 255 317
#     4  12  23  35  53  79 109 146 180 207 248 315
#     4  11  20  33  55  82 108 136 173 226 274 310
#     4  10  18  32  54  80 104 130 169 223 269 303
#     4  11  22  36  51  76 113 146 175 209 256 322
#
# _framework density 18.653801000000001
#
# number of rings (size 3 to 8) (size 9 to 14) (size 15 to 20)
#    0.000    1.714    0.000    6.000    0.000    4.571 
#    0.000    4.286    0.000    0.000    0.000   35.000 
#    0.000    0.000    0.000    0.000    0.000    0.000 
#
# Total GULP energy -173463.282749 kJ/mol
# GULP energy per Si atom -12390.234482 kJ/mol
# Density = 1.861134 g / cm^3
# Si number density = 18.653801 Si / 1000 Ang^3
#
#
#
# Elastic Constant Matrix: (Units=GPa)
#
#
# Indices 1 2 3 4 5 6 
#
# 1 81.8132 12.0873 13.0927 0.0000 -34.7644 0.0000
# 2 12.0873 41.4672 11.2297 0.0000 -21.7906 0.0000
# 3 13.0927 11.2297 87.8999 0.0000 -55.4656 0.0000
# 4 0.0000 0.0000 0.0000 26.4344 0.0000 -4.3027
# 5 -34.7644 -21.7906 -55.4656 0.0000 -27.8438 0.0000
# 6 0.0000 0.0000 0.0000 -4.3027 0.0000 34.8338
#
#
#
# Elastic Compliance Matrix: (Units=1/GPa)
#
#
# Indices 1 2 3 4 5 6 
#
# 1 0.011808 -0.004513 -0.003658 0.000000 -0.003924 0.000000
# 2 -0.004513 0.024728 -0.004937 0.000000 -0.003883 0.000000
# 3 -0.003658 -0.004937 0.007919 0.000000 -0.007343 0.000000
# 4 0.000000 0.000000 0.000000 0.038606 0.000000 0.004769
# 5 -0.003924 -0.003883 -0.007343 0.000000 -0.013349 0.000000
# 6 0.000000 0.000000 0.000000 0.004769 0.000000 0.029297
#
#
# Mechanical properties :
#
#
# Convention : Reuss Voigt Hill
#
# Bulk Modulus (GPa) = 54.83085 31.55552 43.19318
# Shear Modulus (GPa) = 38.08001 18.33628 28.20814
#
# Velocity S-wave (km/s) = 4.52310 3.13865 3.89291
# Velocity P-wave (km/s) = 7.53230 5.48525 6.58876
#
# Compressibility (1/GPa) = 0.01823791
#
# Stress axis : x y z
#
# Youngs Moduli (GPa) = 84.68929 40.44066 126.28503
#
# Poissons Ratio (x) = 0.18251 0.46196
# Poissons Ratio (y) = 0.38221 0.62345
# Poissons Ratio (z) = 0.30980 0.19965
#
# Static dielectric constant tensor:
#      x y z
#    x 3.423770 0.000000 0.182140 
#    y 0.000000 3.259790 0.000000 
#    z 0.182140 0.000000 3.800230 
# 
# 
# High freq. dielectric constant tensor:
#      x y z
#    x 1.731620 0.000000 0.008800 
#    y 0.000000 1.687850 0.000000 
#    z 0.008800 0.000000 1.745670 
# 
# From -- ./inp_files/8618.got.cif
#   From: 2010.03.12/outbox.cif.g09.slc.cpg/sg5_5_cif.got.tgz:8618.got - 2010.03.31 09:47:26.
