data_PCOD8048046
_publ_section_title
;
Structure prediction by ZEFSAII (Michael W. Deem and Ramdas Pophale) SiO2 
 PCOD8048046
Probable space group: C 2
;
_chemical_formula_sum "Si O2"
_cell_formula_units_Z 30
_cell_length_a 19.090193
_cell_length_b 7.956719
_cell_length_c 20.887431
_cell_angle_alpha 90.000000
_cell_angle_beta 149.407046
_cell_angle_gamma 90.000000
_cell_volume 1614.701192
_symmetry_space_group_name_H-M "C 2"
_symmetry_group_IT_number 5
_symmetry_cell_setting 'monoclinic'
loop_
_space_group_symop_operation_xyz
x,y,z
-x,y,-z
1/2+x,1/2+y,z
1/2-x,1/2+y,-z
loop_
_atom_site_type_symbol
_atom_site_label
_atom_site_fract_x
_atom_site_fract_y
_atom_site_fract_z
Si Si1 0.571483 0.407220 0.489017
Si Si2 0.500000 0.936890 0.500000
Si Si3 0.706190 0.540778 0.287474
Si Si4 0.418737 0.713601 0.323196
Si Si5 0.383269 0.222564 0.857358
Si Si6 0.696056 0.132692 0.507991
Si Si7 0.561254 0.864304 0.322817
Si Si8 0.873061 0.409361 0.763142
O O1 0.500000 0.379534 0.500000
O O2 0.483282 0.528441 0.374249
O O3 0.583181 0.231380 0.461697
O O4 0.725962 0.476961 0.622065
O O5 0.511360 0.819946 0.445901
O O6 0.362054 0.045539 0.382807
O O7 0.620691 0.383432 0.192933
O O8 0.714718 0.520175 0.371469
O O9 0.640058 0.722295 0.215657
O O10 0.260377 0.702826 0.218829
O O11 0.432695 0.790141 0.262318
O O12 0.426459 0.050220 0.854495
O O13 0.500000 0.261931 0.000000
O O14 0.805064 0.250368 0.558275
O O15 0.604338 0.044014 0.383420
O O16 0.526190 0.887203 0.219747
#
# Coordination Sequence:
#
# PCOD8048046 Si02
#       8
#     4   2   4   4   4   4   4   4
#     4  10  17  30  52  86 118 148 180 235 302 350
#     4  10  16  28  56  86 114 140 176 232 298 352
#     4   9  20  33  55  86 112 145 183 240 288 352
#     4  11  19  33  57  82 118 148 197 243 285 359
#     4  11  24  41  62  79 108 159 213 252 285 320
#     4  10  21  28  53  84 125 153 175 220 302 380
#     4  10  20  33  51  86 123 152 181 224 303 375
#     4  10  22  36  58  85 123 148 183 243 299 364
#
# _framework density 18.57929
#
# number of rings (size 3 to 8) (size 9 to 14) (size 15 to 20)
#    0.000    2.133    3.333    2.400    5.600    0.533 
#    0.000    0.000    5.867    0.000    0.000    0.000 
#    0.000    0.000    0.000    0.000    0.000    0.000 
#
# Total GULP energy -185884.691905 kJ/mol
# GULP energy per Si atom -12392.312794 kJ/mol
# Density = 1.853700 g / cm^3
# Si number density = 18.579290 Si / 1000 Ang^3
#
#
#
# Elastic Constant Matrix: (Units=GPa)
#
#
# Indices 1 2 3 4 5 6 
#
# 1 108.0077 31.1395 13.9590 0.0000 -17.7864 0.0000
# 2 31.1395 105.7388 35.7881 0.0000 -14.0160 0.0000
# 3 13.9590 35.7881 56.5524 0.0000 -6.6172 0.0000
# 4 0.0000 0.0000 0.0000 20.7732 0.0000 -8.4898
# 5 -17.7864 -14.0160 -6.6172 0.0000 13.5697 0.0000
# 6 0.0000 0.0000 0.0000 -8.4898 0.0000 27.0558
#
#
#
# Elastic Compliance Matrix: (Units=1/GPa)
#
#
# Indices 1 2 3 4 5 6 
#
# 1 0.012067 -0.001581 -0.000338 0.000000 0.014019 0.000000
# 2 -0.001581 0.013445 -0.007143 0.000000 0.008331 0.000000
# 3 -0.000338 -0.007143 0.022665 0.000000 0.003232 0.000000
# 4 0.000000 0.000000 0.000000 0.055221 0.000000 0.017328
# 5 0.014019 0.008331 0.003232 0.000000 0.102250 0.000000
# 6 0.000000 0.000000 0.000000 0.017328 0.000000 0.042398
#
#
# Mechanical properties :
#
#
# Convention : Reuss Voigt Hill
#
# Bulk Modulus (GPa) = 33.27521 48.00800 40.64160
# Shear Modulus (GPa) = 18.10376 24.90722 21.50549
#
# Velocity S-wave (km/s) = 3.12493 3.66538 3.40589
# Velocity P-wave (km/s) = 5.56498 6.61883 6.11465
#
# Compressibility (1/GPa) = 0.03005240
#
# Stress axis : x y z
#
# Youngs Moduli (GPa) = 82.87334 74.37754 44.12162
#
# Poissons Ratio (x) = 0.11760 0.01489
# Poissons Ratio (y) = 0.13103 0.31517
# Poissons Ratio (z) = 0.02797 0.53130
#
# Static dielectric constant tensor:
#      x y z
#    x 3.726500 0.000000 -0.189670 
#    y 0.000000 3.599500 0.000000 
#    z -0.189670 0.000000 2.895790 
# 
# 
# High freq. dielectric constant tensor:
#      x y z
#    x 1.730280 0.000000 -0.014040 
#    y 0.000000 1.733850 0.000000 
#    z -0.014040 0.000000 1.655930 
# 
# From -- ./inp_files/48274.got.cif
#   From: 2010.03.12/outbox.cif.g09.slc.cpg/sg5_25_cif.got.tgz:48274.got - 2010.03.31 09:47:26.
