data_PCOD8048756
_publ_section_title
;
Structure prediction by ZEFSAII (Michael W. Deem and Ramdas Pophale) SiO2 
 PCOD8048756
Probable space group: C 2
;
_chemical_formula_sum "Si O2"
_cell_formula_units_Z 28
_cell_length_a 18.801509
_cell_length_b 9.303565
_cell_length_c 21.394827
_cell_angle_alpha 90.000000
_cell_angle_beta 22.380378
_cell_angle_gamma 90.000000
_cell_volume 1424.934968
_symmetry_space_group_name_H-M "C 2"
_symmetry_group_IT_number 5
_symmetry_cell_setting 'monoclinic'
loop_
_space_group_symop_operation_xyz
x,y,z
-x,y,-z
1/2+x,1/2+y,z
1/2-x,1/2+y,-z
loop_
_atom_site_type_symbol
_atom_site_label
_atom_site_fract_x
_atom_site_fract_y
_atom_site_fract_z
Si Si1 0.295684 0.006470 0.879597
Si Si2 0.206418 0.498428 0.353953
Si Si3 0.001370 0.787029 0.927434
Si Si4 0.622736 0.028669 0.040336
Si Si5 0.839417 0.413230 0.470961
Si Si6 0.475182 0.621807 0.301691
Si Si7 0.995793 0.221426 0.143094
O O1 0.485692 0.016804 0.686072
O O2 0.343983 0.005454 0.913523
O O3 0.169607 0.143855 0.967944
O O4 0.185127 0.865037 0.946861
O O5 0.319808 0.391097 0.217471
O O6 0.210526 0.418757 0.416398
O O7 0.302223 0.655179 0.275570
O O8 0.000000 0.525110 0.500000
O O9 0.021916 0.653104 0.862879
O O10 0.000000 0.732127 0.000000
O O11 0.820054 0.062492 0.844636
O O12 0.518200 0.884528 0.103247
O O13 0.659335 0.482681 0.583000
O O14 0.886927 0.248628 0.415475
O O15 0.498864 0.693979 0.214695
#
# Coordination Sequence:
#
# PCOD8048756 Si02
#       7
#     4   4   4   4   4   4   4
#     4  10  19  37  63  88 122 168 209 256 302 378
#     4  10  23  40  61  85 121 166 207 253 312 386
#     4  11  23  41  65  91 125 167 216 260 311 377
#     4  11  20  39  61  90 125 161 212 262 305 370
#     4  11  21  35  57  94 123 157 203 259 320 364
#     4  10  22  33  57  92 127 154 201 256 317 363
#     4   9  20  37  59  87 116 162 203 253 305 369
#
# _framework density 19.650020000000001
#
# number of rings (size 3 to 8) (size 9 to 14) (size 15 to 20)
#    0.000    1.714    2.857    2.571    4.000    0.000 
#    0.000    5.000    0.000    0.000    0.000    0.000 
#    0.000    0.000    0.000    0.000    0.000    0.000 
#
# Total GULP energy -173487.127420 kJ/mol
# GULP energy per Si atom -12391.937673 kJ/mol
# Density = 1.960530 g / cm^3
# Si number density = 19.650020 Si / 1000 Ang^3
#
#
#
# Elastic Constant Matrix: (Units=GPa)
#
#
# Indices 1 2 3 4 5 6 
#
# 1 69.7958 36.7041 14.2958 -0.0019 -13.8119 -0.0002
# 2 36.7041 133.0504 39.9044 -0.0049 -13.7139 -0.0015
# 3 14.2958 39.9044 92.6957 -0.0157 -16.2061 -0.0038
# 4 -0.0019 -0.0049 -0.0157 41.8173 0.0012 2.6407
# 5 -13.8119 -13.7139 -16.2061 0.0012 30.4898 0.0009
# 6 -0.0002 -0.0015 -0.0038 2.6407 0.0009 15.8198
#
#
#
# Elastic Compliance Matrix: (Units=1/GPa)
#
#
# Indices 1 2 3 4 5 6 
#
# 1 0.017793 -0.004329 0.000208 0.000000 0.006223 -0.000001
# 2 -0.004329 0.009808 -0.003446 0.000000 0.000618 0.000000
# 3 0.000208 -0.003446 0.013213 0.000004 0.005567 0.000002
# 4 0.000000 0.000000 0.000004 0.024168 0.000001 -0.004034
# 5 0.006223 0.000618 0.005567 0.000001 0.038854 -0.000001
# 6 -0.000001 0.000000 0.000002 -0.004034 -0.000001 0.063885
#
#
# Mechanical properties :
#
#
# Convention : Reuss Voigt Hill
#
# Bulk Modulus (GPa) = 38.94425 53.03895 45.99160
# Shear Modulus (GPa) = 26.12103 31.26788 28.69446
#
# Velocity S-wave (km/s) = 3.64993 3.99336 3.82550
# Velocity P-wave (km/s) = 6.13389 6.95075 6.55506
#
# Compressibility (1/GPa) = 0.02567773
#
# Stress axis : x y z
#
# Youngs Moduli (GPa) = 56.20110 101.96161 75.68417
#
# Poissons Ratio (x) = 0.44143 -0.01572
# Poissons Ratio (y) = 0.24332 0.26083
# Poissons Ratio (z) = -0.01167 0.35139
#
# Static dielectric constant tensor:
#      x y z
#    x 3.004930 -0.000030 -0.037530 
#    y -0.000030 3.622950 0.000010 
#    z -0.037530 0.000010 3.826900 
# 
# 
# High freq. dielectric constant tensor:
#      x y z
#    x 1.738750 0.000000 -0.004420 
#    y 0.000000 1.764390 0.000000 
#    z -0.004420 0.000000 1.774640 
# 
# From -- ./inp_files/26694.got.cif
#   From: 2010.03.12/outbox.cif.g09.slc.cpg/sg5_14_cif.got.tgz:26694.got - 2010.03.31 09:47:26.
