data_PCOD8048121
_publ_section_title
;
Structure prediction by ZEFSAII (Michael W. Deem and Ramdas Pophale) SiO2 
 PCOD8048121
Probable space group: C 2
;
_chemical_formula_sum "Si O2"
_cell_formula_units_Z 28
_cell_length_a 20.588077
_cell_length_b 17.189571
_cell_length_c 8.668227
_cell_angle_alpha 90.000000
_cell_angle_beta 28.252578
_cell_angle_gamma 90.000000
_cell_volume 1452.118351
_symmetry_space_group_name_H-M "C 2"
_symmetry_group_IT_number 5
_symmetry_cell_setting 'monoclinic'
loop_
_space_group_symop_operation_xyz
x,y,z
-x,y,-z
1/2+x,1/2+y,z
1/2-x,1/2+y,-z
loop_
_atom_site_type_symbol
_atom_site_label
_atom_site_fract_x
_atom_site_fract_y
_atom_site_fract_z
Si Si1 0.368436 0.976130 0.884007
Si Si2 0.644506 0.681402 0.783655
Si Si3 0.386559 0.810845 0.944844
Si Si4 0.306713 0.776119 0.773455
Si Si5 0.968323 0.071860 0.744014
Si Si6 0.360113 0.419723 0.865001
Si Si7 0.249505 0.620714 0.733539
O O1 0.500000 0.974172 0.500000
O O2 0.383088 0.903956 0.972731
O O3 0.230888 0.965295 0.071916
O O4 0.367574 0.057584 0.979707
O O5 0.761309 0.650489 0.421363
O O6 0.500000 0.682744 0.000000
O O7 0.682344 0.768849 0.763041
O O8 0.639734 0.630253 0.950288
O O9 0.305505 0.787299 0.959657
O O10 0.541455 0.778085 0.613630
O O11 0.237288 0.694622 0.873247
O O12 0.220011 0.848857 0.885824
O O13 0.000000 0.096049 0.500000
O O14 0.108236 0.074615 0.547011
O O15 0.903915 0.985885 0.895560
O O16 0.500000 0.385439 0.500000
#
# Coordination Sequence:
#
# PCOD8048121 Si02
#       7
#     4   4   4   4   4   4   4
#     4  11  21  36  60  92 123 151 195 251 303 347
#     4  10  20  32  56  88 118 150 202 242 284 350
#     4  10  18  35  57  86 114 157 201 243 283 358
#     4  10  19  33  59  83 113 151 203 239 291 345
#     4  10  17  32  60  85 108 144 200 240 278 336
#     4  10  19  34  58  90 113 145 201 247 289 348
#     4  11  21  35  56  91 119 153 196 246 295 355
#
# _framework density 19.282174999999999
#
# number of rings (size 3 to 8) (size 9 to 14) (size 15 to 20)
#    0.000    1.714    8.571    0.857    0.000    0.571 
#    2.571    0.000    0.000    0.000    0.000    0.000 
#    0.000    0.000    0.000    0.000    0.000    0.000 
#
# Total GULP energy -173510.301032 kJ/mol
# GULP energy per Si atom -12393.592931 kJ/mol
# Density = 1.923829 g / cm^3
# Si number density = 19.282175 Si / 1000 Ang^3
#
#
#
# Elastic Constant Matrix: (Units=GPa)
#
#
# Indices 1 2 3 4 5 6 
#
# 1 50.7441 45.6800 30.5031 0.0000 15.0774 0.0000
# 2 45.6800 183.7522 45.8601 0.0000 22.8942 0.0000
# 3 30.5031 45.8601 57.3802 0.0000 9.2780 0.0000
# 4 0.0000 0.0000 0.0000 30.9901 0.0000 -1.1442
# 5 15.0774 22.8942 9.2780 0.0000 23.1055 0.0000
# 6 0.0000 0.0000 0.0000 -1.1442 0.0000 34.7796
#
#
#
# Elastic Compliance Matrix: (Units=1/GPa)
#
#
# Indices 1 2 3 4 5 6 
#
# 1 0.035314 -0.003643 -0.013602 0.000000 -0.013972 0.000000
# 2 -0.003643 0.007728 -0.003621 0.000000 -0.003826 0.000000
# 3 -0.013602 -0.003621 0.027310 0.000000 0.001497 0.000000
# 4 0.000000 0.000000 0.000000 0.032308 0.000000 0.001063
# 5 -0.013972 -0.003826 0.001497 0.000000 0.055587 0.000000
# 6 0.000000 0.000000 0.000000 0.001063 0.000000 0.028787
#
#
# Mechanical properties :
#
#
# Convention : Reuss Voigt Hill
#
# Bulk Modulus (GPa) = 34.94049 59.55142 47.24596
# Shear Modulus (GPa) = 20.98127 29.09728 25.03928
#
# Velocity S-wave (km/s) = 3.30224 3.88883 3.60748
# Velocity P-wave (km/s) = 5.71836 7.14949 6.47360
#
# Compressibility (1/GPa) = 0.02862009
#
# Stress axis : x y z
#
# Youngs Moduli (GPa) = 28.31714 129.39414 36.61619
#
# Poissons Ratio (x) = 0.47144 0.49804
# Poissons Ratio (y) = 0.10317 0.13260
# Poissons Ratio (z) = 0.38516 0.46857
#
# Static dielectric constant tensor:
#      x y z
#    x 3.399200 0.000000 0.104270 
#    y 0.000000 3.839810 0.000000 
#    z 0.104270 0.000000 3.402020 
# 
# 
# High freq. dielectric constant tensor:
#      x y z
#    x 1.716860 0.000000 0.005390 
#    y 0.000000 1.768720 0.000000 
#    z 0.005390 0.000000 1.716900 
# 
# From -- ./inp_files/29998.got.cif
#   From: 2010.03.12/outbox.cif.g09.slc.cpg/sg5_15_cif.got.tgz:29998.got - 2010.03.31 09:47:26.
