data_PCOD8048617
_publ_section_title
;
Structure prediction by ZEFSAII (Michael W. Deem and Ramdas Pophale) SiO2 
 PCOD8048617
Probable space group: C 2
;
_chemical_formula_sum "Si O2"
_cell_formula_units_Z 30
_cell_length_a 20.568903
_cell_length_b 8.666848
_cell_length_c 9.493418
_cell_angle_alpha 90.000000
_cell_angle_beta 116.796093
_cell_angle_gamma 90.000000
_cell_volume 1510.636083
_symmetry_space_group_name_H-M "C 2"
_symmetry_group_IT_number 5
_symmetry_cell_setting 'monoclinic'
loop_
_space_group_symop_operation_xyz
x,y,z
-x,y,-z
1/2+x,1/2+y,z
1/2-x,1/2+y,-z
loop_
_atom_site_type_symbol
_atom_site_label
_atom_site_fract_x
_atom_site_fract_y
_atom_site_fract_z
Si Si1 0.452313 0.183400 0.261643
Si Si2 0.208598 0.991947 0.079050
Si Si3 0.587209 0.032968 0.485480
Si Si4 0.776208 0.977514 0.346300
Si Si5 0.500000 0.757054 0.500000
Si Si6 0.813913 0.635198 0.969621
Si Si7 0.753390 0.626016 0.403992
Si Si8 0.593496 0.514760 0.741326
O O1 0.533950 0.118749 0.320811
O O2 0.417330 0.114760 0.368491
O O3 0.457294 0.367059 0.283773
O O4 0.401217 0.137984 0.078645
O O5 0.216272 0.807590 0.081860
O O6 0.203940 0.050451 0.234248
O O7 0.279973 0.066310 0.079113
O O8 0.137385 0.051976 0.926958
O O9 0.668920 0.038991 0.509604
O O10 0.560073 0.857295 0.475701
O O11 0.762035 0.806979 0.389350
O O12 0.707321 0.030445 0.184314
O O13 0.786255 0.094264 0.486607
O O14 0.849684 0.980896 0.328184
O O15 0.541070 0.656005 0.656638
#
# Coordination Sequence:
#
# PCOD8048617 Si02
#       8
#     4   4   4   4   2   4   4   4
#     4   9  17  36  57  82 114 145 193 234 286 339
#     4  10  20  33  60  82 119 145 198 241 284 335
#     4  10  21  33  57  86 114 155 185 243 288 338
#     4  11  25  36  60  83 122 156 192 237 297 346
#     4  10  22  32  60  90 118 142 196 250 276 338
#     4  10  19  35  57  88 109 154 193 244 282 338
#     4  12  23  41  55  87 119 159 191 239 292 356
#     4  10  20  37  60  92 108 153 190 243 290 333
#
# _framework density 19.859183999999999
#
# number of rings (size 3 to 8) (size 9 to 14) (size 15 to 20)
#    0.000    1.867    2.667    3.200    5.600    2.133 
#    0.000    0.667    0.000    0.800    0.000    0.000 
#    0.000    0.000    0.000    0.000    0.000    0.000 
#
# Total GULP energy -186006.048878 kJ/mol
# GULP energy per Si atom -12400.403259 kJ/mol
# Density = 1.981398 g / cm^3
# Si number density = 19.859184 Si / 1000 Ang^3
#
#
#
# Elastic Constant Matrix: (Units=GPa)
#
#
# Indices 1 2 3 4 5 6 
#
# 1 29.4005 18.7106 30.6924 0.0000 15.4205 0.0000
# 2 18.7106 116.4052 45.3596 0.0000 22.7998 0.0000
# 3 30.6924 45.3596 124.6722 0.0000 12.7512 0.0000
# 4 0.0000 0.0000 0.0000 32.2786 0.0000 5.9822
# 5 15.4205 22.7998 12.7512 0.0000 30.1696 0.0000
# 6 0.0000 0.0000 0.0000 5.9822 0.0000 24.9471
#
#
#
# Elastic Compliance Matrix: (Units=1/GPa)
#
#
# Indices 1 2 3 4 5 6 
#
# 1 0.060173 0.000124 -0.012232 0.000000 -0.025680 0.000000
# 2 0.000124 0.011303 -0.003410 0.000000 -0.007164 0.000000
# 3 -0.012232 -0.003410 0.011884 0.000000 0.003807 0.000000
# 4 0.000000 0.000000 0.000000 0.032421 0.000000 -0.007774
# 5 -0.025680 -0.007164 0.003807 0.000000 0.050077 0.000000
# 6 0.000000 0.000000 0.000000 -0.007774 0.000000 0.041949
#
#
# Mechanical properties :
#
#
# Convention : Reuss Voigt Hill
#
# Bulk Modulus (GPa) = 19.11203 51.11147 35.11175
# Shear Modulus (GPa) = 19.50963 29.19342 24.35153
#
# Velocity S-wave (km/s) = 3.13772 3.83825 3.50553
# Velocity P-wave (km/s) = 4.77198 6.74060 5.83984
#
# Compressibility (1/GPa) = 0.05232308
#
# Stress axis : x y z
#
# Youngs Moduli (GPa) = 16.61880 88.47440 84.14777
#
# Poissons Ratio (x) = -0.01101 1.02933
# Poissons Ratio (y) = -0.00207 0.28696
# Poissons Ratio (z) = 0.20329 0.30172
#
# Static dielectric constant tensor:
#      x y z
#    x 3.340120 0.000000 0.271080 
#    y 0.000000 3.727740 0.000000 
#    z 0.271080 0.000000 3.771610 
# 
# 
# High freq. dielectric constant tensor:
#      x y z
#    x 1.733840 0.000000 0.024110 
#    y 0.000000 1.789400 0.000000 
#    z 0.024110 0.000000 1.781530 
# 
# From -- ./inp_files/30676.got.cif
#   From: 2010.03.12/outbox.cif.g09.slc.cpg/sg5_16_cif.got.tgz:30676.got - 2010.03.31 09:47:26.
