data_PCOD8048061
_publ_section_title
;
Structure prediction by ZEFSAII (Michael W. Deem and Ramdas Pophale) SiO2 
 PCOD8048061
Probable space group: C 2
;
_chemical_formula_sum "Si O2"
_cell_formula_units_Z 28
_cell_length_a 7.447463
_cell_length_b 32.752584
_cell_length_c 5.390996
_cell_angle_alpha 90.000000
_cell_angle_beta 124.432814
_cell_angle_gamma 90.000000
_cell_volume 1084.591544
_symmetry_space_group_name_H-M "C 2"
_symmetry_group_IT_number 5
_symmetry_cell_setting 'monoclinic'
loop_
_space_group_symop_operation_xyz
x,y,z
-x,y,-z
1/2+x,1/2+y,z
1/2-x,1/2+y,-z
loop_
_atom_site_type_symbol
_atom_site_label
_atom_site_fract_x
_atom_site_fract_y
_atom_site_fract_z
Si Si1 0.761585 0.052460 0.968544
Si Si2 0.239944 0.679810 0.543983
Si Si3 0.136948 0.266281 0.356188
Si Si4 0.729182 0.646850 0.931825
Si Si5 0.125918 0.937053 0.358591
Si Si6 0.723221 0.019543 0.439140
Si Si7 0.636558 0.855758 0.356327
O O1 0.863469 0.041471 0.772873
O O2 0.504915 0.042901 0.747046
O O3 0.807085 0.099188 0.065529
O O4 0.843591 0.024737 0.265127
O O5 0.195936 0.728616 0.488062
O O6 0.498123 0.670084 0.750543
O O7 0.145184 0.655943 0.229317
O O8 0.135430 0.664858 0.725871
O O9 0.251057 0.311079 0.422548
O O10 0.000000 0.266616 0.500000
O O11 0.000000 0.258833 0.000000
O O12 0.190520 0.891180 0.474835
O O13 0.000000 0.953050 0.500000
O O14 0.313477 0.972072 0.503244
O O15 0.000000 0.937300 0.000000
O O16 0.500000 0.857192 0.500000
O O17 0.500000 0.864898 0.000000
#
# Coordination Sequence:
#
# PCOD8048061 Si02
#       7
#     4   4   4   4   4   4   4
#     4  10  21  39  60  85 113 166 208 261 314 375
#     4  10  17  30  50  85 129 157 194 256 300 360
#     4  10  16  32  54  90 124 157 205 253 299 368
#     4  10  18  30  50  81 116 164 197 250 305 353
#     4  12  26  46  66  97 130 169 215 268 335 391
#     4  10  23  41  62  82 118 162 208 264 316 380
#     4  10  23  38  70 102 128 167 215 264 321 393
#
# _framework density 25.816172999999999
#
# number of rings (size 3 to 8) (size 9 to 14) (size 15 to 20)
#    0.000    1.714    2.857    2.571    4.000    0.000 
#   15.429    0.000    0.000    0.000   22.286    0.000 
#    0.000    0.000    0.000    0.000    0.000    0.000 
#
# Total GULP energy -173488.001017 kJ/mol
# GULP energy per Si atom -12392.000073 kJ/mol
# Density = 2.575741 g / cm^3
# Si number density = 25.816173 Si / 1000 Ang^3
#
#
#
# Elastic Constant Matrix: (Units=GPa)
#
#
# Indices 1 2 3 4 5 6 
#
# 1 94.3989 23.8626 67.2928 0.0000 -47.3436 0.0000
# 2 23.8626 229.1335 66.2420 0.0000 -13.6268 0.0000
# 3 67.2928 66.2420 227.2460 0.0000 -53.0091 0.0000
# 4 0.0000 0.0000 0.0000 45.3690 0.0000 -11.5008
# 5 -47.3436 -13.6268 -53.0091 0.0000 58.5307 0.0000
# 6 0.0000 0.0000 0.0000 -11.5008 0.0000 19.3226
#
#
#
# Elastic Compliance Matrix: (Units=1/GPa)
#
#
# Indices 1 2 3 4 5 6 
#
# 1 0.018999 -0.000498 -0.002438 0.000000 0.013044 0.000000
# 2 -0.000498 0.004781 -0.001370 0.000000 -0.000530 0.000000
# 3 -0.002438 -0.001370 0.006323 0.000000 0.003436 0.000000
# 4 0.000000 0.000000 0.000000 0.025958 0.000000 0.015450
# 5 0.013044 -0.000530 0.003436 0.000000 0.030624 0.000000
# 6 0.000000 0.000000 0.000000 0.015450 0.000000 0.060949
#
#
# Mechanical properties :
#
#
# Convention : Reuss Voigt Hill
#
# Bulk Modulus (GPa) = 46.53152 96.17479 71.35316
# Shear Modulus (GPa) = 30.59811 50.86987 40.73399
#
# Velocity S-wave (km/s) = 3.44645 4.44381 3.97652
# Velocity P-wave (km/s) = 5.82243 7.97900 6.98445
#
# Compressibility (1/GPa) = 0.02149081
#
# Stress axis : x y z
#
# Youngs Moduli (GPa) = 52.63416 209.17907 158.14655
#
# Poissons Ratio (x) = 0.10417 0.38560
# Poissons Ratio (y) = 0.02621 0.21663
# Poissons Ratio (z) = 0.12834 0.28653
#
# Static dielectric constant tensor:
#      x y z
#    x 5.226910 0.000000 -1.120780 
#    y 0.000000 4.956670 0.000000 
#    z -1.120780 0.000000 5.950840 
# 
# 
# High freq. dielectric constant tensor:
#      x y z
#    x 2.047790 0.000000 -0.025860 
#    y 0.000000 2.040980 0.000000 
#    z -0.025860 0.000000 2.078000 
# 
# From -- ./inp_files/3996.got.cif
#   From: 2010.03.12/outbox.cif.g09.slc.cpg/sg5_2_cif.got.tgz:3996.got - 2010.03.31 09:47:26.
