data_PCOD8048135
_publ_section_title
;
Structure prediction by ZEFSAII (Michael W. Deem and Ramdas Pophale) SiO2 
 PCOD8048135
Probable space group: C 2
;
_chemical_formula_sum "Si O2"
_cell_formula_units_Z 28
_cell_length_a 13.931861
_cell_length_b 13.802044
_cell_length_c 9.040839
_cell_angle_alpha 90.000000
_cell_angle_beta 65.281221
_cell_angle_gamma 90.000000
_cell_volume 1579.154485
_symmetry_space_group_name_H-M "C 2"
_symmetry_group_IT_number 5
_symmetry_cell_setting 'monoclinic'
loop_
_space_group_symop_operation_xyz
x,y,z
-x,y,-z
1/2+x,1/2+y,z
1/2-x,1/2+y,-z
loop_
_atom_site_type_symbol
_atom_site_label
_atom_site_fract_x
_atom_site_fract_y
_atom_site_fract_z
Si Si1 0.395959 0.953240 0.155748
Si Si2 0.208228 0.945138 0.079085
Si Si3 0.524869 0.432205 0.819774
Si Si4 0.907651 0.560461 0.451390
Si Si5 0.722860 0.775620 0.800124
Si Si6 0.209676 0.055853 0.784739
Si Si7 0.092441 0.780294 0.547693
O O1 0.288643 0.995770 0.145609
O O2 0.384283 0.835556 0.169534
O O3 0.406624 0.992168 0.312165
O O4 0.500000 0.983762 0.000000
O O5 0.223188 0.828002 0.090573
O O6 0.084094 0.966707 0.189186
O O7 0.240434 0.981546 0.895644
O O8 0.598018 0.527277 0.784256
O O9 0.589768 0.349594 0.691713
O O10 0.500000 0.391075 0.000000
O O11 0.796802 0.550181 0.603597
O O12 0.929122 0.670479 0.385824
O O13 0.000000 0.524751 0.500000
O O14 0.699347 0.664726 0.855427
O O15 0.796828 0.786771 0.608244
O O16 0.000000 0.816017 0.500000
#
# Coordination Sequence:
#
# PCOD8048135 Si02
#       7
#     4   4   4   4   4   4   4
#     4  10  20  36  54  80 110 150 184 228 278 332
#     4   9  20  37  56  82 108 151 187 229 278 329
#     4  10  20  34  57  87 112 143 188 235 275 324
#     4  10  21  34  56  81 111 148 188 229 282 331
#     4   9  20  35  57  77 111 148 190 215 287 327
#     4  10  20  37  57  82 114 147 183 232 281 331
#     4  10  17  34  56  79 108 145 180 232 276 325
#
# _framework density 17.731007000000002
#
# number of rings (size 3 to 8) (size 9 to 14) (size 15 to 20)
#    0.857    1.429    1.429    1.714    0.000    2.286 
#    5.143    0.000    0.000    0.857    0.000    0.000 
#    0.000    0.000    0.000    0.000    0.000    0.000 
#
# Total GULP energy -173471.303348 kJ/mol
# GULP energy per Si atom -12390.807382 kJ/mol
# Density = 1.769065 g / cm^3
# Si number density = 17.731007 Si / 1000 Ang^3
#
#
#
# Elastic Constant Matrix: (Units=GPa)
#
#
# Indices 1 2 3 4 5 6 
#
# 1 129.6801 51.2287 39.1436 0.0000 2.9189 0.0000
# 2 51.2287 104.0041 58.0887 0.0000 7.3722 0.0000
# 3 39.1436 58.0887 90.1959 0.0000 3.7640 0.0000
# 4 0.0000 0.0000 0.0000 27.3276 0.0000 4.3315
# 5 2.9189 7.3722 3.7640 0.0000 19.7480 0.0000
# 6 0.0000 0.0000 0.0000 4.3315 0.0000 29.8667
#
#
#
# Elastic Compliance Matrix: (Units=1/GPa)
#
#
# Indices 1 2 3 4 5 6 
#
# 1 0.009756 -0.003836 -0.001777 0.000000 0.000329 0.000000
# 2 -0.003836 0.016812 -0.008996 0.000000 -0.003995 0.000000
# 3 -0.001777 -0.008996 0.017641 0.000000 0.000259 0.000000
# 4 0.000000 0.000000 0.000000 0.037454 0.000000 -0.005432
# 5 0.000329 -0.003995 0.000259 0.000000 0.052031 0.000000
# 6 0.000000 0.000000 0.000000 -0.005432 0.000000 0.034270
#
#
# Mechanical properties :
#
#
# Convention : Reuss Voigt Hill
#
# Bulk Modulus (GPa) = 66.70797 68.97803 67.84300
# Shear Modulus (GPa) = 24.73053 27.08306 25.90679
#
# Velocity S-wave (km/s) = 3.73870 3.91249 3.82658
# Velocity P-wave (km/s) = 7.50607 7.70695 7.60717
#
# Compressibility (1/GPa) = 0.01499071
#
# Stress axis : x y z
#
# Youngs Moduli (GPa) = 102.50447 59.48069 56.68601
#
# Poissons Ratio (x) = 0.22818 0.10073
# Poissons Ratio (y) = 0.39322 0.50995
# Poissons Ratio (z) = 0.18214 0.53509
#
# Static dielectric constant tensor:
#      x y z
#    x 3.368720 0.000000 -0.120360 
#    y 0.000000 3.226350 0.000000 
#    z -0.120360 0.000000 3.200700 
# 
# 
# High freq. dielectric constant tensor:
#      x y z
#    x 1.688530 0.000000 -0.011170 
#    y 0.000000 1.668170 0.000000 
#    z -0.011170 0.000000 1.682440 
# 
# From -- ./inp_files/24301.got.cif
#   From: 2010.03.12/outbox.cif.g09.slc.cpg/sg5_13_cif.got.tgz:24301.got - 2010.03.31 09:47:26.
