data_PCOD8048665
_publ_section_title
;
Structure prediction by ZEFSAII (Michael W. Deem and Ramdas Pophale) SiO2 
 PCOD8048665
Probable space group: C 2
;
_chemical_formula_sum "Si O2"
_cell_formula_units_Z 30
_cell_length_a 23.240928
_cell_length_b 5.286958
_cell_length_c 11.951785
_cell_angle_alpha 90.000000
_cell_angle_beta 59.052189
_cell_angle_gamma 90.000000
_cell_volume 1259.491206
_symmetry_space_group_name_H-M "C 2"
_symmetry_group_IT_number 5
_symmetry_cell_setting 'monoclinic'
loop_
_space_group_symop_operation_xyz
x,y,z
-x,y,-z
1/2+x,1/2+y,z
1/2-x,1/2+y,-z
loop_
_atom_site_type_symbol
_atom_site_label
_atom_site_fract_x
_atom_site_fract_y
_atom_site_fract_z
Si Si1 0.822586 0.793680 0.351057
Si Si2 0.838730 0.476668 0.661270
Si Si3 0.733773 0.790310 0.657234
Si Si4 0.266226 0.163025 0.124780
Si Si5 0.500000 0.476671 0.500000
Si Si6 0.434063 0.835910 0.740940
Si Si7 0.434064 0.117429 0.390933
Si Si8 0.822586 0.159655 0.003772
O O1 0.767235 0.801419 0.502452
O O2 0.803126 0.562892 0.284350
O O3 0.897712 0.749577 0.322956
O O4 0.821034 0.061908 0.288411
O O5 0.791791 0.724574 0.690756
O O6 0.791792 0.228760 0.725660
O O7 0.882958 0.530428 0.729316
O O8 0.882959 0.422911 0.504767
O O9 0.232765 0.151916 0.036921
O O10 0.303125 0.890442 0.109400
O O11 0.321033 0.391426 0.069522
O O12 0.451730 0.313271 0.470585
O O13 0.451730 0.640071 0.625954
O O14 0.500000 0.976670 0.720585
O O15 0.397712 0.703761 0.881620
#
# Coordination Sequence:
#
# PCOD8048665 Si02
#       8
#     4   4   4   4   2   4   4   4
#     4   9  20  35  52  74 114 146 196 221 285 346
#     4  10  19  36  56  82 121 136 198 240 298 342
#     4   9  19  34  53  79 103 154 182 242 280 335
#     4   9  19  34  53  79 103 154 182 242 280 335
#     4  12  22  32  56  86 120 162 198 224 304 344
#     4  11  22  36  51  86 118 157 185 236 289 358
#     4  11  22  36  51  86 118 157 185 236 289 358
#     4   9  20  35  52  74 114 146 196 221 285 346
#
# _framework density 23.819143
#
# number of rings (size 3 to 8) (size 9 to 14) (size 15 to 20)
#    0.000    2.133    2.667    0.000    3.733    7.467 
#    0.000    0.000    0.000    0.000    0.000    5.600 
#    0.000    0.000    0.000    0.000    0.000    0.000 
#
# Total GULP energy -185936.885723 kJ/mol
# GULP energy per Si atom -12395.792382 kJ/mol
# Density = 2.376493 g / cm^3
# Si number density = 23.819143 Si / 1000 Ang^3
#
#
#
# Elastic Constant Matrix: (Units=GPa)
#
#
# Indices 1 2 3 4 5 6 
#
# 1 119.7033 49.7271 14.8067 0.0000 -23.0949 0.0000
# 2 49.7271 173.7830 43.2046 0.0000 -16.5798 -0.0003
# 3 14.8067 43.2046 98.9524 0.0000 -29.6588 0.0000
# 4 0.0000 0.0000 0.0000 26.4767 0.0000 5.0805
# 5 -23.0949 -16.5798 -29.6588 0.0000 31.2176 0.0000
# 6 0.0000 -0.0003 0.0000 5.0805 0.0000 24.4784
#
#
#
# Elastic Compliance Matrix: (Units=1/GPa)
#
#
# Indices 1 2 3 4 5 6 
#
# 1 0.010939 -0.002852 0.002209 0.000000 0.008677 0.000000
# 2 -0.002852 0.007223 -0.003089 0.000000 -0.001208 0.000000
# 3 0.002209 -0.003089 0.015550 0.000000 0.014767 0.000000
# 4 0.000000 0.000000 0.000000 0.039336 0.000000 -0.008164
# 5 0.008677 -0.001208 0.014767 0.000000 0.051841 0.000000
# 6 0.000000 0.000000 0.000000 -0.008164 0.000000 0.042547
#
#
# Mechanical properties :
#
#
# Convention : Reuss Voigt Hill
#
# Bulk Modulus (GPa) = 38.09651 67.54618 52.82134
# Shear Modulus (GPa) = 27.22576 35.41455 31.32015
#
# Velocity S-wave (km/s) = 3.38453 3.86010 3.63011
# Velocity P-wave (km/s) = 5.59483 6.94886 6.30828
#
# Compressibility (1/GPa) = 0.02624912
#
# Stress axis : x y z
#
# Youngs Moduli (GPa) = 91.41192 138.44664 64.30727
#
# Poissons Ratio (x) = 0.39479 -0.14205
# Poissons Ratio (y) = 0.26067 0.19866
# Poissons Ratio (z) = -0.20192 0.42769
#
# Static dielectric constant tensor:
#      x y z
#    x 4.329470 0.000000 -0.062100 
#    y 0.000000 4.761820 0.000000 
#    z -0.062100 0.000000 4.305030 
# 
# 
# High freq. dielectric constant tensor:
#      x y z
#    x 1.925850 0.000000 0.008850 
#    y 0.000000 1.953240 0.000000 
#    z 0.008850 0.000000 1.929330 
# 
# From -- ./inp_files/57464.got.cif
#   From: 2010.03.12/outbox.cif.g09.slc.cpg/sg5_29_cif.got.tgz:57464.got - 2010.03.31 09:47:26.
