data_PCOD8048174
_publ_section_title
;
Structure prediction by ZEFSAII (Michael W. Deem and Ramdas Pophale) SiO2 
 PCOD8048174
Probable space group: C 2
;
_chemical_formula_sum "Si O2"
_cell_formula_units_Z 28
_cell_length_a 28.212913
_cell_length_b 13.956171
_cell_length_c 5.194082
_cell_angle_alpha 90.000000
_cell_angle_beta 72.097607
_cell_angle_gamma 90.000000
_cell_volume 1946.117391
_symmetry_space_group_name_H-M "C 2"
_symmetry_group_IT_number 5
_symmetry_cell_setting 'monoclinic'
loop_
_space_group_symop_operation_xyz
x,y,z
-x,y,-z
1/2+x,1/2+y,z
1/2-x,1/2+y,-z
loop_
_atom_site_type_symbol
_atom_site_label
_atom_site_fract_x
_atom_site_fract_y
_atom_site_fract_z
Si Si1 0.225183 0.766570 0.228631
Si Si2 0.139993 0.804190 0.040237
Si Si3 0.028379 0.583656 0.201320
Si Si4 0.763366 0.869693 0.287552
Si Si5 0.139981 0.585970 0.925480
Si Si6 0.799699 0.556220 0.673738
Si Si7 0.028106 0.811915 0.206316
O O1 0.251070 0.826629 0.412065
O O2 0.231311 0.655004 0.287398
O O3 0.165347 0.788787 0.282866
O O4 0.253443 0.796853 0.915378
O O5 0.175948 0.876373 0.821415
O O6 0.140217 0.700748 0.901178
O O7 0.084952 0.848717 0.134599
O O8 0.027565 0.697921 0.211572
O O9 0.000000 0.542563 0.500000
O O10 0.084966 0.547048 0.085387
O O11 0.000000 0.544202 0.000000
O O12 0.740518 0.973400 0.291615
O O13 0.158750 0.547149 0.619034
O O14 0.175294 0.546148 0.089952
O O15 0.000000 0.854360 0.500000
O O16 0.000000 0.851199 0.000000
#
# Coordination Sequence:
#
# PCOD8048174 Si02
#       7
#     4   4   4   4   4   4   4
#     4   9  18  30  42  60  82 113 147 179 209 253
#     4   8  18  28  42  55  86 112 144 169 213 243
#     4   9  16  26  38  58  81 111 144 171 200 242
#     4  10  19  29  45  60  82 117 148 179 212 255
#     4  10  18  28  44  60  87 115 147 179 205 253
#     4  11  18  30  44  63  83 115 155 178 215 248
#     4   9  17  23  37  56  77 106 141 171 196 238
#
# _framework density 14.387622
#
# number of rings (size 3 to 8) (size 9 to 14) (size 15 to 20)
#    0.857    1.714    1.429    1.714    2.000    3.429 
#    0.000    0.000    0.000    0.000    0.000    0.000 
#    0.000    0.000    0.000   25.714    0.286    2.143 
#
# Total GULP energy -173441.989131 kJ/mol
# GULP energy per Si atom -12388.713509 kJ/mol
# Density = 1.435487 g / cm^3
# Si number density = 14.387622 Si / 1000 Ang^3
#
#
#
# Elastic Constant Matrix: (Units=GPa)
#
#
# Indices 1 2 3 4 5 6 
#
# 1 70.8983 34.8362 29.1947 0.0000 -0.3561 0.0000
# 2 34.8362 47.5051 20.4882 0.0000 -1.3526 0.0000
# 3 29.1947 20.4882 96.0146 0.0000 7.2692 0.0000
# 4 0.0000 0.0000 0.0000 12.8654 0.0000 0.0341
# 5 -0.3561 -1.3526 7.2692 0.0000 29.9054 0.0000
# 6 0.0000 0.0000 0.0000 0.0341 0.0000 13.8611
#
#
#
# Elastic Compliance Matrix: (Units=1/GPa)
#
#
# Indices 1 2 3 4 5 6 
#
# 1 0.023237 -0.015377 -0.003823 0.000000 0.000510 0.000000
# 2 -0.015377 0.033515 -0.002625 0.000000 0.001971 0.000000
# 3 -0.003823 -0.002625 0.012378 0.000000 -0.003173 0.000000
# 4 0.000000 0.000000 0.000000 0.077729 0.000000 -0.000191
# 5 0.000510 0.001971 -0.003173 0.000000 0.034305 0.000000
# 6 0.000000 0.000000 0.000000 -0.000191 0.000000 0.072145
#
#
# Mechanical properties :
#
#
# Convention : Reuss Voigt Hill
#
# Bulk Modulus (GPa) = 39.24702 42.60626 40.92664
# Shear Modulus (GPa) = 16.36923 19.98630 18.17777
#
# Velocity S-wave (km/s) = 3.37669 3.73115 3.55833
# Velocity P-wave (km/s) = 6.52229 6.94546 6.73720
#
# Compressibility (1/GPa) = 0.02547964
#
# Stress axis : x y z
#
# Youngs Moduli (GPa) = 43.03500 29.83767 80.78880
#
# Poissons Ratio (x) = 0.45880 0.30886
# Poissons Ratio (y) = 0.66173 0.21209
# Poissons Ratio (z) = 0.16452 0.07833
#
# Static dielectric constant tensor:
#      x y z
#    x 2.819430 0.000000 0.084010 
#    y 0.000000 2.317010 0.000000 
#    z 0.084010 0.000000 2.937120 
# 
# 
# High freq. dielectric constant tensor:
#      x y z
#    x 1.543510 0.000000 0.014210 
#    y 0.000000 1.482770 0.000000 
#    z 0.014210 0.000000 1.563830 
# 
# From -- ./inp_files/9701.got.cif
#   From: 2010.03.12/outbox.cif.g09.slc.cpg/sg5_5_cif.got.tgz:9701.got - 2010.03.31 09:47:26.
