data_PCOD8048454
_publ_section_title
;
Structure prediction by ZEFSAII (Michael W. Deem and Ramdas Pophale) SiO2 
 PCOD8048454
Probable space group: C 2
;
_chemical_formula_sum "Si O2"
_cell_formula_units_Z 22
_cell_length_a 12.564039
_cell_length_b 16.403186
_cell_length_c 8.786829
_cell_angle_alpha 90.000000
_cell_angle_beta 142.205618
_cell_angle_gamma 90.000000
_cell_volume 1109.760788
_symmetry_space_group_name_H-M "C 2"
_symmetry_group_IT_number 5
_symmetry_cell_setting 'monoclinic'
loop_
_space_group_symop_operation_xyz
x,y,z
-x,y,-z
1/2+x,1/2+y,z
1/2-x,1/2+y,-z
loop_
_atom_site_type_symbol
_atom_site_label
_atom_site_fract_x
_atom_site_fract_y
_atom_site_fract_z
Si Si1 0.347991 0.468280 0.026589
Si Si2 0.500000 0.596246 0.000000
Si Si3 0.039590 0.507866 0.869368
Si Si4 0.880211 0.649144 0.506138
Si Si5 0.371337 0.885363 0.470310
Si Si6 0.555100 0.304167 0.230581
O O1 0.446037 0.382309 0.168959
O O2 0.481417 0.539009 0.128365
O O3 0.245269 0.506543 0.056009
O O4 0.227080 0.454573 0.740746
O O5 0.324973 0.650028 0.772189
O O6 0.925993 0.584280 0.687379
O O7 0.981658 0.425532 0.725639
O O8 0.000000 0.499532 0.000000
O O9 0.949335 0.735651 0.646265
O O10 0.000000 0.625455 0.500000
O O11 0.500000 0.836833 0.500000
O O12 0.255058 0.823932 0.431868
O O13 0.500000 0.273875 0.000000
#
# Coordination Sequence:
#
# PCOD8048454 Si02
#       6
#     4   2   4   4   4   4
#     4  10  18  39  70  87 118 178 217 246 314 397
#     4  12  20  44  72  88 118 182 226 244 314 408
#     4  11  21  37  64  96 127 164 221 269 310 376
#     4  12  24  42  64  92 133 172 211 267 328 376
#     4   9  17  36  61  87 120 169 215 250 307 392
#     4  10  21  40  63  93 128 165 211 267 323 374
#
# _framework density 19.824092
#
# number of rings (size 3 to 8) (size 9 to 14) (size 15 to 20)
#    0.000    1.455    6.364    1.091    0.000    1.455 
#   11.455    2.727    0.000    0.000    0.000    0.000 
#    0.000    0.000    0.000    0.000    0.000    0.000 
#
# Total GULP energy -136275.514629 kJ/mol
# GULP energy per Si atom -12388.683148 kJ/mol
# Density = 1.977897 g / cm^3
# Si number density = 19.824092 Si / 1000 Ang^3
#
#
#
# Elastic Constant Matrix: (Units=GPa)
#
#
# Indices 1 2 3 4 5 6 
#
# 1 139.0446 27.9868 40.0721 0.0000 7.0440 0.0000
# 2 27.9868 67.9119 35.2324 0.0000 0.3698 0.0000
# 3 40.0721 35.2324 68.4908 0.0000 16.3138 0.0000
# 4 0.0000 0.0000 0.0000 19.0653 0.0000 1.0041
# 5 7.0440 0.3698 16.3138 0.0000 35.3929 0.0000
# 6 0.0000 0.0000 0.0000 1.0041 0.0000 24.8471
#
#
#
# Elastic Compliance Matrix: (Units=1/GPa)
#
#
# Indices 1 2 3 4 5 6 
#
# 1 0.008737 -0.001233 -0.004568 0.000000 0.000380 0.000000
# 2 -0.001233 0.021118 -0.011400 0.000000 0.005279 0.000000
# 3 -0.004568 -0.011400 0.025716 0.000000 -0.010825 0.000000
# 4 0.000000 0.000000 0.000000 0.052563 0.000000 -0.002124
# 5 0.000380 0.005279 -0.010825 0.000000 0.033113 0.000000
# 6 0.000000 0.000000 0.000000 -0.002124 0.000000 0.040332
#
#
# Mechanical properties :
#
#
# Convention : Reuss Voigt Hill
#
# Bulk Modulus (GPa) = 47.23657 53.55890 50.39773
# Shear Modulus (GPa) = 22.41768 27.33810 24.87789
#
# Velocity S-wave (km/s) = 3.36643 3.71756 3.54635
# Velocity P-wave (km/s) = 6.24420 6.74557 6.49972
#
# Compressibility (1/GPa) = 0.02117004
#
# Stress axis : x y z
#
# Youngs Moduli (GPa) = 114.45046 47.35216 38.88662
#
# Poissons Ratio (x) = 0.05838 0.17764
# Poissons Ratio (y) = 0.14109 0.44330
# Poissons Ratio (z) = 0.52284 0.53980
#
# Static dielectric constant tensor:
#      x y z
#    x 3.608010 0.000000 0.224740 
#    y 0.000000 3.327120 0.000000 
#    z 0.224740 0.000000 3.517330 
# 
# 
# High freq. dielectric constant tensor:
#      x y z
#    x 1.787260 0.000000 0.019820 
#    y 0.000000 1.749370 0.000000 
#    z 0.019820 0.000000 1.758840 
# 
# From -- ./inp_files/19935.got.cif
#   From: 2010.03.12/outbox.cif.g09.slc.cpg/sg5_10_cif.got.tgz:19935.got - 2010.03.31 09:47:26.
