data_PCOD8048918
_publ_section_title
;
Structure prediction by ZEFSAII (Michael W. Deem and Ramdas Pophale) SiO2 
 PCOD8048918
Probable space group: C 2
;
_chemical_formula_sum "Si O2"
_cell_formula_units_Z 30
_cell_length_a 9.263779
_cell_length_b 16.713931
_cell_length_c 15.261867
_cell_angle_alpha 90.000000
_cell_angle_beta 39.671680
_cell_angle_gamma 90.000000
_cell_volume 1508.546811
_symmetry_space_group_name_H-M "C 2"
_symmetry_group_IT_number 5
_symmetry_cell_setting 'monoclinic'
loop_
_space_group_symop_operation_xyz
x,y,z
-x,y,-z
1/2+x,1/2+y,z
1/2-x,1/2+y,-z
loop_
_atom_site_type_symbol
_atom_site_label
_atom_site_fract_x
_atom_site_fract_y
_atom_site_fract_z
Si Si1 0.226293 0.841950 0.220070
Si Si2 0.246144 0.838889 0.006586
Si Si3 0.489762 0.181599 0.909902
Si Si4 0.910828 0.571718 0.789778
Si Si5 0.355184 0.495957 0.646831
Si Si6 0.000000 0.964694 0.000000
Si Si7 0.044781 0.694816 0.576154
Si Si8 0.030915 0.172324 0.384363
O O1 0.184447 0.830414 0.137288
O O2 0.134750 0.930190 0.282507
O O3 0.091992 0.774676 0.336487
O O4 0.485596 0.841617 0.129582
O O5 0.159593 0.759220 0.000227
O O6 0.119993 0.913757 0.020555
O O7 0.363855 0.127045 0.896969
O O8 0.737303 0.209746 0.760461
O O9 0.500000 0.136436 0.000000
O O10 0.687945 0.522208 0.868151
O O11 0.105212 0.510257 0.725913
O O12 0.988542 0.625148 0.671549
O O13 0.500000 0.461144 0.500000
O O14 0.459921 0.577028 0.637733
O O15 0.312533 0.713257 0.444329
O O16 0.000000 0.663135 0.500000
O O17 0.000000 0.190238 0.500000
#
# Coordination Sequence:
#
# PCOD8048918 Si02
#       8
#     4   4   4   4   4   2   4   4
#     4  11  24  42  66  95 135 176 225 272 343 401
#     4  11  24  43  63  95 138 174 214 284 333 401
#     4  11  23  40  72  95 132 178 226 269 342 400
#     4  11  24  44  65 100 134 174 223 289 329 399
#     4  10  19  42  69  86 127 176 217 268 333 393
#     4  12  26  42  70  96 140 170 224 278 352 392
#     4  12  25  40  67 103 130 173 228 282 334 397
#     4  10  20  43  67  91 132 174 219 272 326 404
#
# _framework density 19.886686999999998
#
# number of rings (size 3 to 8) (size 9 to 14) (size 15 to 20)
#    0.000    1.067    7.333    0.400    3.733    3.200 
#    2.400    0.000    0.000    0.000    0.000    0.000 
#    0.000    0.000    0.000    0.000    0.000    0.000 
#
# Total GULP energy -185961.418931 kJ/mol
# GULP energy per Si atom -12397.427929 kJ/mol
# Density = 1.984142 g / cm^3
# Si number density = 19.886687 Si / 1000 Ang^3
#
#
#
# Elastic Constant Matrix: (Units=GPa)
#
#
# Indices 1 2 3 4 5 6 
#
# 1 105.7059 36.9336 33.6057 0.0177 -3.5608 0.0071
# 2 36.9336 66.2983 26.8692 0.0165 -4.2569 0.0057
# 3 33.6057 26.8692 81.3078 0.0219 -8.1859 0.0107
# 4 0.0177 0.0165 0.0219 -8.9361 -0.0204 -28.4977
# 5 -3.5608 -4.2569 -8.1859 -0.0204 41.8958 -0.0086
# 6 0.0071 0.0057 0.0107 -28.4977 -0.0086 22.2537
#
#
#
# Elastic Compliance Matrix: (Units=1/GPa)
#
#
# Indices 1 2 3 4 5 6 
#
# 1 0.012470 -0.005614 -0.003315 0.000002 -0.000158 0.000001
# 2 -0.005614 0.019961 -0.004203 0.000003 0.000730 0.000003
# 3 -0.003315 -0.004203 0.015287 0.000006 0.002278 0.000004
# 4 0.000002 0.000003 0.000006 -0.022012 -0.000015 -0.028188
# 5 -0.000158 0.000730 0.002278 -0.000015 0.024375 -0.000011
# 6 0.000001 0.000003 0.000004 -0.028188 -0.000011 0.008839
#
#
# Mechanical properties :
#
#
# Convention : Reuss Voigt Hill
#
# Bulk Modulus (GPa) = 46.60751 49.79212 48.19981
# Shear Modulus (GPa) = 54.15136 21.43625 37.79380
#
# Velocity S-wave (km/s) = 5.22389 3.28673 4.36415
# Velocity P-wave (km/s) = 7.73775 6.28456 7.04871
#
# Compressibility (1/GPa) = 0.02145577
#
# Stress axis : x y z
#
# Youngs Moduli (GPa) = 80.19157 50.09862 65.41410
#
# Poissons Ratio (x) = 0.28123 0.21684
# Poissons Ratio (y) = 0.45016 0.27491
# Poissons Ratio (z) = 0.26583 0.21054
#
# Static dielectric constant tensor:
#      x y z
#    x 3.554400 0.000020 0.000010 
#    y 0.000020 3.498500 -0.000010 
#    z 0.000010 -0.000010 3.676690 
# 
# 
# High freq. dielectric constant tensor:
#      x y z
#    x 1.778530 0.000000 -0.004070 
#    y 0.000000 1.765780 0.000000 
#    z -0.004070 0.000000 1.787680 
# 
# From -- ./inp_files/51365.got.cif
#   From: 2010.03.12/outbox.cif.g09.slc.cpg/sg5_26_cif.got.tgz:51365.got - 2010.03.31 09:47:26.
