data_PCOD8048033
_publ_section_title
;
Structure prediction by ZEFSAII (Michael W. Deem and Ramdas Pophale) SiO2 
 PCOD8048033
Probable space group: C 2
;
_chemical_formula_sum "Si O2"
_cell_formula_units_Z 24
_cell_length_a 17.100336
_cell_length_b 8.020513
_cell_length_c 16.250226
_cell_angle_alpha 90.000000
_cell_angle_beta 146.182402
_cell_angle_gamma 90.000000
_cell_volume 1240.426465
_symmetry_space_group_name_H-M "C 2"
_symmetry_group_IT_number 5
_symmetry_cell_setting 'monoclinic'
loop_
_space_group_symop_operation_xyz
x,y,z
-x,y,-z
1/2+x,1/2+y,z
1/2-x,1/2+y,-z
loop_
_atom_site_type_symbol
_atom_site_label
_atom_site_fract_x
_atom_site_fract_y
_atom_site_fract_z
Si Si1 0.000000 0.716881 0.000000
Si Si2 0.597626 0.625980 0.746975
Si Si3 0.774759 0.933214 0.861376
Si Si4 0.500000 0.454529 0.500000
Si Si5 0.260878 0.728821 0.739357
Si Si6 0.496826 0.630593 0.161758
Si Si7 0.123628 0.438341 0.020378
O O1 0.859710 0.826879 0.866435
O O2 0.978405 0.599260 0.061504
O O3 0.653364 0.817449 0.793502
O O4 0.521891 0.576399 0.596256
O O5 0.489894 0.601243 0.728747
O O6 0.723349 0.498048 0.873772
O O7 0.703248 0.089923 0.753343
O O8 0.893282 0.993154 0.030629
O O9 0.631172 0.335695 0.592413
O O10 0.348057 0.636272 0.743222
O O11 0.368009 0.849189 0.882161
O O12 0.429422 0.813809 0.095081
#
# Coordination Sequence:
#
# PCOD8048033 Si02
#       7
#     2   4   4   2   4   4   4
#     4  10  14  28  52  90 114 136 174 216 292 346
#     4  10  22  35  58  83 124 146 192 233 278 346
#     4  10  19  33  60  92 111 142 182 245 295 335
#     4  10  24  44  54  74 114 180 192 210 280 348
#     4  10  19  37  60  76 115 153 198 219 276 353
#     4  11  18  35  59  93 114 139 187 251 293 325
#     4   9  17  31  56  85 117 151 168 231 303 345
#
# _framework density 19.348182999999999
#
# number of rings (size 3 to 8) (size 9 to 14) (size 15 to 20)
#    0.000    2.000    3.333    2.000    0.000    0.667 
#    0.000    3.333    0.000    0.000    0.000    0.000 
#    0.000    0.000    0.000    0.000    0.000    0.000 
#
# Total GULP energy -148714.215542 kJ/mol
# GULP energy per Si atom -12392.851295 kJ/mol
# Density = 1.930415 g / cm^3
# Si number density = 19.348183 Si / 1000 Ang^3
#
#
#
# Elastic Constant Matrix: (Units=GPa)
#
#
# Indices 1 2 3 4 5 6 
#
# 1 120.7462 27.3713 40.0134 0.0000 -12.9983 0.0000
# 2 27.3713 96.1088 34.2710 0.0000 -3.8624 0.0000
# 3 40.0134 34.2710 76.9583 0.0000 -5.5074 0.0000
# 4 0.0000 0.0000 0.0000 28.9955 0.0000 11.0109
# 5 -12.9983 -3.8624 -5.5074 0.0000 21.4669 0.0000
# 6 0.0000 0.0000 0.0000 11.0109 0.0000 23.4897
#
#
#
# Elastic Compliance Matrix: (Units=1/GPa)
#
#
# Indices 1 2 3 4 5 6 
#
# 1 0.010628 -0.001168 -0.004645 0.000000 0.005033 0.000000
# 2 -0.001168 0.012512 -0.004945 0.000000 0.000275 0.000000
# 3 -0.004645 -0.004945 0.017671 0.000000 0.000831 0.000000
# 4 0.000000 0.000000 0.000000 0.041957 0.000000 -0.019667
# 5 0.005033 0.000275 0.000831 0.000000 0.049894 0.000000
# 6 0.000000 0.000000 0.000000 -0.019667 0.000000 0.051791
#
#
# Mechanical properties :
#
#
# Convention : Reuss Voigt Hill
#
# Bulk Modulus (GPa) = 51.82937 55.23607 53.53272
# Shear Modulus (GPa) = 23.54050 27.60093 25.57072
#
# Velocity S-wave (km/s) = 3.49187 3.78105 3.63934
# Velocity P-wave (km/s) = 6.56532 6.90451 6.73705
#
# Compressibility (1/GPa) = 0.01929408
#
# Stress axis : x y z
#
# Youngs Moduli (GPa) = 94.09226 79.92455 56.59030
#
# Poissons Ratio (x) = 0.09335 0.26289
# Poissons Ratio (y) = 0.10990 0.27983
# Poissons Ratio (z) = 0.43711 0.39521
#
# Static dielectric constant tensor:
#      x y z
#    x 3.402640 0.000000 0.093360 
#    y 0.000000 3.847680 0.000000 
#    z 0.093360 0.000000 3.078200 
# 
# 
# High freq. dielectric constant tensor:
#      x y z
#    x 1.748520 0.000000 0.012680 
#    y 0.000000 1.773670 0.000000 
#    z 0.012680 0.000000 1.698630 
# 
# From -- ./inp_files/26470.got.cif
#   From: 2010.03.12/outbox.cif.g09.slc.cpg/sg5_14_cif.got.tgz:26470.got - 2010.03.31 09:47:26.
