data_PCOD8048003
_publ_section_title
;
Structure prediction by ZEFSAII (Michael W. Deem and Ramdas Pophale) SiO2 
 PCOD8048003
Probable space group: P 21
;
_chemical_formula_sum "Si O2"
_cell_formula_units_Z 10
_cell_length_a 8.609752
_cell_length_b 4.826090
_cell_length_c 10.217474
_cell_angle_alpha 90.000000
_cell_angle_beta 117.023250
_cell_angle_gamma 90.000000
_cell_volume 378.199233
_symmetry_space_group_name_H-M "P 21"
_symmetry_group_IT_number 4
_symmetry_cell_setting 'monoclinic'
loop_
_space_group_symop_operation_xyz
x,y,z
-x,1/2+y,-z
loop_
_atom_site_type_symbol
_atom_site_label
_atom_site_fract_x
_atom_site_fract_y
_atom_site_fract_z
Si Si1 0.531118 0.364280 0.426738
Si Si2 0.892126 0.443217 0.426894
Si Si3 0.104672 0.675078 0.995666
Si Si4 0.246589 0.314087 0.839539
Si Si5 0.419484 0.030425 0.150523
O O1 0.441916 0.643041 0.446337
O O2 0.716901 0.449027 0.441840
O O3 0.403933 0.235910 0.267564
O O4 0.865164 0.573818 0.272385
O O5 0.964768 0.130397 0.440587
O O6 0.121746 0.546595 0.856286
O O7 0.018499 0.447057 0.058979
O O8 0.294364 0.764704 0.124260
O O9 0.377594 0.446208 0.782995
O O10 0.364550 0.185495 0.998319
#
# Coordination Sequence:
#
# PCOD8048003 Si02
#       5
#     2   2   2   2   2
#     4  12  29  54  83 120 165 218 271 333 405 487
#     4  12  29  54  83 120 165 218 271 333 405 487
#     4  12  28  48  76 126 168 196 258 348 416 460
#     4  12  26  51  89 117 158 217 278 331 400 495
#     4  12  26  51  89 117 158 217 278 331 400 495
#
# _framework density 26.441087
#
# number of rings (size 3 to 8) (size 9 to 14) (size 15 to 20)
#    0.000    0.000    4.000    4.800    5.600    1.600 
#    7.200    2.000    0.000    0.000    0.000    0.000 
#    0.000    0.000    0.000    0.000    0.000    0.000 
#
# Total GULP energy -124066.303861 kJ/mol
# GULP energy per Si atom -12406.630386 kJ/mol
# Density = 2.638091 g / cm^3
# Si number density = 26.441087 Si / 1000 Ang^3
#
#
#
# Elastic Constant Matrix: (Units=GPa)
#
#
# Indices 1 2 3 4 5 6 
#
# 1 101.6270 39.8499 40.5824 0.0000 -22.0285 0.0000
# 2 39.8499 131.8070 1.6533 0.0000 -15.1563 0.0000
# 3 40.5824 1.6533 62.7141 0.0000 -2.3500 0.0000
# 4 0.0000 0.0000 0.0000 56.1870 0.0000 -3.3306
# 5 -22.0285 -15.1563 -2.3500 0.0000 18.7185 0.0000
# 6 0.0000 0.0000 0.0000 -3.3306 0.0000 65.5341
#
#
#
# Elastic Compliance Matrix: (Units=1/GPa)
#
#
# Indices 1 2 3 4 5 6 
#
# 1 0.020542 -0.003809 -0.012460 0.000000 0.019525 0.000000
# 2 -0.003809 0.009072 0.002344 0.000000 0.003157 0.000000
# 3 -0.012460 0.002344 0.023579 0.000000 -0.009806 0.000000
# 4 0.000000 0.000000 0.000000 0.017851 0.000000 0.000907
# 5 0.019525 0.003157 -0.009806 0.000000 0.077727 0.000000
# 6 0.000000 0.000000 0.000000 0.000907 0.000000 0.015305
#
#
# Mechanical properties :
#
#
# Convention : Reuss Voigt Hill
#
# Bulk Modulus (GPa) = 39.46004 51.14659 45.30332
# Shear Modulus (GPa) = 24.95327 42.35878 33.65602
#
# Velocity S-wave (km/s) = 3.07535 4.00685 3.57160
# Velocity P-wave (km/s) = 5.25039 6.38687 5.84631
#
# Compressibility (1/GPa) = 0.02534209
#
# Stress axis : x y z
#
# Youngs Moduli (GPa) = 48.68181 110.22808 42.41008
#
# Poissons Ratio (x) = 0.41985 0.52845
# Poissons Ratio (y) = 0.18543 -0.09941
# Poissons Ratio (z) = 0.60660 -0.25837
#
# Static dielectric constant tensor:
#      x y z
#    x 4.922480 0.000000 -0.150480 
#    y 0.000000 5.225030 0.000000 
#    z -0.150480 0.000000 4.593720 
# 
# 
# High freq. dielectric constant tensor:
#      x y z
#    x 2.062350 0.000000 -0.007400 
#    y 0.000000 2.087530 0.000000 
#    z -0.007400 0.000000 2.054050 
# 
# From -- ./inp_files/5130.got.cif
#   From: 2010.03.12/outbox.cif.g09.slc.cpg/sg4_3_cif.got.tgz:5130.got - 2010.03.31 09:31:35.
