data_PCOD8048350
_publ_section_title
;
Structure prediction by ZEFSAII (Michael W. Deem and Ramdas Pophale) SiO2 
 PCOD8048350
Probable space group: C 2
;
_chemical_formula_sum "Si O2"
_cell_formula_units_Z 26
_cell_length_a 18.607154
_cell_length_b 9.701900
_cell_length_c 8.469471
_cell_angle_alpha 90.000000
_cell_angle_beta 125.186527
_cell_angle_gamma 90.000000
_cell_volume 1249.580177
_symmetry_space_group_name_H-M "C 2"
_symmetry_group_IT_number 5
_symmetry_cell_setting 'monoclinic'
loop_
_space_group_symop_operation_xyz
x,y,z
-x,y,-z
1/2+x,1/2+y,z
1/2-x,1/2+y,-z
loop_
_atom_site_type_symbol
_atom_site_label
_atom_site_fract_x
_atom_site_fract_y
_atom_site_fract_z
Si Si1 0.803481 0.424780 0.584868
Si Si2 0.777423 0.195517 0.005761
Si Si3 0.691892 0.643641 0.297041
Si Si4 0.500000 0.573324 0.000000
Si Si5 0.466235 0.588776 0.291718
Si Si6 0.162820 0.482910 0.010601
Si Si7 0.016185 0.400589 0.342174
O O1 0.717475 0.498775 0.406061
O O2 0.781676 0.262665 0.546166
O O3 0.815745 0.465737 0.780523
O O4 0.890286 0.460562 0.594704
O O5 0.754980 0.160532 0.797040
O O6 0.790669 0.361335 0.037244
O O7 0.862662 0.113299 0.177358
O O8 0.695696 0.135082 0.001184
O O9 0.588701 0.663347 0.123806
O O10 0.489857 0.497171 0.161091
O O11 0.500000 0.520151 0.500000
O O12 0.515490 0.734567 0.326561
O O13 0.058266 0.471007 0.859462
O O14 0.000000 0.447780 0.500000
#
# Coordination Sequence:
#
# PCOD8048350 Si02
#       7
#     4   4   4   2   4   4   4
#     4  11  22  36  62  90 118 157 202 249 302 364
#     4   9  20  36  54  86 117 154 192 252 301 349
#     4  10  22  37  61  87 124 154 202 253 303 358
#     4  10  18  36  58  82 122 154 194 260 288 352
#     4   9  18  30  56  83 109 147 203 241 288 353
#     4  10  21  35  60  85 120 154 200 250 298 359
#     4  10  19  33  57  83 114 155 200 243 292 360
#
# _framework density 20.806988
#
# number of rings (size 3 to 8) (size 9 to 14) (size 15 to 20)
#    0.000    2.154    1.538    2.308    2.154    2.462 
#    0.000    0.000   10.154    0.923    0.000    0.000 
#    0.000    0.000    0.000    0.000    0.000    0.000 
#
# Total GULP energy -161057.581633 kJ/mol
# GULP energy per Si atom -12389.044741 kJ/mol
# Density = 2.075963 g / cm^3
# Si number density = 20.806988 Si / 1000 Ang^3
#
#
#
# Elastic Constant Matrix: (Units=GPa)
#
#
# Indices 1 2 3 4 5 6 
#
# 1 93.4980 27.5453 28.0143 0.0000 -9.4148 0.0000
# 2 27.5453 58.9082 24.4181 0.0000 11.5323 0.0000
# 3 28.0143 24.4181 100.9812 0.0000 -4.7100 0.0000
# 4 0.0000 0.0000 0.0000 21.7810 0.0000 -1.2599
# 5 -9.4148 11.5323 -4.7100 0.0000 35.3997 0.0000
# 6 0.0000 0.0000 0.0000 -1.2599 0.0000 21.1828
#
#
#
# Elastic Compliance Matrix: (Units=1/GPa)
#
#
# Indices 1 2 3 4 5 6 
#
# 1 0.013837 -0.006768 -0.001940 0.000000 0.005627 0.000000
# 2 -0.006768 0.023954 -0.004390 0.000000 -0.010188 0.000000
# 3 -0.001940 -0.004390 0.011617 0.000000 0.002460 0.000000
# 4 0.000000 0.000000 0.000000 0.046070 0.000000 0.002740
# 5 0.005627 -0.010188 0.002460 0.000000 0.033391 0.000000
# 6 0.000000 0.000000 0.000000 0.002740 0.000000 0.047371
#
#
# Mechanical properties :
#
#
# Convention : Reuss Voigt Hill
#
# Bulk Modulus (GPa) = 43.07811 45.92698 44.50254
# Shear Modulus (GPa) = 23.78987 27.23336 25.51162
#
# Velocity S-wave (km/s) = 3.38503 3.62174 3.50538
# Velocity P-wave (km/s) = 6.00221 6.29365 6.14966
#
# Compressibility (1/GPa) = 0.02321365
#
# Stress axis : x y z
#
# Youngs Moduli (GPa) = 72.27016 41.74644 86.07893
#
# Poissons Ratio (x) = 0.28252 0.16697
# Poissons Ratio (y) = 0.48909 0.37789
# Poissons Ratio (z) = 0.14019 0.18327
#
# Static dielectric constant tensor:
#      x y z
#    x 3.770190 0.000000 -0.218120 
#    y 0.000000 3.354890 0.000000 
#    z -0.218120 0.000000 4.004000 
# 
# 
# High freq. dielectric constant tensor:
#      x y z
#    x 1.815880 0.000000 -0.013730 
#    y 0.000000 1.749350 0.000000 
#    z -0.013730 0.000000 1.830310 
# 
# From -- ./inp_files/23533.got.cif
#   From: 2010.03.12/outbox.cif.g09.slc.cpg/sg5_12_cif.got.tgz:23533.got - 2010.03.31 09:47:26.
