data_PCOD8048917
_publ_section_title
;
Structure prediction by ZEFSAII (Michael W. Deem and Ramdas Pophale) SiO2 
 PCOD8048917
Probable space group: C 2
;
_chemical_formula_sum "Si O2"
_cell_formula_units_Z 28
_cell_length_a 16.287800
_cell_length_b 11.245835
_cell_length_c 9.070607
_cell_angle_alpha 90.000000
_cell_angle_beta 55.050379
_cell_angle_gamma 90.000000
_cell_volume 1361.827629
_symmetry_space_group_name_H-M "C 2"
_symmetry_group_IT_number 5
_symmetry_cell_setting 'monoclinic'
loop_
_space_group_symop_operation_xyz
x,y,z
-x,y,-z
1/2+x,1/2+y,z
1/2-x,1/2+y,-z
loop_
_atom_site_type_symbol
_atom_site_label
_atom_site_fract_x
_atom_site_fract_y
_atom_site_fract_z
Si Si1 0.500000 0.023481 0.000000
Si Si2 0.361791 0.167447 0.359812
Si Si3 0.892468 0.438693 0.841173
Si Si4 0.315145 0.396195 0.842232
Si Si5 0.470376 0.403972 0.355992
Si Si6 0.337586 0.598630 0.584231
Si Si7 0.000000 0.283453 0.500000
Si Si8 0.613097 0.158213 0.355591
O O1 0.439027 0.105074 0.173640
O O2 0.572393 0.941606 0.024568
O O3 0.403483 0.298164 0.358144
O O4 0.253323 0.167415 0.398766
O O5 0.350888 0.097360 0.527890
O O6 0.883237 0.570823 0.785514
O O7 0.975099 0.365705 0.665655
O O8 0.780298 0.384588 0.951553
O O9 0.418444 0.409608 0.833342
O O10 0.298646 0.509632 0.751873
O O11 0.319520 0.274007 0.745046
O O12 0.500000 0.399560 0.500000
O O13 0.405114 0.523438 0.398050
O O14 0.402521 0.704746 0.581170
O O15 0.500000 0.203635 0.500000
#
# Coordination Sequence:
#
# PCOD8048917 Si02
#       8
#     2   4   4   4   4   4   2   4
#     4  12  24  40  64 102 144 174 238 304 338 408
#     4  12  22  39  70 101 133 181 241 286 344 413
#     4  12  27  41  69 104 142 184 237 290 362 416
#     4  11  21  42  71  97 131 190 230 278 348 421
#     4  10  19  42  68  97 134 182 229 276 341 420
#     4  11  23  40  72 100 133 187 232 286 354 416
#     4  12  26  48  66 100 148 184 236 294 362 422
#     4  12  21  45  70  96 138 189 226 285 349 424
#
# _framework density 20.560604999999999
#
# number of rings (size 3 to 8) (size 9 to 14) (size 15 to 20)
#    0.000    0.571   10.000    0.000    2.000    4.571 
#    0.000    0.000    0.000    0.857    0.000    0.000 
#    0.000    0.000    0.000    0.000    0.000    0.000 
#
# Total GULP energy -173465.491134 kJ/mol
# GULP energy per Si atom -12390.392224 kJ/mol
# Density = 2.051381 g / cm^3
# Si number density = 20.560605 Si / 1000 Ang^3
#
#
#
# Elastic Constant Matrix: (Units=GPa)
#
#
# Indices 1 2 3 4 5 6 
#
# 1 135.1595 45.8503 31.2673 0.0000 -7.6849 0.0000
# 2 45.8503 101.9896 39.6214 0.0000 2.2117 0.0000
# 3 31.2673 39.6214 99.9705 0.0000 -11.5871 0.0000
# 4 0.0000 0.0000 0.0000 14.3842 0.0000 -3.4422
# 5 -7.6849 2.2117 -11.5871 0.0000 32.2872 0.0000
# 6 0.0000 0.0000 0.0000 -3.4422 0.0000 36.4230
#
#
#
# Elastic Compliance Matrix: (Units=1/GPa)
#
#
# Indices 1 2 3 4 5 6 
#
# 1 0.009015 -0.003652 -0.001142 0.000000 0.001986 0.000000
# 2 -0.003652 0.013273 -0.004512 0.000000 -0.003398 0.000000
# 3 -0.001142 -0.004512 0.012680 0.000000 0.004588 0.000000
# 4 0.000000 0.000000 0.000000 0.071130 0.000000 0.006722
# 5 0.001986 -0.003398 0.004588 0.000000 0.033324 0.000000
# 6 0.000000 0.000000 0.000000 0.006722 0.000000 0.028090
#
#
# Mechanical properties :
#
#
# Convention : Reuss Voigt Hill
#
# Bulk Modulus (GPa) = 61.14011 63.39975 62.26993
# Shear Modulus (GPa) = 26.09925 31.31091 28.70508
#
# Velocity S-wave (km/s) = 3.56670 3.90662 3.74052
# Velocity P-wave (km/s) = 6.83834 7.15901 7.00051
#
# Compressibility (1/GPa) = 0.01635587
#
# Stress axis : x y z
#
# Youngs Moduli (GPa) = 110.93068 75.33892 78.86327
#
# Poissons Ratio (x) = 0.27514 0.09005
# Poissons Ratio (y) = 0.40513 0.35585
# Poissons Ratio (z) = 0.12667 0.33995
#
# Static dielectric constant tensor:
#      x y z
#    x 4.284100 0.000000 -0.228360 
#    y 0.000000 3.676860 0.000000 
#    z -0.228360 0.000000 3.960390 
# 
# 
# High freq. dielectric constant tensor:
#      x y z
#    x 1.804160 0.000000 -0.020390 
#    y 0.000000 1.802850 0.000000 
#    z -0.020390 0.000000 1.793310 
# 
# From -- ./inp_files/23826.got.cif
#   From: 2010.03.12/outbox.cif.g09.slc.cpg/sg5_12_cif.got.tgz:23826.got - 2010.03.31 09:47:26.
