data_PCOD8048092
_publ_section_title
;
Structure prediction by ZEFSAII (Michael W. Deem and Ramdas Pophale) SiO2 
 PCOD8048092
Probable space group: C 2
;
_chemical_formula_sum "Si O2"
_cell_formula_units_Z 24
_cell_length_a 19.258197
_cell_length_b 5.184833
_cell_length_c 26.418227
_cell_angle_alpha 90.000000
_cell_angle_beta 151.163171
_cell_angle_gamma 90.000000
_cell_volume 1272.291139
_symmetry_space_group_name_H-M "C 2"
_symmetry_group_IT_number 5
_symmetry_cell_setting 'monoclinic'
loop_
_space_group_symop_operation_xyz
x,y,z
-x,y,-z
1/2+x,1/2+y,z
1/2-x,1/2+y,-z
loop_
_atom_site_type_symbol
_atom_site_label
_atom_site_fract_x
_atom_site_fract_y
_atom_site_fract_z
Si Si1 0.389950 0.834800 0.883140
Si Si2 0.069743 0.831874 0.715434
Si Si3 0.504560 0.831619 0.270850
Si Si4 0.774888 0.404400 0.047694
Si Si5 0.714927 0.430758 0.506539
Si Si6 0.008313 0.835091 0.944997
O O1 0.228701 0.883514 0.797488
O O2 0.406646 0.570844 0.861782
O O3 0.441484 0.070105 0.880164
O O4 0.500000 0.790957 0.000000
O O5 0.059413 0.544942 0.731418
O O6 0.955349 0.866682 0.595575
O O7 0.032624 0.043802 0.734330
O O8 0.436531 0.869622 0.171897
O O9 0.679104 0.870266 0.378210
O O10 0.758718 0.691597 0.015878
O O11 0.670200 0.372876 0.029126
O O12 0.730783 0.732347 0.502712
O O13 0.000000 0.792273 0.000000
#
# Coordination Sequence:
#
# PCOD8048092 Si02
#       6
#     4   4   4   4   4   4
#     4  10  17  27  46  72  99 128 158 202 253 302
#     4  10  17  29  50  78 104 131 169 217 265 304
#     4  10  18  32  48  70 106 140 168 213 260 307
#     4  12  24  37  53  78 108 143 176 209 258 315
#     4   8  16  27  45  71 100 131 167 210 262 305
#     4  10  20  34  51  73 100 133 171 211 254 301
#
# _framework density 18.863609
#
# number of rings (size 3 to 8) (size 9 to 14) (size 15 to 20)
#    0.000    2.000    0.000    7.000    0.000    0.000 
#    0.000    0.000    0.000    0.000    0.000    7.000 
#    0.000    0.000    0.000    0.000    0.000    0.000 
#
# Total GULP energy -148657.242119 kJ/mol
# GULP energy per Si atom -12388.103510 kJ/mol
# Density = 1.882067 g / cm^3
# Si number density = 18.863609 Si / 1000 Ang^3
#
#
#
# Elastic Constant Matrix: (Units=GPa)
#
#
# Indices 1 2 3 4 5 6 
#
# 1 35.9668 -3.4492 16.3375 -0.0020 5.3839 0.0154
# 2 -3.4492 120.5919 3.4006 0.0064 -0.8648 0.0347
# 3 16.3375 3.4006 146.6631 -0.0022 14.2760 0.0055
# 4 -0.0020 0.0064 -0.0022 23.9002 -0.0048 4.1961
# 5 5.3839 -0.8648 14.2760 -0.0048 22.5556 0.0054
# 6 0.0154 0.0347 0.0055 4.1961 0.0054 24.2311
#
#
#
# Elastic Compliance Matrix: (Units=1/GPa)
#
#
# Indices 1 2 3 4 5 6 
#
# 1 0.029977 0.000899 -0.002842 0.000004 -0.005322 -0.000019
# 2 0.000899 0.008329 -0.000323 0.000000 0.000309 -0.000013
# 3 -0.002842 -0.000323 0.007542 -0.000001 -0.004108 0.000002
# 4 0.000004 0.000000 -0.000001 0.043153 0.000010 -0.007473
# 5 -0.005322 0.000309 -0.004108 0.000010 0.048217 -0.000009
# 6 -0.000019 -0.000013 0.000002 -0.007473 -0.000009 0.042563
#
#
# Mechanical properties :
#
#
# Convention : Reuss Voigt Hill
#
# Bulk Modulus (GPa) = 24.20321 37.31108 30.75714
# Shear Modulus (GPa) = 25.24147 33.26624 29.25385
#
# Velocity S-wave (km/s) = 3.66198 4.20398 3.94230
# Velocity P-wave (km/s) = 5.54424 6.58687 6.08792
#
# Compressibility (1/GPa) = 0.04131684
#
# Stress axis : x y z
#
# Youngs Moduli (GPa) = 33.35847 120.05528 132.58588
#
# Poissons Ratio (x) = -0.10798 0.37683
# Poissons Ratio (y) = -0.03000 0.04288
# Poissons Ratio (z) = 0.09481 0.03883
#
# Static dielectric constant tensor:
#      x y z
#    x 2.863340 -0.000020 0.267340 
#    y -0.000020 4.448490 0.000060 
#    z 0.267340 0.000060 3.793480 
# 
# 
# High freq. dielectric constant tensor:
#      x y z
#    x 1.655660 0.000000 0.032710 
#    y 0.000000 1.776870 0.000000 
#    z 0.032710 0.000000 1.731470 
# 
# From -- ./inp_files/43749.got.cif
#   From: 2010.03.12/outbox.cif.g09.slc.cpg/sg5_22_cif.got.tgz:43749.got - 2010.03.31 09:47:26.
