data_PCOD8048335
_publ_section_title
;
Structure prediction by ZEFSAII (Michael W. Deem and Ramdas Pophale) SiO2 
 PCOD8048335
Probable space group: C 2
;
_chemical_formula_sum "Si O2"
_cell_formula_units_Z 32
_cell_length_a 22.724051
_cell_length_b 7.853484
_cell_length_c 25.881080
_cell_angle_alpha 90.000000
_cell_angle_beta 161.386057
_cell_angle_gamma 90.000000
_cell_volume 1474.279102
_symmetry_space_group_name_H-M "C 2"
_symmetry_group_IT_number 5
_symmetry_cell_setting 'monoclinic'
loop_
_space_group_symop_operation_xyz
x,y,z
-x,y,-z
1/2+x,1/2+y,z
1/2-x,1/2+y,-z
loop_
_atom_site_type_symbol
_atom_site_label
_atom_site_fract_x
_atom_site_fract_y
_atom_site_fract_z
Si Si1 0.930174 0.837060 0.390419
Si Si2 0.618941 0.052766 0.175313
Si Si3 0.842895 0.098444 0.015979
Si Si4 0.932550 0.208357 0.288477
Si Si5 0.739520 0.546486 0.599443
Si Si6 0.567879 0.393394 0.004404
Si Si7 0.959512 0.347689 0.200713
Si Si8 0.762205 0.348228 0.867173
O O1 0.818536 0.002667 0.318910
O O2 0.797066 0.751030 0.236131
O O3 0.000000 0.730440 0.500000
O O4 0.113751 0.891805 0.513966
O O5 0.628865 0.102377 0.244029
O O6 0.479059 0.895578 0.048653
O O7 0.551785 0.222272 0.091980
O O8 0.712948 0.222727 0.873415
O O9 0.973834 0.005037 0.081880
O O10 0.727564 0.959275 0.952083
O O11 0.956183 0.214602 0.150264
O O12 0.786437 0.347713 0.186996
O O13 0.990781 0.243801 0.278604
O O14 0.851845 0.019593 0.222259
O O15 0.117666 0.206162 0.477549
O O16 0.869609 0.475832 0.662459
O O17 0.500000 0.492728 0.000000
#
# Coordination Sequence:
#
# PCOD8048335 Si02
#       8
#     4   4   4   4   4   4   4   4
#     4   9  19  33  57  91 121 158 196 250 298 384
#     4  10  18  35  62  92 118 161 205 248 307 372
#     4  11  24  38  63  91 120 162 212 271 300 361
#     4   9  21  39  62  88 125 163 201 253 312 379
#     4  10  20  35  59  90 118 153 206 248 306 371
#     4  10  21  39  62  93 124 156 205 254 312 371
#     4  11  23  41  60  90 125 160 219 257 314 368
#     4  10  18  36  61  90 115 161 211 248 310 358
#
# _framework density 21.705525000000002
#
# number of rings (size 3 to 8) (size 9 to 14) (size 15 to 20)
#    0.000    2.000    1.250    3.375    3.500    3.000 
#    2.250    0.000    0.000    0.000    6.500    0.000 
#    0.000    0.000    0.000    0.000    0.000    0.000 
#
# Total GULP energy -198231.661387 kJ/mol
# GULP energy per Si atom -12389.478837 kJ/mol
# Density = 2.165612 g / cm^3
# Si number density = 21.705525 Si / 1000 Ang^3
#
#
#
# Elastic Constant Matrix: (Units=GPa)
#
#
# Indices 1 2 3 4 5 6 
#
# 1 145.1775 21.9735 45.8784 -0.0103 -10.8060 0.0005
# 2 21.9735 51.3155 7.5562 -0.0100 -1.2828 -0.0029
# 3 45.8784 7.5562 96.2925 -0.1140 -23.6257 0.0040
# 4 -0.0103 -0.0100 -0.1140 15.4862 -0.0638 -6.7606
# 5 -10.8060 -1.2828 -23.6257 -0.0638 45.8697 0.0111
# 6 0.0005 -0.0029 0.0040 -6.7606 0.0111 29.9456
#
#
#
# Elastic Compliance Matrix: (Units=1/GPa)
#
#
# Indices 1 2 3 4 5 6 
#
# 1 0.008572 -0.003104 -0.003853 -0.000028 -0.000052 -0.000006
# 2 -0.003104 0.020843 -0.000221 0.000011 -0.000262 0.000005
# 3 -0.003853 -0.000221 0.013752 0.000136 0.006169 0.000027
# 4 -0.000028 0.000011 0.000136 0.071636 0.000159 0.016173
# 5 -0.000052 -0.000262 0.006169 0.000159 0.024959 0.000026
# 6 -0.000006 0.000005 0.000027 0.016173 0.000026 0.037045
#
#
# Mechanical properties :
#
#
# Convention : Reuss Voigt Hill
#
# Bulk Modulus (GPa) = 34.71061 49.28907 41.99984
# Shear Modulus (GPa) = 24.90459 32.75211 28.82835
#
# Velocity S-wave (km/s) = 3.39098 3.88871 3.64834
# Velocity P-wave (km/s) = 5.59982 6.55134 6.09418
#
# Compressibility (1/GPa) = 0.02880964
#
# Stress axis : x y z
#
# Youngs Moduli (GPa) = 116.66172 47.97871 72.71635
#
# Poissons Ratio (x) = 0.14895 0.28019
# Poissons Ratio (y) = 0.36217 0.01605
# Poissons Ratio (z) = 0.44953 0.01059
#
# Static dielectric constant tensor:
#      x y z
#    x 4.252440 -0.000110 -0.379710 
#    y -0.000110 3.624560 0.000230 
#    z -0.379710 0.000230 4.202880 
# 
# 
# High freq. dielectric constant tensor:
#      x y z
#    x 1.873860 0.000000 -0.011810 
#    y 0.000000 1.816460 0.000000 
#    z -0.011810 0.000000 1.843970 
# 
# From -- ./inp_files/71226.got.cif
#   From: 2010.03.12/outbox.cif.g09.slc.cpg/sg5_36_cif.got.tgz:71226.got - 2010.03.31 09:47:26.
