data_PCOD8048744
_publ_section_title
;
Structure prediction by ZEFSAII (Michael W. Deem and Ramdas Pophale) SiO2 
 PCOD8048744
Probable space group: C 2
;
_chemical_formula_sum "Si O2"
_cell_formula_units_Z 20
_cell_length_a 9.827115
_cell_length_b 14.928946
_cell_length_c 9.851204
_cell_angle_alpha 90.000000
_cell_angle_beta 137.388355
_cell_angle_gamma 90.000000
_cell_volume 978.474619
_symmetry_space_group_name_H-M "C 2"
_symmetry_group_IT_number 5
_symmetry_cell_setting 'monoclinic'
loop_
_space_group_symop_operation_xyz
x,y,z
-x,y,-z
1/2+x,1/2+y,z
1/2-x,1/2+y,-z
loop_
_atom_site_type_symbol
_atom_site_label
_atom_site_fract_x
_atom_site_fract_y
_atom_site_fract_z
Si Si1 0.695341 0.710710 0.077989
Si Si2 0.739396 0.506276 0.425540
Si Si3 0.263870 0.222930 0.826788
Si Si4 0.000000 0.072707 0.500000
Si Si5 0.500000 0.866595 0.500000
Si Si6 0.500000 0.537793 0.000000
Si Si7 0.000000 0.661272 0.500000
O O1 0.892839 0.728169 0.314277
O O2 0.500000 0.758108 0.000000
O O3 0.708410 0.748879 0.938425
O O4 0.670435 0.601980 0.057620
O O5 0.620070 0.510687 0.480164
O O6 0.913749 0.430422 0.557751
O O7 0.835625 0.603351 0.462836
O O8 0.594024 0.478974 0.191255
O O9 0.187637 0.306395 0.683307
O O10 0.158866 0.132308 0.699122
O O11 0.500000 0.208299 0.000000
#
# Coordination Sequence:
#
# PCOD8048744 Si02
#       7
#     4   4   4   2   2   2   2
#     4   9  17  33  57  90 113 146 196 251 287 342
#     4  10  19  37  61  85 120 155 201 247 289 356
#     4  11  22  38  60  92 122 155 193 251 302 351
#     4  11  20  39  66  96 114 140 218 265 278 329
#     4  10  26  40  56  83 130 167 188 228 316 376
#     4   8  16  32  64  84 110 150 200 244 288 342
#     4   9  16  31  58  89 112 155 194 245 294 341
#
# _framework density 20.439979000000001
#
# number of rings (size 3 to 8) (size 9 to 14) (size 15 to 20)
#    0.600    1.600    2.000    1.200    1.400    1.600 
#    0.000    2.000    0.000    4.800    0.000    0.000 
#    0.000    0.000    0.000    0.000    0.000    0.000 
#
# Total GULP energy -123919.345728 kJ/mol
# GULP energy per Si atom -12391.934573 kJ/mol
# Density = 2.039346 g / cm^3
# Si number density = 20.439979 Si / 1000 Ang^3
#
#
#
# Elastic Constant Matrix: (Units=GPa)
#
#
# Indices 1 2 3 4 5 6 
#
# 1 150.4911 23.8792 39.8770 0.0000 -7.2716 0.0000
# 2 23.8792 46.2495 13.1080 0.0000 2.0987 0.0000
# 3 39.8770 13.1080 124.1710 0.0000 9.0466 0.0000
# 4 0.0000 0.0000 0.0000 11.1946 0.0000 4.0104
# 5 -7.2716 2.0987 9.0466 0.0000 35.9233 0.0000
# 6 0.0000 0.0000 0.0000 4.0104 0.0000 20.2924
#
#
#
# Elastic Compliance Matrix: (Units=1/GPa)
#
#
# Indices 1 2 3 4 5 6 
#
# 1 0.007948 -0.003546 -0.002353 0.000000 0.002409 0.000000
# 2 -0.003546 0.023889 -0.001252 0.000000 -0.001798 0.000000
# 3 -0.002353 -0.001252 0.009138 0.000000 -0.002705 0.000000
# 4 0.000000 0.000000 0.000000 0.096135 0.000000 -0.018999
# 5 0.002409 -0.001798 -0.002705 0.000000 0.029111 0.000000
# 6 0.000000 0.000000 0.000000 -0.018999 0.000000 0.053034
#
#
# Mechanical properties :
#
#
# Convention : Reuss Voigt Hill
#
# Bulk Modulus (GPa) = 37.49202 52.73778 45.11490
# Shear Modulus (GPa) = 20.62291 29.75189 25.18740
#
# Velocity S-wave (km/s) = 3.17984 3.81934 3.51417
# Velocity P-wave (km/s) = 5.64484 6.73105 6.21173
#
# Compressibility (1/GPa) = 0.02667234
#
# Stress axis : x y z
#
# Youngs Moduli (GPa) = 125.82532 41.86026 109.42775
#
# Poissons Ratio (x) = 0.14842 0.25754
# Poissons Ratio (y) = 0.44614 0.13702
# Poissons Ratio (z) = 0.29613 0.05242
#
# Static dielectric constant tensor:
#      x y z
#    x 3.419200 0.000000 0.054480 
#    y 0.000000 3.133020 0.000000 
#    z 0.054480 0.000000 3.879390 
# 
# 
# High freq. dielectric constant tensor:
#      x y z
#    x 1.794210 0.000000 0.009450 
#    y 0.000000 1.745240 0.000000 
#    z 0.009450 0.000000 1.812560 
# 
# From -- ./inp_files/15607.got.cif
#   From: 2010.03.12/outbox.cif.g09.slc.cpg/sg5_8_cif.got.tgz:15607.got - 2010.03.31 09:47:26.
