data_PCOD8048654
_publ_section_title
;
Structure prediction by ZEFSAII (Michael W. Deem and Ramdas Pophale) SiO2 
 PCOD8048654
Probable space group: C 2
;
_chemical_formula_sum "Si O2"
_cell_formula_units_Z 32
_cell_length_a 14.903025
_cell_length_b 11.383472
_cell_length_c 13.152339
_cell_angle_alpha 90.000000
_cell_angle_beta 47.550615
_cell_angle_gamma 90.000000
_cell_volume 1646.395975
_symmetry_space_group_name_H-M "C 2"
_symmetry_group_IT_number 5
_symmetry_cell_setting 'monoclinic'
loop_
_space_group_symop_operation_xyz
x,y,z
-x,y,-z
1/2+x,1/2+y,z
1/2-x,1/2+y,-z
loop_
_atom_site_type_symbol
_atom_site_label
_atom_site_fract_x
_atom_site_fract_y
_atom_site_fract_z
Si Si1 0.488013 0.288430 0.892272
Si Si2 0.251786 0.224325 0.989167
Si Si3 0.546216 0.560737 0.074991
Si Si4 0.209439 0.672814 0.641535
Si Si5 0.433903 0.942390 0.206899
Si Si6 0.816418 0.440862 0.086459
Si Si7 0.652357 0.659378 0.259897
Si Si8 0.081541 0.204446 0.662390
O O1 0.394342 0.203436 0.903712
O O2 0.442117 0.421468 0.923710
O O3 0.615899 0.278126 0.736065
O O4 0.500000 0.243003 0.000000
O O5 0.244728 0.328827 0.915756
O O6 0.180257 0.113125 0.995712
O O7 0.194533 0.257281 0.144133
O O8 0.444069 0.612943 0.227875
O O9 0.500000 0.598501 0.000000
O O10 0.136332 0.551473 0.689174
O O11 0.307476 0.680312 0.656787
O O12 0.279667 0.693714 0.482218
O O13 0.358029 0.901792 0.166715
O O14 0.441737 0.836729 0.281307
O O15 0.568258 0.982599 0.069002
O O16 0.712887 0.539962 0.169941
O O17 0.505911 0.664565 0.364756
#
# Coordination Sequence:
#
# PCOD8048654 Si02
#       8
#     4   4   4   4   4   4   4   4
#     4  11  23  39  59  89 124 154 199 255 302 346
#     4  11  18  34  61  89 119 149 200 245 302 346
#     4  10  22  39  63  90 118 155 198 255 306 354
#     4  11  24  38  59  85 126 161 199 241 303 367
#     4  10  21  37  62  88 116 158 195 252 297 358
#     4  10  19  35  63  91 116 145 204 253 298 344
#     4  10  20  36  58  89 118 154 193 249 295 355
#     4  11  22  39  61  86 123 157 204 237 308 361
#
# _framework density 19.436394
#
# number of rings (size 3 to 8) (size 9 to 14) (size 15 to 20)
#    0.000    1.500    3.750    3.375    3.500    0.000 
#    0.000    0.000    0.000    2.250    0.000    0.000 
#    0.000    0.000    0.000    0.000    0.000    0.000 
#
# Total GULP energy -198283.185144 kJ/mol
# GULP energy per Si atom -12392.699072 kJ/mol
# Density = 1.939216 g / cm^3
# Si number density = 19.436394 Si / 1000 Ang^3
#
#
#
# Elastic Constant Matrix: (Units=GPa)
#
#
# Indices 1 2 3 4 5 6 
#
# 1 114.5212 53.2239 41.0876 0.0000 -11.9782 0.0000
# 2 53.2239 86.0376 41.3924 0.0000 -3.8488 0.0000
# 3 41.0876 41.3924 114.3554 0.0000 -15.5538 0.0000
# 4 0.0000 0.0000 0.0000 11.5358 0.0000 -0.4653
# 5 -11.9782 -3.8488 -15.5538 0.0000 24.5707 0.0000
# 6 0.0000 0.0000 0.0000 -0.4653 0.0000 27.5218
#
#
#
# Elastic Compliance Matrix: (Units=1/GPa)
#
#
# Indices 1 2 3 4 5 6 
#
# 1 0.013047 -0.007149 -0.001518 0.000000 0.004280 0.000000
# 2 -0.007149 0.018019 -0.004425 0.000000 -0.003464 0.000000
# 3 -0.001518 -0.004425 0.011704 0.000000 0.005976 0.000000
# 4 0.000000 0.000000 0.000000 0.086746 0.000000 0.001467
# 5 0.004280 -0.003464 0.005976 0.000000 0.046026 0.000000
# 6 0.000000 0.000000 0.000000 0.001467 0.000000 0.036360
#
#
# Mechanical properties :
#
#
# Convention : Reuss Voigt Hill
#
# Bulk Modulus (GPa) = 60.28847 65.14687 62.71767
# Shear Modulus (GPa) = 20.52429 24.67302 22.59866
#
# Velocity S-wave (km/s) = 3.25310 3.56676 3.41354
# Velocity P-wave (km/s) = 6.72279 7.11007 6.91914
#
# Compressibility (1/GPa) = 0.01658692
#
# Stress axis : x y z
#
# Youngs Moduli (GPa) = 76.64698 55.49639 85.43788
#
# Poissons Ratio (x) = 0.39676 0.12968
# Poissons Ratio (y) = 0.54797 0.37803
# Poissons Ratio (z) = 0.11634 0.24555
#
# Static dielectric constant tensor:
#      x y z
#    x 3.811670 0.000000 -0.107780 
#    y 0.000000 3.425690 0.000000 
#    z -0.107780 0.000000 3.447500 
# 
# 
# High freq. dielectric constant tensor:
#      x y z
#    x 1.770330 0.000000 -0.008760 
#    y 0.000000 1.749330 0.000000 
#    z -0.008760 0.000000 1.739420 
# 
# From -- ./inp_files/54571.got.cif
#   From: 2010.03.12/outbox.cif.g09.slc.cpg/sg5_28_cif.got.tgz:54571.got - 2010.03.31 09:47:26.
