data_PCOD8048103
_publ_section_title
;
Structure prediction by ZEFSAII (Michael W. Deem and Ramdas Pophale) SiO2 
 PCOD8048103
Probable space group: C 2
;
_chemical_formula_sum "Si O2"
_cell_formula_units_Z 30
_cell_length_a 20.644658
_cell_length_b 11.915967
_cell_length_c 15.138027
_cell_angle_alpha 90.000000
_cell_angle_beta 151.583157
_cell_angle_gamma 90.000000
_cell_volume 1772.173530
_symmetry_space_group_name_H-M "C 2"
_symmetry_group_IT_number 5
_symmetry_cell_setting 'monoclinic'
loop_
_space_group_symop_operation_xyz
x,y,z
-x,y,-z
1/2+x,1/2+y,z
1/2-x,1/2+y,-z
loop_
_atom_site_type_symbol
_atom_site_label
_atom_site_fract_x
_atom_site_fract_y
_atom_site_fract_z
Si Si1 0.115785 0.889850 0.068817
Si Si2 0.835872 0.721376 0.026535
Si Si3 0.000000 0.948961 0.500000
Si Si4 0.083671 0.368600 0.512114
Si Si5 0.106714 0.493236 0.841678
Si Si6 0.344638 0.583415 0.006429
Si Si7 0.226885 0.816586 0.865098
Si Si8 0.969264 0.140049 0.328575
O O1 0.107975 0.791090 0.987667
O O2 0.259554 0.897055 0.289499
O O3 0.090267 0.010548 0.993261
O O4 0.000000 0.864531 0.000000
O O5 0.680056 0.683784 0.820158
O O6 0.926919 0.609551 0.148497
O O7 0.847539 0.793743 0.130306
O O8 0.872011 0.868427 0.327552
O O9 0.020512 0.029077 0.440157
O O10 0.000000 0.394542 0.500000
O O11 0.026972 0.448213 0.366985
O O12 0.075149 0.238360 0.475055
O O13 0.226854 0.511957 0.914118
O O14 0.151849 0.403502 0.969671
O O15 0.284688 0.699748 0.895655
O O16 0.464800 0.611790 0.219639
#
# Coordination Sequence:
#
# PCOD8048103 Si02
#       8
#     4   4   2   4   4   4   4   4
#     4  12  24  38  56  82 116 147 191 236 274 338
#     4  10  18  36  52  81 117 144 176 229 289 321
#     4  12  16  24  46  94 116 132 168 240 294 304
#     4  12  18  33  58  88 107 144 197 224 268 333
#     4  10  17  32  57  82 109 138 178 239 276 317
#     4  10  19  35  51  79 115 147 174 227 292 322
#     4  10  18  28  52  85 113 135 175 237 274 323
#     4  10  17  29  58  84 114 143 180 231 272 339
#
# _framework density 16.928363999999998
#
# number of rings (size 3 to 8) (size 9 to 14) (size 15 to 20)
#    0.000    1.600   10.000    0.000    0.000    2.133 
#    0.000    1.333    0.000    0.800    0.000    0.000 
#    0.000    0.000    0.000    0.000    0.000    0.000 
#
# Total GULP energy -185963.048807 kJ/mol
# GULP energy per Si atom -12397.536587 kJ/mol
# Density = 1.688983 g / cm^3
# Si number density = 16.928364 Si / 1000 Ang^3
#
#
#
# Elastic Constant Matrix: (Units=GPa)
#
#
# Indices 1 2 3 4 5 6 
#
# 1 69.3184 39.3604 35.2496 0.0000 -2.0385 0.0000
# 2 39.3604 129.9035 48.9476 0.0000 -15.9305 0.0000
# 3 35.2496 48.9476 109.8082 0.0000 -16.7769 0.0000
# 4 0.0000 0.0000 0.0000 34.0397 0.0000 -11.8667
# 5 -2.0385 -15.9305 -16.7769 0.0000 18.5671 0.0000
# 6 0.0000 0.0000 0.0000 -11.8667 0.0000 22.5367
#
#
#
# Elastic Compliance Matrix: (Units=1/GPa)
#
#
# Indices 1 2 3 4 5 6 
#
# 1 0.019581 -0.004803 -0.005158 0.000000 -0.006632 0.000000
# 2 -0.004803 0.010829 -0.002258 0.000000 0.006723 0.000000
# 3 -0.005158 -0.002258 0.013210 0.000000 0.009433 0.000000
# 4 0.000000 0.000000 0.000000 0.035982 0.000000 0.018946
# 5 -0.006632 0.006723 0.009433 0.000000 0.067423 0.000000
# 6 0.000000 0.000000 0.000000 0.018946 0.000000 0.054348
#
#
# Mechanical properties :
#
#
# Convention : Reuss Voigt Hill
#
# Bulk Modulus (GPa) = 52.13102 61.79390 56.96246
# Shear Modulus (GPa) = 21.53268 27.39354 24.46311
#
# Velocity S-wave (km/s) = 3.57036 4.02705 3.80557
# Velocity P-wave (km/s) = 6.91799 7.62924 7.28230
#
# Compressibility (1/GPa) = 0.01918244
#
# Stress axis : x y z
#
# Youngs Moduli (GPa) = 51.06922 92.34860 75.69861
#
# Poissons Ratio (x) = 0.44353 0.39046
# Poissons Ratio (y) = 0.24527 0.17092
# Poissons Ratio (z) = 0.26342 0.20852
#
# Static dielectric constant tensor:
#      x y z
#    x 2.658170 0.000000 -0.273300 
#    y 0.000000 3.516180 0.000000 
#    z -0.273300 0.000000 3.407610 
# 
# 
# High freq. dielectric constant tensor:
#      x y z
#    x 1.582670 0.000000 -0.036580 
#    y 0.000000 1.679730 0.000000 
#    z -0.036580 0.000000 1.653470 
# 
# From -- ./inp_files/57021.got.cif
#   From: 2010.03.12/outbox.cif.g09.slc.cpg/sg5_29_cif.got.tgz:57021.got - 2010.03.31 09:47:26.
