data_PCOD8048252
_publ_section_title
;
Structure prediction by ZEFSAII (Michael W. Deem and Ramdas Pophale) SiO2 
 PCOD8048252
Probable space group: C 2
;
_chemical_formula_sum "Si O2"
_cell_formula_units_Z 22
_cell_length_a 24.934916
_cell_length_b 8.757115
_cell_length_c 7.875918
_cell_angle_alpha 90.000000
_cell_angle_beta 141.018792
_cell_angle_gamma 90.000000
_cell_volume 1081.847369
_symmetry_space_group_name_H-M "C 2"
_symmetry_group_IT_number 5
_symmetry_cell_setting 'monoclinic'
loop_
_space_group_symop_operation_xyz
x,y,z
-x,y,-z
1/2+x,1/2+y,z
1/2-x,1/2+y,-z
loop_
_atom_site_type_symbol
_atom_site_label
_atom_site_fract_x
_atom_site_fract_y
_atom_site_fract_z
Si Si1 0.169732 0.742200 0.723339
Si Si2 0.500000 0.529640 0.500000
Si Si3 0.657535 0.110779 0.340704
Si Si4 0.163491 0.101080 0.721749
Si Si5 0.285625 0.787213 0.460634
Si Si6 0.895104 0.783977 0.092522
O O1 0.128058 0.669099 0.452232
O O2 0.104509 0.703694 0.718980
O O3 0.179039 0.923393 0.722775
O O4 0.261454 0.666377 0.977325
O O5 0.574357 0.631089 0.600772
O O6 0.462586 0.421678 0.256324
O O7 0.751969 0.179834 0.531717
O O8 0.658690 0.927548 0.333404
O O9 0.590620 0.167700 0.029886
O O10 0.157447 0.187153 0.527065
O O11 0.201818 0.852762 0.155922
#
# Coordination Sequence:
#
# PCOD8048252 Si02
#       6
#     4   2   4   4   4   4
#     4  10  18  33  58  85 118 150 200 245 287 341
#     4  10  18  38  58  92 124 160 196 234 310 362
#     4  10  18  33  58  89 120 147 202 258 284 341
#     4  10  20  35  60  92 117 160 198 248 292 363
#     4   9  19  35  57  95 112 150 209 245 295 338
#     4   8  20  32  56  90 115 153 195 241 290 360
#
# _framework density 20.335585999999999
#
# number of rings (size 3 to 8) (size 9 to 14) (size 15 to 20)
#    1.091    1.455    0.000    4.364    0.000    0.000 
#    0.000    3.636    0.000   27.273   18.909    0.000 
#    0.000    0.000    0.000    0.000    0.000    0.000 
#
# Total GULP energy -136287.968528 kJ/mol
# GULP energy per Si atom -12389.815321 kJ/mol
# Density = 2.028930 g / cm^3
# Si number density = 20.335586 Si / 1000 Ang^3
#
#
#
# Elastic Constant Matrix: (Units=GPa)
#
#
# Indices 1 2 3 4 5 6 
#
# 1 87.4606 21.7705 27.6243 0.0000 -23.3315 0.0000
# 2 21.7705 98.6562 14.8043 0.0000 -13.0201 0.0000
# 3 27.6243 14.8043 37.5472 0.0000 -16.8137 0.0000
# 4 0.0000 0.0000 0.0000 38.7313 0.0000 -7.1566
# 5 -23.3315 -13.0201 -16.8137 0.0000 42.2470 0.0000
# 6 0.0000 0.0000 0.0000 -7.1566 0.0000 35.2369
#
#
#
# Elastic Compliance Matrix: (Units=1/GPa)
#
#
# Indices 1 2 3 4 5 6 
#
# 1 0.015919 -0.001539 -0.008981 0.000000 0.004743 0.000000
# 2 -0.001539 0.011061 -0.002535 0.000000 0.001550 0.000000
# 3 -0.008981 -0.002535 0.038537 0.000000 0.009596 0.000000
# 4 0.000000 0.000000 0.000000 0.026826 0.000000 0.005448
# 5 0.004743 0.001550 0.009596 0.000000 0.030586 0.000000
# 6 0.000000 0.000000 0.000000 0.005448 0.000000 0.029486
#
#
# Mechanical properties :
#
#
# Convention : Reuss Voigt Hill
#
# Bulk Modulus (GPa) = 25.37624 39.11804 32.24714
# Shear Modulus (GPa) = 26.08788 33.87403 29.98096
#
# Velocity S-wave (km/s) = 3.58560 4.08579 3.84384
# Velocity P-wave (km/s) = 5.44499 6.44486 5.96591
#
# Compressibility (1/GPa) = 0.03940694
#
# Stress axis : x y z
#
# Youngs Moduli (GPa) = 62.81932 90.40968 25.94896
#
# Poissons Ratio (x) = 0.13916 0.23305
# Poissons Ratio (y) = 0.09669 0.06577
# Poissons Ratio (z) = 0.56419 0.22915
#
# Static dielectric constant tensor:
#      x y z
#    x 3.699070 0.000000 -0.199210 
#    y 0.000000 3.413650 0.000000 
#    z -0.199210 0.000000 3.435210 
# 
# 
# High freq. dielectric constant tensor:
#      x y z
#    x 1.795090 0.000000 -0.018980 
#    y 0.000000 1.773630 0.000000 
#    z -0.018980 0.000000 1.768510 
# 
# From -- ./inp_files/31542.got.cif
#   From: 2010.03.12/outbox.cif.g09.slc.cpg/sg5_16_cif.got.tgz:31542.got - 2010.03.31 09:47:26.
