data_PCOD8048461
_publ_section_title
;
Structure prediction by ZEFSAII (Michael W. Deem and Ramdas Pophale) SiO2 
 PCOD8048461
Probable space group: C 2
;
_chemical_formula_sum "Si O2"
_cell_formula_units_Z 28
_cell_length_a 16.775271
_cell_length_b 9.174860
_cell_length_c 13.924900
_cell_angle_alpha 90.000000
_cell_angle_beta 138.972126
_cell_angle_gamma 90.000000
_cell_volume 1406.847181
_symmetry_space_group_name_H-M "C 2"
_symmetry_group_IT_number 5
_symmetry_cell_setting 'monoclinic'
loop_
_space_group_symop_operation_xyz
x,y,z
-x,y,-z
1/2+x,1/2+y,z
1/2-x,1/2+y,-z
loop_
_atom_site_type_symbol
_atom_site_label
_atom_site_fract_x
_atom_site_fract_y
_atom_site_fract_z
Si Si1 0.038189 0.676830 0.432516
Si Si2 0.714237 0.580323 0.395993
Si Si3 0.387017 0.981378 0.172025
Si Si4 0.642612 0.903730 0.323495
Si Si5 0.549879 0.324072 0.239253
Si Si6 0.291589 0.225505 0.955792
Si Si7 0.632099 0.105041 0.163517
O O1 0.169716 0.600120 0.568816
O O2 0.051375 0.792122 0.356175
O O3 0.000000 0.749847 0.500000
O O4 0.934961 0.556362 0.313695
O O5 0.655406 0.736687 0.363948
O O6 0.759731 0.498659 0.531396
O O7 0.604869 0.479966 0.257613
O O8 0.504839 0.956926 0.213778
O O9 0.324124 0.827153 0.132568
O O10 0.295120 0.090994 0.033647
O O11 0.669299 0.942568 0.235133
O O12 0.632672 0.205761 0.259639
O O13 0.412473 0.323010 0.075908
O O14 0.275652 0.162197 0.833534
O O15 0.500000 0.101106 0.000000
#
# Coordination Sequence:
#
# PCOD8048461 Si02
#       7
#     4   4   4   4   4   4   4
#     4  10  21  40  61  89 127 158 199 257 312 351
#     4  11  21  38  65  86 121 163 211 251 303 366
#     4  10  22  41  60  90 122 162 197 260 304 363
#     4  11  20  40  64  88 119 162 207 255 302 361
#     4  10  20  40  62  86 120 164 201 250 301 362
#     4  10  22  40  64  85 130 159 204 251 314 360
#     4  10  18  40  61  84 119 163 199 246 302 361
#
# _framework density 19.902659
#
# number of rings (size 3 to 8) (size 9 to 14) (size 15 to 20)
#    0.000    1.714    7.143    0.000    4.000    0.000 
#    5.143    2.143    0.000    0.000    0.000    0.000 
#    0.000    0.000    0.000    0.000    0.000    0.000 
#
# Total GULP energy -173454.672122 kJ/mol
# GULP energy per Si atom -12389.619437 kJ/mol
# Density = 1.985736 g / cm^3
# Si number density = 19.902659 Si / 1000 Ang^3
#
#
#
# Elastic Constant Matrix: (Units=GPa)
#
#
# Indices 1 2 3 4 5 6 
#
# 1 75.7297 24.5342 28.1397 0.0000 -19.2068 0.0000
# 2 24.5342 119.8865 32.3499 0.0000 -1.7808 0.0000
# 3 28.1397 32.3499 39.0864 0.0000 -3.4608 0.0000
# 4 0.0000 0.0000 0.0000 29.6156 0.0000 11.7143
# 5 -19.2068 -1.7808 -3.4608 0.0000 24.8288 0.0000
# 6 0.0000 0.0000 0.0000 11.7143 0.0000 29.0529
#
#
#
# Elastic Compliance Matrix: (Units=1/GPa)
#
#
# Indices 1 2 3 4 5 6 
#
# 1 0.022709 -0.000484 -0.014576 0.000000 0.015501 0.000000
# 2 -0.000484 0.010756 -0.008625 0.000000 -0.000805 0.000000
# 3 -0.014576 -0.008625 0.042690 0.000000 -0.005944 0.000000
# 4 0.000000 0.000000 0.000000 0.040173 0.000000 -0.016198
# 5 0.015501 -0.000805 -0.005944 0.000000 0.051380 0.000000
# 6 0.000000 0.000000 0.000000 -0.016198 0.000000 0.040951
#
#
# Mechanical properties :
#
#
# Convention : Reuss Voigt Hill
#
# Bulk Modulus (GPa) = 34.73990 44.97224 39.85607
# Shear Modulus (GPa) = 18.82355 26.67804 22.75079
#
# Velocity S-wave (km/s) = 3.07869 3.66515 3.38465
# Velocity P-wave (km/s) = 5.48913 6.36838 5.94503
#
# Compressibility (1/GPa) = 0.02878534
#
# Stress axis : x y z
#
# Youngs Moduli (GPa) = 44.03501 92.97505 23.42448
#
# Poissons Ratio (x) = 0.04499 0.34144
# Poissons Ratio (y) = 0.02131 0.20203
# Poissons Ratio (z) = 0.64187 0.80189
#
# Static dielectric constant tensor:
#      x y z
#    x 3.596410 0.000000 -0.048010 
#    y 0.000000 3.721960 0.000000 
#    z -0.048010 0.000000 3.732220 
# 
# 
# High freq. dielectric constant tensor:
#      x y z
#    x 1.757700 0.000000 0.000120 
#    y 0.000000 1.767820 0.000000 
#    z 0.000120 0.000000 1.774720 
# 
# From -- ./inp_files/55770.got.cif
#   From: 2010.03.12/outbox.cif.g09.slc.cpg/sg5_28_cif.got.tgz:55770.got - 2010.03.31 09:47:26.
