data_PCOD8048685
_publ_section_title
;
Structure prediction by ZEFSAII (Michael W. Deem and Ramdas Pophale) SiO2 
 PCOD8048685
Probable space group: C 2
;
_chemical_formula_sum "Si O2"
_cell_formula_units_Z 28
_cell_length_a 30.053794
_cell_length_b 4.992538
_cell_length_c 17.165902
_cell_angle_alpha 90.000000
_cell_angle_beta 148.967593
_cell_angle_gamma 90.000000
_cell_volume 1327.807760
_symmetry_space_group_name_H-M "C 2"
_symmetry_group_IT_number 5
_symmetry_cell_setting 'monoclinic'
loop_
_space_group_symop_operation_xyz
x,y,z
-x,y,-z
1/2+x,1/2+y,z
1/2-x,1/2+y,-z
loop_
_atom_site_type_symbol
_atom_site_label
_atom_site_fract_x
_atom_site_fract_y
_atom_site_fract_z
Si Si1 0.546124 0.606980 0.244007
Si Si2 0.038172 0.711167 0.766081
Si Si3 0.710850 0.379139 0.979336
Si Si4 0.861549 0.493859 0.499782
Si Si5 0.106974 0.411160 0.003643
Si Si6 0.796773 0.800567 0.541247
Si Si7 0.214879 0.896951 0.165974
O O1 0.478366 0.426420 0.190208
O O2 0.609905 0.768005 0.396662
O O3 0.610378 0.418464 0.289406
O O4 0.485205 0.802142 0.099111
O O5 0.107867 0.829511 0.809685
O O6 0.947367 0.629314 0.589974
O O7 0.082177 0.454632 0.874755
O O8 0.732493 0.680773 0.987961
O O9 0.732632 0.327206 0.102589
O O10 0.806222 0.715382 0.464734
O O11 0.804854 0.366518 0.346584
O O12 0.144654 0.686631 0.096309
O O13 0.182523 0.197523 0.126896
O O14 0.774296 0.537022 0.558486
#
# Coordination Sequence:
#
# PCOD8048685 Si02
#       7
#     4   4   4   4   4   4   4
#     4  10  19  39  63  95 113 168 210 251 293 381
#     4   9  20  38  62  88 119 163 219 245 295 388
#     4  11  22  39  63  87 123 166 211 259 312 361
#     4  10  23  38  67  94 126 162 210 255 312 360
#     4  10  19  36  61  89 118 157 212 252 288 364
#     4  11  22  38  61  99 126 157 204 261 311 365
#     4  11  23  38  62  95 124 157 214 259 302 371
#
# _framework density 21.087389999999999
#
# number of rings (size 3 to 8) (size 9 to 14) (size 15 to 20)
#    0.000    1.714    4.286    1.714    6.000    0.000 
#    0.000    0.714    0.000    0.857   18.571    0.000 
#    0.000    0.000    0.000    0.000    0.000    0.000 
#
# Total GULP energy -173447.175263 kJ/mol
# GULP energy per Si atom -12389.083947 kJ/mol
# Density = 2.103939 g / cm^3
# Si number density = 21.087390 Si / 1000 Ang^3
#
#
#
# Elastic Constant Matrix: (Units=GPa)
#
#
# Indices 1 2 3 4 5 6 
#
# 1 65.2658 21.6383 32.9840 -0.0004 23.2280 0.0005
# 2 21.6383 109.1846 37.9642 -0.0013 12.0793 0.0012
# 3 32.9840 37.9642 137.2696 -0.0002 9.4936 0.0005
# 4 -0.0004 -0.0013 -0.0002 43.0420 0.0000 16.8356
# 5 23.2280 12.0793 9.4936 0.0000 23.3322 0.0003
# 6 0.0005 0.0012 0.0005 16.8356 0.0003 28.6252
#
#
#
# Elastic Compliance Matrix: (Units=1/GPa)
#
#
# Indices 1 2 3 4 5 6 
#
# 1 0.026428 -0.001055 -0.004400 0.000000 -0.023973 0.000000
# 2 -0.001055 0.010597 -0.002439 0.000001 -0.003443 -0.000001
# 3 -0.004400 -0.002439 0.008876 0.000000 0.002032 0.000000
# 4 0.000000 0.000001 0.000000 0.030175 0.000000 -0.017747
# 5 -0.023973 -0.003443 0.002032 0.000000 0.067681 0.000000
# 6 0.000000 -0.000001 0.000000 -0.017747 0.000000 0.045372
#
#
# Mechanical properties :
#
#
# Convention : Reuss Voigt Hill
#
# Bulk Modulus (GPa) = 33.20995 55.21032 44.21014
# Shear Modulus (GPa) = 23.26071 33.60879 28.43475
#
# Velocity S-wave (km/s) = 3.32484 3.99656 3.67607
# Velocity P-wave (km/s) = 5.52470 6.89457 6.24730
#
# Compressibility (1/GPa) = 0.03011146
#
# Stress axis : x y z
#
# Youngs Moduli (GPa) = 37.83931 94.36689 112.65920
#
# Poissons Ratio (x) = 0.09958 0.49574
# Poissons Ratio (y) = 0.03993 0.27478
# Poissons Ratio (z) = 0.16651 0.23017
#
# Static dielectric constant tensor:
#      x y z
#    x 3.475900 0.000000 0.524810 
#    y 0.000000 4.218940 0.000000 
#    z 0.524810 0.000000 3.801170 
# 
# 
# High freq. dielectric constant tensor:
#      x y z
#    x 1.769080 0.000000 0.048130 
#    y 0.000000 1.857420 0.000000 
#    z 0.048130 0.000000 1.815360 
# 
# From -- ./inp_files/63673.got.cif
#   From: 2010.03.12/outbox.cif.g09.slc.cpg/sg5_32_cif.got.tgz:63673.got - 2010.03.31 09:47:26.
