data_PCOD8048000
_publ_section_title
;
Structure prediction by ZEFSAII (Michael W. Deem and Ramdas Pophale) SiO2 
 PCOD8048000
Probable space group: P 21
;
_chemical_formula_sum "Si O2"
_cell_formula_units_Z 16
_cell_length_a 12.506890
_cell_length_b 8.672660
_cell_length_c 9.569245
_cell_angle_alpha 90.000000
_cell_angle_beta 139.917548
_cell_angle_gamma 90.000000
_cell_volume 668.329377
_symmetry_space_group_name_H-M "P 21"
_symmetry_group_IT_number 4
_symmetry_cell_setting 'monoclinic'
loop_
_space_group_symop_operation_xyz
x,y,z
-x,1/2+y,-z
loop_
_atom_site_type_symbol
_atom_site_label
_atom_site_fract_x
_atom_site_fract_y
_atom_site_fract_z
Si Si1 0.874577 0.444270 0.972709
Si Si2 0.070952 0.114741 0.433892
Si Si3 0.625423 0.683504 0.723556
Si Si4 0.429048 0.013034 0.791988
Si Si5 0.929282 0.984508 0.569880
Si Si6 0.367414 0.684752 0.239637
Si Si7 0.132586 0.443023 0.004809
Si Si8 0.570718 0.143267 0.211316
O O1 0.750000 0.563887 0.773648
O O2 0.758831 0.318547 0.933770
O O3 0.991981 0.376118 0.968054
O O4 0.983743 0.532107 0.198192
O O5 0.250000 0.063887 0.559118
O O6 0.070648 0.299419 0.433894
O O7 0.040697 0.052329 0.558383
O O8 0.937208 0.033735 0.199317
O O9 0.508019 0.751657 0.484092
O O10 0.516257 0.595667 0.730707
O O11 0.741170 0.809227 0.916110
O O12 0.562791 0.094041 0.824899
O O13 0.429353 0.828355 0.792599
O O14 0.459303 0.075446 0.976990
O O15 0.750000 0.063888 0.382562
O O16 0.250000 0.563887 0.206119
#
# Coordination Sequence:
#
# PCOD8048000 Si02
#       8
#     2   2   2   2   2   2   2   2
#     4  12  28  46  78 110 151 200 259 311 382 452
#     4  12  28  48  80 113 155 197 255 316 384 452
#     4  12  28  46  78 110 151 200 259 311 382 452
#     4  12  28  48  80 113 155 197 255 316 384 452
#     4  12  28  50  79 115 153 201 251 315 382 458
#     4  12  26  51  75 111 154 202 252 319 380 447
#     4  12  26  51  75 111 154 202 252 319 380 447
#     4  12  28  50  79 115 153 201 251 315 382 458
#
# _framework density 23.940291999999999
#
# number of rings (size 3 to 8) (size 9 to 14) (size 15 to 20)
#    0.000    0.000    2.500    6.000   14.000    0.000 
#    0.000    0.000    0.000    0.000    0.000    0.000 
#    0.000    0.000    0.000    0.000    0.000    0.000 
#
# Total GULP energy -198341.350173 kJ/mol
# GULP energy per Si atom -12396.334386 kJ/mol
# Density = 2.388580 g / cm^3
# Si number density = 23.940292 Si / 1000 Ang^3
#
#
#
# Elastic Constant Matrix: (Units=GPa)
#
#
# Indices 1 2 3 4 5 6 
#
# 1 103.5895 26.6968 43.8910 0.0000 1.5605 0.0000
# 2 26.6968 94.6685 30.5065 0.0000 12.6625 0.0000
# 3 43.8910 30.5065 105.6219 0.0000 5.1953 0.0000
# 4 0.0000 0.0000 0.0000 46.4013 0.0000 12.7637
# 5 1.5605 12.6625 5.1953 0.0000 42.1635 0.0000
# 6 0.0000 0.0000 0.0000 12.7637 0.0000 42.5602
#
#
#
# Elastic Compliance Matrix: (Units=1/GPa)
#
#
# Indices 1 2 3 4 5 6 
#
# 1 0.012060 -0.002063 -0.004451 0.000000 0.000722 0.000000
# 2 -0.002063 0.012418 -0.002565 0.000000 -0.003337 0.000000
# 3 -0.004451 -0.002565 0.012086 0.000000 -0.000554 0.000000
# 4 0.000000 0.000000 0.000000 0.023489 0.000000 -0.007044
# 5 0.000722 -0.003337 -0.000554 0.000000 0.024761 0.000000
# 6 0.000000 0.000000 0.000000 -0.007044 0.000000 0.025609
#
#
# Mechanical properties :
#
#
# Convention : Reuss Voigt Hill
#
# Bulk Modulus (GPa) = 54.33402 56.22984 55.28193
# Shear Modulus (GPa) = 37.11504 39.74404 38.42954
#
# Velocity S-wave (km/s) = 3.94168 4.07889 4.01087
# Velocity P-wave (km/s) = 6.59247 6.76178 6.67766
#
# Compressibility (1/GPa) = 0.01840467
#
# Stress axis : x y z
#
# Youngs Moduli (GPa) = 82.91643 80.52867 82.74321
#
# Poissons Ratio (x) = 0.16615 0.36831
# Poissons Ratio (y) = 0.17107 0.21225
# Poissons Ratio (z) = 0.36908 0.20657
#
# Static dielectric constant tensor:
#      x y z
#    x 4.264210 0.000000 0.244120 
#    y 0.000000 4.514840 0.000000 
#    z 0.244120 0.000000 4.337670 
# 
# 
# High freq. dielectric constant tensor:
#      x y z
#    x 1.957590 0.000000 0.019380 
#    y 0.000000 1.960700 0.000000 
#    z 0.019380 0.000000 1.963420 
# 
# From -- ./inp_files/8097.got.cif
#   From: 2010.03.12/outbox.cif.g09.slc.cpg/sg4_5_cif.got.tgz:8097.got - 2010.03.31 09:31:35.
