data_PCOD8048672
_publ_section_title
;
Structure prediction by ZEFSAII (Michael W. Deem and Ramdas Pophale) SiO2 
 PCOD8048672
Probable space group: C 2
;
_chemical_formula_sum "Si O2"
_cell_formula_units_Z 24
_cell_length_a 19.845093
_cell_length_b 8.858474
_cell_length_c 8.648369
_cell_angle_alpha 90.000000
_cell_angle_beta 51.426280
_cell_angle_gamma 90.000000
_cell_volume 1188.626935
_symmetry_space_group_name_H-M "C 2"
_symmetry_group_IT_number 5
_symmetry_cell_setting 'monoclinic'
loop_
_space_group_symop_operation_xyz
x,y,z
-x,y,-z
1/2+x,1/2+y,z
1/2-x,1/2+y,-z
loop_
_atom_site_type_symbol
_atom_site_label
_atom_site_fract_x
_atom_site_fract_y
_atom_site_fract_z
Si Si1 0.671184 0.362500 0.949341
Si Si2 0.103806 0.231411 0.493196
Si Si3 0.259199 0.799986 0.138842
Si Si4 0.218508 0.595322 0.699773
Si Si5 0.314608 0.031883 0.593076
Si Si6 0.576424 0.630837 0.188286
O O1 0.655693 0.194541 0.903029
O O2 0.721030 0.453842 0.744115
O O3 0.736542 0.356527 0.000688
O O4 0.585349 0.453572 0.124269
O O5 0.189489 0.177282 0.458424
O O6 0.109892 0.414010 0.464702
O O7 0.096412 0.146092 0.341039
O O8 0.019367 0.189257 0.714726
O O9 0.185296 0.681411 0.299555
O O10 0.262698 0.935062 0.253308
O O11 0.353747 0.726316 0.005914
O O12 0.170866 0.578104 0.605339
#
# Coordination Sequence:
#
# PCOD8048672 Si02
#       6
#     4   4   4   4   4   4
#     4  10  19  36  58  90 113 158 209 236 296 364
#     4  10  20  38  59  89 118 152 202 253 308 341
#     4  11  18  35  61  88 116 156 203 246 289 368
#     4  11  20  36  60  87 125 156 196 245 301 371
#     4  10  21  35  58  90 120 160 197 240 303 369
#     4  10  20  36  62  88 114 149 204 262 293 346
#
# _framework density 20.191362999999999
#
# number of rings (size 3 to 8) (size 9 to 14) (size 15 to 20)
#    0.000    1.667    5.000    3.000    0.000    0.000 
#    0.000    9.167    0.000    4.000    0.000    0.000 
#    0.000    0.000    0.000    0.000    0.000    0.000 
#
# Total GULP energy -148741.029625 kJ/mol
# GULP energy per Si atom -12395.085802 kJ/mol
# Density = 2.014541 g / cm^3
# Si number density = 20.191363 Si / 1000 Ang^3
#
#
#
# Elastic Constant Matrix: (Units=GPa)
#
#
# Indices 1 2 3 4 5 6 
#
# 1 41.6132 24.1646 36.0550 0.0000 -3.5783 0.0000
# 2 24.1646 131.7430 59.0453 0.0000 -17.8315 0.0000
# 3 36.0550 59.0453 92.9054 0.0000 -6.4197 0.0000
# 4 0.0000 0.0000 0.0000 44.9262 0.0000 0.4337
# 5 -3.5783 -17.8315 -6.4197 0.0000 34.4139 0.0000
# 6 0.0000 0.0000 0.0000 0.4337 0.0000 25.8370
#
#
#
# Elastic Compliance Matrix: (Units=1/GPa)
#
#
# Indices 1 2 3 4 5 6 
#
# 1 0.036260 -0.000331 -0.013790 0.000000 0.001026 0.000000
# 2 -0.000331 0.011283 -0.006728 0.000000 0.004557 0.000000
# 3 -0.013790 -0.006728 0.020313 0.000000 -0.001131 0.000000
# 4 0.000000 0.000000 0.000000 0.022262 0.000000 -0.000374
# 5 0.001026 0.004557 -0.001131 0.000000 0.031315 0.000000
# 6 0.000000 0.000000 0.000000 -0.000374 0.000000 0.038711
#
#
# Mechanical properties :
#
#
# Convention : Reuss Voigt Hill
#
# Bulk Modulus (GPa) = 38.22975 56.08795 47.15885
# Shear Modulus (GPa) = 23.74601 30.83519 27.29060
#
# Velocity S-wave (km/s) = 3.43308 3.91211 3.68040
# Velocity P-wave (km/s) = 5.88978 6.94584 6.43949
#
# Compressibility (1/GPa) = 0.02615764
#
# Stress axis : x y z
#
# Youngs Moduli (GPa) = 27.57869 88.62666 49.22966
#
# Poissons Ratio (x) = 0.02937 0.67889
# Poissons Ratio (y) = 0.00914 0.33119
# Poissons Ratio (z) = 0.38032 0.59624
#
# Static dielectric constant tensor:
#      x y z
#    x 3.239840 0.000000 -0.034440 
#    y 0.000000 4.084530 0.000000 
#    z -0.034440 0.000000 3.792910 
# 
# 
# High freq. dielectric constant tensor:
#      x y z
#    x 1.738170 0.000000 0.016420 
#    y 0.000000 1.805180 0.000000 
#    z 0.016420 0.000000 1.784530 
# 
# From -- ./inp_files/26445.got.cif
#   From: 2010.03.12/outbox.cif.g09.slc.cpg/sg5_14_cif.got.tgz:26445.got - 2010.03.31 09:47:26.
