data_PCOD8048392
_publ_section_title
;
Structure prediction by ZEFSAII (Michael W. Deem and Ramdas Pophale) SiO2 
 PCOD8048392
Probable space group: C 2
;
_chemical_formula_sum "Si O2"
_cell_formula_units_Z 22
_cell_length_a 10.700959
_cell_length_b 8.152774
_cell_length_c 34.037263
_cell_angle_alpha 90.000000
_cell_angle_beta 158.146003
_cell_angle_gamma 90.000000
_cell_volume 1105.373179
_symmetry_space_group_name_H-M "C 2"
_symmetry_group_IT_number 5
_symmetry_cell_setting 'monoclinic'
loop_
_space_group_symop_operation_xyz
x,y,z
-x,y,-z
1/2+x,1/2+y,z
1/2-x,1/2+y,-z
loop_
_atom_site_type_symbol
_atom_site_label
_atom_site_fract_x
_atom_site_fract_y
_atom_site_fract_z
Si Si1 0.724598 0.278850 0.148655
Si Si2 0.215614 0.549605 0.027297
Si Si3 0.146621 0.065718 0.323108
Si Si4 0.321941 0.778048 0.790653
Si Si5 0.500000 0.954778 0.500000
Si Si6 0.357218 0.135781 0.597282
O O1 0.455618 0.414473 0.079857
O O2 0.942877 0.229821 0.251030
O O3 0.964112 0.348347 0.183926
O O4 0.537174 0.113738 0.079776
O O5 0.431192 0.703381 0.105203
O O6 0.000000 0.472009 0.000000
O O7 0.438482 0.037636 0.376074
O O8 0.330764 0.076644 0.418927
O O9 0.888723 0.915473 0.248333
O O10 0.070772 0.638566 0.700134
O O11 0.780386 0.829226 0.563260
O O12 0.000000 0.043954 0.500000
#
# Coordination Sequence:
#
# PCOD8048392 Si02
#       6
#     4   4   4   4   2   4
#     4  10  21  36  59  84 112 147 185 229 280 332
#     4  10  21  38  58  83 112 146 183 228 281 336
#     4  10  18  37  60  82 113 150 189 229 278 328
#     4   9  19  37  56  78 114 149 181 229 281 327
#     4   8  18  36  54  76 118 152 182 228 276 322
#     4   8  17  36  55  79 112 152 182 228 276 324
#
# _framework density 19.902781000000001
#
# number of rings (size 3 to 8) (size 9 to 14) (size 15 to 20)
#    0.545    2.182    0.000    1.091    0.000    1.455 
#    9.818    5.455    0.000    0.000    0.000    0.000 
#    0.000    0.000    0.000    0.000    0.000    0.000 
#
# Total GULP energy -136293.992592 kJ/mol
# GULP energy per Si atom -12390.362963 kJ/mol
# Density = 1.985748 g / cm^3
# Si number density = 19.902781 Si / 1000 Ang^3
#
#
#
# Elastic Constant Matrix: (Units=GPa)
#
#
# Indices 1 2 3 4 5 6 
#
# 1 125.3976 57.5127 46.4136 0.0009 26.7405 0.0001
# 2 57.5127 49.3069 19.1739 -0.0014 7.2001 0.0005
# 3 46.4136 19.1739 103.5569 0.0063 5.5476 0.0091
# 4 0.0009 -0.0014 0.0063 11.0860 0.0014 4.9924
# 5 26.7405 7.2001 5.5476 0.0014 44.2538 0.0020
# 6 0.0001 0.0005 0.0091 4.9924 0.0020 28.8696
#
#
#
# Elastic Compliance Matrix: (Units=1/GPa)
#
#
# Indices 1 2 3 4 5 6 
#
# 1 0.022189 -0.022497 -0.005293 -0.000002 -0.009084 0.000003
# 2 -0.022497 0.045086 0.001409 0.000007 0.006082 -0.000003
# 3 -0.005293 0.001409 0.011687 -0.000005 0.001504 -0.000003
# 4 -0.000002 0.000007 -0.000005 0.097822 -0.000002 -0.016916
# 5 -0.009084 0.006082 0.001504 -0.000002 0.026908 -0.000002
# 6 0.000003 -0.000003 -0.000003 -0.016916 -0.000002 0.037564
#
#
# Mechanical properties :
#
#
# Convention : Reuss Voigt Hill
#
# Bulk Modulus (GPa) = 38.16626 58.27356 48.21991
# Shear Modulus (GPa) = 16.51530 27.18597 21.85063
#
# Velocity S-wave (km/s) = 2.88375 3.69987 3.31700
# Velocity P-wave (km/s) = 5.50509 6.89889 6.24102
#
# Compressibility (1/GPa) = 0.02620115
#
# Stress axis : x y z
#
# Youngs Moduli (GPa) = 45.06779 22.17996 85.56320
#
# Poissons Ratio (x) = 0.49898 0.45288
# Poissons Ratio (y) = 1.01388 -0.12059
# Poissons Ratio (z) = 0.23854 -0.03126
#
# Static dielectric constant tensor:
#      x y z
#    x 3.562260 0.000000 0.116170 
#    y 0.000000 3.049860 0.000000 
#    z 0.116170 0.000000 4.051140 
# 
# 
# High freq. dielectric constant tensor:
#      x y z
#    x 1.766080 0.000000 0.010840 
#    y 0.000000 1.725170 0.000000 
#    z 0.010840 0.000000 1.809720 
# 
# From -- ./inp_files/49913.got.cif
#   From: 2010.03.12/outbox.cif.g09.slc.cpg/sg5_25_cif.got.tgz:49913.got - 2010.03.31 09:47:26.
