data_PCOD8048852
_publ_section_title
;
Structure prediction by ZEFSAII (Michael W. Deem and Ramdas Pophale) SiO2 
 PCOD8048852
Probable space group: C 2
;
_chemical_formula_sum "Si O2"
_cell_formula_units_Z 32
_cell_length_a 18.801982
_cell_length_b 11.599844
_cell_length_c 15.152359
_cell_angle_alpha 90.000000
_cell_angle_beta 28.236131
_cell_angle_gamma 90.000000
_cell_volume 1563.489175
_symmetry_space_group_name_H-M "C 2"
_symmetry_group_IT_number 5
_symmetry_cell_setting 'monoclinic'
loop_
_space_group_symop_operation_xyz
x,y,z
-x,y,-z
1/2+x,1/2+y,z
1/2-x,1/2+y,-z
loop_
_atom_site_type_symbol
_atom_site_label
_atom_site_fract_x
_atom_site_fract_y
_atom_site_fract_z
Si Si1 0.462275 0.631380 0.721136
Si Si2 0.310629 0.103966 0.112095
Si Si3 0.012464 0.535157 0.239057
Si Si4 0.161810 0.850580 0.848659
Si Si5 0.680355 0.836926 0.501511
Si Si6 0.371977 0.450244 0.570874
Si Si7 0.936178 0.783987 0.354272
Si Si8 0.685820 0.450114 0.009865
O O1 0.324206 0.645484 0.804585
O O2 0.538036 0.751687 0.663155
O O3 0.587872 0.556179 0.535969
O O4 0.405168 0.569427 0.873607
O O5 0.354142 0.213982 0.121166
O O6 0.271736 0.993732 0.216286
O O7 0.454848 0.067090 0.898014
O O8 0.865212 0.455565 0.400874
O O9 0.978934 0.652372 0.330039
O O10 0.149849 0.461766 0.128346
O O11 0.283443 0.869536 0.639070
O O12 0.212227 0.922244 0.878988
O O13 0.000000 0.901210 0.000000
O O14 0.827682 0.786367 0.387723
O O15 0.500000 0.417051 0.500000
O O16 0.348816 0.337973 0.534342
O O17 0.092541 0.849228 0.161407
#
# Coordination Sequence:
#
# PCOD8048852 Si02
#       8
#     4   4   4   4   4   4   4   4
#     4   9  20  37  66  92 122 170 215 266 321 376
#     4  10  19  39  65  96 120 164 230 266 307 376
#     4  11  25  41  66  99 127 174 217 263 334 391
#     4  12  22  38  62  96 130 166 218 276 320 374
#     4  12  25  39  67  97 134 166 215 273 331 389
#     4   9  19  38  65  88 118 168 213 263 311 371
#     4  11  24  43  64  96 133 165 216 269 334 381
#     4  10  22  42  65  88 133 173 213 269 317 386
#
# _framework density 20.467044000000001
#
# number of rings (size 3 to 8) (size 9 to 14) (size 15 to 20)
#    0.000    1.500    3.750    1.500    5.250    2.500 
#    2.250    0.000    0.000    0.000    0.000    0.000 
#    0.000    0.000    0.000    0.000    0.000    0.000 
#
# Total GULP energy -198390.738025 kJ/mol
# GULP energy per Si atom -12399.421127 kJ/mol
# Density = 2.042046 g / cm^3
# Si number density = 20.467044 Si / 1000 Ang^3
#
#
#
# Elastic Constant Matrix: (Units=GPa)
#
#
# Indices 1 2 3 4 5 6 
#
# 1 64.8568 25.4624 25.4782 0.0000 10.6120 0.0000
# 2 25.4624 99.3095 47.5219 0.0000 3.1749 0.0000
# 3 25.4782 47.5219 89.8976 0.0000 16.5224 0.0000
# 4 0.0000 0.0000 0.0000 33.6656 0.0000 7.7226
# 5 10.6120 3.1749 16.5224 0.0000 35.1378 0.0000
# 6 0.0000 0.0000 0.0000 7.7226 0.0000 28.7988
#
#
#
# Elastic Compliance Matrix: (Units=1/GPa)
#
#
# Indices 1 2 3 4 5 6 
#
# 1 0.018442 -0.003279 -0.002763 0.000000 -0.003974 0.000000
# 2 -0.003279 0.014240 -0.007162 0.000000 0.003072 0.000000
# 3 -0.002763 -0.007162 0.016879 0.000000 -0.006455 0.000000
# 4 0.000000 0.000000 0.000000 0.031651 0.000000 -0.008487
# 5 -0.003974 0.003072 -0.006455 0.000000 0.032418 0.000000
# 6 0.000000 0.000000 0.000000 -0.008487 0.000000 0.037000
#
#
# Mechanical properties :
#
#
# Convention : Reuss Voigt Hill
#
# Bulk Modulus (GPa) = 43.19341 50.10988 46.65165
# Shear Modulus (GPa) = 27.06293 29.89388 28.47841
#
# Velocity S-wave (km/s) = 3.64025 3.82591 3.73423
# Velocity P-wave (km/s) = 6.23043 6.63725 6.43705
#
# Compressibility (1/GPa) = 0.02315168
#
# Stress axis : x y z
#
# Youngs Moduli (GPa) = 54.22542 70.22706 59.24358
#
# Poissons Ratio (x) = 0.23029 0.16367
# Poissons Ratio (y) = 0.17782 0.42433
# Poissons Ratio (z) = 0.14981 0.50300
#
# Static dielectric constant tensor:
#      x y z
#    x 3.598230 0.000000 0.147930 
#    y 0.000000 3.664100 0.000000 
#    z 0.147930 0.000000 3.811970 
# 
# 
# High freq. dielectric constant tensor:
#      x y z
#    x 1.789650 0.000000 0.002840 
#    y 0.000000 1.790130 0.000000 
#    z 0.002840 0.000000 1.803310 
# 
# From -- ./inp_files/29594.got.cif
#   From: 2010.03.12/outbox.cif.g09.slc.cpg/sg5_15_cif.got.tgz:29594.got - 2010.03.31 09:47:26.
