data_PCOD8048682
_publ_section_title
;
Structure prediction by ZEFSAII (Michael W. Deem and Ramdas Pophale) SiO2 
 PCOD8048682
Probable space group: C 2
;
_chemical_formula_sum "Si O2"
_cell_formula_units_Z 30
_cell_length_a 13.923105
_cell_length_b 13.673719
_cell_length_c 15.144867
_cell_angle_alpha 90.000000
_cell_angle_beta 150.157203
_cell_angle_gamma 90.000000
_cell_volume 1434.788159
_symmetry_space_group_name_H-M "C 2"
_symmetry_group_IT_number 5
_symmetry_cell_setting 'monoclinic'
loop_
_space_group_symop_operation_xyz
x,y,z
-x,y,-z
1/2+x,1/2+y,z
1/2-x,1/2+y,-z
loop_
_atom_site_type_symbol
_atom_site_label
_atom_site_fract_x
_atom_site_fract_y
_atom_site_fract_z
Si Si1 0.863040 0.303990 0.569699
Si Si2 0.920674 0.169972 0.131736
Si Si3 0.916287 0.769069 0.232052
Si Si4 0.824963 0.603528 0.812411
Si Si5 0.000000 0.250656 0.500000
Si Si6 0.222525 0.455076 0.366682
Si Si7 0.171349 0.280091 0.197723
Si Si8 0.898141 0.990128 0.228832
O O1 0.647098 0.257837 0.408000
O O2 0.910612 0.319337 0.504670
O O3 0.890779 0.409712 0.639334
O O4 0.018104 0.228893 0.732132
O O5 0.922209 0.056208 0.160114
O O6 0.077316 0.191157 0.179497
O O7 0.702309 0.200597 0.930155
O O8 0.848155 0.742234 0.277715
O O9 0.858530 0.880856 0.163383
O O10 0.663720 0.682745 0.669915
O O11 0.880088 0.545603 0.765247
O O12 0.774631 0.522736 0.846230
O O13 0.000000 0.660139 0.000000
O O14 0.256622 0.363869 0.328386
O O15 0.421531 0.496954 0.561254
O O16 0.000000 0.323558 0.000000
#
# Coordination Sequence:
#
# PCOD8048682 Si02
#       8
#     4   4   4   4   2   4   4   4
#     4  10  23  36  60  83 125 165 202 253 315 367
#     4  10  21  39  57  92 134 158 200 264 316 371
#     4  10  22  38  64  92 122 167 212 256 309 381
#     4  12  23  34  63  93 123 153 208 263 317 366
#     4  12  24  44  54  90 130 162 208 264 310 376
#     4  10  19  36  60  92 121 154 201 259 309 366
#     4   9  18  34  61  93 127 157 205 261 311 363
#     4  11  21  37  58  95 127 161 203 262 315 364
#
# _framework density 20.909009000000001
#
# number of rings (size 3 to 8) (size 9 to 14) (size 15 to 20)
#    0.000    1.600    4.000    0.400    7.467    1.600 
#    0.000    0.000    0.000   19.200    0.000    0.000 
#    0.000    0.000    0.000    0.000    0.000    0.000 
#
# Total GULP energy -185885.830291 kJ/mol
# GULP energy per Si atom -12392.388686 kJ/mol
# Density = 2.086142 g / cm^3
# Si number density = 20.909009 Si / 1000 Ang^3
#
#
#
# Elastic Constant Matrix: (Units=GPa)
#
#
# Indices 1 2 3 4 5 6 
#
# 1 132.5405 33.1428 37.7879 0.0031 -19.3638 0.0035
# 2 33.1428 62.0303 27.8861 0.0150 -9.9211 0.0021
# 3 37.7879 27.8861 118.2769 0.0102 -14.2815 0.0045
# 4 0.0031 0.0150 0.0102 2.5156 0.0057 -2.6216
# 5 -19.3638 -9.9211 -14.2815 0.0057 17.1040 0.0040
# 6 0.0035 0.0021 0.0045 -2.6216 0.0040 29.4148
#
#
#
# Elastic Compliance Matrix: (Units=1/GPa)
#
#
# Indices 1 2 3 4 5 6 
#
# 1 0.009988 -0.003400 -0.001404 -0.000007 0.008163 -0.000002
# 2 -0.003400 0.020146 -0.003022 -0.000129 0.005313 -0.000013
# 3 -0.001404 -0.003022 0.010245 -0.000039 0.005212 -0.000005
# 4 -0.000007 -0.000129 -0.000039 0.438219 -0.000270 0.039056
# 5 0.008163 0.005313 0.005212 -0.000270 0.075142 -0.000036
# 6 -0.000002 -0.000013 -0.000005 0.039056 -0.000036 0.037477
#
#
# Mechanical properties :
#
#
# Convention : Reuss Voigt Hill
#
# Bulk Modulus (GPa) = 40.44023 56.72016 48.58019
# Shear Modulus (GPa) = 8.12861 24.07560 16.10211
#
# Velocity S-wave (km/s) = 1.97384 3.39698 2.77808
# Velocity P-wave (km/s) = 4.95760 6.52472 5.79438
#
# Compressibility (1/GPa) = 0.02472785
#
# Stress axis : x y z
#
# Youngs Moduli (GPa) = 100.12149 49.63730 97.60774
#
# Poissons Ratio (x) = 0.16876 0.13701
# Poissons Ratio (y) = 0.34040 0.29498
# Poissons Ratio (z) = 0.14054 0.15001
#
# Static dielectric constant tensor:
#      x y z
#    x 4.027730 -0.000010 -0.106860 
#    y -0.000010 3.514480 -0.000010 
#    z -0.106860 -0.000010 4.043170 
# 
# 
# High freq. dielectric constant tensor:
#      x y z
#    x 1.810430 0.000000 -0.008220 
#    y 0.000000 1.778830 0.000000 
#    z -0.008220 0.000000 1.837350 
# 
# From -- ./inp_files/54796.got.cif
#   From: 2010.03.12/outbox.cif.g09.slc.cpg/sg5_28_cif.got.tgz:54796.got - 2010.03.31 09:47:26.
