data_PCOD8048621
_publ_section_title
;
Structure prediction by ZEFSAII (Michael W. Deem and Ramdas Pophale) SiO2 
 PCOD8048621
Probable space group: C 2
;
_chemical_formula_sum "Si O2"
_cell_formula_units_Z 32
_cell_length_a 28.518300
_cell_length_b 9.866326
_cell_length_c 11.529143
_cell_angle_alpha 90.000000
_cell_angle_beta 32.266769
_cell_angle_gamma 90.000000
_cell_volume 1731.829537
_symmetry_space_group_name_H-M "C 2"
_symmetry_group_IT_number 5
_symmetry_cell_setting 'monoclinic'
loop_
_space_group_symop_operation_xyz
x,y,z
-x,y,-z
1/2+x,1/2+y,z
1/2-x,1/2+y,-z
loop_
_atom_site_type_symbol
_atom_site_label
_atom_site_fract_x
_atom_site_fract_y
_atom_site_fract_z
Si Si1 0.940855 0.827810 0.369100
Si Si2 0.815858 0.241855 0.213147
Si Si3 0.766394 0.794403 0.857647
Si Si4 0.560208 0.500471 0.981679
Si Si5 0.346756 0.030526 0.808672
Si Si6 0.134242 0.744134 0.711403
Si Si7 0.008145 0.562566 0.317216
Si Si8 0.063963 0.474853 0.964775
O O1 0.850597 0.868232 0.622537
O O2 0.926141 0.755196 0.275822
O O3 0.992057 0.723336 0.343399
O O4 0.999750 0.958906 0.218703
O O5 0.796215 0.248906 0.117033
O O6 0.732097 0.211786 0.467088
O O7 0.853370 0.380415 0.185294
O O8 0.885058 0.124192 0.085834
O O9 0.793067 0.662419 0.877221
O O10 0.719037 0.902787 0.040965
O O11 0.625875 0.380023 0.805543
O O12 0.500000 0.547029 0.000000
O O13 0.426946 0.994025 0.554988
O O14 0.394659 0.053633 0.831283
O O15 0.100706 0.621931 0.858697
O O16 0.005743 0.484140 0.201719
O O17 0.000000 0.415027 0.000000
#
# Coordination Sequence:
#
# PCOD8048621 Si02
#       8
#     4   4   4   4   4   4   4   4
#     4   9  18  36  61  83 111 157 195 228 280 352
#     4  11  23  35  54  88 125 146 186 246 294 334
#     4  10  22  41  59  82 113 151 198 250 286 335
#     4  10  19  36  54  82 121 157 183 226 289 355
#     4  10  22  41  61  82 113 152 201 246 287 335
#     4  10  19  35  58  82 119 157 191 221 280 358
#     4  10  19  38  63  83 110 156 199 234 279 351
#     4  12  20  36  61  89 117 155 192 230 286 357
#
# _framework density 18.47757
#
# number of rings (size 3 to 8) (size 9 to 14) (size 15 to 20)
#    0.000    1.750    3.750    1.500    0.000    1.000 
#    2.250    0.000    0.000    0.000    0.000    0.000 
#    0.000    0.000    0.000    0.000    0.000    0.000 
#
# Total GULP energy -198369.236987 kJ/mol
# GULP energy per Si atom -12398.077312 kJ/mol
# Density = 1.843551 g / cm^3
# Si number density = 18.477570 Si / 1000 Ang^3
#
#
#
# Elastic Constant Matrix: (Units=GPa)
#
#
# Indices 1 2 3 4 5 6 
#
# 1 96.0374 40.1060 43.1595 0.0000 -1.6856 0.0000
# 2 40.1060 91.8687 54.2070 0.0000 -5.9928 0.0000
# 3 43.1595 54.2070 98.6178 0.0000 3.8606 0.0000
# 4 0.0000 0.0000 0.0000 30.1611 0.0000 -0.2391
# 5 -1.6856 -5.9928 3.8606 0.0000 27.5835 0.0000
# 6 0.0000 0.0000 0.0000 -0.2391 0.0000 8.2440
#
#
#
# Elastic Compliance Matrix: (Units=1/GPa)
#
#
# Indices 1 2 3 4 5 6 
#
# 1 0.013742 -0.003543 -0.004092 0.000000 0.000643 0.000000
# 2 -0.003543 0.017672 -0.008351 0.000000 0.004792 0.000000
# 3 -0.004092 -0.008351 0.016693 0.000000 -0.004401 0.000000
# 4 0.000000 0.000000 0.000000 0.033163 0.000000 0.000962
# 5 0.000643 0.004792 -0.004401 0.000000 0.037950 0.000000
# 6 0.000000 0.000000 0.000000 0.000962 0.000000 0.121328
#
#
# Mechanical properties :
#
#
# Convention : Reuss Voigt Hill
#
# Bulk Modulus (GPa) = 61.97193 62.38541 62.17867
# Shear Modulus (GPa) = 17.99222 23.13449 20.56336
#
# Velocity S-wave (km/s) = 3.12386 3.54224 3.33961
# Velocity P-wave (km/s) = 6.82811 7.11098 6.97098
#
# Compressibility (1/GPa) = 0.01613634
#
# Stress axis : x y z
#
# Youngs Moduli (GPa) = 72.76739 56.58811 59.90437
#
# Poissons Ratio (x) = 0.20049 0.24513
# Poissons Ratio (y) = 0.25781 0.50023
# Poissons Ratio (z) = 0.29776 0.47254
#
# Static dielectric constant tensor:
#      x y z
#    x 3.490250 0.000000 -0.029840 
#    y 0.000000 3.189170 0.000000 
#    z -0.029840 0.000000 3.629110 
# 
# 
# High freq. dielectric constant tensor:
#      x y z
#    x 1.717200 0.000000 -0.001100 
#    y 0.000000 1.700360 0.000000 
#    z -0.001100 0.000000 1.728520 
# 
# From -- ./inp_files/41968.got.cif
#   From: 2010.03.12/outbox.cif.g09.slc.cpg/sg5_21_cif.got.tgz:41968.got - 2010.03.31 09:47:26.
