data_PCOD8048499
_publ_section_title
;
Structure prediction by ZEFSAII (Michael W. Deem and Ramdas Pophale) SiO2 
 PCOD8048499
Probable space group: C 2
;
_chemical_formula_sum "Si O2"
_cell_formula_units_Z 32
_cell_length_a 23.137408
_cell_length_b 10.447886
_cell_length_c 20.521771
_cell_angle_alpha 90.000000
_cell_angle_beta 21.046338
_cell_angle_gamma 90.000000
_cell_volume 1781.562348
_symmetry_space_group_name_H-M "C 2"
_symmetry_group_IT_number 5
_symmetry_cell_setting 'monoclinic'
loop_
_space_group_symop_operation_xyz
x,y,z
-x,y,-z
1/2+x,1/2+y,z
1/2-x,1/2+y,-z
loop_
_atom_site_type_symbol
_atom_site_label
_atom_site_fract_x
_atom_site_fract_y
_atom_site_fract_z
Si Si1 0.006638 0.717150 0.417009
Si Si2 0.498617 0.850625 0.229566
Si Si3 0.757471 0.207850 0.402142
Si Si4 0.993354 0.418812 0.582999
Si Si5 0.498606 0.285326 0.229577
Si Si6 0.836878 0.209340 0.832307
Si Si7 0.742539 0.428103 0.597848
Si Si8 0.663110 0.426614 0.167703
O O1 0.831301 0.750267 0.571239
O O2 0.000000 0.745148 0.500000
O O3 0.053013 0.567981 0.353777
O O4 0.135749 0.813777 0.249216
O O5 0.404109 0.800776 0.265232
O O6 0.560775 0.734307 0.209778
O O7 0.376079 0.936141 0.400164
O O8 0.648299 0.933312 0.047778
O O9 0.623929 0.199812 0.599827
O O10 0.832614 0.067975 0.313755
O O11 0.864241 0.322181 0.750793
O O12 0.000000 0.390815 0.500000
O O13 0.168689 0.385689 0.428772
O O14 0.404095 0.335172 0.265246
O O15 0.560761 0.401647 0.209790
O O16 0.648287 0.202640 0.047788
O O17 0.885761 0.067978 0.754352
#
# Coordination Sequence:
#
# PCOD8048499 Si02
#       8
#     4   4   4   4   4   4   4   4
#     4   9  19  35  52  70  94 127 165 201 238 282
#     4   9  18  29  46  74 102 124 153 193 243 289
#     4   9  16  29  49  70  95 126 158 194 235 284
#     4   9  19  35  52  70  94 127 165 201 238 282
#     4   9  18  29  46  74 102 124 153 193 243 289
#     4  10  19  31  50  74 100 128 158 196 240 287
#     4   9  16  29  49  70  95 126 158 194 235 284
#     4  10  19  31  50  74 100 128 158 196 240 287
#
# _framework density 17.961763999999999
#
# number of rings (size 3 to 8) (size 9 to 14) (size 15 to 20)
#    0.000    2.750    0.000    1.500    0.000    7.500 
#    0.000    2.500    0.000    6.000    0.000    0.000 
#    0.000    0.000    0.000    0.000    0.000    0.000 
#
# Total GULP energy -198292.367645 kJ/mol
# GULP energy per Si atom -12393.272978 kJ/mol
# Density = 1.792088 g / cm^3
# Si number density = 17.961764 Si / 1000 Ang^3
#
#
#
# Elastic Constant Matrix: (Units=GPa)
#
#
# Indices 1 2 3 4 5 6 
#
# 1 126.5840 35.3176 26.4080 0.0030 -6.4973 -0.0013
# 2 35.3176 98.5405 22.5630 0.0072 3.7533 -0.0040
# 3 26.4080 22.5630 49.9328 0.0094 -9.5086 -0.0053
# 4 0.0030 0.0072 0.0094 14.0933 -0.0048 4.1079
# 5 -6.4973 3.7533 -9.5086 -0.0048 22.9511 0.0024
# 6 -0.0013 -0.0040 -0.0053 4.1079 0.0024 18.3029
#
#
#
# Elastic Compliance Matrix: (Units=1/GPa)
#
#
# Indices 1 2 3 4 5 6 
#
# 1 0.009452 -0.002654 -0.003482 0.000003 0.001667 -0.000002
# 2 -0.002654 0.012471 -0.005171 -0.000005 -0.004933 0.000003
# 3 -0.003482 -0.005171 0.026250 -0.000013 0.010735 0.000008
# 4 0.000003 -0.000005 -0.000013 0.075922 0.000014 -0.017040
# 5 0.001667 -0.004933 0.010735 0.000014 0.049297 -0.000007
# 6 -0.000002 0.000003 0.000008 -0.017040 -0.000007 0.058461
#
#
# Mechanical properties :
#
#
# Convention : Reuss Voigt Hill
#
# Bulk Modulus (GPa) = 39.12639 49.29272 44.20956
# Shear Modulus (GPa) = 19.01229 23.78737 21.39983
#
# Velocity S-wave (km/s) = 3.25697 3.64309 3.45543
# Velocity P-wave (km/s) = 5.99785 6.72301 6.37076
#
# Compressibility (1/GPa) = 0.02555820
#
# Stress axis : x y z
#
# Youngs Moduli (GPa) = 105.79285 80.18443 38.09594
#
# Poissons Ratio (x) = 0.21281 0.13267
# Poissons Ratio (y) = 0.28077 0.19700
# Poissons Ratio (z) = 0.36841 0.41465
#
# Static dielectric constant tensor:
#      x y z
#    x 3.328030 0.000000 -0.208080 
#    y 0.000000 3.217180 0.000000 
#    z -0.208080 0.000000 3.074550 
# 
# 
# High freq. dielectric constant tensor:
#      x y z
#    x 1.685810 0.000000 -0.022930 
#    y 0.000000 1.692900 0.000000 
#    z -0.022930 0.000000 1.669630 
# 
# From -- ./inp_files/30789.got.cif
#   From: 2010.03.12/outbox.cif.g09.slc.cpg/sg5_16_cif.got.tgz:30789.got - 2010.03.31 09:47:26.
