data_PCOD8048055
_publ_section_title
;
Structure prediction by ZEFSAII (Michael W. Deem and Ramdas Pophale) SiO2 
 PCOD8048055
Probable space group: C 2
;
_chemical_formula_sum "Si O2"
_cell_formula_units_Z 32
_cell_length_a 16.045217
_cell_length_b 10.795404
_cell_length_c 25.176865
_cell_angle_alpha 90.000000
_cell_angle_beta 23.001160
_cell_angle_gamma 90.000000
_cell_volume 1704.059957
_symmetry_space_group_name_H-M "C 2"
_symmetry_group_IT_number 5
_symmetry_cell_setting 'monoclinic'
loop_
_space_group_symop_operation_xyz
x,y,z
-x,y,-z
1/2+x,1/2+y,z
1/2-x,1/2+y,-z
loop_
_atom_site_type_symbol
_atom_site_label
_atom_site_fract_x
_atom_site_fract_y
_atom_site_fract_z
Si Si1 0.133490 0.500000 0.252693
Si Si2 0.416044 0.672404 0.648399
Si Si3 0.466589 0.307353 0.080962
Si Si4 0.671710 0.424304 0.356252
Si Si5 0.648331 0.644258 0.623522
Si Si6 0.574468 0.856094 0.183192
Si Si7 0.460165 0.258813 0.655824
Si Si8 0.210594 0.391081 0.471431
O O1 0.338060 0.436184 0.158999
O O2 0.116501 0.463546 0.201411
O O3 0.167659 0.645531 0.242519
O O4 0.910417 0.452514 0.407593
O O5 0.173427 0.707051 0.805438
O O6 0.403169 0.563242 0.613429
O O7 0.535924 0.630982 0.631879
O O8 0.549649 0.786517 0.542089
O O9 0.500000 0.265061 0.000000
O O10 0.693118 0.324891 0.978084
O O11 0.500000 0.373489 0.500000
O O12 0.690251 0.346876 0.290739
O O13 0.911436 0.415746 0.237566
O O14 0.504871 0.724047 0.747348
O O15 0.867413 0.716263 0.488322
O O16 0.711415 0.507641 0.610854
O O17 0.568691 0.330156 0.640511
#
# Coordination Sequence:
#
# PCOD8048055 Si02
#       8
#     4   4   4   4   4   4   4   4
#     4   9  17  32  56  79 103 145 195 228 261 330
#     4  10  19  34  57  82 113 151 185 232 281 341
#     4   9  17  36  60  81 101 149 206 225 264 334
#     4  12  23  35  53  87 118 146 179 235 298 335
#     4  10  16  30  56  84 105 140 186 228 275 335
#     4  11  20  35  59  84 108 144 193 236 274 342
#     4  10  18  30  51  79 114 140 178 228 279 333
#     4   9  16  28  55  80 102 139 186 223 279 324
#
# _framework density 18.778683000000001
#
# number of rings (size 3 to 8) (size 9 to 14) (size 15 to 20)
#    0.000    2.000    7.500    0.000    3.500    0.000 
#    2.250    0.000    8.250    6.750    0.000    0.000 
#    0.000    0.000    0.000    0.000    0.000    0.000 
#
# Total GULP energy -198232.098798 kJ/mol
# GULP energy per Si atom -12389.506175 kJ/mol
# Density = 1.873594 g / cm^3
# Si number density = 18.778683 Si / 1000 Ang^3
#
#
#
# Elastic Constant Matrix: (Units=GPa)
#
#
# Indices 1 2 3 4 5 6 
#
# 1 61.3970 35.4111 25.0191 0.0472 -20.6135 -0.0068
# 2 35.4111 124.2801 27.7001 0.0524 -4.6872 0.0075
# 3 25.0191 27.7001 67.8823 0.1111 -19.0493 0.0351
# 4 0.0472 0.0524 0.1111 21.6184 0.0240 -0.4824
# 5 -20.6135 -4.6872 -19.0493 0.0240 25.8756 0.0110
# 6 -0.0068 0.0075 0.0351 -0.4824 0.0110 29.2598
#
#
#
# Elastic Compliance Matrix: (Units=1/GPa)
#
#
# Indices 1 2 3 4 5 6 
#
# 1 0.027338 -0.006620 -0.002016 -0.000054 0.019095 0.000002
# 2 -0.006620 0.010491 -0.003514 0.000014 -0.005960 0.000002
# 3 -0.002016 -0.003514 0.020518 -0.000107 0.012863 -0.000031
# 4 -0.000054 0.000014 -0.000107 0.046275 -0.000163 0.000763
# 5 0.019095 -0.005960 0.012863 -0.000163 0.062248 -0.000036
# 6 0.000002 0.000002 -0.000031 0.000763 -0.000036 0.034189
#
#
# Mechanical properties :
#
#
# Convention : Reuss Voigt Hill
#
# Bulk Modulus (GPa) = 29.37020 47.75779 38.56400
# Shear Modulus (GPa) = 21.12313 26.37938 23.75125
#
# Velocity S-wave (km/s) = 3.35751 3.75207 3.56026
# Velocity P-wave (km/s) = 5.54118 6.65265 6.12219
#
# Compressibility (1/GPa) = 0.03404811
#
# Stress axis : x y z
#
# Youngs Moduli (GPa) = 36.57886 95.32072 48.73800
#
# Poissons Ratio (x) = 0.63102 0.09825
# Poissons Ratio (y) = 0.24215 0.17124
# Poissons Ratio (z) = 0.07374 0.33492
#
# Static dielectric constant tensor:
#      x y z
#    x 3.089480 -0.000100 -0.294350 
#    y -0.000100 3.724560 0.000120 
#    z -0.294350 0.000120 3.423590 
# 
# 
# High freq. dielectric constant tensor:
#      x y z
#    x 1.690820 0.000000 -0.028720 
#    y 0.000000 1.735860 0.000010 
#    z -0.028720 0.000010 1.708210 
# 
# From -- ./inp_files/70946.got.cif
#   From: 2010.03.12/outbox.cif.g09.slc.cpg/sg5_36_cif.got.tgz:70946.got - 2010.03.31 09:47:26.
