data_PCOD8048872
_publ_section_title
;
Structure prediction by ZEFSAII (Michael W. Deem and Ramdas Pophale) SiO2 
 PCOD8048872
Probable space group: C 2
;
_chemical_formula_sum "Si O2"
_cell_formula_units_Z 32
_cell_length_a 21.250976
_cell_length_b 12.886843
_cell_length_c 18.338039
_cell_angle_alpha 90.000000
_cell_angle_beta 17.935637
_cell_angle_gamma 90.000000
_cell_volume 1546.522740
_symmetry_space_group_name_H-M "C 2"
_symmetry_group_IT_number 5
_symmetry_cell_setting 'monoclinic'
loop_
_space_group_symop_operation_xyz
x,y,z
-x,y,-z
1/2+x,1/2+y,z
1/2-x,1/2+y,-z
loop_
_atom_site_type_symbol
_atom_site_label
_atom_site_fract_x
_atom_site_fract_y
_atom_site_fract_z
Si Si1 0.715485 0.144040 0.437681
Si Si2 0.173100 0.398421 0.012202
Si Si3 0.061057 0.018701 0.578770
Si Si4 0.663243 0.215699 0.074653
Si Si5 0.877766 0.348198 0.207102
Si Si6 0.976613 0.235130 0.612340
Si Si7 0.425432 0.553837 0.875444
Si Si8 0.474124 0.952873 0.676089
O O1 0.570852 0.175333 0.666384
O O2 0.732996 0.247439 0.370618
O O3 0.942853 0.109915 0.208805
O O4 0.617837 0.050858 0.497169
O O5 0.334622 0.481607 0.800640
O O6 0.314283 0.317105 0.900298
O O7 0.022931 0.447464 0.238727
O O8 0.033093 0.350942 0.103873
O O9 0.243033 0.950931 0.345356
O O10 0.100067 0.137825 0.510197
O O11 0.075534 0.000139 0.650773
O O12 0.744033 0.232043 0.902269
O O13 0.804296 0.132174 0.957835
O O14 0.000000 0.333954 0.000000
O O15 0.065062 0.347463 0.540389
O O16 0.000000 0.227931 0.500000
O O17 0.259744 0.475085 0.094005
#
# Coordination Sequence:
#
# PCOD8048872 Si02
#       8
#     4   4   4   4   4   4   4   4
#     4  11  20  40  65  93 121 157 208 261 297 361
#     4  10  19  40  63  88 123 160 204 257 294 375
#     4  10  22  40  62  88 124 163 201 249 315 362
#     4   9  18  37  67  91 116 156 206 244 306 361
#     4  12  26  38  60  97 126 158 203 254 321 368
#     4  10  22  41  64  89 123 164 200 251 308 367
#     4   9  18  37  65  94 115 155 208 255 291 357
#     4   9  21  40  65  91 116 162 213 247 305 361
#
# _framework density 20.691582
#
# number of rings (size 3 to 8) (size 9 to 14) (size 15 to 20)
#    0.000    2.000    2.500    1.500    1.750    0.000 
#    2.250    1.250    0.000    0.000    0.000    0.000 
#    0.000    0.000    0.000    0.000    0.000    0.000 
#
# Total GULP energy -198220.582639 kJ/mol
# GULP energy per Si atom -12388.786415 kJ/mol
# Density = 2.064449 g / cm^3
# Si number density = 20.691582 Si / 1000 Ang^3
#
#
#
# Elastic Constant Matrix: (Units=GPa)
#
#
# Indices 1 2 3 4 5 6 
#
# 1 66.7342 38.5039 43.1691 0.0542 3.8881 0.0020
# 2 38.5039 150.3961 51.6720 0.0579 1.1341 0.0127
# 3 43.1691 51.6720 87.6081 0.0230 5.3188 0.0041
# 4 0.0542 0.0579 0.0230 19.2715 -0.0421 -12.4420
# 5 3.8881 1.1341 5.3188 -0.0421 24.6727 -0.0022
# 6 0.0020 0.0127 0.0041 -12.4420 -0.0022 17.9198
#
#
#
# Elastic Compliance Matrix: (Units=1/GPa)
#
#
# Indices 1 2 3 4 5 6 
#
# 1 0.022751 -0.002498 -0.009653 -0.000086 -0.001390 -0.000058
# 2 -0.002498 0.008625 -0.003907 -0.000028 0.000839 -0.000024
# 3 -0.009653 -0.003907 0.018616 0.000020 -0.002312 0.000013
# 4 -0.000086 -0.000028 0.000020 0.094050 0.000177 0.065300
# 5 -0.001390 0.000839 -0.002312 0.000177 0.041210 0.000128
# 6 -0.000058 -0.000024 0.000013 0.065300 0.000128 0.101143
#
#
# Mechanical properties :
#
#
# Convention : Reuss Voigt Hill
#
# Bulk Modulus (GPa) = 55.94105 63.49202 59.71654
# Shear Modulus (GPa) = 15.40978 23.79902 19.60440
#
# Velocity S-wave (km/s) = 2.73195 3.39511 3.08142
# Velocity P-wave (km/s) = 6.08652 6.79121 6.44850
#
# Compressibility (1/GPa) = 0.01787596
#
# Stress axis : x y z
#
# Youngs Moduli (GPa) = 43.95319 115.94747 53.71729
#
# Poissons Ratio (x) = 0.28959 0.51855
# Poissons Ratio (y) = 0.10978 0.20988
# Poissons Ratio (z) = 0.42429 0.45302
#
# Static dielectric constant tensor:
#      x y z
#    x 3.258770 -0.000070 0.037250 
#    y -0.000070 4.341500 0.000070 
#    z 0.037250 0.000070 3.781180 
# 
# 
# High freq. dielectric constant tensor:
#      x y z
#    x 1.753660 0.000000 0.002510 
#    y 0.000000 1.840500 0.000000 
#    z 0.002510 0.000000 1.799780 
# 
# From -- ./inp_files/63029.got.cif
#   From: 2010.03.12/outbox.cif.g09.slc.cpg/sg5_32_cif.got.tgz:63029.got - 2010.03.31 09:47:26.
