data_PCOD8048985
_publ_section_title
;
Structure prediction by ZEFSAII (Michael W. Deem and Ramdas Pophale) SiO2 
 PCOD8048985
Probable space group: C 2
;
_chemical_formula_sum "Si O2"
_cell_formula_units_Z 28
_cell_length_a 5.112926
_cell_length_b 31.283619
_cell_length_c 9.440181
_cell_angle_alpha 90.000000
_cell_angle_beta 66.405109
_cell_angle_gamma 90.000000
_cell_volume 1383.729342
_symmetry_space_group_name_H-M "C 2"
_symmetry_group_IT_number 5
_symmetry_cell_setting 'monoclinic'
loop_
_space_group_symop_operation_xyz
x,y,z
-x,y,-z
1/2+x,1/2+y,z
1/2-x,1/2+y,-z
loop_
_atom_site_type_symbol
_atom_site_label
_atom_site_fract_x
_atom_site_fract_y
_atom_site_fract_z
Si Si1 0.375864 0.601510 0.684058
Si Si2 0.877483 0.905665 0.682978
Si Si3 0.655151 0.697568 0.317102
Si Si4 0.717008 0.734110 0.833049
Si Si5 0.814602 0.830118 0.898591
Si Si6 0.124520 0.551911 0.315473
Si Si7 0.127286 0.456021 0.316394
O O1 0.500000 0.600948 0.500000
O O2 0.368873 0.650011 0.742785
O O3 0.563186 0.572903 0.749475
O O4 0.062656 0.580883 0.748982
O O5 0.918447 0.859936 0.748441
O O6 0.556443 0.924291 0.743848
O O7 0.000000 0.900150 0.500000
O O8 0.051218 0.939189 0.741401
O O9 0.500000 0.699407 0.500000
O O10 0.476198 0.731749 0.265217
O O11 0.993054 0.707255 0.248019
O O12 0.816095 0.782006 0.842021
O O13 0.500000 0.716495 0.000000
O O14 0.500000 0.846196 0.000000
O O15 0.000000 0.834213 0.000000
O O16 0.134863 0.503843 0.251438
O O17 0.000000 0.551413 0.500000
O O18 0.000000 0.457193 0.500000
#
# Coordination Sequence:
#
# PCOD8048985 Si02
#       7
#     4   4   4   4   4   4   4
#     4   9  17  28  46  76 111 143 178 224 274 325
#     4  10  20  34  54  83 113 139 177 230 280 323
#     4  11  22  37  59  89 119 146 188 243 291 332
#     4  11  23  41  60  82 113 153 194 233 282 348
#     4  11  23  41  60  80 108 145 189 228 271 338
#     4   9  15  26  45  72 110 148 176 213 271 327
#     4   9  17  29  48  78 113 144 177 221 272 327
#
# _framework density 20.235174000000001
#
# number of rings (size 3 to 8) (size 9 to 14) (size 15 to 20)
#    0.000    2.000    0.000    5.143    0.000    6.857 
#    0.000    1.429    0.000    0.000    0.000   35.000 
#    0.000    0.000    0.000    0.000    0.000    0.000 
#
# Total GULP energy -173542.931837 kJ/mol
# GULP energy per Si atom -12395.923703 kJ/mol
# Density = 2.018912 g / cm^3
# Si number density = 20.235174 Si / 1000 Ang^3
#
#
#
# Elastic Constant Matrix: (Units=GPa)
#
#
# Indices 1 2 3 4 5 6 
#
# 1 166.4014 48.4648 37.7770 0.0000 4.8814 0.0000
# 2 48.4648 104.9441 42.4179 0.0000 6.2349 0.0000
# 3 37.7770 42.4179 51.8635 0.0000 -1.5267 0.0000
# 4 0.0000 0.0000 0.0000 3.8626 0.0000 4.6589
# 5 4.8814 6.2349 -1.5267 0.0000 28.5469 0.0000
# 6 0.0000 0.0000 0.0000 4.6589 0.0000 35.7986
#
#
#
# Elastic Compliance Matrix: (Units=1/GPa)
#
#
# Indices 1 2 3 4 5 6 
#
# 1 0.007469 -0.001750 -0.004043 0.000000 -0.001111 0.000000
# 2 -0.001750 0.015054 -0.011143 0.000000 -0.003585 0.000000
# 3 -0.004043 -0.011143 0.031481 0.000000 0.004809 0.000000
# 4 0.000000 0.000000 0.000000 0.307102 0.000000 -0.039967
# 5 -0.001111 -0.003585 0.004809 0.000000 0.036260 0.000000
# 6 0.000000 0.000000 0.000000 -0.039967 0.000000 0.033135
#
#
# Mechanical properties :
#
#
# Convention : Reuss Voigt Hill
#
# Bulk Modulus (GPa) = 49.66756 64.50317 57.08537
# Shear Modulus (GPa) = 10.61381 26.61157 18.61269
#
# Velocity S-wave (km/s) = 2.29273 3.63039 3.03614
# Velocity P-wave (km/s) = 5.62203 7.03697 6.36891
#
# Compressibility (1/GPa) = 0.02013386
#
# Stress axis : x y z
#
# Youngs Moduli (GPa) = 133.87839 66.42775 31.76473
#
# Poissons Ratio (x) = 0.11622 0.12841
# Poissons Ratio (y) = 0.23422 0.35397
# Poissons Ratio (z) = 0.54121 0.74023
#
# Static dielectric constant tensor:
#      x y z
#    x 3.946350 0.000000 -0.032530 
#    y 0.000000 3.770200 0.000000 
#    z -0.032530 0.000000 3.321390 
# 
# 
# High freq. dielectric constant tensor:
#      x y z
#    x 1.812430 0.000000 0.000060 
#    y 0.000000 1.799140 0.000000 
#    z 0.000060 0.000000 1.744330 
# 
# From -- ./inp_files/13292.got.cif
#   From: 2010.03.12/outbox.cif.g09.slc.cpg/sg5_7_cif.got.tgz:13292.got - 2010.03.31 09:47:26.
