data_PCOD8048743
_publ_section_title
;
Structure prediction by ZEFSAII (Michael W. Deem and Ramdas Pophale) SiO2 
 PCOD8048743
Probable space group: C 2
;
_chemical_formula_sum "Si O2"
_cell_formula_units_Z 32
_cell_length_a 11.618304
_cell_length_b 12.433813
_cell_length_c 11.808130
_cell_angle_alpha 90.000000
_cell_angle_beta 63.596597
_cell_angle_gamma 90.000000
_cell_volume 1527.860363
_symmetry_space_group_name_H-M "C 2"
_symmetry_group_IT_number 5
_symmetry_cell_setting 'monoclinic'
loop_
_space_group_symop_operation_xyz
x,y,z
-x,y,-z
1/2+x,1/2+y,z
1/2-x,1/2+y,-z
loop_
_atom_site_type_symbol
_atom_site_label
_atom_site_fract_x
_atom_site_fract_y
_atom_site_fract_z
Si Si1 0.855543 0.750000 0.536824
Si Si2 0.078616 0.709965 0.079778
Si Si3 0.022888 0.471831 0.122642
Si Si4 0.244957 0.467358 0.647899
Si Si5 0.185307 0.283265 0.149052
Si Si6 0.553506 0.635001 0.362299
Si Si7 0.139557 0.826570 0.718131
Si Si8 0.300184 0.544043 0.394235
O O1 0.828656 0.858324 0.618842
O O2 0.827357 0.771404 0.416404
O O3 0.761456 0.655004 0.623795
O O4 0.000000 0.713066 0.500000
O O5 0.068532 0.591244 0.137301
O O6 0.010795 0.799469 0.190103
O O7 0.228492 0.736579 0.991655
O O8 0.000000 0.710915 0.000000
O O9 0.888247 0.443096 0.235449
O O10 0.132343 0.395641 0.127159
O O11 0.000000 0.454496 0.000000
O O12 0.317033 0.566103 0.677044
O O13 0.210116 0.498011 0.533757
O O14 0.067074 0.209142 0.243718
O O15 0.269557 0.278307 0.226173
O O16 0.500000 0.696696 0.500000
O O17 0.440916 0.552036 0.386147
O O18 0.176575 0.952893 0.710468
#
# Coordination Sequence:
#
# PCOD8048743 Si02
#       8
#     4   4   4   4   4   4   4   4
#     4  11  22  37  59  91 127 160 198 252 312 367
#     4   9  20  40  61  82 116 162 203 239 301 384
#     4  11  23  39  60  88 118 155 206 259 306 366
#     4  10  20  38  61  86 120 166 207 237 301 384
#     4  11  23  39  62  88 115 153 201 254 304 359
#     4  10  19  37  61  85 118 160 196 237 297 371
#     4  10  21  39  60  85 118 159 202 240 299 372
#     4  10  21  35  58  91 121 151 197 252 297 351
#
# _framework density 20.944322
#
# number of rings (size 3 to 8) (size 9 to 14) (size 15 to 20)
#    0.000    1.750    0.000    7.125    0.000    6.000 
#    0.000    1.250    0.000    0.750    0.000    0.000 
#    0.000    0.000    0.000    0.000    0.000    0.000 
#
# Total GULP energy -198280.475599 kJ/mol
# GULP energy per Si atom -12392.529725 kJ/mol
# Density = 2.089665 g / cm^3
# Si number density = 20.944322 Si / 1000 Ang^3
#
#
#
# Elastic Constant Matrix: (Units=GPa)
#
#
# Indices 1 2 3 4 5 6 
#
# 1 72.9256 28.0673 27.7315 0.0000 -13.1417 0.0000
# 2 28.0673 137.5788 47.9867 0.0000 -11.7098 0.0000
# 3 27.7315 47.9867 94.9437 0.0000 -25.3459 0.0000
# 4 0.0000 0.0000 0.0000 33.6571 0.0000 -3.6874
# 5 -13.1417 -11.7098 -25.3459 0.0000 33.4816 0.0000
# 6 0.0000 0.0000 0.0000 -3.6874 0.0000 31.0685
#
#
#
# Elastic Compliance Matrix: (Units=1/GPa)
#
#
# Indices 1 2 3 4 5 6 
#
# 1 0.016184 -0.002041 -0.002745 0.000000 0.003560 0.000000
# 2 -0.002041 0.009085 -0.004213 0.000000 -0.000813 0.000000
# 3 -0.002745 -0.004213 0.016020 0.000000 0.009577 0.000000
# 4 0.000000 0.000000 0.000000 0.030103 0.000000 0.003573
# 5 0.003560 -0.000813 0.009577 0.000000 0.038230 0.000000
# 6 0.000000 0.000000 0.000000 0.003573 0.000000 0.032611
#
#
# Mechanical properties :
#
#
# Convention : Reuss Voigt Hill
#
# Bulk Modulus (GPa) = 42.93417 57.00213 49.96815
# Shear Modulus (GPa) = 29.76304 33.08560 31.42432
#
# Velocity S-wave (km/s) = 3.77378 3.97885 3.87767
# Velocity P-wave (km/s) = 6.28747 6.95582 6.63007
#
# Compressibility (1/GPa) = 0.02329147
#
# Stress axis : x y z
#
# Youngs Moduli (GPa) = 61.79096 110.06988 62.42208
#
# Poissons Ratio (x) = 0.22467 0.17134
# Poissons Ratio (y) = 0.12613 0.26296
# Poissons Ratio (z) = 0.16961 0.46368
#
# Static dielectric constant tensor:
#      x y z
#    x 3.581420 0.000000 -0.228300 
#    y 0.000000 3.826150 0.000000 
#    z -0.228300 0.000000 4.050120 
# 
# 
# High freq. dielectric constant tensor:
#      x y z
#    x 1.806730 0.000000 -0.019040 
#    y 0.000000 1.821730 0.000000 
#    z -0.019040 0.000000 1.816630 
# 
# From -- ./inp_files/39404.got.cif
#   From: 2010.03.12/outbox.cif.g09.slc.cpg/sg5_20_cif.got.tgz:39404.got - 2010.03.31 09:47:26.
