data_PCOD8048711
_publ_section_title
;
Structure prediction by ZEFSAII (Michael W. Deem and Ramdas Pophale) SiO2 
 PCOD8048711
Probable space group: C 2
;
_chemical_formula_sum "Si O2"
_cell_formula_units_Z 32
_cell_length_a 30.408871
_cell_length_b 5.474781
_cell_length_c 9.335493
_cell_angle_alpha 90.000000
_cell_angle_beta 95.138794
_cell_angle_gamma 90.000000
_cell_volume 1547.943859
_symmetry_space_group_name_H-M "C 2"
_symmetry_group_IT_number 5
_symmetry_cell_setting 'monoclinic'
loop_
_space_group_symop_operation_xyz
x,y,z
-x,y,-z
1/2+x,1/2+y,z
1/2-x,1/2+y,-z
loop_
_atom_site_type_symbol
_atom_site_label
_atom_site_fract_x
_atom_site_fract_y
_atom_site_fract_z
Si Si1 0.672934 0.526410 0.663414
Si Si2 0.081848 0.244410 0.141146
Si Si3 0.740064 0.061690 0.415364
Si Si4 0.607909 0.148103 0.600407
Si Si5 0.470112 0.457871 0.365802
Si Si6 0.527950 0.239118 0.152022
Si Si7 0.403839 0.767984 0.184099
Si Si8 0.850385 0.337292 0.609679
O O1 0.725469 0.548206 0.711395
O O2 0.657481 0.247503 0.641502
O O3 0.641616 0.647927 0.772686
O O4 0.668490 0.636137 0.502333
O O5 0.055934 0.490563 0.178836
O O6 0.126464 0.218344 0.246392
O O7 0.055206 0.992798 0.151718
O O8 0.098237 0.277868 0.985041
O O9 0.756416 0.834527 0.519565
O O10 0.689659 0.014620 0.350873
O O11 0.571259 0.350528 0.556402
O O12 0.593383 0.034997 0.747831
O O13 0.610169 0.972078 0.465364
O O14 0.500000 0.580429 0.500000
O O15 0.497222 0.255858 0.283972
O O16 0.449875 0.645319 0.246092
O O17 0.500000 0.209316 0.000000
#
# Coordination Sequence:
#
# PCOD8048711 Si02
#       8
#     4   4   4   4   4   4   4   4
#     4   9  20  38  65  93 125 161 208 255 312 371
#     4  12  27  42  66  90 130 168 211 258 314 376
#     4  10  19  36  65  98 129 158 203 260 310 370
#     4  10  20  39  61  88 120 161 209 255 315 366
#     4  11  24  38  60  89 122 159 213 265 312 364
#     4  12  26  45  63  90 125 169 215 258 314 373
#     4  10  23  41  60  86 126 170 204 252 320 372
#     4  10  22  38  66  97 126 161 209 258 315 370
#
# _framework density 20.672585000000002
#
# number of rings (size 3 to 8) (size 9 to 14) (size 15 to 20)
#    0.000    1.500    2.500    1.875   10.500    0.500 
#    0.000    0.000    2.750    0.000    0.000    0.000 
#    0.000    0.000    0.000    0.000    0.000    0.000 
#
# Total GULP energy -198218.931741 kJ/mol
# GULP energy per Si atom -12388.683234 kJ/mol
# Density = 2.062553 g / cm^3
# Si number density = 20.672585 Si / 1000 Ang^3
#
#
#
# Elastic Constant Matrix: (Units=GPa)
#
#
# Indices 1 2 3 4 5 6 
#
# 1 94.4222 16.1260 31.3473 0.0000 -11.0025 0.0000
# 2 16.1260 88.5065 -0.2791 0.0000 -2.3983 0.0000
# 3 31.3473 -0.2791 81.8425 0.0000 -2.1862 0.0000
# 4 0.0000 0.0000 0.0000 17.2672 0.0000 -5.5939
# 5 -11.0025 -2.3983 -2.1862 0.0000 28.8962 0.0000
# 6 0.0000 0.0000 0.0000 -5.5939 0.0000 30.0353
#
#
#
# Elastic Compliance Matrix: (Units=1/GPa)
#
#
# Indices 1 2 3 4 5 6 
#
# 1 0.013132 -0.002288 -0.004919 0.000000 0.004438 0.000000
# 2 -0.002288 0.011723 0.000921 0.000000 0.000172 0.000000
# 3 -0.004919 0.000921 0.014086 0.000000 -0.000731 0.000000
# 4 0.000000 0.000000 0.000000 0.061632 0.000000 0.011479
# 5 0.004438 0.000172 -0.000731 0.000000 0.036255 0.000000
# 6 0.000000 0.000000 0.000000 0.011479 0.000000 0.035432
#
#
# Mechanical properties :
#
#
# Convention : Reuss Voigt Hill
#
# Bulk Modulus (GPa) = 37.92331 39.90665 38.91498
# Shear Modulus (GPa) = 25.82356 29.74486 27.78421
#
# Velocity S-wave (km/s) = 3.53819 3.79734 3.67005
# Velocity P-wave (km/s) = 5.92253 6.21067 6.06831
#
# Compressibility (1/GPa) = 0.02636901
#
# Stress axis : x y z
#
# Youngs Moduli (GPa) = 76.15190 85.30237 70.99116
#
# Poissons Ratio (x) = 0.19516 0.34920
# Poissons Ratio (y) = 0.17422 -0.06537
# Poissons Ratio (z) = 0.37459 -0.07855
#
# Static dielectric constant tensor:
#      x y z
#    x 4.282540 0.000000 -0.231170 
#    y 0.000000 3.879930 0.000000 
#    z -0.231170 0.000000 3.486400 
# 
# 
# High freq. dielectric constant tensor:
#      x y z
#    x 1.824490 0.000000 -0.021300 
#    y 0.000000 1.816180 0.000000 
#    z -0.021300 0.000000 1.776970 
# 
# From -- ./inp_files/32271.got.cif
#   From: 2010.03.12/outbox.cif.g09.slc.cpg/sg5_17_cif.got.tgz:32271.got - 2010.03.31 09:47:26.
