data_PCOD8048221
_publ_section_title
;
Structure prediction by ZEFSAII (Michael W. Deem and Ramdas Pophale) SiO2 
 PCOD8048221
Probable space group: C 2
;
_chemical_formula_sum "Si O2"
_cell_formula_units_Z 24
_cell_length_a 24.537081
_cell_length_b 8.105121
_cell_length_c 18.669467
_cell_angle_alpha 90.000000
_cell_angle_beta 19.570185
_cell_angle_gamma 90.000000
_cell_volume 1243.680886
_symmetry_space_group_name_H-M "C 2"
_symmetry_group_IT_number 5
_symmetry_cell_setting 'monoclinic'
loop_
_space_group_symop_operation_xyz
x,y,z
-x,y,-z
1/2+x,1/2+y,z
1/2-x,1/2+y,-z
loop_
_atom_site_type_symbol
_atom_site_label
_atom_site_fract_x
_atom_site_fract_y
_atom_site_fract_z
Si Si1 0.364741 0.207850 0.429632
Si Si2 0.527711 0.404026 0.580053
Si Si3 0.135228 0.129579 0.105494
Si Si4 0.302042 0.302338 0.025482
Si Si5 0.262516 0.505231 0.806856
Si Si6 0.433057 0.886161 0.268169
O O1 0.408899 0.235629 0.459749
O O2 0.199709 0.306250 0.618827
O O3 0.351514 0.014155 0.425687
O O4 0.504633 0.279964 0.204301
O O5 0.490454 0.530286 0.689493
O O6 0.365054 0.381020 0.732462
O O7 0.672638 0.483805 0.353398
O O8 0.263850 0.231253 0.993086
O O9 0.019888 0.244829 0.204028
O O10 0.234776 0.999049 0.930734
O O11 0.207290 0.196065 0.203410
O O12 0.071219 0.468906 0.047110
#
# Coordination Sequence:
#
# PCOD8048221 Si02
#       6
#     4   4   4   4   4   4
#     4  10  19  32  51  76 105 139 180 220 261 313
#     4   9  18  35  55  79 108 140 173 212 266 324
#     4  10  18  32  55  78 104 139 180 224 264 312
#     4   9  17  31  52  78 105 138 178 217 259 312
#     4   9  19  34  55  79 108 142 174 211 266 321
#     4  11  21  34  54  78 104 140 183 226 266 314
#
# _framework density 19.297553000000001
#
# number of rings (size 3 to 8) (size 9 to 14) (size 15 to 20)
#    0.000    2.333    0.000    6.000    0.000    0.667 
#    0.000    1.667    0.000   14.000    0.000    0.000 
#    0.000    0.000    0.000    0.000    0.000    0.000 
#
# Total GULP energy -148667.983059 kJ/mol
# GULP energy per Si atom -12388.998588 kJ/mol
# Density = 1.925363 g / cm^3
# Si number density = 19.297553 Si / 1000 Ang^3
#
#
#
# Elastic Constant Matrix: (Units=GPa)
#
#
# Indices 1 2 3 4 5 6 
#
# 1 64.6480 41.6169 38.3345 0.0001 -3.7984 0.0000
# 2 41.6169 107.6661 18.3596 -0.0002 -10.6002 0.0000
# 3 38.3345 18.3596 78.5977 -0.0001 -10.0676 0.0000
# 4 0.0001 -0.0002 -0.0001 25.8152 0.0000 -6.4303
# 5 -3.7984 -10.6002 -10.0676 0.0000 32.9884 0.0000
# 6 0.0000 0.0000 0.0000 -6.4303 0.0000 31.6608
#
#
#
# Elastic Compliance Matrix: (Units=1/GPa)
#
#
# Indices 1 2 3 4 5 6 
#
# 1 0.028420 -0.009251 -0.012137 0.000000 -0.003404 0.000000
# 2 -0.009251 0.012890 0.001972 0.000000 0.003679 0.000000
# 3 -0.012137 0.001972 0.018820 0.000000 0.004980 0.000000
# 4 0.000000 0.000000 0.000000 0.040801 0.000000 0.008287
# 5 -0.003404 0.003679 0.004980 0.000000 0.032623 0.000000
# 6 0.000000 0.000000 0.000000 0.008287 0.000000 0.033268
#
#
# Mechanical properties :
#
#
# Convention : Reuss Voigt Hill
#
# Bulk Modulus (GPa) = 46.95068 49.72600 48.33834
# Shear Modulus (GPa) = 23.50153 28.26627 25.88390
#
# Velocity S-wave (km/s) = 3.49356 3.83137 3.66636
# Velocity P-wave (km/s) = 6.37620 6.73769 6.55944
#
# Compressibility (1/GPa) = 0.02129894
#
# Stress axis : x y z
#
# Youngs Moduli (GPa) = 35.18605 77.58138 53.13629
#
# Poissons Ratio (x) = 0.71771 0.64489
# Poissons Ratio (y) = 0.32551 -0.10480
# Poissons Ratio (z) = 0.42704 -0.15302
#
# Static dielectric constant tensor:
#      x y z
#    x 3.490780 0.000000 -0.227230 
#    y 0.000000 3.806730 0.000000 
#    z -0.227230 0.000000 3.656010 
# 
# 
# High freq. dielectric constant tensor:
#      x y z
#    x 1.729890 0.000000 -0.018570 
#    y 0.000000 1.748460 0.000000 
#    z -0.018570 0.000000 1.740400 
# 
# From -- ./inp_files/26496.got.cif
#   From: 2010.03.12/outbox.cif.g09.slc.cpg/sg5_14_cif.got.tgz:26496.got - 2010.03.31 09:47:26.
