data_PCOD8048341
_publ_section_title
;
Structure prediction by ZEFSAII (Michael W. Deem and Ramdas Pophale) SiO2 
 PCOD8048341
Probable space group: C 2
;
_chemical_formula_sum "Si O2"
_cell_formula_units_Z 24
_cell_length_a 7.582133
_cell_length_b 18.294942
_cell_length_c 14.126639
_cell_angle_alpha 90.000000
_cell_angle_beta 151.174760
_cell_angle_gamma 90.000000
_cell_volume 944.787500
_symmetry_space_group_name_H-M "C 2"
_symmetry_group_IT_number 5
_symmetry_cell_setting 'monoclinic'
loop_
_space_group_symop_operation_xyz
x,y,z
-x,y,-z
1/2+x,1/2+y,z
1/2-x,1/2+y,-z
loop_
_atom_site_type_symbol
_atom_site_label
_atom_site_fract_x
_atom_site_fract_y
_atom_site_fract_z
Si Si1 0.131226 0.363680 0.927576
Si Si2 0.442651 0.697825 0.362667
Si Si3 0.358303 0.851087 0.608946
Si Si4 0.047083 0.922087 0.287134
Si Si5 0.102192 0.202371 0.945774
Si Si6 0.070147 0.083224 0.785507
O O1 0.944740 0.283559 0.853790
O O2 0.184618 0.373256 0.837861
O O3 0.831512 0.418904 0.831006
O O4 0.501670 0.373936 0.166861
O O5 0.500000 0.693740 0.500000
O O6 0.666640 0.765110 0.424946
O O7 0.551970 0.618833 0.371907
O O8 0.032441 0.711485 0.135022
O O9 0.000000 0.873206 0.500000
O O10 0.371125 0.894674 0.512754
O O11 0.131051 0.005725 0.298700
O O12 0.927532 0.141931 0.795306
O O13 0.000000 0.172956 0.000000
O O14 0.500000 0.070502 0.000000
#
# Coordination Sequence:
#
# PCOD8048341 Si02
#       6
#     4   4   4   4   4   4
#     4  10  18  35  68  91 123 173 224 263 329 403
#     4  11  24  37  64 101 136 171 230 288 331 406
#     4  10  22  38  65  99 128 175 229 277 331 406
#     4  10  19  37  66  97 129 175 217 277 339 398
#     4  11  22  41  69  96 128 187 231 271 340 410
#     4  10  21  40  63  97 137 172 224 277 344 404
#
# _framework density 25.402536999999999
#
# number of rings (size 3 to 8) (size 9 to 14) (size 15 to 20)
#    0.000    1.667    5.000    1.000    2.333    2.000 
#    0.000    0.000    7.333    5.000    0.000    0.000 
#    0.000    0.000    0.000    0.000    0.000    0.000 
#
# Total GULP energy -148748.937395 kJ/mol
# GULP energy per Si atom -12395.744783 kJ/mol
# Density = 2.534472 g / cm^3
# Si number density = 25.402537 Si / 1000 Ang^3
#
#
#
# Elastic Constant Matrix: (Units=GPa)
#
#
# Indices 1 2 3 4 5 6 
#
# 1 97.7708 44.2873 54.1301 -0.0513 -68.5992 0.0321
# 2 44.2873 188.1048 51.7718 0.0327 -33.6376 0.0285
# 3 54.1301 51.7718 178.1466 0.6173 -47.4648 -0.0162
# 4 -0.0513 0.0327 0.6173 43.2646 0.0592 -15.3745
# 5 -68.5992 -33.6376 -47.4648 0.0592 57.4219 -0.0283
# 6 0.0321 0.0285 -0.0162 -15.3745 -0.0283 30.4052
#
#
#
# Elastic Compliance Matrix: (Units=1/GPa)
#
#
# Indices 1 2 3 4 5 6 
#
# 1 0.063918 -0.001769 0.001490 -0.000057 0.076555 -0.000022
# 2 -0.001769 0.006137 -0.001092 0.000008 0.000579 0.000000
# 3 0.001490 -0.001092 0.007415 -0.000134 0.007270 -0.000057
# 4 -0.000057 0.000008 -0.000134 0.028179 -0.000195 0.014249
# 5 0.076555 0.000579 0.007270 -0.000195 0.115220 -0.000069
# 6 -0.000022 0.000000 -0.000057 0.014249 -0.000069 0.040094
#
#
# Mechanical properties :
#
#
# Convention : Reuss Voigt Hill
#
# Bulk Modulus (GPa) = 13.38182 84.93338 49.15760
# Shear Modulus (GPa) = 17.32418 47.14052 32.23235
#
# Velocity S-wave (km/s) = 2.61432 4.31250 3.56598
# Velocity P-wave (km/s) = 3.79371 7.63574 6.02896
#
# Compressibility (1/GPa) = 0.07472827
#
# Stress axis : x y z
#
# Youngs Moduli (GPa) = 15.64509 162.95430 134.85537
#
# Poissons Ratio (x) = 0.28826 -0.20090
# Poissons Ratio (y) = 0.02768 0.14721
# Poissons Ratio (z) = -0.02331 0.17788
#
# Static dielectric constant tensor:
#      x y z
#    x 4.636380 -0.000680 -0.412480 
#    y -0.000680 4.369820 -0.000850 
#    z -0.412480 -0.000850 5.172700 
# 
# 
# High freq. dielectric constant tensor:
#      x y z
#    x 2.029200 -0.000010 -0.010360 
#    y -0.000010 1.987350 -0.000050 
#    z -0.010360 -0.000050 2.043070 
# 
# From -- ./inp_files/51441.got.cif
#   From: 2010.03.12/outbox.cif.g09.slc.cpg/sg5_26_cif.got.tgz:51441.got - 2010.03.31 09:47:26.
