data_PCOD8048278
_publ_section_title
;
Structure prediction by ZEFSAII (Michael W. Deem and Ramdas Pophale) SiO2 
 PCOD8048278
Probable space group: C 2
;
_chemical_formula_sum "Si O2"
_cell_formula_units_Z 28
_cell_length_a 11.802915
_cell_length_b 8.794601
_cell_length_c 14.867083
_cell_angle_alpha 90.000000
_cell_angle_beta 60.889108
_cell_angle_gamma 90.000000
_cell_volume 1348.290450
_symmetry_space_group_name_H-M "C 2"
_symmetry_group_IT_number 5
_symmetry_cell_setting 'monoclinic'
loop_
_space_group_symop_operation_xyz
x,y,z
-x,y,-z
1/2+x,1/2+y,z
1/2-x,1/2+y,-z
loop_
_atom_site_type_symbol
_atom_site_label
_atom_site_fract_x
_atom_site_fract_y
_atom_site_fract_z
Si Si1 0.500000 0.135310 0.500000
Si Si2 0.235713 0.771048 0.043060
Si Si3 0.533196 0.371918 0.257553
Si Si4 0.500000 0.720867 0.000000
Si Si5 0.286461 0.346865 0.651254
Si Si6 0.877594 0.083661 0.208220
Si Si7 0.307946 0.952344 0.856001
Si Si8 0.558087 0.037810 0.668788
O O1 0.372396 0.243255 0.551473
O O2 0.517944 0.025138 0.579197
O O3 0.120680 0.862665 0.134359
O O4 0.371057 0.822296 0.038662
O O5 0.213792 0.592199 0.066817
O O6 0.252475 0.805314 0.930068
O O7 0.616253 0.420208 0.312760
O O8 0.431298 0.505860 0.277890
O O9 0.455361 0.215285 0.301458
O O10 0.490042 0.613744 0.091961
O O11 0.187098 0.242591 0.743235
O O12 0.204440 0.476038 0.629581
O O13 0.770385 0.973214 0.205872
O O14 0.458979 0.938842 0.768834
#
# Coordination Sequence:
#
# PCOD8048278 Si02
#       8
#     2   4   4   2   4   4   4   4
#     4  10  22  44  66  92 124 162 206 268 326 356
#     4  10  19  34  55  87 123 167 210 242 301 366
#     4  10  21  40  60  92 126 164 207 253 307 371
#     4  10  18  34  58  86 126 172 206 248 302 362
#     4  11  22  44  67  90 125 164 205 266 316 368
#     4  11  20  39  63  86 130 171 200 259 309 365
#     4  10  20  38  60  90 128 168 206 252 308 367
#     4  10  22  43  66  92 125 161 210 261 314 373
#
# _framework density 20.767037999999999
#
# number of rings (size 3 to 8) (size 9 to 14) (size 15 to 20)
#    0.000    1.714    5.714    2.571    0.000    2.286 
#    7.714    0.000    0.000    0.000    0.000    0.000 
#    0.000    0.000    0.000    0.000    0.000    0.000 
#
# Total GULP energy -173520.958111 kJ/mol
# GULP energy per Si atom -12394.354151 kJ/mol
# Density = 2.071977 g / cm^3
# Si number density = 20.767038 Si / 1000 Ang^3
#
#
#
# Elastic Constant Matrix: (Units=GPa)
#
#
# Indices 1 2 3 4 5 6 
#
# 1 123.4891 52.0130 26.0146 0.0000 11.8924 0.0000
# 2 52.0130 39.7808 27.1092 0.0000 11.2359 0.0000
# 3 26.0146 27.1092 94.3995 0.0000 4.8377 0.0000
# 4 0.0000 0.0000 0.0000 27.8788 0.0000 1.2352
# 5 11.8924 11.2359 4.8377 0.0000 32.3934 0.0000
# 6 0.0000 0.0000 0.0000 1.2352 0.0000 38.4350
#
#
#
# Elastic Compliance Matrix: (Units=1/GPa)
#
#
# Indices 1 2 3 4 5 6 
#
# 1 0.018529 -0.026411 0.002376 0.000000 0.002004 0.000000
# 2 -0.026411 0.072153 -0.012754 0.000000 -0.013426 0.000000
# 3 0.002376 -0.012754 0.013523 0.000000 0.001532 0.000000
# 4 0.000000 0.000000 0.000000 0.035921 0.000000 -0.001154
# 5 0.002004 -0.013426 0.001532 0.000000 0.034563 0.000000
# 6 0.000000 0.000000 0.000000 -0.001154 0.000000 0.026055
#
#
# Mechanical properties :
#
#
# Convention : Reuss Voigt Hill
#
# Bulk Modulus (GPa) = 32.65207 51.99366 42.32286
# Shear Modulus (GPa) = 17.57279 29.91029 23.74154
#
# Velocity S-wave (km/s) = 2.91208 3.79922 3.38484
# Velocity P-wave (km/s) = 5.20232 6.65856 5.97497
#
# Compressibility (1/GPa) = 0.03062593
#
# Stress axis : x y z
#
# Youngs Moduli (GPa) = 53.97085 13.85936 73.94935
#
# Poissons Ratio (x) = 0.36604 -0.17569
# Poissons Ratio (y) = 1.42541 0.94318
# Poissons Ratio (z) = -0.12822 0.17677
#
# Static dielectric constant tensor:
#      x y z
#    x 3.807910 0.000000 -0.098550 
#    y 0.000000 3.336250 0.000000 
#    z -0.098550 0.000000 3.901300 
# 
# 
# High freq. dielectric constant tensor:
#      x y z
#    x 1.815170 0.000000 -0.008770 
#    y 0.000000 1.773650 0.000000 
#    z -0.008770 0.000000 1.819040 
# 
# From -- ./inp_files/52132.got.cif
#   From: 2010.03.12/outbox.cif.g09.slc.cpg/sg5_27_cif.got.tgz:52132.got - 2010.03.31 09:47:26.
