data_PCOD8048791
_publ_section_title
;
Structure prediction by ZEFSAII (Michael W. Deem and Ramdas Pophale) SiO2 
 PCOD8048791
Probable space group: C 2
;
_chemical_formula_sum "Si O2"
_cell_formula_units_Z 28
_cell_length_a 28.219762
_cell_length_b 8.741926
_cell_length_c 7.729325
_cell_angle_alpha 90.000000
_cell_angle_beta 49.318903
_cell_angle_gamma 90.000000
_cell_volume 1446.010374
_symmetry_space_group_name_H-M "C 2"
_symmetry_group_IT_number 5
_symmetry_cell_setting 'monoclinic'
loop_
_space_group_symop_operation_xyz
x,y,z
-x,y,-z
1/2+x,1/2+y,z
1/2-x,1/2+y,-z
loop_
_atom_site_type_symbol
_atom_site_label
_atom_site_fract_x
_atom_site_fract_y
_atom_site_fract_z
Si Si1 0.829660 0.066750 0.248053
Si Si2 0.746765 0.649911 0.229226
Si Si3 0.563902 0.790610 0.922398
Si Si4 0.630174 0.221751 0.897185
Si Si5 0.258565 0.006041 0.845207
Si Si6 0.111907 0.549828 0.593600
Si Si7 0.985161 0.560715 0.726215
O O1 0.798143 0.095695 0.508809
O O2 0.891335 0.171286 0.087893
O O3 0.780851 0.098660 0.207897
O O4 0.853046 0.896884 0.163803
O O5 0.818019 0.626722 0.119609
O O6 0.739456 0.826509 0.196493
O O7 0.731146 0.544203 0.100083
O O8 0.601217 0.873265 0.677204
O O9 0.500000 0.712774 0.000000
O O10 0.545347 0.919283 0.103215
O O11 0.628582 0.156255 0.711350
O O12 0.563670 0.201754 0.152573
O O13 0.330314 0.062035 0.675175
O O14 0.049235 0.617631 0.659396
O O15 0.000000 0.504602 0.500000
#
# Coordination Sequence:
#
# PCOD8048791 Si02
#       7
#     4   4   4   4   4   4   4
#     4  11  23  42  62  90 130 158 199 257 315 361
#     4  11  24  39  61  94 126 162 206 252 309 366
#     4   9  20  39  63  85 115 161 208 246 304 358
#     4  10  22  38  61  89 121 164 199 251 312 360
#     4  11  24  38  64  94 122 164 206 253 306 367
#     4  10  19  38  61  85 117 162 207 244 298 361
#     4  10  21  38  61  89 118 160 211 253 294 363
#
# _framework density 19.363623
#
# number of rings (size 3 to 8) (size 9 to 14) (size 15 to 20)
#    0.000    1.714    2.857    2.143    2.000    4.571 
#    0.000    0.714    0.000    0.000    0.000    0.000 
#    0.000    0.000    0.000    0.000    0.000    0.000 
#
# Total GULP energy -173555.100375 kJ/mol
# GULP energy per Si atom -12396.792884 kJ/mol
# Density = 1.931955 g / cm^3
# Si number density = 19.363623 Si / 1000 Ang^3
#
#
#
# Elastic Constant Matrix: (Units=GPa)
#
#
# Indices 1 2 3 4 5 6 
#
# 1 129.8795 42.6716 72.3079 0.0000 -8.6273 0.0000
# 2 42.6716 56.9212 34.7928 0.0000 -9.1225 0.0000
# 3 72.3079 34.7928 113.7694 0.0000 -1.3823 0.0000
# 4 0.0000 0.0000 0.0000 86.2299 0.0000 -15.6868
# 5 -8.6273 -9.1225 -1.3823 0.0000 43.9683 0.0000
# 6 0.0000 0.0000 0.0000 -15.6868 0.0000 34.6606
#
#
#
# Elastic Compliance Matrix: (Units=1/GPa)
#
#
# Indices 1 2 3 4 5 6 
#
# 1 0.013435 -0.005736 -0.006769 0.000000 0.001233 0.000000
# 2 -0.005736 0.024891 -0.003919 0.000000 0.003916 0.000000
# 3 -0.006769 -0.003919 0.014270 0.000000 -0.001693 0.000000
# 4 0.000000 0.000000 0.000000 0.012637 0.000000 0.005719
# 5 0.001233 0.003916 -0.001693 0.000000 0.023745 0.000000
# 6 0.000000 0.000000 0.000000 0.005719 0.000000 0.031440
#
#
# Mechanical properties :
#
#
# Convention : Reuss Voigt Hill
#
# Bulk Modulus (GPa) = 50.64053 66.67942 58.65998
# Shear Modulus (GPa) = 31.27947 43.02495 37.15221
#
# Velocity S-wave (km/s) = 4.02353 4.71887 4.38500
# Velocity P-wave (km/s) = 6.91334 8.01252 7.48314
#
# Compressibility (1/GPa) = 0.01974703
#
# Stress axis : x y z
#
# Youngs Moduli (GPa) = 74.43421 40.17473 70.07667
#
# Poissons Ratio (x) = 0.23044 0.47438
# Poissons Ratio (y) = 0.42696 0.27463
# Poissons Ratio (z) = 0.50388 0.15745
#
# Static dielectric constant tensor:
#      x y z
#    x 2.777320 0.000000 0.379210 
#    y 0.000000 3.299040 0.000000 
#    z 0.379210 0.000000 3.382920 
# 
# 
# High freq. dielectric constant tensor:
#      x y z
#    x 1.770380 0.000000 -0.009600 
#    y 0.000000 1.730390 0.000000 
#    z -0.009600 0.000000 1.759280 
# 
# From -- ./inp_files/32479.got.cif
#   From: 2010.03.12/outbox.cif.g09.slc.cpg/sg5_17_cif.got.tgz:32479.got - 2010.03.31 09:47:26.
