data_PCOD8048876
_publ_section_title
;
Structure prediction by ZEFSAII (Michael W. Deem and Ramdas Pophale) SiO2 
 PCOD8048876
Probable space group: C 2
;
_chemical_formula_sum "Si O2"
_cell_formula_units_Z 30
_cell_length_a 17.495918
_cell_length_b 5.070498
_cell_length_c 14.915835
_cell_angle_alpha 90.000000
_cell_angle_beta 100.169635
_cell_angle_gamma 90.000000
_cell_volume 1302.439903
_symmetry_space_group_name_H-M "C 2"
_symmetry_group_IT_number 5
_symmetry_cell_setting 'monoclinic'
loop_
_space_group_symop_operation_xyz
x,y,z
-x,y,-z
1/2+x,1/2+y,z
1/2-x,1/2+y,-z
loop_
_atom_site_type_symbol
_atom_site_label
_atom_site_fract_x
_atom_site_fract_y
_atom_site_fract_z
Si Si1 0.937518 0.268920 0.682720
Si Si2 0.661758 0.533505 0.035668
Si Si3 0.405486 0.844176 0.372042
Si Si4 0.268774 0.021750 0.886235
Si Si5 0.804851 0.234614 0.519973
Si Si6 0.361006 0.340397 0.261479
Si Si7 0.486238 0.249791 0.799575
Si Si8 0.500000 0.344683 0.000000
O O1 0.852193 0.222612 0.623022
O O2 0.933662 0.527329 0.743154
O O3 0.000206 0.337047 0.615607
O O4 0.957437 0.027001 0.752728
O O5 0.662336 0.819478 0.080156
O O6 0.573430 0.515208 0.986503
O O7 0.693566 0.313193 0.114048
O O8 0.709235 0.516426 0.955166
O O9 0.372808 0.758072 0.460653
O O10 0.383043 0.633724 0.292943
O O11 0.365228 0.128788 0.343449
O O12 0.225572 0.890280 0.792613
O O13 0.743346 0.470051 0.506273
O O14 0.421673 0.221948 0.201512
O O15 0.474942 0.196309 0.903470
#
# Coordination Sequence:
#
# PCOD8048876 Si02
#       8
#     4   4   4   4   4   4   4   2
#     4  10  23  46  67  93 127 171 227 250 316 384
#     4  10  23  36  63  81 125 160 224 250 325 360
#     4  10  22  40  70  95 118 177 206 257 303 396
#     4  10  20  41  56  90 116 173 201 274 298 378
#     4  12  25  45  68  99 137 163 200 271 336 381
#     4  10  19  40  65  93 127 159 227 253 309 366
#     4  10  23  40  68  94 128 173 212 280 300 381
#     4  12  24  46  60 100 128 176 220 260 334 366
#
# _framework density 23.033693
#
# number of rings (size 3 to 8) (size 9 to 14) (size 15 to 20)
#    0.000    1.600    1.333    2.800    0.000    3.200 
#   14.400    5.333    0.000    0.000    0.000    0.000 
#    0.000    0.000    0.000    0.000    0.000    0.000 
#
# Total GULP energy -185842.908879 kJ/mol
# GULP energy per Si atom -12389.527259 kJ/mol
# Density = 2.298127 g / cm^3
# Si number density = 23.033693 Si / 1000 Ang^3
#
#
#
# Elastic Constant Matrix: (Units=GPa)
#
#
# Indices 1 2 3 4 5 6 
#
# 1 63.9771 20.8661 37.3758 0.0000 17.6938 0.0000
# 2 20.8661 101.8062 11.1964 0.0000 -2.6365 0.0000
# 3 37.3758 11.1964 98.5448 0.0000 3.1031 0.0000
# 4 0.0000 0.0000 0.0000 14.6262 0.0000 5.3271
# 5 17.6938 -2.6365 3.1031 0.0000 31.8568 0.0000
# 6 0.0000 0.0000 0.0000 5.3271 0.0000 24.5805
#
#
#
# Elastic Compliance Matrix: (Units=1/GPa)
#
#
# Indices 1 2 3 4 5 6 
#
# 1 0.026374 -0.004781 -0.009014 0.000000 -0.014166 0.000000
# 2 -0.004781 0.010842 0.000471 0.000000 0.003507 0.000000
# 3 -0.009014 0.000471 0.013395 0.000000 0.003740 0.000000
# 4 0.000000 0.000000 0.000000 0.074230 0.000000 -0.016087
# 5 -0.014166 0.003507 0.003740 0.000000 0.039184 0.000000
# 6 0.000000 0.000000 0.000000 -0.016087 0.000000 0.044169
#
#
# Mechanical properties :
#
#
# Convention : Reuss Voigt Hill
#
# Bulk Modulus (GPa) = 41.73098 44.80052 43.26575
# Shear Modulus (GPa) = 20.59073 27.20536 23.89804
#
# Velocity S-wave (km/s) = 2.99313 3.44046 3.22456
# Velocity P-wave (km/s) = 5.48651 5.93924 5.71736
#
# Compressibility (1/GPa) = 0.02396301
#
# Stress axis : x y z
#
# Youngs Moduli (GPa) = 37.91682 92.23814 74.65467
#
# Poissons Ratio (x) = 0.44100 0.67291
# Poissons Ratio (y) = 0.18128 -0.03517
# Poissons Ratio (z) = 0.34177 -0.04346
#
# Static dielectric constant tensor:
#      x y z
#    x 4.346340 0.000000 0.076820 
#    y 0.000000 4.289480 0.000000 
#    z 0.076820 0.000000 3.990570 
# 
# 
# High freq. dielectric constant tensor:
#      x y z
#    x 1.916450 0.000000 0.006280 
#    y 0.000000 1.913550 0.000000 
#    z 0.006280 0.000000 1.897950 
# 
# From -- ./inp_files/55487.got.cif
#   From: 2010.03.12/outbox.cif.g09.slc.cpg/sg5_28_cif.got.tgz:55487.got - 2010.03.31 09:47:26.
