data_PCOD8048069
_publ_section_title
;
Structure prediction by ZEFSAII (Michael W. Deem and Ramdas Pophale) SiO2 
 PCOD8048069
Probable space group: C 2
;
_chemical_formula_sum "Si O2"
_cell_formula_units_Z 24
_cell_length_a 27.300093
_cell_length_b 7.701049
_cell_length_c 9.475001
_cell_angle_alpha 90.000000
_cell_angle_beta 151.868592
_cell_angle_gamma 90.000000
_cell_volume 939.227303
_symmetry_space_group_name_H-M "C 2"
_symmetry_group_IT_number 5
_symmetry_cell_setting 'monoclinic'
loop_
_space_group_symop_operation_xyz
x,y,z
-x,y,-z
1/2+x,1/2+y,z
1/2-x,1/2+y,-z
loop_
_atom_site_type_symbol
_atom_site_label
_atom_site_fract_x
_atom_site_fract_y
_atom_site_fract_z
Si Si1 0.051570 0.502690 0.281378
Si Si2 0.930474 0.675531 0.186454
Si Si3 0.788760 0.357998 0.758490
Si Si4 0.731246 0.853324 0.618047
Si Si5 0.906060 0.012770 0.656636
Si Si6 0.019627 0.180859 0.713861
O O1 0.175970 0.506061 0.569750
O O2 0.005398 0.676612 0.236579
O O3 0.023876 0.355500 0.325285
O O4 0.000000 0.460052 0.000000
O O5 0.000000 0.700032 0.500000
O O6 0.859894 0.503100 0.016319
O O7 0.850840 0.836478 0.971142
O O8 0.772736 0.408535 0.554947
O O9 0.674967 0.350412 0.543541
O O10 0.854013 0.177694 0.938990
O O11 0.661579 0.680468 0.467716
O O12 0.957188 0.024430 0.630221
O O13 0.000000 0.980231 0.000000
O O14 0.000000 0.173728 0.500000
#
# Coordination Sequence:
#
# PCOD8048069 Si02
#       6
#     4   4   4   4   4   4
#     4  10  16  33  63  90 119 164 216 250 304 380
#     4  10  21  35  63  95 127 162 204 265 317 361
#     4  10  18  34  66  90 115 168 206 246 311 371
#     4  10  18  35  65  88 118 164 210 251 302 372
#     4  10  19  35  64  88 119 156 211 258 298 369
#     4  10  18  33  62  88 123 165 202 255 317 362
#
# _framework density 25.552921999999999
#
# number of rings (size 3 to 8) (size 9 to 14) (size 15 to 20)
#    0.000    2.000    5.000    3.000    0.000    0.000 
#    0.000    0.833   55.000    0.000    0.000    0.000 
#    0.000    0.000    0.000    0.000    0.000    0.000 
#
# Total GULP energy -148702.917907 kJ/mol
# GULP energy per Si atom -12391.909826 kJ/mol
# Density = 2.549476 g / cm^3
# Si number density = 25.552922 Si / 1000 Ang^3
#
#
#
# Elastic Constant Matrix: (Units=GPa)
#
#
# Indices 1 2 3 4 5 6 
#
# 1 235.4408 33.8754 127.8365 0.0000 15.3805 0.0000
# 2 33.8754 55.5010 33.7073 0.0000 5.8675 0.0000
# 3 127.8365 33.7073 218.2814 0.0000 22.8381 0.0000
# 4 0.0000 0.0000 0.0000 24.8913 0.0000 8.9299
# 5 15.3805 5.8675 22.8381 0.0000 63.8402 0.0000
# 6 0.0000 0.0000 0.0000 8.9299 0.0000 23.0397
#
#
#
# Elastic Compliance Matrix: (Units=1/GPa)
#
#
# Indices 1 2 3 4 5 6 
#
# 1 0.006387 -0.001788 -0.003450 0.000000 -0.000140 0.000000
# 2 -0.001788 0.020418 -0.002030 0.000000 -0.000719 0.000000
# 3 -0.003450 -0.002030 0.007073 0.000000 -0.001513 0.000000
# 4 0.000000 0.000000 0.000000 0.046663 0.000000 -0.018086
# 5 -0.000140 -0.000719 -0.001513 0.000000 0.016305 0.000000
# 6 0.000000 0.000000 0.000000 -0.018086 0.000000 0.050413
#
#
# Mechanical properties :
#
#
# Convention : Reuss Voigt Hill
#
# Bulk Modulus (GPa) = 51.70149 100.00685 75.85417
# Shear Modulus (GPa) = 29.71872 43.27452 36.49662
#
# Velocity S-wave (km/s) = 3.41402 4.11971 3.78335
# Velocity P-wave (km/s) = 5.98479 7.86457 6.98817
#
# Compressibility (1/GPa) = 0.01934180
#
# Stress axis : x y z
#
# Youngs Moduli (GPa) = 156.57141 48.97534 141.37630
#
# Poissons Ratio (x) = 0.08759 0.48769
# Poissons Ratio (y) = 0.28001 0.28705
# Poissons Ratio (z) = 0.54011 0.09944
#
# Static dielectric constant tensor:
#      x y z
#    x 5.279150 0.000000 1.049590 
#    y 0.000000 4.695650 0.000000 
#    z 1.049590 0.000000 5.036250 
# 
# 
# High freq. dielectric constant tensor:
#      x y z
#    x 2.029140 0.000000 0.036320 
#    y 0.000000 2.011970 0.000000 
#    z 0.036320 0.000000 2.020560 
# 
# From -- ./inp_files/30962.got.cif
#   From: 2010.03.12/outbox.cif.g09.slc.cpg/sg5_16_cif.got.tgz:30962.got - 2010.03.31 09:47:26.
