data_PCOD8048698
_publ_section_title
;
Structure prediction by ZEFSAII (Michael W. Deem and Ramdas Pophale) SiO2 
 PCOD8048698
Probable space group: C 2
;
_chemical_formula_sum "Si O2"
_cell_formula_units_Z 18
_cell_length_a 7.785100
_cell_length_b 16.377131
_cell_length_c 11.081225
_cell_angle_alpha 90.000000
_cell_angle_beta 40.123080
_cell_angle_gamma 90.000000
_cell_volume 910.472201
_symmetry_space_group_name_H-M "C 2"
_symmetry_group_IT_number 5
_symmetry_cell_setting 'monoclinic'
loop_
_space_group_symop_operation_xyz
x,y,z
-x,y,-z
1/2+x,1/2+y,z
1/2-x,1/2+y,-z
loop_
_atom_site_type_symbol
_atom_site_label
_atom_site_fract_x
_atom_site_fract_y
_atom_site_fract_z
Si Si1 0.225002 0.674700 0.703799
Si Si2 0.854991 0.009648 0.750324
Si Si3 0.438641 0.055558 0.396683
Si Si4 0.000000 0.804505 0.000000
Si Si5 0.850255 0.445860 0.900360
O O1 0.500000 0.706364 0.500000
O O2 0.255096 0.602647 0.786480
O O3 0.057029 0.639640 0.681022
O O4 0.085629 0.751133 0.839924
O O5 0.155309 0.007138 0.537855
O O6 0.655174 0.947281 0.787332
O O7 0.847319 0.987070 0.895662
O O8 0.500000 0.078425 0.500000
O O9 0.660833 0.996910 0.218692
O O10 0.752571 0.856579 0.080918
#
# Coordination Sequence:
#
# PCOD8048698 Si02
#       5
#     4   4   4   2   4
#     4   9  20  38  57  79 115 154 188 232 282 330
#     4   9  19  40  61  80 109 151 197 236 273 329
#     4  10  19  36  63  86 106 147 201 237 269 331
#     4  12  22  34  56  88 122 152 180 228 292 344
#     4  10  20  33  56  86 114 146 184 232 284 330
#
# _framework density 19.769960999999999
#
# number of rings (size 3 to 8) (size 9 to 14) (size 15 to 20)
#    0.000    2.222    0.000    6.000    0.000    2.667 
#    0.000    8.889    0.000    2.667    0.000    0.000 
#    0.000    0.000    0.000    0.000    0.000    0.000 
#
# Total GULP energy -111527.824413 kJ/mol
# GULP energy per Si atom -12391.980490 kJ/mol
# Density = 1.972496 g / cm^3
# Si number density = 19.769961 Si / 1000 Ang^3
#
#
#
# Elastic Constant Matrix: (Units=GPa)
#
#
# Indices 1 2 3 4 5 6 
#
# 1 103.2908 64.9116 49.2776 0.0002 17.2115 0.0009
# 2 64.9116 127.7079 76.7608 0.0001 10.7871 0.0000
# 3 49.2776 76.7608 113.9739 0.0004 24.0837 0.0020
# 4 0.0002 0.0001 0.0004 23.9509 -0.0003 -4.7980
# 5 17.2115 10.7871 24.0837 -0.0003 39.8543 -0.0012
# 6 0.0009 0.0000 0.0020 -4.7980 -0.0012 20.2708
#
#
#
# Elastic Compliance Matrix: (Units=1/GPa)
#
#
# Indices 1 2 3 4 5 6 
#
# 1 0.015071 -0.006574 -0.001249 0.000000 -0.003975 -0.000001
# 2 -0.006574 0.016172 -0.008855 0.000001 0.003813 0.000002
# 3 -0.001249 -0.008855 0.016803 -0.000001 -0.007218 -0.000002
# 4 0.000000 0.000001 -0.000001 0.043830 0.000001 0.010374
# 5 -0.003975 0.003813 -0.007218 0.000001 0.030138 0.000003
# 6 -0.000001 0.000002 -0.000002 0.010374 0.000003 0.051788
#
#
# Mechanical properties :
#
#
# Convention : Reuss Voigt Hill
#
# Bulk Modulus (GPa) = 68.07238 80.76363 74.41801
# Shear Modulus (GPa) = 23.57886 27.08338 25.33112
#
# Velocity S-wave (km/s) = 3.45724 3.70527 3.58340
# Velocity P-wave (km/s) = 7.10237 7.69712 7.40572
#
# Compressibility (1/GPa) = 0.01469025
#
# Stress axis : x y z
#
# Youngs Moduli (GPa) = 66.35406 61.83361 59.51298
#
# Poissons Ratio (x) = 0.40649 0.07430
# Poissons Ratio (y) = 0.43621 0.52701
# Poissons Ratio (z) = 0.08284 0.54756
#
# Static dielectric constant tensor:
#      x y z
#    x 3.563070 0.000000 0.082320 
#    y 0.000000 3.245350 0.000000 
#    z 0.082320 0.000000 3.923480 
# 
# 
# High freq. dielectric constant tensor:
#      x y z
#    x 1.765290 0.000000 0.013840 
#    y 0.000000 1.732250 0.000000 
#    z 0.013840 0.000000 1.797280 
# 
# From -- ./inp_files/36567.got.cif
#   From: 2010.03.12/outbox.cif.g09.slc.cpg/sg5_19_cif.got.tgz:36567.got - 2010.03.31 09:47:26.
