data_PCOD8048605
_publ_section_title
;
Structure prediction by ZEFSAII (Michael W. Deem and Ramdas Pophale) SiO2 
 PCOD8048605
Probable space group: C 2
;
_chemical_formula_sum "Si O2"
_cell_formula_units_Z 30
_cell_length_a 5.337871
_cell_length_b 18.195794
_cell_length_c 13.922068
_cell_angle_alpha 90.000000
_cell_angle_beta 73.738058
_cell_angle_gamma 90.000000
_cell_volume 1298.106212
_symmetry_space_group_name_H-M "C 2"
_symmetry_group_IT_number 5
_symmetry_cell_setting 'monoclinic'
loop_
_space_group_symop_operation_xyz
x,y,z
-x,y,-z
1/2+x,1/2+y,z
1/2-x,1/2+y,-z
loop_
_atom_site_type_symbol
_atom_site_label
_atom_site_fract_x
_atom_site_fract_y
_atom_site_fract_z
Si Si1 0.481639 0.100430 0.807526
Si Si2 0.199436 0.042264 0.563104
Si Si3 0.055519 0.163735 0.716437
Si Si4 0.434577 0.822422 0.245225
Si Si5 0.854343 0.908194 0.884914
Si Si6 0.327878 0.959424 0.727670
Si Si7 0.231826 0.277499 0.034690
Si Si8 0.500000 0.033061 0.000000
O O1 0.234601 0.141690 0.787565
O O2 0.750803 0.147176 0.773300
O O3 0.520138 0.024739 0.742049
O O4 0.391917 0.085322 0.926701
O O5 0.500000 0.039269 0.500000
O O6 0.133601 0.123034 0.609864
O O7 0.000000 0.021022 0.500000
O O8 0.159830 0.983468 0.653260
O O9 0.133076 0.249045 0.688204
O O10 0.217614 0.860150 0.201554
O O11 0.515408 0.884755 0.313511
O O12 0.667960 0.792026 0.151844
O O13 0.148120 0.936703 0.837979
O O14 0.799711 0.856958 0.981498
O O15 0.705928 0.983896 0.919906
O O16 0.500000 0.229512 0.000000
O O17 0.000000 0.238171 0.000000
#
# Coordination Sequence:
#
# PCOD8048605 Si02
#       8
#     4   4   4   4   4   4   4   2
#     4  11  25  44  64 100 138 196 235 282 336 412
#     4  11  25  48  77 100 131 176 231 292 369 438
#     4  11  27  48  70  98 143 186 233 284 367 427
#     4  11  23  41  69 101 140 185 228 284 341 416
#     4  11  21  36  66 101 138 184 230 282 339 387
#     4  11  23  41  76  99 134 176 239 294 356 417
#     4  10  19  35  54  94 131 181 218 254 312 392
#     4  12  20  40  62  98 142 192 248 282 318 394
#
# _framework density 23.110589999999998
#
# number of rings (size 3 to 8) (size 9 to 14) (size 15 to 20)
#    0.000    1.067    4.667    3.200    3.733    1.600 
#    8.400    0.667    0.000    0.000    0.000    0.000 
#    0.000    0.000    0.000    0.000    0.000    0.000 
#
# Total GULP energy -185831.406336 kJ/mol
# GULP energy per Si atom -12388.760422 kJ/mol
# Density = 2.305799 g / cm^3
# Si number density = 23.110590 Si / 1000 Ang^3
#
#
#
# Elastic Constant Matrix: (Units=GPa)
#
#
# Indices 1 2 3 4 5 6 
#
# 1 144.8413 29.2318 14.3781 0.0000 17.5221 0.0000
# 2 29.2318 134.9041 13.2688 0.0000 22.0929 0.0000
# 3 14.3781 13.2688 56.2818 0.0000 22.0858 0.0000
# 4 0.0000 0.0000 0.0000 25.1184 0.0000 4.9636
# 5 17.5221 22.0929 22.0858 0.0000 42.6605 0.0000
# 6 0.0000 0.0000 0.0000 4.9636 0.0000 12.1904
#
#
#
# Elastic Compliance Matrix: (Units=1/GPa)
#
#
# Indices 1 2 3 4 5 6 
#
# 1 0.007474 -0.001208 -0.000835 0.000000 -0.002012 0.000000
# 2 -0.001208 0.008300 -0.000196 0.000000 -0.003701 0.000000
# 3 -0.000835 -0.000196 0.022404 0.000000 -0.011155 0.000000
# 4 0.000000 0.000000 0.000000 0.043295 0.000000 -0.017629
# 5 -0.002012 -0.003701 -0.011155 0.000000 0.031959 0.000000
# 6 0.000000 0.000000 0.000000 -0.017629 0.000000 0.089209
#
#
# Mechanical properties :
#
#
# Convention : Reuss Voigt Hill
#
# Bulk Modulus (GPa) = 29.67314 49.97608 39.82461
# Shear Modulus (GPa) = 22.89870 34.60376 28.75123
#
# Velocity S-wave (km/s) = 3.15116 3.87371 3.53097
# Velocity P-wave (km/s) = 5.10953 6.45594 5.82179
#
# Compressibility (1/GPa) = 0.03370051
#
# Stress axis : x y z
#
# Youngs Moduli (GPa) = 133.79376 120.48587 44.63392
#
# Poissons Ratio (x) = 0.14554 0.03727
# Poissons Ratio (y) = 0.16161 0.00875
# Poissons Ratio (z) = 0.11173 0.02361
#
# Static dielectric constant tensor:
#      x y z
#    x 6.755340 0.000000 0.371810 
#    y 0.000000 4.401840 0.000000 
#    z 0.371810 0.000000 3.952420 
# 
# 
# High freq. dielectric constant tensor:
#      x y z
#    x 1.924000 0.000000 0.009630 
#    y 0.000000 1.914660 0.000000 
#    z 0.009630 0.000000 1.878210 
# 
# From -- ./inp_files/49310.got.cif
#   From: 2010.03.12/outbox.cif.g09.slc.cpg/sg5_25_cif.got.tgz:49310.got - 2010.03.31 09:47:26.
