data_PCOD8048222
_publ_section_title
;
Structure prediction by ZEFSAII (Michael W. Deem and Ramdas Pophale) SiO2 
 PCOD8048222
Probable space group: C 2
;
_chemical_formula_sum "Si O2"
_cell_formula_units_Z 28
_cell_length_a 13.721575
_cell_length_b 16.560172
_cell_length_c 9.166435
_cell_angle_alpha 90.000000
_cell_angle_beta 137.927540
_cell_angle_gamma 90.000000
_cell_volume 1395.691328
_symmetry_space_group_name_H-M "C 2"
_symmetry_group_IT_number 5
_symmetry_cell_setting 'monoclinic'
loop_
_space_group_symop_operation_xyz
x,y,z
-x,y,-z
1/2+x,1/2+y,z
1/2-x,1/2+y,-z
loop_
_atom_site_type_symbol
_atom_site_label
_atom_site_fract_x
_atom_site_fract_y
_atom_site_fract_z
Si Si1 0.339847 0.493870 0.807454
Si Si2 0.332232 0.910585 0.629832
Si Si3 0.844377 0.572813 0.818157
Si Si4 0.834086 0.005834 0.128926
Si Si5 0.051443 0.274719 0.896709
Si Si6 0.840768 0.840391 0.302768
Si Si7 0.908510 0.116290 0.649631
O O1 0.240101 0.433171 0.604461
O O2 0.356406 0.582903 0.750251
O O3 0.500000 0.454280 0.000000
O O4 0.273628 0.504025 0.895693
O O5 0.477474 0.858211 0.759035
O O6 0.221741 0.858871 0.605939
O O7 0.375812 0.990380 0.765258
O O8 0.785001 0.555578 0.913483
O O9 0.732430 0.629799 0.607517
O O10 0.000000 0.618126 0.000000
O O11 0.992853 0.046854 0.313057
O O12 0.861633 0.918921 0.227435
O O13 0.999883 0.198585 0.745510
O O14 0.227114 0.282635 0.090053
O O15 0.000000 0.255085 0.000000
O O16 0.000000 0.799110 0.500000
#
# Coordination Sequence:
#
# PCOD8048222 Si02
#       7
#     4   4   4   4   4   4   4
#     4   9  17  31  55  82 108 145 188 228 268 321
#     4   9  18  33  55  80 110 145 181 224 272 324
#     4  10  19  35  56  80 107 144 190 228 267 325
#     4  10  18  33  57  81 109 145 185 225 270 330
#     4  10  20  36  57  81 112 146 181 225 280 331
#     4  10  18  32  56  81 105 141 186 226 268 328
#     4  10  20  36  58  81 110 148 186 224 275 331
#
# _framework density 20.061741999999999
#
# number of rings (size 3 to 8) (size 9 to 14) (size 15 to 20)
#    0.000    2.286    0.000    7.286    0.000    0.000 
#    0.000   12.857    0.000    3.429    0.000    0.000 
#    0.000    0.000    0.000    0.000    0.000    0.000 
#
# Total GULP energy -173549.279143 kJ/mol
# GULP energy per Si atom -12396.377082 kJ/mol
# Density = 2.001608 g / cm^3
# Si number density = 20.061742 Si / 1000 Ang^3
#
#
#
# Elastic Constant Matrix: (Units=GPa)
#
#
# Indices 1 2 3 4 5 6 
#
# 1 83.9036 17.4248 72.7268 0.0000 5.2960 0.0000
# 2 17.4248 78.8247 50.2248 0.0000 13.1577 0.0000
# 3 72.7268 50.2248 170.7030 0.0000 17.9875 0.0000
# 4 0.0000 0.0000 0.0000 27.2512 0.0000 6.8798
# 5 5.2960 13.1577 17.9875 0.0000 43.8711 0.0000
# 6 0.0000 0.0000 0.0000 6.8798 0.0000 15.3053
#
#
#
# Elastic Compliance Matrix: (Units=1/GPa)
#
#
# Indices 1 2 3 4 5 6 
#
# 1 0.019016 0.001073 -0.008509 0.000000 0.000872 0.000000
# 2 0.001073 0.016042 -0.004866 0.000000 -0.002945 0.000000
# 3 -0.008509 -0.004866 0.011134 0.000000 -0.002078 0.000000
# 4 0.000000 0.000000 0.000000 0.041393 0.000000 -0.018606
# 5 0.000872 -0.002945 -0.002078 0.000000 0.024424 0.000000
# 6 0.000000 0.000000 0.000000 -0.018606 0.000000 0.073701
#
#
# Mechanical properties :
#
#
# Convention : Reuss Voigt Hill
#
# Bulk Modulus (GPa) = 46.32585 68.24266 57.28426
# Shear Modulus (GPa) = 22.98724 30.15584 26.57154
#
# Velocity S-wave (km/s) = 3.38868 3.88126 3.64330
# Velocity P-wave (km/s) = 6.20102 7.36041 6.80545
#
# Compressibility (1/GPa) = 0.02158622
#
# Stress axis : x y z
#
# Youngs Moduli (GPa) = 52.58624 62.33757 89.81290
#
# Poissons Ratio (x) = -0.06687 0.76424
# Poissons Ratio (y) = -0.05641 0.43707
# Poissons Ratio (z) = 0.44747 0.30336
#
# Static dielectric constant tensor:
#      x y z
#    x 3.639040 0.000000 0.081080 
#    y 0.000000 3.292380 0.000000 
#    z 0.081080 0.000000 3.880340 
# 
# 
# High freq. dielectric constant tensor:
#      x y z
#    x 1.771380 0.000000 0.004930 
#    y 0.000000 1.741540 0.000000 
#    z 0.004930 0.000000 1.794940 
# 
# From -- ./inp_files/25218.got.cif
#   From: 2010.03.12/outbox.cif.g09.slc.cpg/sg5_13_cif.got.tgz:25218.got - 2010.03.31 09:47:26.
