data_PCOD8048645
_publ_section_title
;
Structure prediction by ZEFSAII (Michael W. Deem and Ramdas Pophale) SiO2 
 PCOD8048645
Probable space group: C 2
;
_chemical_formula_sum "Si O2"
_cell_formula_units_Z 30
_cell_length_a 23.209444
_cell_length_b 8.887604
_cell_length_c 10.785519
_cell_angle_alpha 90.000000
_cell_angle_beta 137.474877
_cell_angle_gamma 90.000000
_cell_volume 1503.770470
_symmetry_space_group_name_H-M "C 2"
_symmetry_group_IT_number 5
_symmetry_cell_setting 'monoclinic'
loop_
_space_group_symop_operation_xyz
x,y,z
-x,y,-z
1/2+x,1/2+y,z
1/2-x,1/2+y,-z
loop_
_atom_site_type_symbol
_atom_site_label
_atom_site_fract_x
_atom_site_fract_y
_atom_site_fract_z
Si Si1 0.500000 0.143790 0.000000
Si Si2 0.556307 0.010516 0.833050
Si Si3 0.228682 0.350752 0.163225
Si Si4 0.120987 0.435026 0.553419
Si Si5 0.326507 0.151607 0.146008
Si Si6 0.227259 0.161029 0.753702
Si Si7 0.753810 0.106061 0.611194
Si Si8 0.830847 0.802833 0.721445
O O1 0.529553 0.040879 0.932186
O O2 0.425137 0.252252 0.835015
O O3 0.589379 0.160219 0.810538
O O4 0.479472 0.942889 0.630511
O O5 0.637092 0.895956 0.959077
O O6 0.302159 0.302427 0.180918
O O7 0.271068 0.492980 0.304939
O O8 0.210556 0.210505 0.223067
O O9 0.154615 0.512514 0.731947
O O10 0.141512 0.256161 0.595567
O O11 0.168213 0.515308 0.513053
O O12 0.244910 0.123055 0.926797
O O13 0.306078 0.259993 0.823579
O O14 0.737689 0.212260 0.469129
O O15 0.825463 0.982091 0.691958
#
# Coordination Sequence:
#
# PCOD8048645 Si02
#       8
#     2   4   4   4   4   4   4   4
#     4  12  22  40  62  96 128 164 200 280 318 372
#     4  11  22  39  66  95 128 165 210 262 326 369
#     4  10  21  39  62  92 123 165 218 258 312 380
#     4  10  21  37  63  92 123 162 214 264 317 374
#     4  10  20  36  60  88 125 166 210 251 310 381
#     4  10  19  35  61  92 118 164 206 263 309 372
#     4  10  22  38  61  92 119 173 209 254 315 388
#     4  11  21  38  62  87 129 160 216 255 319 383
#
# _framework density 19.949853000000001
#
# number of rings (size 3 to 8) (size 9 to 14) (size 15 to 20)
#    0.000    1.600    4.000    2.800    0.000    0.000 
#    0.000    4.667    0.000   11.200    3.467    0.000 
#    0.000    0.000    0.000    0.000    0.000    0.000 
#
# Total GULP energy -185822.103885 kJ/mol
# GULP energy per Si atom -12388.140259 kJ/mol
# Density = 1.990445 g / cm^3
# Si number density = 19.949853 Si / 1000 Ang^3
#
#
#
# Elastic Constant Matrix: (Units=GPa)
#
#
# Indices 1 2 3 4 5 6 
#
# 1 89.6355 37.8391 41.5256 0.0000 3.6621 0.0000
# 2 37.8391 142.2956 61.2524 0.0000 8.2807 0.0000
# 3 41.5256 61.2524 111.5040 0.0000 13.0663 0.0000
# 4 0.0000 0.0000 0.0000 30.2148 0.0000 2.5868
# 5 3.6621 8.2807 13.0663 0.0000 32.4041 0.0000
# 6 0.0000 0.0000 0.0000 2.5868 0.0000 34.8807
#
#
#
# Elastic Compliance Matrix: (Units=1/GPa)
#
#
# Indices 1 2 3 4 5 6 
#
# 1 0.013883 -0.001926 -0.004183 0.000000 0.000610 0.000000
# 2 -0.001926 0.009475 -0.004439 0.000000 -0.000414 0.000000
# 3 -0.004183 -0.004439 0.013410 0.000000 -0.003800 0.000000
# 4 0.000000 0.000000 0.000000 0.033308 0.000000 -0.002470
# 5 0.000610 -0.000414 -0.003800 0.000000 0.032429 0.000000
# 6 0.000000 0.000000 0.000000 -0.002470 0.000000 0.028852
#
#
# Mechanical properties :
#
#
# Convention : Reuss Voigt Hill
#
# Bulk Modulus (GPa) = 63.81597 69.40769 66.61183
# Shear Modulus (GPa) = 31.71032 33.02112 32.36572
#
# Velocity S-wave (km/s) = 3.99118 4.07284 4.03221
# Velocity P-wave (km/s) = 7.30048 7.54877 7.42566
#
# Compressibility (1/GPa) = 0.01567006
#
# Stress axis : x y z
#
# Youngs Moduli (GPa) = 72.03253 105.54426 74.57162
#
# Poissons Ratio (x) = 0.20332 0.31196
# Poissons Ratio (y) = 0.13876 0.33101
# Poissons Ratio (z) = 0.30134 0.46849
#
# Static dielectric constant tensor:
#      x y z
#    x 3.827560 0.000000 -0.127830 
#    y 0.000000 3.734320 0.000000 
#    z -0.127830 0.000000 3.517580 
# 
# 
# High freq. dielectric constant tensor:
#      x y z
#    x 1.781330 0.000000 -0.019590 
#    y 0.000000 1.767820 0.000000 
#    z -0.019590 0.000000 1.765060 
# 
# From -- ./inp_files/47320.got.cif
#   From: 2010.03.12/outbox.cif.g09.slc.cpg/sg5_24_cif.got.tgz:47320.got - 2010.03.31 09:47:26.
