data_PCOD8048508
_publ_section_title
;
Structure prediction by ZEFSAII (Michael W. Deem and Ramdas Pophale) SiO2 
 PCOD8048508
Probable space group: C 2
;
_chemical_formula_sum "Si O2"
_cell_formula_units_Z 22
_cell_length_a 27.432335
_cell_length_b 6.881137
_cell_length_c 5.263151
_cell_angle_alpha 90.000000
_cell_angle_beta 61.362231
_cell_angle_gamma 90.000000
_cell_volume 871.964282
_symmetry_space_group_name_H-M "C 2"
_symmetry_group_IT_number 5
_symmetry_cell_setting 'monoclinic'
loop_
_space_group_symop_operation_xyz
x,y,z
-x,y,-z
1/2+x,1/2+y,z
1/2-x,1/2+y,-z
loop_
_atom_site_type_symbol
_atom_site_label
_atom_site_fract_x
_atom_site_fract_y
_atom_site_fract_z
Si Si1 0.117520 0.365990 0.804106
Si Si2 0.000000 0.513572 0.000000
Si Si3 0.796657 0.748785 0.853913
Si Si4 0.828978 0.310684 0.825394
Si Si5 0.475357 0.389030 0.816893
Si Si6 0.149667 0.808074 0.782760
O O1 0.145499 0.240730 0.507151
O O2 0.143405 0.577995 0.767950
O O3 0.130980 0.254327 0.035914
O O4 0.052819 0.374132 0.892536
O O5 0.001559 0.663910 0.236914
O O6 0.826078 0.542758 0.807888
O O7 0.821887 0.873560 0.554822
O O8 0.731182 0.716073 0.981852
O O9 0.810120 0.864600 0.081893
O O10 0.500000 0.485976 0.500000
O O11 0.500000 0.502773 0.000000
O O12 0.409232 0.407407 0.010192
#
# Coordination Sequence:
#
# PCOD8048508 Si02
#       6
#     4   2   4   4   4   4
#     4   9  18  28  45  68  97 121 153 190 236 279
#     4   8  18  24  44  64 100 118 148 184 252 270
#     4  10  19  32  47  65  97 125 159 191 229 266
#     4  10  20  32  47  69  96 125 158 191 227 276
#     4   9  16  23  40  64  95 121 147 179 237 290
#     4   9  17  28  44  65  94 129 146 188 232 280
#
# _framework density 25.230391000000001
#
# number of rings (size 3 to 8) (size 9 to 14) (size 15 to 20)
#    0.545    2.182    0.000    2.182    7.636    0.000 
#    0.000    0.000    0.000    0.000    0.000    0.000 
#   27.273    0.000    0.000    0.000    0.000    0.000 
#
# Total GULP energy -136293.856321 kJ/mol
# GULP energy per Si atom -12390.350575 kJ/mol
# Density = 2.517297 g / cm^3
# Si number density = 25.230391 Si / 1000 Ang^3
#
#
#
# Elastic Constant Matrix: (Units=GPa)
#
#
# Indices 1 2 3 4 5 6 
#
# 1 194.2462 8.2396 95.9951 0.0000 9.8892 0.0000
# 2 8.2396 16.1039 -3.1369 0.0000 -1.1515 0.0000
# 3 95.9951 -3.1369 210.1411 0.0000 31.3746 0.0000
# 4 0.0000 0.0000 0.0000 1.5285 0.0000 -14.4403
# 5 9.8892 -1.1515 31.3746 0.0000 52.6404 0.0000
# 6 0.0000 0.0000 0.0000 -14.4403 0.0000 6.8133
#
#
#
# Elastic Compliance Matrix: (Units=1/GPa)
#
#
# Indices 1 2 3 4 5 6 
#
# 1 0.006933 -0.004152 -0.003316 0.000000 0.000583 0.000000
# 2 -0.004152 0.064802 0.002784 0.000000 0.000538 0.000000
# 3 -0.003316 0.002784 0.006820 0.000000 -0.003381 0.000000
# 4 0.000000 0.000000 0.000000 -0.034392 0.000000 -0.072891
# 5 0.000583 0.000538 -0.003381 0.000000 0.020914 0.000000
# 6 0.000000 0.000000 0.000000 -0.072891 0.000000 -0.007715
#
#
# Mechanical properties :
#
#
# Convention : Reuss Voigt Hill
#
# Bulk Modulus (GPa) = 14.45377 69.18743 41.82060
# Shear Modulus (GPa) = 55.68341 33.48934 44.58638
#
# Velocity S-wave (km/s) = 4.70297 3.64722 4.20833
# Velocity P-wave (km/s) = 5.93563 6.72444 6.34231
#
# Compressibility (1/GPa) = 0.06918612
#
# Stress axis : x y z
#
# Youngs Moduli (GPa) = 144.22864 15.43164 146.62793
#
# Poissons Ratio (x) = 0.06407 0.48627
# Poissons Ratio (y) = 0.59881 -0.40814
# Poissons Ratio (z) = 0.47831 -0.04295
#
# Static dielectric constant tensor:
#      x y z
#    x 4.674550 0.000000 0.415300 
#    y 0.000000 3.920970 0.000000 
#    z 0.415300 0.000000 4.642940 
# 
# 
# High freq. dielectric constant tensor:
#      x y z
#    x 2.016810 0.000000 0.012660 
#    y 0.000000 1.978430 0.000000 
#    z 0.012660 0.000000 1.999100 
# 
# From -- ./inp_files/10054.got.cif
#   From: 2010.03.12/outbox.cif.g09.slc.cpg/sg5_6_cif.got.tgz:10054.got - 2010.03.31 09:47:26.
