data_PCOD8048521
_publ_section_title
;
Structure prediction by ZEFSAII (Michael W. Deem and Ramdas Pophale) SiO2 
 PCOD8048521
Probable space group: C 2
;
_chemical_formula_sum "Si O2"
_cell_formula_units_Z 28
_cell_length_a 8.762635
_cell_length_b 32.828253
_cell_length_c 5.150536
_cell_angle_alpha 90.000000
_cell_angle_beta 64.757194
_cell_angle_gamma 90.000000
_cell_volume 1340.132280
_symmetry_space_group_name_H-M "C 2"
_symmetry_group_IT_number 5
_symmetry_cell_setting 'monoclinic'
loop_
_space_group_symop_operation_xyz
x,y,z
-x,y,-z
1/2+x,1/2+y,z
1/2-x,1/2+y,-z
loop_
_atom_site_type_symbol
_atom_site_label
_atom_site_fract_x
_atom_site_fract_y
_atom_site_fract_z
Si Si1 0.387587 0.165020 0.833297
Si Si2 0.798115 0.381007 0.635371
Si Si3 0.799395 0.520586 0.140920
Si Si4 0.890168 0.758014 0.827480
Si Si5 0.697670 0.835651 0.871155
Si Si6 0.392313 0.601938 0.830649
Si Si7 0.299393 0.972713 0.640018
O O1 0.500000 0.153889 0.500000
O O2 0.324439 0.211702 0.873402
O O3 0.500000 0.155879 0.000000
O O4 0.219239 0.138740 0.975811
O O5 0.726777 0.352631 0.454097
O O6 0.730058 0.427010 0.654238
O O7 0.000000 0.380446 0.500000
O O8 0.724715 0.363276 0.956200
O O9 0.725359 0.565454 0.177315
O O10 0.731652 0.500176 0.453338
O O11 0.733399 0.492418 0.954305
O O12 0.000000 0.524673 0.000000
O O13 0.733385 0.788559 0.913579
O O14 0.000000 0.767298 0.500000
O O15 0.000000 0.767512 0.000000
O O16 0.500000 0.841105 0.000000
O O17 0.500000 0.616308 0.500000
O O18 0.500000 0.587302 0.000000
O O19 0.500000 0.971908 0.500000
#
# Coordination Sequence:
#
# PCOD8048521 Si02
#       7
#     4   4   4   4   4   4   4
#     4  10  22  42  65  86 112 153 198 237 278 340
#     4   9  17  30  51  81 112 141 184 238 280 315
#     4  10  20  35  58  82 108 148 194 234 276 336
#     4  10  21  38  59  82 112 147 185 230 279 332
#     4  10  19  32  54  82 112 146 182 228 282 334
#     4  12  25  40  60  89 122 152 183 236 299 348
#     4   9  17  31  54  82 107 141 193 241 273 317
#
# _framework density 20.893460000000001
#
# number of rings (size 3 to 8) (size 9 to 14) (size 15 to 20)
#    0.000    2.000    0.000    3.857    0.000    5.714 
#    0.000    2.143    0.000   17.143    0.000    0.000 
#    0.000    0.000    0.000    0.000    0.000    0.000 
#
# Total GULP energy -173594.094291 kJ/mol
# GULP energy per Si atom -12399.578164 kJ/mol
# Density = 2.084591 g / cm^3
# Si number density = 20.893460 Si / 1000 Ang^3
#
#
#
# Elastic Constant Matrix: (Units=GPa)
#
#
# Indices 1 2 3 4 5 6 
#
# 1 54.3713 48.2637 54.5262 0.0000 26.1448 0.0000
# 2 48.2637 148.4943 55.4169 0.0000 11.8290 0.0000
# 3 54.5262 55.4169 133.7240 0.0000 43.6779 0.0000
# 4 0.0000 0.0000 0.0000 42.9275 0.0000 17.7221
# 5 26.1448 11.8290 43.6779 0.0000 32.5169 0.0000
# 6 0.0000 0.0000 0.0000 17.7221 0.0000 39.7942
#
#
#
# Elastic Compliance Matrix: (Units=1/GPa)
#
#
# Indices 1 2 3 4 5 6 
#
# 1 0.046013 -0.010641 -0.006294 0.000000 -0.024671 0.000000
# 2 -0.010641 0.010566 -0.002813 0.000000 0.008491 0.000000
# 3 -0.006294 -0.002813 0.016433 0.000000 -0.015989 0.000000
# 4 0.000000 0.000000 0.000000 0.028543 0.000000 -0.012711
# 5 -0.024671 0.008491 -0.015989 0.000000 0.068978 0.000000
# 6 0.000000 0.000000 0.000000 -0.012711 0.000000 0.030790
#
#
# Mechanical properties :
#
#
# Convention : Reuss Voigt Hill
#
# Bulk Modulus (GPa) = 29.83679 72.55591 51.19635
# Shear Modulus (GPa) = 19.84198 34.93991 27.39095
#
# Velocity S-wave (km/s) = 3.08502 4.09380 3.62468
# Velocity P-wave (km/s) = 5.19627 7.55960 6.48648
#
# Compressibility (1/GPa) = 0.03351566
#
# Stress axis : x y z
#
# Youngs Moduli (GPa) = 21.73316 94.64025 60.85403
#
# Poissons Ratio (x) = 1.00707 0.38300
# Poissons Ratio (y) = 0.23126 0.17120
# Poissons Ratio (z) = 0.13678 0.26625
#
# Static dielectric constant tensor:
#      x y z
#    x 3.552260 0.000000 0.384750 
#    y 0.000000 3.964560 0.000000 
#    z 0.384750 0.000000 3.975820 
# 
# 
# High freq. dielectric constant tensor:
#      x y z
#    x 1.800750 0.000000 0.027690 
#    y 0.000000 1.827240 0.000000 
#    z 0.027690 0.000000 1.825140 
# 
# From -- ./inp_files/3873.got.cif
#   From: 2010.03.12/outbox.cif.g09.slc.cpg/sg5_2_cif.got.tgz:3873.got - 2010.03.31 09:47:26.
