data_PCOD8048138
_publ_section_title
;
Structure prediction by ZEFSAII (Michael W. Deem and Ramdas Pophale) SiO2 
 PCOD8048138
Probable space group: C 2
;
_chemical_formula_sum "Si O2"
_cell_formula_units_Z 22
_cell_length_a 7.455635
_cell_length_b 13.662267
_cell_length_c 13.924416
_cell_angle_alpha 90.000000
_cell_angle_beta 123.374064
_cell_angle_gamma 90.000000
_cell_volume 1184.462460
_symmetry_space_group_name_H-M "C 2"
_symmetry_group_IT_number 5
_symmetry_cell_setting 'monoclinic'
loop_
_space_group_symop_operation_xyz
x,y,z
-x,y,-z
1/2+x,1/2+y,z
1/2-x,1/2+y,-z
loop_
_atom_site_type_symbol
_atom_site_label
_atom_site_fract_x
_atom_site_fract_y
_atom_site_fract_z
Si Si1 0.595476 0.565730 0.132746
Si Si2 0.500000 0.940810 0.500000
Si Si3 0.305772 0.601180 0.513310
Si Si4 0.766324 0.858635 0.743826
Si Si5 0.606298 0.670197 0.758354
Si Si6 0.532548 0.180814 0.271318
O O1 0.655785 0.458006 0.186010
O O2 0.414770 0.612746 0.148001
O O3 0.796825 0.637864 0.192235
O O4 0.500000 0.556115 0.000000
O O5 0.585069 0.873455 0.610307
O O6 0.699652 0.002536 0.520012
O O7 0.500000 0.573610 0.500000
O O8 0.389885 0.659525 0.631351
O O9 0.124102 0.665053 0.405691
O O10 0.653574 0.786487 0.789565
O O11 0.964022 0.797638 0.752695
O O12 0.808461 0.625484 0.757783
#
# Coordination Sequence:
#
# PCOD8048138 Si02
#       6
#     4   2   4   4   4   4
#     4  12  24  42  63  85 120 172 214 250 296 346
#     4  12  18  36  66  92 126 156 188 256 304 376
#     4  10  17  34  65  90 124 162 185 240 323 366
#     4  10  22  40  65  89 124 154 201 252 311 356
#     4   9  21  41  62  90 126 155 200 252 308 367
#     4   9  21  41  62  90 126 155 200 252 308 367
#
# _framework density 18.573827000000001
#
# number of rings (size 3 to 8) (size 9 to 14) (size 15 to 20)
#    1.091    0.727    3.636    1.091    0.000    2.182 
#    6.545    0.000    0.000    0.000    0.000    0.000 
#    0.000    0.000    0.000    0.000    0.000    0.000 
#
# Total GULP energy -136295.695585 kJ/mol
# GULP energy per Si atom -12390.517780 kJ/mol
# Density = 1.853155 g / cm^3
# Si number density = 18.573827 Si / 1000 Ang^3
#
#
#
# Elastic Constant Matrix: (Units=GPa)
#
#
# Indices 1 2 3 4 5 6 
#
# 1 44.3502 18.6674 1.0653 0.0000 -5.9894 0.0000
# 2 18.6674 110.5674 14.2601 0.0000 -8.1856 0.0000
# 3 1.0653 14.2601 66.4843 0.0000 -18.6306 0.0000
# 4 0.0000 0.0000 0.0000 4.7559 0.0000 -4.5868
# 5 -5.9894 -8.1856 -18.6306 0.0000 26.8934 0.0000
# 6 0.0000 0.0000 0.0000 -4.5868 0.0000 33.9362
#
#
#
# Elastic Compliance Matrix: (Units=1/GPa)
#
#
# Indices 1 2 3 4 5 6 
#
# 1 0.024987 -0.004060 0.002089 0.000000 0.005776 0.000000
# 2 -0.004060 0.010032 -0.001842 0.000000 0.000873 0.000000
# 3 0.002089 -0.001842 0.019080 0.000000 0.013123 0.000000
# 4 0.000000 0.000000 0.000000 0.241782 0.000000 0.032679
# 5 0.005776 0.000873 0.013123 0.000000 0.047827 0.000000
# 6 0.000000 0.000000 0.000000 0.032679 0.000000 0.033884
#
#
# Mechanical properties :
#
#
# Convention : Reuss Voigt Hill
#
# Bulk Modulus (GPa) = 21.51817 32.15416 26.83616
# Shear Modulus (GPa) = 12.47789 25.61104 19.04447
#
# Velocity S-wave (km/s) = 2.59472 3.71735 3.20557
# Velocity P-wave (km/s) = 4.53730 5.98114 5.30854
#
# Compressibility (1/GPa) = 0.04647236
#
# Stress axis : x y z
#
# Youngs Moduli (GPa) = 40.02115 99.68102 52.41079
#
# Poissons Ratio (x) = 0.40475 -0.10950
# Poissons Ratio (y) = 0.16250 0.09654
# Poissons Ratio (z) = -0.08361 0.18361
#
# Static dielectric constant tensor:
#      x y z
#    x 3.403970 0.000000 -0.054970 
#    y 0.000000 3.329820 0.000000 
#    z -0.054970 0.000000 3.352620 
# 
# 
# High freq. dielectric constant tensor:
#      x y z
#    x 1.713400 0.000000 -0.002660 
#    y 0.000000 1.713180 0.000000 
#    z -0.002660 0.000000 1.713590 
# 
# From -- ./inp_files/35542.got.cif
#   From: 2010.03.12/outbox.cif.g09.slc.cpg/sg5_18_cif.got.tgz:35542.got - 2010.03.31 09:47:26.
