data_PCOD8048770
_publ_section_title
;
Structure prediction by ZEFSAII (Michael W. Deem and Ramdas Pophale) SiO2 
 PCOD8048770
Probable space group: C 2
;
_chemical_formula_sum "Si O2"
_cell_formula_units_Z 28
_cell_length_a 30.457359
_cell_length_b 9.211594
_cell_length_c 8.780738
_cell_angle_alpha 90.000000
_cell_angle_beta 145.328347
_cell_angle_gamma 90.000000
_cell_volume 1401.435587
_symmetry_space_group_name_H-M "C 2"
_symmetry_group_IT_number 5
_symmetry_cell_setting 'monoclinic'
loop_
_space_group_symop_operation_xyz
x,y,z
-x,y,-z
1/2+x,1/2+y,z
1/2-x,1/2+y,-z
loop_
_atom_site_type_symbol
_atom_site_label
_atom_site_fract_x
_atom_site_fract_y
_atom_site_fract_z
Si Si1 0.834742 0.307360 0.423932
Si Si2 0.010843 0.629915 0.235749
Si Si3 0.000000 0.468709 0.500000
Si Si4 0.746227 0.571313 0.327952
Si Si5 0.213804 0.014383 0.577706
Si Si6 0.385289 0.263108 0.701867
Si Si7 0.343251 0.814415 0.084281
Si Si8 0.000000 0.376151 0.000000
O O1 0.787487 0.446679 0.347086
O O2 0.787102 0.171289 0.349027
O O3 0.838596 0.313115 0.253194
O O4 0.922432 0.287671 0.738053
O O5 0.976457 0.479340 0.072698
O O6 0.022513 0.592500 0.442377
O O7 0.091052 0.674985 0.384075
O O8 0.950499 0.757522 0.019990
O O9 0.071786 0.361187 0.731501
O O10 0.713868 0.512895 0.394467
O O11 0.808535 0.692417 0.550868
O O12 0.678139 0.652888 0.038441
O O13 0.135017 0.928785 0.398515
O O14 0.287746 0.935621 0.857397
#
# Coordination Sequence:
#
# PCOD8048770 Si02
#       8
#     4   4   2   4   4   4   4   2
#     4  12  22  41  64  94 129 170 209 263 323 373
#     4  10  19  37  66  86 123 164 204 258 306 386
#     4  12  22  38  64 100 118 164 220 268 322 372
#     4  11  21  39  63  88 126 164 210 257 314 378
#     4  11  25  38  65  92 128 165 216 263 316 381
#     4   9  19  40  58  89 118 162 208 247 309 384
#     4  11  25  40  62  95 127 166 214 270 314 384
#     4  10  20  36  66  88 116 174 204 242 314 380
#
# _framework density 19.979512
#
# number of rings (size 3 to 8) (size 9 to 14) (size 15 to 20)
#    0.000    1.429    4.286    3.429    2.000    2.286 
#    0.000    1.429    0.000    0.857    0.000    0.000 
#    0.000    0.000    0.000    0.000    0.000    0.000 
#
# Total GULP energy -173474.566099 kJ/mol
# GULP energy per Si atom -12391.040436 kJ/mol
# Density = 1.993404 g / cm^3
# Si number density = 19.979512 Si / 1000 Ang^3
#
#
#
# Elastic Constant Matrix: (Units=GPa)
#
#
# Indices 1 2 3 4 5 6 
#
# 1 110.4846 38.4426 50.0429 0.0000 -10.8520 0.0000
# 2 38.4426 99.4470 55.2657 0.0000 5.4042 0.0000
# 3 50.0429 55.2657 113.0640 0.0000 8.5721 0.0000
# 4 0.0000 0.0000 0.0000 32.5140 0.0000 1.3480
# 5 -10.8520 5.4042 8.5721 0.0000 35.8450 0.0000
# 6 0.0000 0.0000 0.0000 1.3480 0.0000 26.4269
#
#
#
# Elastic Compliance Matrix: (Units=1/GPa)
#
#
# Indices 1 2 3 4 5 6 
#
# 1 0.012604 -0.002522 -0.004750 0.000000 0.005332 0.000000
# 2 -0.002522 0.014319 -0.005766 0.000000 -0.001544 0.000000
# 3 -0.004750 -0.005766 0.014063 0.000000 -0.003932 0.000000
# 4 0.000000 0.000000 0.000000 0.030821 0.000000 -0.001572
# 5 0.005332 -0.001544 -0.003932 0.000000 0.030685 0.000000
# 6 0.000000 0.000000 0.000000 -0.001572 0.000000 0.037920
#
#
# Mechanical properties :
#
#
# Convention : Reuss Voigt Hill
#
# Bulk Modulus (GPa) = 67.06825 67.83311 67.45068
# Shear Modulus (GPa) = 29.16173 30.90682 30.03427
#
# Velocity S-wave (km/s) = 3.82459 3.93736 3.88139
# Velocity P-wave (km/s) = 7.29004 7.39564 7.34303
#
# Compressibility (1/GPa) = 0.01491019
#
# Stress axis : x y z
#
# Youngs Moduli (GPa) = 79.34132 69.83935 71.10774
#
# Poissons Ratio (x) = 0.17615 0.33775
# Poissons Ratio (y) = 0.20012 0.40997
# Poissons Ratio (z) = 0.37686 0.40266
#
# Static dielectric constant tensor:
#      x y z
#    x 3.674190 0.000000 -0.055560 
#    y 0.000000 3.717560 0.000000 
#    z -0.055560 0.000000 3.846910 
# 
# 
# High freq. dielectric constant tensor:
#      x y z
#    x 1.781990 0.000000 0.002620 
#    y 0.000000 1.772760 0.000000 
#    z 0.002620 0.000000 1.778920 
# 
# From -- ./inp_files/26810.got.cif
#   From: 2010.03.12/outbox.cif.g09.slc.cpg/sg5_14_cif.got.tgz:26810.got - 2010.03.31 09:47:26.
