data_PCOD8048377
_publ_section_title
;
Structure prediction by ZEFSAII (Michael W. Deem and Ramdas Pophale) SiO2 
 PCOD8048377
Probable space group: C 2
;
_chemical_formula_sum "Si O2"
_cell_formula_units_Z 32
_cell_length_a 25.405522
_cell_length_b 14.990984
_cell_length_c 8.900389
_cell_angle_alpha 90.000000
_cell_angle_beta 151.439155
_cell_angle_gamma 90.000000
_cell_volume 1620.609940
_symmetry_space_group_name_H-M "C 2"
_symmetry_group_IT_number 5
_symmetry_cell_setting 'monoclinic'
loop_
_space_group_symop_operation_xyz
x,y,z
-x,y,-z
1/2+x,1/2+y,z
1/2-x,1/2+y,-z
loop_
_atom_site_type_symbol
_atom_site_label
_atom_site_fract_x
_atom_site_fract_y
_atom_site_fract_z
Si Si1 0.677937 0.846340 0.693645
Si Si2 0.723917 0.719587 0.576354
Si Si3 0.629257 0.200553 0.343765
Si Si4 0.732745 0.042431 0.790621
Si Si5 0.048817 0.091709 0.777837
Si Si6 0.567410 0.779305 0.951749
Si Si7 0.245172 0.358858 0.200969
Si Si8 0.675032 0.550729 0.653040
O O1 0.763235 0.789978 0.803272
O O2 0.560299 0.798870 0.381727
O O3 0.667390 0.949441 0.619942
O O4 0.722033 0.836386 0.971055
O O5 0.816498 0.699144 0.685468
O O6 0.691640 0.626825 0.572028
O O7 0.617048 0.774189 0.243816
O O8 0.662043 0.116783 0.529270
O O9 0.662105 0.291568 0.508426
O O10 0.500000 0.197460 0.000000
O O11 0.848836 0.025576 0.995760
O O12 0.756016 0.071188 0.021956
O O13 0.098257 0.179687 0.976180
O O14 0.000000 0.126568 0.500000
O O15 0.955577 0.042591 0.641391
O O16 0.632856 0.850526 0.014285
O O17 0.287871 0.458877 0.329209
#
# Coordination Sequence:
#
# PCOD8048377 Si02
#       8
#     4   4   4   4   4   4   4   4
#     4  11  22  37  65  96 119 155 209 261 297 352
#     4  11  23  38  60  94 121 151 209 258 301 360
#     4  11  25  43  58  82 125 172 196 241 319 372
#     4  10  22  41  62  89 124 164 205 249 304 367
#     4  10  18  36  65  89 118 161 204 248 303 355
#     4  11  21  37  63  94 125 160 197 254 315 351
#     4  10  22  42  61  88 126 163 207 245 303 371
#     4  10  22  38  66  94 119 158 209 258 296 353
#
# _framework density 19.745652
#
# number of rings (size 3 to 8) (size 9 to 14) (size 15 to 20)
#    0.000    1.500    3.750    2.250    0.000    5.000 
#    2.250    5.000    0.000    0.000    0.000    0.000 
#    0.000    0.000    0.000    0.000    0.000    0.000 
#
# Total GULP energy -198353.517288 kJ/mol
# GULP energy per Si atom -12397.094831 kJ/mol
# Density = 1.970071 g / cm^3
# Si number density = 19.745652 Si / 1000 Ang^3
#
#
#
# Elastic Constant Matrix: (Units=GPa)
#
#
# Indices 1 2 3 4 5 6 
#
# 1 113.3476 62.2617 44.3139 0.0000 -6.3743 0.0000
# 2 62.2617 108.6199 33.5227 0.0000 -9.5278 0.0000
# 3 44.3139 33.5227 84.5065 0.0000 4.5135 0.0000
# 4 0.0000 0.0000 0.0000 27.2666 0.0000 2.8407
# 5 -6.3743 -9.5278 4.5135 0.0000 25.3807 0.0000
# 6 0.0000 0.0000 0.0000 2.8407 0.0000 36.2359
#
#
#
# Elastic Compliance Matrix: (Units=1/GPa)
#
#
# Indices 1 2 3 4 5 6 
#
# 1 0.014563 -0.006577 -0.005140 0.000000 0.002103 0.000000
# 2 -0.006577 0.014053 -0.002342 0.000000 0.004040 0.000000
# 3 -0.005140 -0.002342 0.015723 0.000000 -0.004966 0.000000
# 4 0.000000 0.000000 0.000000 0.036977 0.000000 -0.002899
# 5 0.002103 0.004040 -0.004966 0.000000 0.042328 0.000000
# 6 0.000000 0.000000 0.000000 -0.002899 0.000000 0.027824
#
#
# Mechanical properties :
#
#
# Convention : Reuss Voigt Hill
#
# Bulk Modulus (GPa) = 61.64427 65.18560 63.41494
# Shear Modulus (GPa) = 27.02818 28.86837 27.94828
#
# Velocity S-wave (km/s) = 3.70377 3.82777 3.76628
# Velocity P-wave (km/s) = 7.04113 7.25397 7.14834
#
# Compressibility (1/GPa) = 0.01622211
#
# Stress axis : x y z
#
# Youngs Moduli (GPa) = 68.66866 71.15714 63.60164
#
# Poissons Ratio (x) = 0.46798 0.32690
# Poissons Ratio (y) = 0.45162 0.14895
# Poissons Ratio (z) = 0.35295 0.16664
#
# Static dielectric constant tensor:
#      x y z
#    x 3.863340 0.000000 -0.120290 
#    y 0.000000 3.580280 0.000000 
#    z -0.120290 0.000000 3.559070 
# 
# 
# High freq. dielectric constant tensor:
#      x y z
#    x 1.786040 0.000000 -0.010890 
#    y 0.000000 1.768140 0.000000 
#    z -0.010890 0.000000 1.761840 
# 
# From -- ./inp_files/31094.got.cif
#   From: 2010.03.12/outbox.cif.g09.slc.cpg/sg5_16_cif.got.tgz:31094.got - 2010.03.31 09:47:26.
