data_PCOD8048083
_publ_section_title
;
Structure prediction by ZEFSAII (Michael W. Deem and Ramdas Pophale) SiO2 
 PCOD8048083
Probable space group: C 2
;
_chemical_formula_sum "Si O2"
_cell_formula_units_Z 30
_cell_length_a 13.943615
_cell_length_b 11.132591
_cell_length_c 26.797230
_cell_angle_alpha 90.000000
_cell_angle_beta 160.337903
_cell_angle_gamma 90.000000
_cell_volume 1399.622611
_symmetry_space_group_name_H-M "C 2"
_symmetry_group_IT_number 5
_symmetry_cell_setting 'monoclinic'
loop_
_space_group_symop_operation_xyz
x,y,z
-x,y,-z
1/2+x,1/2+y,z
1/2-x,1/2+y,-z
loop_
_atom_site_type_symbol
_atom_site_label
_atom_site_fract_x
_atom_site_fract_y
_atom_site_fract_z
Si Si1 0.409283 0.904870 0.508991
Si Si2 0.315572 0.346138 0.956592
Si Si3 0.299884 0.316363 0.314444
Si Si4 0.984771 0.047715 0.620087
Si Si5 0.453558 0.176079 0.653099
Si Si6 0.564033 0.085554 0.806322
Si Si7 0.646692 0.263590 0.214361
Si Si8 0.000000 0.939592 0.500000
O O1 0.500000 0.950921 0.500000
O O2 0.211835 0.789556 0.406354
O O3 0.678003 0.873325 0.675721
O O4 0.231312 0.016664 0.441911
O O5 0.999428 0.287604 0.804543
O O6 0.291488 0.489930 0.937822
O O7 0.500000 0.293900 0.000000
O O8 0.451590 0.321756 0.076776
O O9 0.284308 0.441207 0.274755
O O10 0.381700 0.207186 0.317670
O O11 0.547622 0.345607 0.476767
O O12 0.782943 0.071615 0.472426
O O13 0.145699 0.170481 0.712255
O O14 0.666398 0.136182 0.802175
O O15 0.530704 0.192867 0.829939
O O16 0.262316 0.021398 0.647078
#
# Coordination Sequence:
#
# PCOD8048083 Si02
#       8
#     4   4   4   4   4   4   4   2
#     4  10  20  37  65 102 125 162 215 272 348 394
#     4  11  27  43  61  91 128 189 227 261 320 411
#     4  10  21  39  65  97 135 162 229 263 334 389
#     4  10  20  37  66  96 132 160 208 283 337 378
#     4  10  20  36  68 102 120 166 206 286 334 383
#     4  11  20  40  72  91 128 166 229 267 337 387
#     4  11  22  43  64  91 138 171 216 280 331 395
#     4  10  16  36  68  98 124 168 202 286 322 388
#
# _framework density 21.434349999999998
#
# number of rings (size 3 to 8) (size 9 to 14) (size 15 to 20)
#    0.000    1.600    5.333    0.800    1.867    4.267 
#    3.600    0.000    0.000    0.000    0.000    0.000 
#    0.000    0.000    0.000    0.000    0.000    0.000 
#
# Total GULP energy -185847.673226 kJ/mol
# GULP energy per Si atom -12389.844882 kJ/mol
# Density = 2.138556 g / cm^3
# Si number density = 21.434350 Si / 1000 Ang^3
#
#
#
# Elastic Constant Matrix: (Units=GPa)
#
#
# Indices 1 2 3 4 5 6 
#
# 1 137.6145 38.7090 41.1743 -0.0131 -4.6230 0.0183
# 2 38.7090 65.0135 35.0882 -0.0049 -10.9120 -0.0007
# 3 41.1743 35.0882 84.6771 -0.0435 -18.1985 0.0245
# 4 -0.0131 -0.0049 -0.0435 25.8754 -0.0092 -12.9507
# 5 -4.6230 -10.9120 -18.1985 -0.0092 39.7788 0.0071
# 6 0.0183 -0.0007 0.0245 -12.9507 0.0071 26.3225
#
#
#
# Elastic Compliance Matrix: (Units=1/GPa)
#
#
# Indices 1 2 3 4 5 6 
#
# 1 0.009310 -0.004092 -0.003150 -0.000005 -0.001482 -0.000006
# 2 -0.004092 0.021736 -0.006474 -0.000005 0.002525 0.000007
# 3 -0.003150 -0.006474 0.017261 0.000027 0.005755 -0.000002
# 4 -0.000005 -0.000005 0.000027 0.051273 0.000018 0.025226
# 5 -0.001482 0.002525 0.005755 0.000018 0.028292 -0.000003
# 6 -0.000006 0.000007 -0.000002 0.025226 -0.000003 0.050402
#
#
# Mechanical properties :
#
#
# Convention : Reuss Voigt Hill
#
# Bulk Modulus (GPa) = 47.90583 57.47204 52.68893
# Shear Modulus (GPa) = 23.51122 29.88425 26.69773
#
# Velocity S-wave (km/s) = 3.31553 3.73798 3.53308
# Velocity P-wave (km/s) = 6.08733 6.74546 6.42483
#
# Compressibility (1/GPa) = 0.02087429
#
# Stress axis : x y z
#
# Youngs Moduli (GPa) = 107.40669 46.00684 57.93445
#
# Poissons Ratio (x) = 0.18826 0.18249
# Poissons Ratio (y) = 0.43951 0.37509
# Poissons Ratio (z) = 0.33833 0.29787
#
# Static dielectric constant tensor:
#      x y z
#    x 4.164020 -0.000020 -0.082190 
#    y -0.000020 3.783150 -0.000010 
#    z -0.082190 -0.000010 3.674420 
# 
# 
# High freq. dielectric constant tensor:
#      x y z
#    x 1.856410 0.000000 -0.004190 
#    y 0.000000 1.824730 0.000000 
#    z -0.004190 0.000000 1.814460 
# 
# From -- ./inp_files/70702.got.cif
#   From: 2010.03.12/outbox.cif.g09.slc.cpg/sg5_36_cif.got.tgz:70702.got - 2010.03.31 09:47:26.
