data_PCOD8048662
_publ_section_title
;
Structure prediction by ZEFSAII (Michael W. Deem and Ramdas Pophale) SiO2 
 PCOD8048662
Probable space group: C 2
;
_chemical_formula_sum "Si O2"
_cell_formula_units_Z 28
_cell_length_a 32.621304
_cell_length_b 8.728711
_cell_length_c 8.593481
_cell_angle_alpha 90.000000
_cell_angle_beta 146.037325
_cell_angle_gamma 90.000000
_cell_volume 1366.980960
_symmetry_space_group_name_H-M "C 2"
_symmetry_group_IT_number 5
_symmetry_cell_setting 'monoclinic'
loop_
_space_group_symop_operation_xyz
x,y,z
-x,y,-z
1/2+x,1/2+y,z
1/2-x,1/2+y,-z
loop_
_atom_site_type_symbol
_atom_site_label
_atom_site_fract_x
_atom_site_fract_y
_atom_site_fract_z
Si Si1 0.785097 0.911190 0.319314
Si Si2 0.704435 0.992710 0.357944
Si Si3 0.617408 0.878773 0.358886
Si Si4 0.328981 0.314796 0.881999
Si Si5 0.435674 0.377503 0.983762
Si Si6 0.000000 0.618545 0.000000
Si Si7 0.248504 0.731541 0.071994
Si Si8 0.000000 0.124442 0.000000
O O1 0.717862 0.916394 0.230811
O O2 0.863589 0.903299 0.649496
O O3 0.781064 0.062227 0.197512
O O4 0.775558 0.760679 0.181312
O O5 0.636235 0.915115 0.235896
O O6 0.776598 0.960522 0.688552
O O7 0.694792 0.175283 0.309502
O O8 0.690281 0.858442 0.689991
O O9 0.573338 0.721922 0.236566
O O10 0.567987 0.015043 0.272716
O O11 0.411020 0.366383 0.087790
O O12 0.322725 0.259425 0.040281
O O13 0.476262 0.219829 0.071728
O O14 0.492516 0.515751 0.129907
#
# Coordination Sequence:
#
# PCOD8048662 Si02
#       8
#     4   4   4   4   4   2   4   2
#     4  10  21  35  54  79 110 139 171 222 272 315
#     4   9  18  32  53  79 105 132 176 225 262 307
#     4  10  19  36  55  83 103 137 182 218 267 308
#     4   9  18  32  53  79 105 132 176 225 262 307
#     4  10  19  36  55  83 103 137 182 218 267 308
#     4  10  20  30  60  80 102 142 178 218 254 324
#     4  10  21  35  54  79 110 139 171 222 272 315
#     4  10  20  34  56  76 110 142 174 226 250 316
#
# _framework density 20.483093
#
# number of rings (size 3 to 8) (size 9 to 14) (size 15 to 20)
#    0.000    2.286    2.857    0.000    4.000    1.143 
#    0.000    0.000    0.000   10.286    0.000    0.000 
#    0.000    0.000    0.000    0.000    0.000    0.000 
#
# Total GULP energy -173470.209308 kJ/mol
# GULP energy per Si atom -12390.729236 kJ/mol
# Density = 2.043647 g / cm^3
# Si number density = 20.483093 Si / 1000 Ang^3
#
#
#
# Elastic Constant Matrix: (Units=GPa)
#
#
# Indices 1 2 3 4 5 6 
#
# 1 108.3218 31.4792 22.1900 0.0000 25.8287 0.0000
# 2 31.4792 85.2039 9.3467 0.0000 14.3306 0.0000
# 3 22.1900 9.3467 28.7181 0.0000 3.4685 0.0000
# 4 0.0000 0.0000 0.0000 27.6651 0.0000 5.1542
# 5 25.8287 14.3306 3.4685 0.0000 28.6870 0.0000
# 6 0.0000 0.0000 0.0000 5.1542 0.0000 32.1777
#
#
#
# Elastic Compliance Matrix: (Units=1/GPa)
#
#
# Indices 1 2 3 4 5 6 
#
# 1 0.014318 -0.002533 -0.008966 0.000000 -0.010542 0.000000
# 2 -0.002533 0.013607 -0.001954 0.000000 -0.004280 0.000000
# 3 -0.008966 -0.001954 0.041904 0.000000 0.003982 0.000000
# 4 0.000000 0.000000 0.000000 0.037258 0.000000 -0.005968
# 5 -0.010542 -0.004280 0.003982 0.000000 0.046007 0.000000
# 6 0.000000 0.000000 0.000000 -0.005968 0.000000 0.032033
#
#
# Mechanical properties :
#
#
# Convention : Reuss Voigt Hill
#
# Bulk Modulus (GPa) = 23.29774 38.69727 30.99751
# Shear Modulus (GPa) = 22.09044 28.32116 25.20580
#
# Velocity S-wave (km/s) = 3.28757 3.72245 3.51175
# Velocity P-wave (km/s) = 5.08032 6.11627 5.62221
#
# Compressibility (1/GPa) = 0.04292262
#
# Stress axis : x y z
#
# Youngs Moduli (GPa) = 69.84047 73.49292 23.86408
#
# Poissons Ratio (x) = 0.18619 0.21396
# Poissons Ratio (y) = 0.17693 0.04663
# Poissons Ratio (z) = 0.62617 0.14361
#
# Static dielectric constant tensor:
#      x y z
#    x 4.137890 0.000000 0.336010 
#    y 0.000000 3.849940 0.000000 
#    z 0.336010 0.000000 3.147150 
# 
# 
# High freq. dielectric constant tensor:
#      x y z
#    x 1.816380 0.000000 0.028230 
#    y 0.000000 1.815160 0.000000 
#    z 0.028230 0.000000 1.734880 
# 
# From -- ./inp_files/28708.got.cif
#   From: 2010.03.12/outbox.cif.g09.slc.cpg/sg5_15_cif.got.tgz:28708.got - 2010.03.31 09:47:26.
