data_PCOD8048819
_publ_section_title
;
Structure prediction by ZEFSAII (Michael W. Deem and Ramdas Pophale) SiO2 
 PCOD8048819
Probable space group: C 2
;
_chemical_formula_sum "Si O2"
_cell_formula_units_Z 30
_cell_length_a 14.418490
_cell_length_b 13.022627
_cell_length_c 14.628461
_cell_angle_alpha 90.000000
_cell_angle_beta 30.332912
_cell_angle_gamma 90.000000
_cell_volume 1387.166535
_symmetry_space_group_name_H-M "C 2"
_symmetry_group_IT_number 5
_symmetry_cell_setting 'monoclinic'
loop_
_space_group_symop_operation_xyz
x,y,z
-x,y,-z
1/2+x,1/2+y,z
1/2-x,1/2+y,-z
loop_
_atom_site_type_symbol
_atom_site_label
_atom_site_fract_x
_atom_site_fract_y
_atom_site_fract_z
Si Si1 0.269412 0.923590 0.919214
Si Si2 0.000000 0.770581 0.500000
Si Si3 0.844475 0.399897 0.207447
Si Si4 0.593814 0.789211 0.661248
Si Si5 0.781971 0.610995 0.564393
Si Si6 0.457014 0.067616 0.232746
Si Si7 0.415372 0.304763 0.250621
Si Si8 0.715073 0.943200 0.297158
O O1 0.407786 0.829349 0.773216
O O2 0.229818 0.972795 0.853125
O O3 0.347907 0.007184 0.924976
O O4 0.090741 0.876444 0.118871
O O5 0.842775 0.848587 0.671768
O O6 0.922884 0.697845 0.484460
O O7 0.914743 0.332571 0.230487
O O8 0.828430 0.515932 0.263401
O O9 0.000000 0.398399 0.000000
O O10 0.607525 0.666136 0.663487
O O11 0.773701 0.825915 0.452950
O O12 0.879639 0.547377 0.400825
O O13 0.707670 0.536246 0.705899
O O14 0.478774 0.186714 0.190139
O O15 0.316003 0.337644 0.240455
O O16 0.500000 0.935603 0.500000
#
# Coordination Sequence:
#
# PCOD8048819 Si02
#       8
#     4   2   4   4   4   4   4   4
#     4  11  22  41  67  92 124 166 206 256 308 368
#     4  10  20  40  68  92 118 162 204 254 312 358
#     4  10  22  39  62  90 126 159 204 257 306 366
#     4   9  21  40  63  92 125 159 203 258 310 363
#     4  10  19  38  68  91 124 161 203 257 311 362
#     4  10  22  42  61  91 127 162 207 260 300 370
#     4  11  24  40  63  92 128 166 208 251 313 371
#     4  12  20  39  64  92 128 160 202 255 307 363
#
# _framework density 21.626819000000001
#
# number of rings (size 3 to 8) (size 9 to 14) (size 15 to 20)
#    0.000    1.600    3.333    1.200    0.000    8.533 
#    1.200    9.333    0.000    0.000    0.000    0.000 
#    0.000    0.000    0.000    0.000    0.000    0.000 
#
# Total GULP energy -185859.173186 kJ/mol
# GULP energy per Si atom -12390.611546 kJ/mol
# Density = 2.157760 g / cm^3
# Si number density = 21.626819 Si / 1000 Ang^3
#
#
#
# Elastic Constant Matrix: (Units=GPa)
#
#
# Indices 1 2 3 4 5 6 
#
# 1 49.4863 31.9591 39.7212 -0.0026 7.9476 -0.0017
# 2 31.9591 105.6785 40.9366 -0.0032 -7.1108 -0.0022
# 3 39.7212 40.9366 103.8374 -0.0035 5.8422 -0.0021
# 4 -0.0026 -0.0032 -0.0035 24.6171 0.0028 1.9807
# 5 7.9476 -7.1108 5.8422 0.0028 22.6863 -0.0002
# 6 -0.0017 -0.0022 -0.0021 1.9807 -0.0002 45.4500
#
#
#
# Elastic Compliance Matrix: (Units=1/GPa)
#
#
# Indices 1 2 3 4 5 6 
#
# 1 0.034791 -0.007604 -0.009630 0.000003 -0.012092 0.000000
# 2 -0.007604 0.013348 -0.002779 0.000000 0.007563 0.000000
# 3 -0.009630 -0.002779 0.014479 0.000001 -0.001226 0.000000
# 4 0.000003 0.000000 0.000001 0.040765 -0.000006 -0.001777
# 5 -0.012092 0.007563 -0.001226 -0.000006 0.051002 0.000000
# 6 0.000000 0.000000 0.000000 -0.001777 0.000000 0.022080
#
#
# Mechanical properties :
#
#
# Convention : Reuss Voigt Hill
#
# Bulk Modulus (GPa) = 44.26709 53.80400 49.03554
# Shear Modulus (GPa) = 22.31938 28.30970 25.31454
#
# Velocity S-wave (km/s) = 3.21600 3.62195 3.42499
# Velocity P-wave (km/s) = 5.85690 6.51335 6.19383
#
# Compressibility (1/GPa) = 0.02259015
#
# Stress axis : x y z
#
# Youngs Moduli (GPa) = 28.74339 74.91926 69.06655
#
# Poissons Ratio (x) = 0.56972 0.66513
# Poissons Ratio (y) = 0.21858 0.19192
# Poissons Ratio (z) = 0.27681 0.20818
#
# Static dielectric constant tensor:
#      x y z
#    x 4.277740 -0.000020 -0.186310 
#    y -0.000020 4.338530 0.000020 
#    z -0.186310 0.000020 3.788430 
# 
# 
# High freq. dielectric constant tensor:
#      x y z
#    x 1.845960 0.000000 0.004900 
#    y 0.000000 1.851170 0.000000 
#    z 0.004900 0.000000 1.834810 
# 
# From -- ./inp_files/54775.got.cif
#   From: 2010.03.12/outbox.cif.g09.slc.cpg/sg5_28_cif.got.tgz:54775.got - 2010.03.31 09:47:26.
