data_PCOD8048379
_publ_section_title
;
Structure prediction by ZEFSAII (Michael W. Deem and Ramdas Pophale) SiO2 
 PCOD8048379
Probable space group: C 2
;
_chemical_formula_sum "Si O2"
_cell_formula_units_Z 28
_cell_length_a 18.892522
_cell_length_b 8.414730
_cell_length_c 16.079946
_cell_angle_alpha 90.000000
_cell_angle_beta 31.741094
_cell_angle_gamma 90.000000
_cell_volume 1344.831693
_symmetry_space_group_name_H-M "C 2"
_symmetry_group_IT_number 5
_symmetry_cell_setting 'monoclinic'
loop_
_space_group_symop_operation_xyz
x,y,z
-x,y,-z
1/2+x,1/2+y,z
1/2-x,1/2+y,-z
loop_
_atom_site_type_symbol
_atom_site_label
_atom_site_fract_x
_atom_site_fract_y
_atom_site_fract_z
Si Si1 0.845171 0.571160 0.827150
Si Si2 0.659621 0.261216 0.011406
Si Si3 0.236748 0.729119 0.253044
Si Si4 0.125186 0.504306 0.504067
Si Si5 0.500000 0.564580 0.000000
Si Si6 0.876802 0.827472 0.252170
Si Si7 0.500000 0.768667 0.500000
Si Si8 0.265600 0.100907 0.226423
O O1 0.754604 0.414403 0.901414
O O2 0.853729 0.679838 0.735638
O O3 0.004556 0.543603 0.689041
O O4 0.781282 0.663915 0.969405
O O5 0.646698 0.154013 0.941029
O O6 0.501804 0.298817 0.189624
O O7 0.178472 0.653085 0.396177
O O8 0.251288 0.914755 0.253049
O O9 0.384456 0.673272 0.076821
O O10 0.249982 0.413486 0.425544
O O11 0.055983 0.376097 0.515738
O O12 0.571359 0.457534 0.862405
O O13 0.826322 0.673343 0.250920
O O14 0.618251 0.659330 0.347997
#
# Coordination Sequence:
#
# PCOD8048379 Si02
#       8
#     4   4   4   4   2   4   2   4
#     4  12  23  42  61  88 125 165 202 248 310 369
#     4  12  23  42  61  88 125 165 202 248 310 369
#     4  11  22  36  64  97 121 155 206 259 297 361
#     4  10  20  41  64  86 119 163 203 249 305 361
#     4  10  18  36  66  86 120 156 202 250 302 356
#     4  10  20  41  64  86 119 163 203 249 305 361
#     4  10  18  36  66  86 120 156 202 250 302 356
#     4  11  22  36  64  97 121 155 206 259 297 361
#
# _framework density 20.820449
#
# number of rings (size 3 to 8) (size 9 to 14) (size 15 to 20)
#    0.000    1.143    5.714    1.714    4.000    0.000 
#    0.000    2.857    0.000    0.000    0.000    0.000 
#    0.000    0.000    0.000    0.000    0.000    0.000 
#
# Total GULP energy -173452.098318 kJ/mol
# GULP energy per Si atom -12389.435594 kJ/mol
# Density = 2.077306 g / cm^3
# Si number density = 20.820449 Si / 1000 Ang^3
#
#
#
# Elastic Constant Matrix: (Units=GPa)
#
#
# Indices 1 2 3 4 5 6 
#
# 1 41.0211 24.4805 18.0826 0.0000 -8.6382 0.0000
# 2 24.4805 141.8245 38.3257 -0.0001 -7.0855 0.0001
# 3 18.0826 38.3257 89.5071 0.0000 -29.4482 0.0000
# 4 0.0000 -0.0001 0.0000 22.0750 0.0000 9.5456
# 5 -8.6382 -7.0855 -29.4482 0.0000 36.2010 0.0000
# 6 0.0000 0.0001 0.0000 9.5456 0.0000 32.0135
#
#
#
# Elastic Compliance Matrix: (Units=1/GPa)
#
#
# Indices 1 2 3 4 5 6 
#
# 1 0.028829 -0.004013 -0.002869 0.000000 0.003760 0.000000
# 2 -0.004013 0.008606 -0.003598 0.000000 -0.002200 0.000000
# 3 -0.002869 -0.003598 0.017526 0.000000 0.012868 0.000000
# 4 0.000000 0.000000 0.000000 0.052006 0.000000 -0.015507
# 5 0.003760 -0.002200 0.012868 0.000000 0.038558 0.000000
# 6 0.000000 0.000000 0.000000 -0.015507 0.000000 0.035861
#
#
# Mechanical properties :
#
#
# Convention : Reuss Voigt Hill
#
# Bulk Modulus (GPa) = 29.41057 48.23671 38.82364
# Shear Modulus (GPa) = 23.39959 30.82216 27.11087
#
# Velocity S-wave (km/s) = 3.35606 3.85174 3.61241
# Velocity P-wave (km/s) = 5.40130 6.55740 6.00722
#
# Compressibility (1/GPa) = 0.03400138
#
# Stress axis : x y z
#
# Youngs Moduli (GPa) = 34.68723 116.19673 57.05760
#
# Poissons Ratio (x) = 0.46631 0.16368
# Poissons Ratio (y) = 0.13920 0.20530
# Poissons Ratio (z) = 0.09951 0.41809
#
# Static dielectric constant tensor:
#      x y z
#    x 3.820850 0.000000 -1.152420 
#    y 0.000000 4.642240 0.000000 
#    z -1.152420 0.000000 5.927090 
# 
# 
# High freq. dielectric constant tensor:
#      x y z
#    x 1.787630 0.000000 -0.032000 
#    y 0.000000 1.816800 0.000000 
#    z -0.032000 0.000000 1.825160 
# 
# From -- ./inp_files/62726.got.cif
#   From: 2010.03.12/outbox.cif.g09.slc.cpg/sg5_32_cif.got.tgz:62726.got - 2010.03.31 09:47:26.
