data_PCOD8048950
_publ_section_title
;
Structure prediction by ZEFSAII (Michael W. Deem and Ramdas Pophale) SiO2 
 PCOD8048950
Probable space group: C 2
;
_chemical_formula_sum "Si O2"
_cell_formula_units_Z 26
_cell_length_a 25.871323
_cell_length_b 5.120528
_cell_length_c 12.765887
_cell_angle_alpha 90.000000
_cell_angle_beta 51.181725
_cell_angle_gamma 90.000000
_cell_volume 1317.646162
_symmetry_space_group_name_H-M "C 2"
_symmetry_group_IT_number 5
_symmetry_cell_setting 'monoclinic'
loop_
_space_group_symop_operation_xyz
x,y,z
-x,y,-z
1/2+x,1/2+y,z
1/2-x,1/2+y,-z
loop_
_atom_site_type_symbol
_atom_site_label
_atom_site_fract_x
_atom_site_fract_y
_atom_site_fract_z
Si Si1 0.012695 0.943320 0.693310
Si Si2 0.787037 0.519546 0.918420
Si Si3 0.727782 0.069940 0.656770
Si Si4 0.000000 0.703151 0.500000
Si Si5 0.347593 0.307825 0.421763
Si Si6 0.565242 0.963477 0.234076
Si Si7 0.774472 0.582134 0.695135
O O1 0.080117 0.939563 0.675120
O O2 0.033191 0.892287 0.545385
O O3 0.963534 0.711236 0.794211
O O4 0.974097 0.212518 0.757352
O O5 0.856507 0.432751 0.882546
O O6 0.797046 0.606441 0.785931
O O7 0.738831 0.271565 0.986233
O O8 0.663122 0.132554 0.668889
O O9 0.742026 0.302070 0.719136
O O10 0.790742 0.034390 0.496382
O O11 0.719615 0.806965 0.736672
O O12 0.946823 0.515607 0.625999
O O13 0.338685 0.127869 0.537829
#
# Coordination Sequence:
#
# PCOD8048950 Si02
#       7
#     4   4   4   2   4   4   4
#     4  10  21  30  55  78 122 157 182 236 302 365
#     4  12  25  42  63  82 119 167 214 253 293 348
#     4  10  20  32  57  85 129 150 200 240 298 387
#     4   8  20  34  54  84 118 156 178 244 292 390
#     4  10  20  34  56  90 126 161 184 240 314 372
#     4  10  22  37  51  87 112 155 200 241 292 372
#     4  10  21  36  55  85 119 159 195 256 291 346
#
# _framework density 19.732154000000001
#
# number of rings (size 3 to 8) (size 9 to 14) (size 15 to 20)
#    1.846    0.000    1.538    3.231    2.154    1.231 
#    0.000    0.000    0.000    0.000    0.000   16.154 
#    0.000    0.000    0.000    0.000    0.000    0.000 
#
# Total GULP energy -161066.065522 kJ/mol
# GULP energy per Si atom -12389.697348 kJ/mol
# Density = 1.968724 g / cm^3
# Si number density = 19.732154 Si / 1000 Ang^3
#
#
#
# Elastic Constant Matrix: (Units=GPa)
#
#
# Indices 1 2 3 4 5 6 
#
# 1 111.1218 34.4863 25.2449 -0.0087 -20.6782 0.0159
# 2 34.4863 134.0572 17.7922 -0.0016 -9.5707 0.0113
# 3 25.2449 17.7922 39.1888 -0.0045 -12.6646 0.0068
# 4 -0.0087 -0.0016 -0.0045 24.9433 0.0034 -5.9901
# 5 -20.6782 -9.5707 -12.6646 0.0034 22.1032 -0.0046
# 6 0.0159 0.0113 0.0068 -5.9901 -0.0046 31.1675
#
#
#
# Elastic Compliance Matrix: (Units=1/GPa)
#
#
# Indices 1 2 3 4 5 6 
#
# 1 0.012071 -0.001964 -0.004307 0.000002 0.007975 -0.000003
# 2 -0.001964 0.008309 -0.002379 -0.000001 0.000397 -0.000002
# 3 -0.004307 -0.002379 0.034040 0.000002 0.014445 -0.000002
# 4 0.000002 -0.000001 0.000002 0.042031 -0.000003 0.008078
# 5 0.007975 0.000397 0.014445 -0.000003 0.061151 0.000001
# 6 -0.000003 -0.000002 -0.000002 0.008078 0.000001 0.033637
#
#
# Mechanical properties :
#
#
# Convention : Reuss Voigt Hill
#
# Bulk Modulus (GPa) = 26.93968 48.82384 37.88176
# Shear Modulus (GPa) = 22.63338 29.43243 26.03290
#
# Velocity S-wave (km/s) = 3.39046 3.86631 3.63618
# Velocity P-wave (km/s) = 5.38602 6.68791 6.07196
#
# Compressibility (1/GPa) = 0.03711996
#
# Stress axis : x y z
#
# Youngs Moduli (GPa) = 82.84170 120.35326 29.37718
#
# Poissons Ratio (x) = 0.23642 0.12653
# Poissons Ratio (y) = 0.16273 0.06988
# Poissons Ratio (z) = 0.35681 0.28627
#
# Static dielectric constant tensor:
#      x y z
#    x 3.277520 0.000000 -0.018970 
#    y 0.000000 3.551810 -0.000020 
#    z -0.018970 -0.000020 3.077420 
# 
# 
# High freq. dielectric constant tensor:
#      x y z
#    x 1.758380 0.000000 -0.003280 
#    y 0.000000 1.780270 0.000000 
#    z -0.003280 0.000000 1.708760 
# 
# From -- ./inp_files/57323.got.cif
#   From: 2010.03.12/outbox.cif.g09.slc.cpg/sg5_29_cif.got.tgz:57323.got - 2010.03.31 09:47:26.
