data_PCOD8048210
_publ_section_title
;
Structure prediction by ZEFSAII (Michael W. Deem and Ramdas Pophale) SiO2 
 PCOD8048210
Probable space group: C 2
;
_chemical_formula_sum "Si O2"
_cell_formula_units_Z 26
_cell_length_a 17.070612
_cell_length_b 9.026678
_cell_length_c 28.860190
_cell_angle_alpha 90.000000
_cell_angle_beta 18.045842
_cell_angle_gamma 90.000000
_cell_volume 1377.610870
_symmetry_space_group_name_H-M "C 2"
_symmetry_group_IT_number 5
_symmetry_cell_setting 'monoclinic'
loop_
_space_group_symop_operation_xyz
x,y,z
-x,y,-z
1/2+x,1/2+y,z
1/2-x,1/2+y,-z
loop_
_atom_site_type_symbol
_atom_site_label
_atom_site_fract_x
_atom_site_fract_y
_atom_site_fract_z
Si Si1 0.651030 0.411860 0.999466
Si Si2 0.278998 0.590370 0.951193
Si Si3 0.000000 0.959372 0.500000
Si Si4 0.496903 0.081071 0.743931
Si Si5 0.195821 0.601103 0.247533
Si Si6 0.647387 0.172042 0.373766
Si Si7 0.886522 0.322065 0.014416
O O1 0.636419 0.245731 0.026433
O O2 0.829378 0.437274 0.853879
O O3 0.770160 0.521216 0.970984
O O4 0.359609 0.450686 0.152501
O O5 0.570906 0.617668 0.778055
O O6 0.170427 0.480276 0.974379
O O7 0.786482 0.063879 0.597232
O O8 0.877899 0.851834 0.608196
O O9 0.491713 0.099818 0.690878
O O10 0.370544 0.225829 0.837976
O O11 0.042032 0.616918 0.382659
O O12 0.400083 0.735036 0.134583
O O13 0.500000 0.097075 0.500000
O O14 0.000000 0.354004 0.000000
#
# Coordination Sequence:
#
# PCOD8048210 Si02
#       7
#     4   4   2   4   4   4   4
#     4  10  18  31  58  86 112 147 190 244 290 345
#     4  11  19  34  57  86 115 150 197 234 295 344
#     4  10  20  36  62  80 112 164 198 226 282 346
#     4  10  19  37  58  85 113 153 194 237 287 344
#     4   9  19  36  59  84 115 146 192 244 296 332
#     4   9  19  36  56  77 117 157 191 230 278 342
#     4   9  20  35  56  85 117 144 184 253 297 330
#
# _framework density 18.873252999999998
#
# number of rings (size 3 to 8) (size 9 to 14) (size 15 to 20)
#    0.462    1.846    1.538    4.154    0.000    1.231 
#    1.385    3.077    6.769    0.000    0.000    0.000 
#    0.000    0.000    0.000    0.000    0.000    0.000 
#
# Total GULP energy -161105.739946 kJ/mol
# GULP energy per Si atom -12392.749227 kJ/mol
# Density = 1.883030 g / cm^3
# Si number density = 18.873253 Si / 1000 Ang^3
#
#
#
# Elastic Constant Matrix: (Units=GPa)
#
#
# Indices 1 2 3 4 5 6 
#
# 1 113.0092 56.3815 62.4743 -0.0491 6.2073 -0.0216
# 2 56.3815 101.7463 25.5301 -0.1045 -8.7399 -0.0176
# 3 62.4743 25.5301 76.9564 -0.1863 1.4977 0.1899
# 4 -0.0491 -0.1045 -0.1863 18.7713 0.0554 -4.6384
# 5 6.2073 -8.7399 1.4977 0.0554 36.3878 -0.0594
# 6 -0.0216 -0.0176 0.1899 -4.6384 -0.0594 32.4817
#
#
#
# Elastic Compliance Matrix: (Units=1/GPa)
#
#
# Indices 1 2 3 4 5 6 
#
# 1 0.021454 -0.008712 -0.014426 -0.000103 -0.005158 0.000070
# 2 -0.008712 0.014535 0.002155 0.000067 0.004888 0.000008
# 3 -0.014426 0.002155 0.023953 0.000177 0.001992 -0.000120
# 4 -0.000103 0.000067 0.000177 0.055223 -0.000045 0.007885
# 5 -0.005158 0.004888 0.001992 -0.000045 0.029454 0.000035
# 6 0.000070 0.000008 -0.000120 0.007885 0.000035 0.031913
#
#
# Mechanical properties :
#
#
# Convention : Reuss Voigt Hill
#
# Bulk Modulus (GPa) = 55.62953 64.49820 60.06387
# Shear Modulus (GPa) = 22.27274 27.34989 24.81132
#
# Velocity S-wave (km/s) = 3.43902 3.81088 3.62971
# Velocity P-wave (km/s) = 6.73115 7.32204 7.03281
#
# Compressibility (1/GPa) = 0.01797607
#
# Stress axis : x y z
#
# Youngs Moduli (GPa) = 46.61197 68.79943 41.74871
#
# Poissons Ratio (x) = 0.59936 0.60228
# Poissons Ratio (y) = 0.40607 -0.08998
# Poissons Ratio (z) = 0.67244 -0.14828
#
# Static dielectric constant tensor:
#      x y z
#    x 3.666410 -0.001090 0.177040 
#    y -0.001090 3.486440 -0.000020 
#    z 0.177040 -0.000020 3.214860 
# 
# 
# High freq. dielectric constant tensor:
#      x y z
#    x 1.744070 0.000000 0.009460 
#    y 0.000000 1.717270 0.000020 
#    z 0.009460 0.000020 1.707050 
# 
# From -- ./inp_files/70883.got.cif
#   From: 2010.03.12/outbox.cif.g09.slc.cpg/sg5_36_cif.got.tgz:70883.got - 2010.03.31 09:47:26.
