data_PCOD8048931
_publ_section_title
;
Structure prediction by ZEFSAII (Michael W. Deem and Ramdas Pophale) SiO2 
 PCOD8048931
Probable space group: C 2
;
_chemical_formula_sum "Si O2"
_cell_formula_units_Z 28
_cell_length_a 12.920907
_cell_length_b 6.472755
_cell_length_c 18.323354
_cell_angle_alpha 90.000000
_cell_angle_beta 128.131516
_cell_angle_gamma 90.000000
_cell_volume 1205.420568
_symmetry_space_group_name_H-M "C 2"
_symmetry_group_IT_number 5
_symmetry_cell_setting 'monoclinic'
loop_
_space_group_symop_operation_xyz
x,y,z
-x,y,-z
1/2+x,1/2+y,z
1/2-x,1/2+y,-z
loop_
_atom_site_type_symbol
_atom_site_label
_atom_site_fract_x
_atom_site_fract_y
_atom_site_fract_z
Si Si1 0.656324 0.305910 0.723725
Si Si2 0.519206 0.289150 0.165853
Si Si3 0.000000 0.661053 0.000000
Si Si4 0.249744 0.533041 0.651799
Si Si5 0.071483 0.430702 0.779572
Si Si6 0.000000 0.305650 0.500000
Si Si7 0.222421 0.048429 0.882872
Si Si8 0.929903 0.108957 0.612101
O O1 0.733235 0.258777 0.682079
O O2 0.734234 0.478509 0.803218
O O3 0.511415 0.396425 0.647784
O O4 0.650720 0.088675 0.763457
O O5 0.636840 0.407989 0.257040
O O6 0.377919 0.399982 0.117846
O O7 0.513120 0.058378 0.197361
O O8 0.547554 0.293020 0.091178
O O9 0.874158 0.531297 0.976167
O O10 0.286045 0.557319 0.582116
O O11 0.105993 0.430174 0.593637
O O12 0.174611 0.285544 0.867848
O O13 0.983416 0.282744 0.690758
O O14 0.917757 0.174049 0.522844
#
# Coordination Sequence:
#
# PCOD8048931 Si02
#       8
#     4   4   2   4   4   2   4   4
#     4  10  22  45  75 102 139 187 248 294 360 441
#     4  11  26  47  73 108 147 195 248 298 373 438
#     4  12  28  42  78 110 148 192 244 306 364 430
#     4  12  25  48  76 106 144 204 239 300 376 430
#     4  10  19  47  77  93 146 185 241 302 350 447
#     4  12  30  44  72 118 146 182 258 300 356 452
#     4  10  24  47  69 111 138 194 245 299 367 432
#     4  11  25  47  72 104 144 193 238 304 371 429
#
# _framework density 23.228404999999999
#
# number of rings (size 3 to 8) (size 9 to 14) (size 15 to 20)
#    0.000    1.143    5.714    0.857    6.000    4.000 
#    0.000    3.571    0.000    0.000    0.000    0.000 
#    0.000    0.000    0.000    0.000    0.000    0.000 
#
# Total GULP energy -173513.812708 kJ/mol
# GULP energy per Si atom -12393.843765 kJ/mol
# Density = 2.317554 g / cm^3
# Si number density = 23.228405 Si / 1000 Ang^3
#
#
#
# Elastic Constant Matrix: (Units=GPa)
#
#
# Indices 1 2 3 4 5 6 
#
# 1 136.3967 42.5142 49.4503 0.0000 -14.8749 0.0000
# 2 42.5142 108.8315 15.1815 0.0000 -4.6799 0.0000
# 3 49.4503 15.1815 74.5375 0.0000 -6.2870 0.0000
# 4 0.0000 0.0000 0.0000 12.8975 0.0000 -9.4055
# 5 -14.8749 -4.6799 -6.2870 0.0000 52.5869 0.0000
# 6 0.0000 0.0000 0.0000 -9.4055 0.0000 40.6286
#
#
#
# Elastic Compliance Matrix: (Units=1/GPa)
#
#
# Indices 1 2 3 4 5 6 
#
# 1 0.010889 -0.003276 -0.006386 0.000000 0.002025 0.000000
# 2 -0.003276 0.010463 0.000043 0.000000 0.000010 0.000000
# 3 -0.006386 0.000043 0.017670 0.000000 0.000310 0.000000
# 4 0.000000 0.000000 0.000000 0.093282 0.000000 0.021595
# 5 0.002025 0.000010 0.000310 0.000000 0.019627 0.000000
# 6 0.000000 0.000000 0.000000 0.021595 0.000000 0.029612
#
#
# Mechanical properties :
#
#
# Convention : Reuss Voigt Hill
#
# Bulk Modulus (GPa) = 50.54544 59.33976 54.94260
# Shear Modulus (GPa) = 24.11098 35.39724 29.75411
#
# Velocity S-wave (km/s) = 3.22529 3.90792 3.58290
# Velocity P-wave (km/s) = 5.97306 6.77969 6.38911
#
# Compressibility (1/GPa) = 0.01978418
#
# Stress axis : x y z
#
# Youngs Moduli (GPa) = 91.83947 95.57907 56.59311
#
# Poissons Ratio (x) = 0.31308 0.36139
# Poissons Ratio (y) = 0.30084 -0.00243
# Poissons Ratio (z) = 0.58647 -0.00411
#
# Static dielectric constant tensor:
#      x y z
#    x 4.389630 0.000000 -0.152390 
#    y 0.000000 4.191200 0.000000 
#    z -0.152390 0.000000 4.000520 
# 
# 
# High freq. dielectric constant tensor:
#      x y z
#    x 1.935590 0.000000 -0.006800 
#    y 0.000000 1.910470 0.000000 
#    z -0.006800 0.000000 1.901280 
# 
# From -- ./inp_files/65726.got.cif
#   From: 2010.03.12/outbox.cif.g09.slc.cpg/sg5_33_cif.got.tgz:65726.got - 2010.03.31 09:47:26.
