data_PCOD8048558
_publ_section_title
;
Structure prediction by ZEFSAII (Michael W. Deem and Ramdas Pophale) SiO2 
 PCOD8048558
Probable space group: C 2
;
_chemical_formula_sum "Si O2"
_cell_formula_units_Z 30
_cell_length_a 19.214307
_cell_length_b 8.306808
_cell_length_c 22.180572
_cell_angle_alpha 90.000000
_cell_angle_beta 153.260570
_cell_angle_gamma 90.000000
_cell_volume 1592.869359
_symmetry_space_group_name_H-M "C 2"
_symmetry_group_IT_number 5
_symmetry_cell_setting 'monoclinic'
loop_
_space_group_symop_operation_xyz
x,y,z
-x,y,-z
1/2+x,1/2+y,z
1/2-x,1/2+y,-z
loop_
_atom_site_type_symbol
_atom_site_label
_atom_site_fract_x
_atom_site_fract_y
_atom_site_fract_z
Si Si1 0.389928 0.148010 0.093072
Si Si2 0.411348 0.587798 0.375239
Si Si3 0.000000 0.778191 0.500000
Si Si4 0.947027 0.015832 0.167007
Si Si5 0.932121 0.514632 0.881139
Si Si6 0.869132 0.458815 0.649013
Si Si7 0.419542 0.656246 0.612034
Si Si8 0.173656 0.231870 0.275091
O O1 0.418507 0.332775 0.129713
O O2 0.450475 0.103663 0.073366
O O3 0.471882 0.042019 0.207702
O O4 0.207908 0.119993 0.956682
O O5 0.500000 0.674180 0.500000
O O6 0.455312 0.396872 0.409404
O O7 0.228579 0.612480 0.243397
O O8 0.461429 0.663424 0.350948
O O9 0.151782 0.669030 0.604628
O O10 0.017008 0.036370 0.287686
O O11 0.067442 0.082567 0.210701
O O12 0.905470 0.328799 0.841032
O O13 0.000000 0.514438 0.000000
O O14 0.748933 0.596366 0.537995
O O15 0.906176 0.340389 0.622708
O O16 0.799715 0.358139 0.650395
#
# Coordination Sequence:
#
# PCOD8048558 Si02
#       8
#     4   4   2   4   4   4   4   4
#     4  11  22  41  55  86 116 155 190 247 293 347
#     4   9  17  31  55  82 114 159 187 229 279 348
#     4   8  14  32  58  78 114 156 180 230 278 350
#     4  11  23  36  62  81 118 152 197 244 295 338
#     4  10  19  33  59  83 111 150 196 228 286 360
#     4  10  20  34  58  83 123 143 197 237 288 336
#     4  11  19  34  57  90 111 155 200 240 281 344
#     4   9  18  35  57  85 114 153 185 237 289 340
#
# _framework density 18.833936000000001
#
# number of rings (size 3 to 8) (size 9 to 14) (size 15 to 20)
#    0.400    1.600    1.333    4.800    0.000    0.000 
#    0.000    0.667   10.267    0.000    0.000    0.000 
#    0.000    0.000    0.000    0.000    0.000    0.000 
#
# Total GULP energy -185962.117281 kJ/mol
# GULP energy per Si atom -12397.474485 kJ/mol
# Density = 1.879107 g / cm^3
# Si number density = 18.833936 Si / 1000 Ang^3
#
#
#
# Elastic Constant Matrix: (Units=GPa)
#
#
# Indices 1 2 3 4 5 6 
#
# 1 104.7951 39.4075 44.2253 0.0001 10.7946 0.0000
# 2 39.4075 70.8846 14.8100 0.0004 2.6040 0.0001
# 3 44.2253 14.8100 98.3796 0.0007 7.9221 0.0002
# 4 0.0001 0.0004 0.0007 27.2804 0.0002 1.2294
# 5 10.7946 2.6040 7.9221 0.0002 41.7642 0.0000
# 6 0.0000 0.0001 0.0002 1.2294 0.0000 25.5383
#
#
#
# Elastic Compliance Matrix: (Units=1/GPa)
#
#
# Indices 1 2 3 4 5 6 
#
# 1 0.014653 -0.006942 -0.005354 0.000000 -0.002339 0.000000
# 2 -0.006942 0.017864 0.000382 0.000000 0.000608 0.000000
# 3 -0.005354 0.000382 0.012597 0.000000 -0.001029 0.000000
# 4 0.000000 0.000000 0.000000 0.036736 0.000000 -0.001768
# 5 -0.002339 0.000608 -0.001029 0.000000 0.024706 0.000000
# 6 0.000000 0.000000 0.000000 -0.001768 0.000000 0.039242
#
#
# Mechanical properties :
#
#
# Convention : Reuss Voigt Hill
#
# Bulk Modulus (GPa) = 46.97497 52.32722 49.65109
# Shear Modulus (GPa) = 28.29323 30.62434 29.45879
#
# Velocity S-wave (km/s) = 3.88009 4.03677 3.95920
# Velocity P-wave (km/s) = 6.71336 7.04068 6.87897
#
# Compressibility (1/GPa) = 0.02128793
#
# Stress axis : x y z
#
# Youngs Moduli (GPa) = 68.24466 55.97717 79.38534
#
# Poissons Ratio (x) = 0.38858 0.42501
# Poissons Ratio (y) = 0.47374 -0.03035
# Poissons Ratio (z) = 0.36537 -0.02140
#
# Static dielectric constant tensor:
#      x y z
#    x 3.516220 0.000000 0.067900 
#    y 0.000000 3.171890 0.000000 
#    z 0.067900 0.000000 3.616700 
# 
# 
# High freq. dielectric constant tensor:
#      x y z
#    x 1.732150 0.000000 0.008630 
#    y 0.000000 1.700460 0.000000 
#    z 0.008630 0.000000 1.747120 
# 
# From -- ./inp_files/66618.got.cif
#   From: 2010.03.12/outbox.cif.g09.slc.cpg/sg5_34_cif.got.tgz:66618.got - 2010.03.31 09:47:26.
