data_PCOD8048789
_publ_section_title
;
Structure prediction by ZEFSAII (Michael W. Deem and Ramdas Pophale) SiO2 
 PCOD8048789
Probable space group: C 2
;
_chemical_formula_sum "Si O2"
_cell_formula_units_Z 24
_cell_length_a 14.899229
_cell_length_b 9.436072
_cell_length_c 14.013509
_cell_angle_alpha 90.000000
_cell_angle_beta 37.708479
_cell_angle_gamma 90.000000
_cell_volume 1205.038010
_symmetry_space_group_name_H-M "C 2"
_symmetry_group_IT_number 5
_symmetry_cell_setting 'monoclinic'
loop_
_space_group_symop_operation_xyz
x,y,z
-x,y,-z
1/2+x,1/2+y,z
1/2-x,1/2+y,-z
loop_
_atom_site_type_symbol
_atom_site_label
_atom_site_fract_x
_atom_site_fract_y
_atom_site_fract_z
Si Si1 0.797036 0.590410 0.328288
Si Si2 0.106135 0.285434 0.779581
Si Si3 0.458115 0.583921 0.318977
Si Si4 0.763240 0.635204 0.139331
Si Si5 0.709804 0.803710 0.890811
Si Si6 0.543035 0.282744 0.175645
O O1 0.895692 0.450500 0.243463
O O2 0.641763 0.546626 0.505669
O O3 0.771514 0.659924 0.245820
O O4 0.889101 0.701351 0.314276
O O5 0.145470 0.186294 0.657446
O O6 0.221680 0.262288 0.768920
O O7 0.940810 0.237667 0.944511
O O8 0.600074 0.668294 0.238325
O O9 0.506591 0.448626 0.215718
O O10 0.800455 0.472376 0.085958
O O11 0.877766 0.741536 0.991089
O O12 0.848638 0.737552 0.828831
#
# Coordination Sequence:
#
# PCOD8048789 Si02
#       6
#     4   4   4   4   4   4
#     4  11  22  39  62  86 122 160 195 241 302 364
#     4  10  19  38  61  82 118 153 198 235 297 352
#     4  11  23  38  59  93 122 151 195 255 302 341
#     4  10  20  39  62  86 114 159 202 236 286 364
#     4   9  19  36  61  86 107 156 198 241 280 355
#     4  11  21  38  61  93 115 151 206 248 293 345
#
# _framework density 19.916384000000001
#
# number of rings (size 3 to 8) (size 9 to 14) (size 15 to 20)
#    0.000    1.667    3.333    2.000    0.000    0.000 
#    6.000    2.500    0.000    0.000    0.000    0.000 
#    0.000    0.000    0.000    0.000    0.000    0.000 
#
# Total GULP energy -148757.349401 kJ/mol
# GULP energy per Si atom -12396.445783 kJ/mol
# Density = 1.987105 g / cm^3
# Si number density = 19.916384 Si / 1000 Ang^3
#
#
#
# Elastic Constant Matrix: (Units=GPa)
#
#
# Indices 1 2 3 4 5 6 
#
# 1 136.6229 58.0376 39.1352 0.0000 9.0433 0.0000
# 2 58.0376 61.0889 24.8697 0.0000 6.8539 0.0000
# 3 39.1352 24.8697 98.6324 0.0000 4.1545 0.0000
# 4 0.0000 0.0000 0.0000 22.5862 0.0000 -0.5076
# 5 9.0433 6.8539 4.1545 0.0000 25.3612 0.0000
# 6 0.0000 0.0000 0.0000 -0.5076 0.0000 34.9999
#
#
#
# Elastic Compliance Matrix: (Units=1/GPa)
#
#
# Indices 1 2 3 4 5 6 
#
# 1 0.012730 -0.011061 -0.002212 0.000000 -0.001188 0.000000
# 2 -0.011061 0.028309 -0.002611 0.000000 -0.003279 0.000000
# 3 -0.002212 -0.002611 0.011693 0.000000 -0.000421 0.000000
# 4 0.000000 0.000000 0.000000 0.044289 0.000000 0.000642
# 5 -0.001188 -0.003279 -0.000421 0.000000 0.040809 0.000000
# 6 0.000000 0.000000 0.000000 0.000642 0.000000 0.028581
#
#
# Mechanical properties :
#
#
# Convention : Reuss Voigt Hill
#
# Bulk Modulus (GPa) = 47.70192 60.04767 53.87480
# Shear Modulus (GPa) = 24.37051 28.20957 26.29004
#
# Velocity S-wave (km/s) = 3.50185 3.76759 3.63715
# Velocity P-wave (km/s) = 6.35246 7.01011 6.68937
#
# Compressibility (1/GPa) = 0.02096352
#
# Stress axis : x y z
#
# Youngs Moduli (GPa) = 78.55304 35.32502 85.52468
#
# Poissons Ratio (x) = 0.39071 0.18920
# Poissons Ratio (y) = 0.86884 0.22332
# Poissons Ratio (z) = 0.17377 0.09224
#
# Static dielectric constant tensor:
#      x y z
#    x 3.850890 0.000000 -0.014370 
#    y 0.000000 3.295970 0.000000 
#    z -0.014370 0.000000 3.493260 
# 
# 
# High freq. dielectric constant tensor:
#      x y z
#    x 1.790010 0.000000 -0.003150 
#    y 0.000000 1.748500 0.000000 
#    z -0.003150 0.000000 1.771160 
# 
# From -- ./inp_files/23305.got.cif
#   From: 2010.03.12/outbox.cif.g09.slc.cpg/sg5_12_cif.got.tgz:23305.got - 2010.03.31 09:47:26.
