data_PCOD8048963
_publ_section_title
;
Structure prediction by ZEFSAII (Michael W. Deem and Ramdas Pophale) SiO2 
 PCOD8048963
Probable space group: C 2
;
_chemical_formula_sum "Si O2"
_cell_formula_units_Z 24
_cell_length_a 5.950537
_cell_length_b 18.134152
_cell_length_c 11.223472
_cell_angle_alpha 90.000000
_cell_angle_beta 95.490334
_cell_angle_gamma 90.000000
_cell_volume 1205.545664
_symmetry_space_group_name_H-M "C 2"
_symmetry_group_IT_number 5
_symmetry_cell_setting 'monoclinic'
loop_
_space_group_symop_operation_xyz
x,y,z
-x,y,-z
1/2+x,1/2+y,z
1/2-x,1/2+y,-z
loop_
_atom_site_type_symbol
_atom_site_label
_atom_site_fract_x
_atom_site_fract_y
_atom_site_fract_z
Si Si1 0.645322 0.732180 0.299445
Si Si2 0.000000 0.566745 0.500000
Si Si3 0.749029 0.829831 0.697785
Si Si4 0.711335 0.609803 0.693922
Si Si5 0.500577 0.208201 0.140463
Si Si6 0.000000 0.768673 0.500000
Si Si7 0.100200 0.978655 0.376620
O O1 0.520659 0.812931 0.298440
O O2 0.470554 0.672596 0.334504
O O3 0.740577 0.712380 0.172644
O O4 0.860557 0.722597 0.395833
O O5 0.852869 0.617022 0.579822
O O6 0.837128 0.518510 0.409131
O O7 0.875382 0.780476 0.802000
O O8 0.831744 0.914486 0.714342
O O9 0.815830 0.814929 0.564039
O O10 0.872177 0.632123 0.813302
O O11 0.586921 0.530590 0.698946
O O12 0.500000 0.211180 0.000000
O O13 0.000000 0.952482 0.500000
#
# Coordination Sequence:
#
# PCOD8048963 Si02
#       7
#     4   2   4   4   4   2   4
#     4  10  22  35  59  88 119 153 201 246 300 352
#     4  10  22  33  58  88 129 156 184 230 297 370
#     4  10  21  35  58  88 120 155 193 243 293 356
#     4  10  22  38  58  90 121 160 196 246 293 360
#     4  10  23  42  63  84 112 154 212 259 299 341
#     4  10  20  33  54  88 119 150 186 230 293 360
#     4  10  21  36  57  89 129 162 190 231 299 366
#
# _framework density 19.907997000000002
#
# number of rings (size 3 to 8) (size 9 to 14) (size 15 to 20)
#    0.000    2.000    0.833    1.500    2.333   24.000 
#    0.000    0.000    7.333    0.000    0.000    0.000 
#    0.000    0.000    0.000    0.000    0.000    0.000 
#
# Total GULP energy -148679.465813 kJ/mol
# GULP energy per Si atom -12389.955484 kJ/mol
# Density = 1.986269 g / cm^3
# Si number density = 19.907997 Si / 1000 Ang^3
#
#
#
# Elastic Constant Matrix: (Units=GPa)
#
#
# Indices 1 2 3 4 5 6 
#
# 1 137.7627 55.0794 54.3223 0.0000 -17.5029 0.0000
# 2 55.0794 117.5474 53.1075 0.0000 -2.6116 0.0000
# 3 54.3223 53.1075 125.2875 0.0000 -8.8218 0.0000
# 4 0.0000 0.0000 0.0000 22.2187 0.0000 -0.5104
# 5 -17.5029 -2.6116 -8.8218 0.0000 23.8976 0.0000
# 6 0.0000 0.0000 0.0000 -0.5104 0.0000 33.9233
#
#
#
# Elastic Compliance Matrix: (Units=1/GPa)
#
#
# Indices 1 2 3 4 5 6 
#
# 1 0.010537 -0.003629 -0.002582 0.000000 0.006368 0.000000
# 2 -0.003629 0.011779 -0.003609 0.000000 -0.002703 0.000000
# 3 -0.002582 -0.003609 0.010750 0.000000 0.001683 0.000000
# 4 0.000000 0.000000 0.000000 0.045023 0.000000 0.000677
# 5 0.006368 -0.002703 0.001683 0.000000 0.046835 0.000000
# 6 0.000000 0.000000 0.000000 0.000677 0.000000 0.029488
#
#
# Mechanical properties :
#
#
# Convention : Reuss Voigt Hill
#
# Bulk Modulus (GPa) = 74.49511 78.40180 76.44845
# Shear Modulus (GPa) = 28.00698 30.54716 29.27707
#
# Velocity S-wave (km/s) = 3.75483 3.92141 3.83902
# Velocity P-wave (km/s) = 7.50328 7.74409 7.62463
#
# Compressibility (1/GPa) = 0.01342370
#
# Stress axis : x y z
#
# Youngs Moduli (GPa) = 94.90320 84.90026 93.02708
#
# Poissons Ratio (x) = 0.30814 0.24018
# Poissons Ratio (y) = 0.34444 0.33578
# Poissons Ratio (z) = 0.24502 0.30644
#
# Static dielectric constant tensor:
#      x y z
#    x 4.272160 0.000000 -0.138920 
#    y 0.000000 3.671220 0.000000 
#    z -0.138920 0.000000 3.239870 
# 
# 
# High freq. dielectric constant tensor:
#      x y z
#    x 1.803580 0.000000 -0.009870 
#    y 0.000000 1.766780 0.000000 
#    z -0.009870 0.000000 1.729750 
# 
# From -- ./inp_files/33532.got.cif
#   From: 2010.03.12/outbox.cif.g09.slc.cpg/sg5_17_cif.got.tgz:33532.got - 2010.03.31 09:47:26.
