data_PCOD8048564
_publ_section_title
;
Structure prediction by ZEFSAII (Michael W. Deem and Ramdas Pophale) SiO2 
 PCOD8048564
Probable space group: C 2
;
_chemical_formula_sum "Si O2"
_cell_formula_units_Z 22
_cell_length_a 24.006194
_cell_length_b 5.139545
_cell_length_c 10.369304
_cell_angle_alpha 90.000000
_cell_angle_beta 105.491200
_cell_angle_gamma 90.000000
_cell_volume 1232.896446
_symmetry_space_group_name_H-M "C 2"
_symmetry_group_IT_number 5
_symmetry_cell_setting 'monoclinic'
loop_
_space_group_symop_operation_xyz
x,y,z
-x,y,-z
1/2+x,1/2+y,z
1/2-x,1/2+y,-z
loop_
_atom_site_type_symbol
_atom_site_label
_atom_site_fract_x
_atom_site_fract_y
_atom_site_fract_z
Si Si1 0.211227 0.265370 0.625159
Si Si2 0.101381 0.780563 0.188183
Si Si3 0.000000 0.538449 0.000000
Si Si4 0.826081 0.764876 0.531270
Si Si5 0.114973 0.300213 0.043187
Si Si6 0.219052 0.238481 0.931235
O O1 0.172363 0.500554 0.548404
O O2 0.273947 0.275922 0.600392
O O3 0.219185 0.298679 0.781215
O O4 0.177898 0.000030 0.572182
O O5 0.115228 0.786214 0.348854
O O6 0.137838 0.548678 0.140382
O O7 0.119775 0.051593 0.137604
O O8 0.032733 0.720611 0.125759
O O9 0.951810 0.356285 0.040368
O O10 0.153287 0.260923 0.940496
O O11 0.258681 0.447986 0.028694
#
# Coordination Sequence:
#
# PCOD8048564 Si02
#       6
#     4   4   2   4   4   4
#     4  10  21  33  50  81 110 150 179 215 275 334
#     4  10  19  35  58  85 105 142 190 237 278 304
#     4   8  22  34  60  88 102 144 196 242 270 308
#     4  10  19  34  53  75 114 145 185 220 261 343
#     4  10  20  35  56  86 110 141 184 238 277 325
#     4  12  23  36  56  85 121 148 177 226 289 340
#
# _framework density 17.844159000000001
#
# number of rings (size 3 to 8) (size 9 to 14) (size 15 to 20)
#    1.091    0.727    0.000    6.000    0.000    2.909 
#    0.000    0.000    0.000    1.091    0.000    0.000 
#    0.000    0.000    0.000    0.000    0.000    0.000 
#
# Total GULP energy -136357.708773 kJ/mol
# GULP energy per Si atom -12396.155343 kJ/mol
# Density = 1.780355 g / cm^3
# Si number density = 17.844159 Si / 1000 Ang^3
#
#
#
# Elastic Constant Matrix: (Units=GPa)
#
#
# Indices 1 2 3 4 5 6 
#
# 1 67.3901 10.7404 24.0996 0.0000 5.7326 0.0000
# 2 10.7404 98.4945 20.2659 0.0000 5.0870 0.0000
# 3 24.0996 20.2659 108.8190 0.0000 9.7534 0.0000
# 4 0.0000 0.0000 0.0000 30.7657 0.0000 0.0653
# 5 5.7326 5.0870 9.7534 0.0000 28.1967 0.0000
# 6 0.0000 0.0000 0.0000 0.0653 0.0000 11.2377
#
#
#
# Elastic Compliance Matrix: (Units=1/GPa)
#
#
# Indices 1 2 3 4 5 6 
#
# 1 0.016333 -0.001009 -0.003249 0.000000 -0.002015 0.000000
# 2 -0.001009 0.010663 -0.001660 0.000000 -0.001145 0.000000
# 3 -0.003249 -0.001660 0.010456 0.000000 -0.002657 0.000000
# 4 0.000000 0.000000 0.000000 0.032504 0.000000 -0.000189
# 5 -0.002015 -0.001145 -0.002657 0.000000 0.037000 0.000000
# 6 0.000000 0.000000 0.000000 -0.000189 0.000000 0.088987
#
#
# Mechanical properties :
#
#
# Convention : Reuss Voigt Hill
#
# Bulk Modulus (GPa) = 39.03467 42.76837 40.90152
# Shear Modulus (GPa) = 23.11410 28.67988 25.89699
#
# Velocity S-wave (km/s) = 3.60298 4.01339 3.81371
# Velocity P-wave (km/s) = 6.26350 6.74508 6.50875
#
# Compressibility (1/GPa) = 0.02561825
#
# Stress axis : x y z
#
# Youngs Moduli (GPa) = 61.22616 93.77789 95.63579
#
# Poissons Ratio (x) = 0.09458 0.31070
# Poissons Ratio (y) = 0.06175 0.15875
# Poissons Ratio (z) = 0.19891 0.15567
#
# Static dielectric constant tensor:
#      x y z
#    x 3.080960 0.000000 0.104790 
#    y 0.000000 3.512680 0.000000 
#    z 0.104790 0.000000 3.128390 
# 
# 
# High freq. dielectric constant tensor:
#      x y z
#    x 1.657260 0.000000 0.015020 
#    y 0.000000 1.714420 0.000000 
#    z 0.015020 0.000000 1.678550 
# 
# From -- ./inp_files/30185.got.cif
#   From: 2010.03.12/outbox.cif.g09.slc.cpg/sg5_16_cif.got.tgz:30185.got - 2010.03.31 09:47:26.
