data_PCOD8048910
_publ_section_title
;
Structure prediction by ZEFSAII (Michael W. Deem and Ramdas Pophale) SiO2 
 PCOD8048910
Probable space group: C 2
;
_chemical_formula_sum "Si O2"
_cell_formula_units_Z 32
_cell_length_a 11.766714
_cell_length_b 11.098893
_cell_length_c 22.457567
_cell_angle_alpha 90.000000
_cell_angle_beta 147.259220
_cell_angle_gamma 90.000000
_cell_volume 1586.228204
_symmetry_space_group_name_H-M "C 2"
_symmetry_group_IT_number 5
_symmetry_cell_setting 'monoclinic'
loop_
_space_group_symop_operation_xyz
x,y,z
-x,y,-z
1/2+x,1/2+y,z
1/2-x,1/2+y,-z
loop_
_atom_site_type_symbol
_atom_site_label
_atom_site_fract_x
_atom_site_fract_y
_atom_site_fract_z
Si Si1 0.661860 0.179270 0.121103
Si Si2 0.345963 0.359658 0.305487
Si Si3 0.218176 0.395717 0.121994
Si Si4 0.114537 0.786701 0.229255
Si Si5 0.090414 0.100143 0.602022
Si Si6 0.869762 0.210098 0.691037
Si Si7 0.303766 0.194719 0.510416
Si Si8 0.390512 0.993038 0.390783
O O1 0.577245 0.223348 0.148406
O O2 0.887625 0.238848 0.212068
O O3 0.699617 0.037690 0.127047
O O4 0.500000 0.228119 0.000000
O O5 0.247517 0.333661 0.198225
O O6 0.366737 0.499535 0.329852
O O7 0.195921 0.300856 0.287140
O O8 0.576734 0.302963 0.404826
O O9 0.402932 0.351590 0.158907
O O10 0.000000 0.346499 0.000000
O O11 0.197031 0.680517 0.310446
O O12 0.303357 0.885135 0.311375
O O13 0.000000 0.048481 0.500000
O O14 0.913991 0.184927 0.552085
O O15 0.731942 0.238948 0.572458
O O16 0.816864 0.072396 0.685132
O O17 0.441821 0.071911 0.572807
O O18 0.500000 0.945254 0.500000
#
# Coordination Sequence:
#
# PCOD8048910 Si02
#       8
#     4   4   4   4   4   4   4   4
#     4  11  24  44  69  94 128 175 228 283 332 407
#     4  11  23  40  63  94 136 175 216 274 334 406
#     4  11  25  46  68  92 131 180 226 284 344 394
#     4  12  23  41  69  99 128 172 228 276 335 410
#     4  12  24  36  60 100 136 169 215 274 333 407
#     4  10  19  42  64  94 127 178 219 269 339 399
#     4  10  21  38  63  94 136 177 212 264 340 405
#     4   9  20  35  64  94 130 171 216 261 328 412
#
# _framework density 20.173639999999999
#
# number of rings (size 3 to 8) (size 9 to 14) (size 15 to 20)
#    0.000    1.250    3.750    3.000    5.250    1.000 
#    0.000    0.000    0.000    3.750    0.000    0.000 
#    0.000    0.000    0.000    0.000    0.000    0.000 
#
# Total GULP energy -198316.450244 kJ/mol
# GULP energy per Si atom -12394.778140 kJ/mol
# Density = 2.012772 g / cm^3
# Si number density = 20.173640 Si / 1000 Ang^3
#
#
#
# Elastic Constant Matrix: (Units=GPa)
#
#
# Indices 1 2 3 4 5 6 
#
# 1 106.0719 28.4411 54.4995 0.0000 -0.7777 0.0000
# 2 28.4411 78.1923 50.7565 0.0000 2.7049 0.0000
# 3 54.4995 50.7565 143.5905 -0.0002 -8.0865 -0.0001
# 4 0.0000 0.0000 -0.0002 23.8366 0.0000 -7.4854
# 5 -0.7777 2.7049 -8.0865 0.0000 34.8083 0.0000
# 6 0.0000 0.0000 -0.0001 -7.4854 0.0000 22.4714
#
#
#
# Elastic Compliance Matrix: (Units=1/GPa)
#
#
# Indices 1 2 3 4 5 6 
#
# 1 0.011915 -0.001768 -0.003926 0.000000 -0.000509 0.000000
# 2 -0.001768 0.017112 -0.005527 0.000000 -0.002653 0.000000
# 3 -0.003926 -0.005527 0.010566 0.000000 0.002796 0.000000
# 4 0.000000 0.000000 0.000000 0.046853 0.000000 0.015607
# 5 -0.000509 -0.002653 0.002796 0.000000 0.029573 0.000000
# 6 0.000000 0.000000 0.000000 0.015607 0.000000 0.049700
#
#
# Mechanical properties :
#
#
# Convention : Reuss Voigt Hill
#
# Bulk Modulus (GPa) = 58.30808 66.13876 62.22342
# Shear Modulus (GPa) = 25.78952 29.16710 27.47831
#
# Velocity S-wave (km/s) = 3.57932 3.80650 3.69465
# Velocity P-wave (km/s) = 6.78586 7.22324 7.00796
#
# Compressibility (1/GPa) = 0.01715028
#
# Stress axis : x y z
#
# Youngs Moduli (GPa) = 83.92738 58.44020 94.64700
#
# Poissons Ratio (x) = 0.10331 0.37159
# Poissons Ratio (y) = 0.14837 0.52312
# Poissons Ratio (z) = 0.32951 0.32300
#
# Static dielectric constant tensor:
#      x y z
#    x 3.609300 0.000000 -0.057600 
#    y 0.000000 3.724970 0.000000 
#    z -0.057600 0.000000 4.065730 
# 
# 
# High freq. dielectric constant tensor:
#      x y z
#    x 1.783270 0.000000 0.000100 
#    y 0.000000 1.780840 0.000000 
#    z 0.000100 0.000000 1.792780 
# 
# From -- ./inp_files/68400.got.cif
#   From: 2010.03.12/outbox.cif.g09.slc.cpg/sg5_35_cif.got.tgz:68400.got - 2010.03.31 09:47:26.
