data_PCOD8048790
_publ_section_title
;
Structure prediction by ZEFSAII (Michael W. Deem and Ramdas Pophale) SiO2 
 PCOD8048790
Probable space group: C 2
;
_chemical_formula_sum "Si O2"
_cell_formula_units_Z 32
_cell_length_a 11.236438
_cell_length_b 11.994287
_cell_length_c 23.569126
_cell_angle_alpha 90.000000
_cell_angle_beta 150.988030
_cell_angle_gamma 90.000000
_cell_volume 1540.570035
_symmetry_space_group_name_H-M "C 2"
_symmetry_group_IT_number 5
_symmetry_cell_setting 'monoclinic'
loop_
_space_group_symop_operation_xyz
x,y,z
-x,y,-z
1/2+x,1/2+y,z
1/2-x,1/2+y,-z
loop_
_atom_site_type_symbol
_atom_site_label
_atom_site_fract_x
_atom_site_fract_y
_atom_site_fract_z
Si Si1 0.039710 0.068100 0.714860
Si Si2 0.409455 0.068624 0.094541
Si Si3 0.009632 0.314115 0.669687
Si Si4 0.732342 0.515491 0.906640
Si Si5 0.285233 0.185781 0.620510
Si Si6 0.412667 0.369605 0.589606
Si Si7 0.993152 0.792727 0.177371
Si Si8 0.617039 0.955693 0.283403
O O1 0.321822 0.044603 0.818019
O O2 0.954759 0.181262 0.648827
O O3 0.029435 0.072703 0.780102
O O4 0.876300 0.965682 0.622591
O O5 0.358468 0.198231 0.084694
O O6 0.405397 0.996690 0.151075
O O7 0.200073 0.038782 0.960727
O O8 0.816677 0.373365 0.548218
O O9 0.994011 0.355139 0.727509
O O10 0.282616 0.345760 0.764198
O O11 0.707950 0.382905 0.889150
O O12 0.000000 0.556954 0.000000
O O13 0.420011 0.245928 0.622630
O O14 0.393728 0.238584 0.720984
O O15 0.000000 0.216289 0.500000
O O16 0.317183 0.052563 0.642629
O O17 0.649742 0.403306 0.651843
#
# Coordination Sequence:
#
# PCOD8048790 Si02
#       8
#     4   4   4   4   4   4   4   4
#     4   9  20  37  58  85 118 151 204 244 294 368
#     4   8  19  37  60  79 112 160 192 237 312 358
#     4  11  22  37  58  87 127 161 191 250 307 364
#     4  10  19  38  61  83 110 150 201 258 301 356
#     4  11  20  38  63  87 123 168 200 245 306 374
#     4  11  21  37  62  89 120 168 203 237 299 384
#     4  10  20  37  58  88 112 151 205 247 298 369
#     4  10  23  40  58  90 129 162 203 244 310 372
#
# _framework density 20.771532000000001
#
# number of rings (size 3 to 8) (size 9 to 14) (size 15 to 20)
#    0.000    2.000    2.500    1.875    1.750    1.000 
#    2.250    6.875    0.000    0.000    0.000    0.000 
#    0.000    0.000    0.000    0.000    0.000    0.000 
#
# Total GULP energy -198219.768237 kJ/mol
# GULP energy per Si atom -12388.735515 kJ/mol
# Density = 2.072425 g / cm^3
# Si number density = 20.771532 Si / 1000 Ang^3
#
#
#
# Elastic Constant Matrix: (Units=GPa)
#
#
# Indices 1 2 3 4 5 6 
#
# 1 65.6020 27.4043 15.6262 -0.0005 -12.6402 0.0000
# 2 27.4043 60.1345 18.7701 0.0010 -9.6381 0.0001
# 3 15.6262 18.7701 76.3462 -0.0026 -32.3708 0.0000
# 4 -0.0005 0.0010 -0.0026 18.6371 -0.0001 -6.3112
# 5 -12.6402 -9.6381 -32.3708 -0.0001 25.2197 0.0000
# 6 0.0000 0.0001 0.0000 -6.3112 0.0000 43.6584
#
#
#
# Elastic Compliance Matrix: (Units=1/GPa)
#
#
# Indices 1 2 3 4 5 6 
#
# 1 0.020021 -0.008216 0.001855 0.000001 0.009276 0.000000
# 2 -0.008216 0.021463 -0.004088 -0.000002 -0.001163 0.000000
# 3 0.001855 -0.004088 0.029522 0.000005 0.037261 0.000001
# 4 0.000001 -0.000002 0.000005 0.056418 0.000006 0.008156
# 5 0.009276 -0.001163 0.037261 0.000006 0.091682 0.000001
# 6 0.000000 0.000000 0.000001 0.008156 0.000001 0.024084
#
#
# Mechanical properties :
#
#
# Convention : Reuss Voigt Hill
#
# Bulk Modulus (GPa) = 19.95699 36.18710 28.07204
# Shear Modulus (GPa) = 17.80673 26.85519 22.33096
#
# Velocity S-wave (km/s) = 2.93109 3.59957 3.28239
# Velocity P-wave (km/s) = 4.59170 5.89366 5.28294
#
# Compressibility (1/GPa) = 0.05010775
#
# Stress axis : x y z
#
# Youngs Moduli (GPa) = 49.94741 46.59100 33.87273
#
# Poissons Ratio (x) = 0.38281 -0.06284
# Poissons Ratio (y) = 0.41038 0.13848
# Poissons Ratio (z) = -0.09266 0.19048
#
# Static dielectric constant tensor:
#      x y z
#    x 3.866320 0.000000 -0.581160 
#    y 0.000000 4.318200 0.000000 
#    z -0.581160 0.000000 3.750330 
# 
# 
# High freq. dielectric constant tensor:
#      x y z
#    x 1.798820 0.000000 -0.038140 
#    y 0.000000 1.811290 0.000000 
#    z -0.038140 0.000000 1.804860 
# 
# From -- ./inp_files/47507.got.cif
#   From: 2010.03.12/outbox.cif.g09.slc.cpg/sg5_24_cif.got.tgz:47507.got - 2010.03.31 09:47:26.
