data_PCOD8048583
_publ_section_title
;
Structure prediction by ZEFSAII (Michael W. Deem and Ramdas Pophale) SiO2 
 PCOD8048583
Probable space group: C 2
;
_chemical_formula_sum "Si O2"
_cell_formula_units_Z 32
_cell_length_a 8.756964
_cell_length_b 23.845807
_cell_length_c 14.586617
_cell_angle_alpha 90.000000
_cell_angle_beta 31.092175
_cell_angle_gamma 90.000000
_cell_volume 1572.969057
_symmetry_space_group_name_H-M "C 2"
_symmetry_group_IT_number 5
_symmetry_cell_setting 'monoclinic'
loop_
_space_group_symop_operation_xyz
x,y,z
-x,y,-z
1/2+x,1/2+y,z
1/2-x,1/2+y,-z
loop_
_atom_site_type_symbol
_atom_site_label
_atom_site_fract_x
_atom_site_fract_y
_atom_site_fract_z
Si Si1 0.647008 0.998980 0.325877
Si Si2 0.672398 0.397866 0.193281
Si Si3 0.191437 0.286671 0.809378
Si Si4 0.846513 0.697397 0.482541
Si Si5 0.833645 0.270751 0.811096
Si Si6 0.805638 0.080225 0.510334
Si Si7 0.849924 0.018934 0.814006
Si Si8 0.191495 0.373697 0.311304
O O1 0.500000 0.007809 0.500000
O O2 0.612559 0.934695 0.309656
O O3 0.479704 0.038904 0.339265
O O4 0.992845 0.017584 0.165284
O O5 0.651750 0.348277 0.279059
O O6 0.547070 0.459040 0.287509
O O7 0.527616 0.375017 0.173631
O O8 0.000000 0.413659 0.000000
O O9 0.449300 0.240892 0.677809
O O10 0.977800 0.280870 0.834490
O O11 0.000000 0.282548 0.000000
O O12 0.518862 0.723019 0.663668
O O13 0.817935 0.643031 0.434190
O O14 0.000000 0.682113 0.500000
O O15 0.845531 0.328071 0.747998
O O16 0.500000 0.249772 0.000000
O O17 0.000000 0.072045 0.500000
O O18 0.017738 0.068733 0.314723
O O19 0.500000 0.028543 0.000000
O O20 0.000000 0.359710 0.500000
#
# Coordination Sequence:
#
# PCOD8048583 Si02
#       8
#     4   4   4   4   4   4   4   4
#     4   8  17  36  58  80 113 152 186 228 283 338
#     4   9  17  32  56  84 114 146 179 223 282 340
#     4  10  21  39  61  85 115 150 187 236 292 342
#     4  10  23  42  59  77 109 153 195 236 286 341
#     4  11  23  36  57  88 117 151 192 232 281 342
#     4  11  23  38  57  82 110 145 190 239 287 335
#     4   9  18  35  60  84 110 149 187 223 278 341
#     4  10  19  34  57  84 115 152 188 229 281 335
#
# _framework density 20.343692999999998
#
# number of rings (size 3 to 8) (size 9 to 14) (size 15 to 20)
#    0.000    2.250    0.000    4.125    0.000    4.000 
#    0.000    4.375    0.000    0.000    0.000    0.000 
#    0.000    0.000    0.000    0.000    0.000    0.000 
#
# Total GULP energy -198269.534574 kJ/mol
# GULP energy per Si atom -12391.845911 kJ/mol
# Density = 2.029739 g / cm^3
# Si number density = 20.343693 Si / 1000 Ang^3
#
#
#
# Elastic Constant Matrix: (Units=GPa)
#
#
# Indices 1 2 3 4 5 6 
#
# 1 75.1669 29.6200 34.4883 -0.0001 -22.3057 0.0002
# 2 29.6200 91.8407 32.9471 0.0001 -14.8194 0.0001
# 3 34.4883 32.9471 100.7785 -0.0006 -24.4846 0.0006
# 4 -0.0001 0.0001 -0.0006 25.9080 0.0001 -4.4864
# 5 -22.3057 -14.8194 -24.4846 0.0001 36.2407 -0.0002
# 6 0.0002 0.0001 0.0006 -4.4864 -0.0002 33.3717
#
#
#
# Elastic Compliance Matrix: (Units=1/GPa)
#
#
# Indices 1 2 3 4 5 6 
#
# 1 0.018501 -0.003538 -0.003301 0.000000 0.007710 0.000000
# 2 -0.003538 0.013250 -0.002792 0.000000 0.001354 0.000000
# 3 -0.003301 -0.002792 0.013393 0.000000 0.005875 0.000000
# 4 0.000000 0.000000 0.000000 0.039518 0.000000 0.005313
# 5 0.007710 0.001354 0.005875 0.000000 0.036861 0.000000
# 6 0.000000 0.000000 0.000000 0.005313 0.000000 0.030680
#
#
# Mechanical properties :
#
#
# Convention : Reuss Voigt Hill
#
# Bulk Modulus (GPa) = 38.64047 51.32188 44.98118
# Shear Modulus (GPa) = 27.76370 30.48612 29.12491
#
# Velocity S-wave (km/s) = 3.69824 3.87532 3.78781
# Velocity P-wave (km/s) = 6.10500 6.73099 6.42562
#
# Compressibility (1/GPa) = 0.02587960
#
# Stress axis : x y z
#
# Youngs Moduli (GPa) = 54.05228 75.47393 74.66860
#
# Poissons Ratio (x) = 0.26705 0.24651
# Poissons Ratio (y) = 0.19126 0.20846
# Poissons Ratio (z) = 0.17845 0.21071
#
# Static dielectric constant tensor:
#      x y z
#    x 3.562020 0.000000 -0.479080 
#    y 0.000000 3.786920 0.000000 
#    z -0.479080 0.000000 3.856250 
# 
# 
# High freq. dielectric constant tensor:
#      x y z
#    x 1.779800 0.000000 -0.039500 
#    y 0.000000 1.798790 0.000000 
#    z -0.039500 0.000000 1.791910 
# 
# From -- ./inp_files/59918.got.cif
#   From: 2010.03.12/outbox.cif.g09.slc.cpg/sg5_30_cif.got.tgz:59918.got - 2010.03.31 09:47:26.
