data_PCOD8048071
_publ_section_title
;
Structure prediction by ZEFSAII (Michael W. Deem and Ramdas Pophale) SiO2 
 PCOD8048071
Probable space group: C 2
;
_chemical_formula_sum "Si O2"
_cell_formula_units_Z 30
_cell_length_a 14.477011
_cell_length_b 8.738603
_cell_length_c 24.409784
_cell_angle_alpha 90.000000
_cell_angle_beta 151.985648
_cell_angle_gamma 90.000000
_cell_volume 1450.436355
_symmetry_space_group_name_H-M "C 2"
_symmetry_group_IT_number 5
_symmetry_cell_setting 'monoclinic'
loop_
_space_group_symop_operation_xyz
x,y,z
-x,y,-z
1/2+x,1/2+y,z
1/2-x,1/2+y,-z
loop_
_atom_site_type_symbol
_atom_site_label
_atom_site_fract_x
_atom_site_fract_y
_atom_site_fract_z
Si Si1 0.680712 0.400260 0.275910
Si Si2 0.000000 0.014345 0.500000
Si Si3 0.902909 0.152838 0.154851
Si Si4 0.570087 0.260786 0.334286
Si Si5 0.031385 0.638938 0.890809
Si Si6 0.309942 0.532335 0.217048
Si Si7 0.523704 0.735615 0.412049
Si Si8 0.063240 0.465898 0.268413
O O1 0.605325 0.575365 0.238916
O O2 0.665091 0.326451 0.328113
O O3 0.546139 0.308321 0.162261
O O4 0.901684 0.388516 0.366583
O O5 0.973925 0.113207 0.432273
O O6 0.204579 0.920374 0.605784
O O7 0.799678 0.048002 0.146309
O O8 0.942833 0.309869 0.207984
O O9 0.755605 0.163193 0.026598
O O10 0.393401 0.358699 0.268321
O O11 0.744844 0.269712 0.470798
O O12 0.507667 0.084041 0.288867
O O13 0.907190 0.550680 0.872504
O O14 0.009510 0.537435 0.826034
O O15 0.454547 0.660576 0.318802
#
# Coordination Sequence:
#
# PCOD8048071 Si02
#       8
#     4   2   4   4   4   4   4   4
#     4   9  17  34  56  80 105 151 194 223 282 345
#     4  10  16  36  60  78 114 148 186 232 290 350
#     4  11  22  34  54  90 116 143 192 248 282 337
#     4   9  18  34  58  80 113 145 189 232 287 347
#     4  10  19  39  60  74 113 157 197 229 281 342
#     4  10  21  35  54  84 110 152 195 225 297 342
#     4  10  16  34  60  77 111 155 185 232 290 346
#     4  10  20  37  60  85 112 154 191 237 291 337
#
# _framework density 20.683430000000001
#
# number of rings (size 3 to 8) (size 9 to 14) (size 15 to 20)
#    0.000    2.133    5.333    1.200    0.000    2.133 
#    4.800    2.667    0.000    4.800    0.000    0.000 
#    0.000    0.000    0.000    0.000    0.000    0.000 
#
# Total GULP energy -185852.012087 kJ/mol
# GULP energy per Si atom -12390.134139 kJ/mol
# Density = 2.063635 g / cm^3
# Si number density = 20.683430 Si / 1000 Ang^3
#
#
#
# Elastic Constant Matrix: (Units=GPa)
#
#
# Indices 1 2 3 4 5 6 
#
# 1 40.7335 17.0694 8.3361 -0.0001 -1.9439 0.0000
# 2 17.0694 96.0873 31.2014 -0.0003 16.6906 0.0000
# 3 8.3361 31.2014 106.9541 0.0008 0.0697 -0.0001
# 4 -0.0001 -0.0003 0.0008 19.7438 0.0000 6.6055
# 5 -1.9439 16.6906 0.0697 0.0000 23.1569 -0.0001
# 6 0.0000 0.0000 -0.0001 6.6055 -0.0001 28.3314
#
#
#
# Elastic Compliance Matrix: (Units=1/GPa)
#
#
# Indices 1 2 3 4 5 6 
#
# 1 0.027406 -0.005863 -0.000430 0.000000 0.006528 0.000000
# 2 -0.005863 0.014590 -0.003792 0.000000 -0.010997 0.000000
# 3 -0.000430 -0.003792 0.010488 -0.000001 0.002666 0.000000
# 4 0.000000 0.000000 -0.000001 0.054934 0.000000 -0.012808
# 5 0.006528 -0.010997 0.002666 0.000000 0.051650 0.000000
# 6 0.000000 0.000000 0.000000 -0.012808 0.000000 0.038283
#
#
# Mechanical properties :
#
#
# Convention : Reuss Voigt Hill
#
# Bulk Modulus (GPa) = 30.94608 39.66540 35.30574
# Shear Modulus (GPa) = 21.90176 26.72430 24.31303
#
# Velocity S-wave (km/s) = 3.25761 3.59843 3.43225
# Velocity P-wave (km/s) = 5.39848 6.04019 5.72833
#
# Compressibility (1/GPa) = 0.03231427
#
# Stress axis : x y z
#
# Youngs Moduli (GPa) = 36.48818 68.53869 95.34815
#
# Poissons Ratio (x) = 0.40183 0.04100
# Poissons Ratio (y) = 0.21392 0.36159
# Poissons Ratio (z) = 0.01569 0.25992
#
# Static dielectric constant tensor:
#      x y z
#    x 3.480260 0.000000 -0.037400 
#    y 0.000000 3.672980 0.000000 
#    z -0.037400 0.000000 3.910330 
# 
# 
# High freq. dielectric constant tensor:
#      x y z
#    x 1.783080 0.000000 -0.013530 
#    y 0.000000 1.786420 0.000000 
#    z -0.013530 0.000000 1.818490 
# 
# From -- ./inp_files/57630.got.cif
#   From: 2010.03.12/outbox.cif.g09.slc.cpg/sg5_29_cif.got.tgz:57630.got - 2010.03.31 09:47:26.
