data_PCOD8048526
_publ_section_title
;
Structure prediction by ZEFSAII (Michael W. Deem and Ramdas Pophale) SiO2 
 PCOD8048526
Probable space group: C 2
;
_chemical_formula_sum "Si O2"
_cell_formula_units_Z 28
_cell_length_a 12.421390
_cell_length_b 7.901061
_cell_length_c 14.654581
_cell_angle_alpha 90.000000
_cell_angle_beta 115.348055
_cell_angle_gamma 90.000000
_cell_volume 1299.764699
_symmetry_space_group_name_H-M "C 2"
_symmetry_group_IT_number 5
_symmetry_cell_setting 'monoclinic'
loop_
_space_group_symop_operation_xyz
x,y,z
-x,y,-z
1/2+x,1/2+y,z
1/2-x,1/2+y,-z
loop_
_atom_site_type_symbol
_atom_site_label
_atom_site_fract_x
_atom_site_fract_y
_atom_site_fract_z
Si Si1 0.781614 0.746450 0.744035
Si Si2 0.723651 0.218652 0.764896
Si Si3 0.639821 0.071668 0.910622
Si Si4 0.804066 0.042347 0.133536
Si Si5 0.064523 0.454321 0.618517
Si Si6 0.501021 0.417221 0.895940
Si Si7 0.920862 0.415011 0.743541
O O1 0.734617 0.711556 0.829668
O O2 0.838645 0.584532 0.715129
O O3 0.876219 0.895587 0.798074
O O4 0.672135 0.819263 0.645734
O O5 0.731589 0.097189 0.858046
O O6 0.681446 0.401337 0.783132
O O7 0.620973 0.137019 0.664435
O O8 0.847048 0.251025 0.753768
O O9 0.581791 0.249944 0.916219
O O10 0.534483 0.941145 0.849786
O O11 0.707105 0.992106 0.021455
O O12 0.932001 0.069462 0.132766
O O13 0.000000 0.474990 0.500000
O O14 0.967132 0.389877 0.657040
O O15 0.500000 0.470646 0.000000
#
# Coordination Sequence:
#
# PCOD8048526 Si02
#       7
#     4   4   4   4   4   4   4
#     4  10  22  41  60  84 125 160 201 250 298 362
#     4   9  21  38  60  89 121 158 203 251 298 358
#     4   9  18  34  59  88 131 166 194 232 289 360
#     4  10  20  37  60  90 128 166 202 238 289 364
#     4  11  25  44  65  88 116 156 209 269 318 359
#     4  10  19  32  56  87 123 165 191 233 291 342
#     4   9  21  41  62  89 123 160 199 251 307 363
#
# _framework density 21.542359999999999
#
# number of rings (size 3 to 8) (size 9 to 14) (size 15 to 20)
#    0.000    2.286    1.429    0.857    4.000    2.286 
#    0.000    4.286    0.000    0.000    0.000    0.000 
#    0.000    0.000    0.000    0.000    0.000    0.000 
#
# Total GULP energy -173501.777811 kJ/mol
# GULP energy per Si atom -12392.984129 kJ/mol
# Density = 2.149333 g / cm^3
# Si number density = 21.542360 Si / 1000 Ang^3
#
#
#
# Elastic Constant Matrix: (Units=GPa)
#
#
# Indices 1 2 3 4 5 6 
#
# 1 142.1577 36.4416 44.8616 0.0000 0.9710 0.0000
# 2 36.4416 50.2222 27.7720 0.0000 8.2374 0.0000
# 3 44.8616 27.7720 133.4314 0.0000 13.6765 0.0000
# 4 0.0000 0.0000 0.0000 23.0019 0.0000 6.8152
# 5 0.9710 8.2374 13.6765 0.0000 24.6694 0.0000
# 6 0.0000 0.0000 0.0000 6.8152 0.0000 39.7637
#
#
#
# Elastic Compliance Matrix: (Units=1/GPa)
#
#
# Indices 1 2 3 4 5 6 
#
# 1 0.009223 -0.005967 -0.002148 0.000000 0.002820 0.000000
# 2 -0.005967 0.027012 -0.002879 0.000000 -0.007189 0.000000
# 3 -0.002148 -0.002879 0.009233 0.000000 -0.004073 0.000000
# 4 0.000000 0.000000 0.000000 0.045801 0.000000 -0.007850
# 5 0.002820 -0.007189 -0.004073 0.000000 0.045083 0.000000
# 6 0.000000 0.000000 0.000000 -0.007850 0.000000 0.026494
#
#
# Mechanical properties :
#
#
# Convention : Reuss Voigt Hill
#
# Bulk Modulus (GPa) = 42.58895 60.44019 51.51457
# Shear Modulus (GPa) = 25.95234 31.93607 28.94420
#
# Velocity S-wave (km/s) = 3.47466 3.85447 3.66948
# Velocity P-wave (km/s) = 5.99254 6.92291 6.47445
#
# Compressibility (1/GPa) = 0.02348027
#
# Stress axis : x y z
#
# Youngs Moduli (GPa) = 108.42965 37.02018 108.30232
#
# Poissons Ratio (x) = 0.22089 0.23262
# Poissons Ratio (y) = 0.64697 0.31184
# Poissons Ratio (z) = 0.23290 0.10659
#
# Static dielectric constant tensor:
#      x y z
#    x 4.520720 0.000000 -0.089130 
#    y 0.000000 3.841870 0.000000 
#    z -0.089130 0.000000 3.427210 
# 
# 
# High freq. dielectric constant tensor:
#      x y z
#    x 1.871520 0.000000 -0.000470 
#    y 0.000000 1.842870 0.000000 
#    z -0.000470 0.000000 1.802010 
# 
# From -- ./inp_files/52187.got.cif
#   From: 2010.03.12/outbox.cif.g09.slc.cpg/sg5_27_cif.got.tgz:52187.got - 2010.03.31 09:47:26.
