data_PCOD8048874
_publ_section_title
;
Structure prediction by ZEFSAII (Michael W. Deem and Ramdas Pophale) SiO2 
 PCOD8048874
Probable space group: C 2
;
_chemical_formula_sum "Si O2"
_cell_formula_units_Z 24
_cell_length_a 9.008082
_cell_length_b 19.305003
_cell_length_c 12.520247
_cell_angle_alpha 90.000000
_cell_angle_beta 34.557744
_cell_angle_gamma 90.000000
_cell_volume 1235.035061
_symmetry_space_group_name_H-M "C 2"
_symmetry_group_IT_number 5
_symmetry_cell_setting 'monoclinic'
loop_
_space_group_symop_operation_xyz
x,y,z
-x,y,-z
1/2+x,1/2+y,z
1/2-x,1/2+y,-z
loop_
_atom_site_type_symbol
_atom_site_label
_atom_site_fract_x
_atom_site_fract_y
_atom_site_fract_z
Si Si1 0.683039 0.087170 0.298442
Si Si2 0.297868 0.864014 0.323993
Si Si3 0.208597 0.438731 0.209935
Si Si4 0.246904 0.153659 0.951263
Si Si5 0.500000 0.783931 0.000000
Si Si6 0.000000 0.698614 0.000000
Si Si7 0.065139 0.295541 0.345274
O O1 0.500000 0.118381 0.500000
O O2 0.591401 0.116306 0.238379
O O3 0.636374 0.004667 0.324630
O O4 0.980984 0.112528 0.137394
O O5 0.504162 0.926035 0.231463
O O6 0.360907 0.832308 0.170360
O O7 0.322710 0.806941 0.406048
O O8 0.000000 0.891835 0.500000
O O9 0.207909 0.369537 0.283374
O O10 0.500000 0.453690 0.000000
O O11 0.433984 0.148848 0.941301
O O12 0.201168 0.233733 0.943791
O O13 0.751951 0.744814 0.171797
O O14 0.000000 0.263719 0.500000
#
# Coordination Sequence:
#
# PCOD8048874 Si02
#       7
#     4   4   4   4   2   2   4
#     4  10  21  42  65  84 112 163 210 253 301 356
#     4  10  23  36  60  98 124 154 200 248 307 365
#     4  10  19  40  65  88 120 159 206 245 313 367
#     4  10  23  38  63  85 118 163 208 243 298 363
#     4  10  20  40  58  88 126 162 190 246 308 364
#     4  12  22  42  56  94 126 158 206 246 304 358
#     4  10  22  36  63  92 120 160 191 254 310 371
#
# _framework density 19.432648
#
# number of rings (size 3 to 8) (size 9 to 14) (size 15 to 20)
#    1.000    1.000    4.167    0.500    2.333    4.000 
#    0.000    2.500    0.000    0.000    0.000    0.000 
#    0.000    0.000    0.000    0.000    0.000    0.000 
#
# Total GULP energy -148659.408714 kJ/mol
# GULP energy per Si atom -12388.284060 kJ/mol
# Density = 1.938842 g / cm^3
# Si number density = 19.432648 Si / 1000 Ang^3
#
#
#
# Elastic Constant Matrix: (Units=GPa)
#
#
# Indices 1 2 3 4 5 6 
#
# 1 135.4999 22.8526 48.5815 -0.0297 4.1796 -0.0060
# 2 22.8526 65.4792 24.2602 -0.0631 -1.9981 -0.0081
# 3 48.5815 24.2602 123.7401 -0.2879 12.6903 -0.0396
# 4 -0.0297 -0.0631 -0.2879 100.4346 0.1046 18.7669
# 5 4.1796 -1.9981 12.6903 0.1046 32.0888 0.0130
# 6 -0.0060 -0.0081 -0.0396 18.7669 0.0130 14.3875
#
#
#
# Elastic Compliance Matrix: (Units=1/GPa)
#
#
# Indices 1 2 3 4 5 6 
#
# 1 0.008811 -0.001938 -0.003074 -0.000008 -0.000053 0.000005
# 2 -0.001938 0.017074 -0.002837 0.000000 0.002437 -0.000001
# 3 -0.003074 -0.002837 0.010237 0.000033 -0.003825 -0.000015
# 4 -0.000008 0.000000 0.000033 0.013166 -0.000048 -0.017173
# 5 -0.000053 0.002437 -0.003825 -0.000048 0.032835 0.000024
# 6 0.000005 -0.000001 -0.000015 -0.017173 0.000024 0.091905
#
#
# Mechanical properties :
#
#
# Convention : Reuss Voigt Hill
#
# Bulk Modulus (GPa) = 48.96046 57.34531 53.15289
# Shear Modulus (GPa) = 25.44124 44.65050 35.04587
#
# Velocity S-wave (km/s) = 3.62221 4.79864 4.25132
# Velocity P-wave (km/s) = 6.53786 7.76379 7.17705
#
# Compressibility (1/GPa) = 0.02042465
#
# Stress axis : x y z
#
# Youngs Moduli (GPa) = 113.49989 58.56980 97.68731
#
# Poissons Ratio (x) = 0.11349 0.30028
# Poissons Ratio (y) = 0.21993 0.27710
# Poissons Ratio (z) = 0.34888 0.16614
#
# Static dielectric constant tensor:
#      x y z
#    x 3.481590 -0.000020 0.157260 
#    y -0.000020 3.352200 -0.000010 
#    z 0.157260 -0.000010 3.418020 
# 
# 
# High freq. dielectric constant tensor:
#      x y z
#    x 1.747530 0.000000 0.013070 
#    y 0.000000 1.736350 0.000000 
#    z 0.013070 0.000000 1.755410 
# 
# From -- ./inp_files/37131.got.cif
#   From: 2010.03.12/outbox.cif.g09.slc.cpg/sg5_19_cif.got.tgz:37131.got - 2010.03.31 09:47:26.
