data_PCOD8048690
_publ_section_title
;
Structure prediction by ZEFSAII (Michael W. Deem and Ramdas Pophale) SiO2 
 PCOD8048690
Probable space group: C 2
;
_chemical_formula_sum "Si O2"
_cell_formula_units_Z 32
_cell_length_a 28.281466
_cell_length_b 8.729163
_cell_length_c 22.009842
_cell_angle_alpha 90.000000
_cell_angle_beta 162.088704
_cell_angle_gamma 90.000000
_cell_volume 1671.086830
_symmetry_space_group_name_H-M "C 2"
_symmetry_group_IT_number 5
_symmetry_cell_setting 'monoclinic'
loop_
_space_group_symop_operation_xyz
x,y,z
-x,y,-z
1/2+x,1/2+y,z
1/2-x,1/2+y,-z
loop_
_atom_site_type_symbol
_atom_site_label
_atom_site_fract_x
_atom_site_fract_y
_atom_site_fract_z
Si Si1 0.682653 0.632560 0.852995
Si Si2 0.399326 0.500234 0.721716
Si Si3 0.674819 0.410261 0.539362
Si Si4 0.094713 0.030066 0.559942
Si Si5 0.018136 0.251648 0.094019
Si Si6 0.132526 0.527601 0.029781
Si Si7 0.881871 0.919720 0.116511
Si Si8 0.699986 0.166314 0.383037
O O1 0.515607 0.641086 0.615136
O O2 0.797286 0.528250 0.952333
O O3 0.675058 0.559704 0.910852
O O4 0.742551 0.804865 0.933319
O O5 0.476237 0.578322 0.874927
O O6 0.548121 0.473538 0.861589
O O7 0.302115 0.350357 0.622146
O O8 0.275467 0.611731 0.538399
O O9 0.658016 0.399891 0.591618
O O10 0.816120 0.317954 0.686163
O O11 0.521969 0.336626 0.323310
O O12 0.700309 0.589218 0.549472
O O13 0.244752 0.110390 0.773943
O O14 0.000000 0.953636 0.500000
O O15 0.000000 0.256269 0.000000
O O16 0.892523 0.353448 0.976704
O O17 0.977639 0.622059 0.840624
#
# Coordination Sequence:
#
# PCOD8048690 Si02
#       8
#     4   4   4   4   4   4   4   4
#     4  10  21  36  60  85 116 161 197 250 288 348
#     4  11  22  40  57  89 123 149 200 250 306 357
#     4   9  19  38  59  88 116 151 197 247 292 368
#     4   9  18  35  57  84 110 153 200 235 276 355
#     4  11  22  37  60  88 121 156 193 242 308 361
#     4  10  19  36  62  83 114 156 201 238 296 352
#     4  10  21  38  58  87 120 150 205 245 298 346
#     4  10  20  36  61  86 116 152 186 254 302 354
#
# _framework density 19.149214000000001
#
# number of rings (size 3 to 8) (size 9 to 14) (size 15 to 20)
#    0.000    2.000    2.500    2.250    1.750    0.000 
#    4.500    0.000    0.000    0.000    0.000    0.000 
#    0.000    0.000    0.000    0.000    0.000    0.000 
#
# Total GULP energy -198213.855831 kJ/mol
# GULP energy per Si atom -12388.365989 kJ/mol
# Density = 1.910563 g / cm^3
# Si number density = 19.149214 Si / 1000 Ang^3
#
#
#
# Elastic Constant Matrix: (Units=GPa)
#
#
# Indices 1 2 3 4 5 6 
#
# 1 93.3953 27.0942 15.0551 0.0000 0.0999 0.0001
# 2 27.0942 95.1366 28.4515 0.0000 -6.3052 0.0001
# 3 15.0551 28.4515 90.7352 0.0000 6.3327 0.0001
# 4 0.0000 0.0000 0.0000 24.8403 0.0000 1.6822
# 5 0.0999 -6.3052 6.3327 0.0000 21.8839 0.0001
# 6 0.0001 0.0001 0.0001 1.6822 0.0001 19.0558
#
#
#
# Elastic Compliance Matrix: (Units=1/GPa)
#
#
# Indices 1 2 3 4 5 6 
#
# 1 0.011762 -0.003118 -0.000926 0.000000 -0.000684 0.000000
# 2 -0.003118 0.012873 -0.003857 0.000000 0.004840 0.000000
# 3 -0.000926 -0.003857 0.012718 0.000000 -0.004787 0.000000
# 4 0.000000 0.000000 0.000000 0.040499 0.000000 -0.003575
# 5 -0.000684 0.004840 -0.004787 0.000000 0.048479 0.000000
# 6 0.000000 0.000000 0.000000 -0.003575 0.000000 0.052793
#
#
# Mechanical properties :
#
#
# Convention : Reuss Voigt Hill
#
# Bulk Modulus (GPa) = 46.40142 46.71876 46.56009
# Shear Modulus (GPa) = 24.73892 27.06707 25.90300
#
# Velocity S-wave (km/s) = 3.59820 3.76371 3.68189
# Velocity P-wave (km/s) = 6.44569 6.58312 6.51477
#
# Compressibility (1/GPa) = 0.02155107
#
# Stress axis : x y z
#
# Youngs Moduli (GPa) = 85.02142 77.67927 78.62664
#
# Poissons Ratio (x) = 0.24221 0.07282
# Poissons Ratio (y) = 0.26510 0.30327
# Poissons Ratio (z) = 0.07874 0.29962
#
# Static dielectric constant tensor:
#      x y z
#    x 3.718500 0.000000 0.059600 
#    y 0.000000 3.136100 0.000000 
#    z 0.059600 0.000000 3.732270 
# 
# 
# High freq. dielectric constant tensor:
#      x y z
#    x 1.758590 0.000000 0.002490 
#    y 0.000000 1.695150 0.000000 
#    z 0.002490 0.000000 1.759730 
# 
# From -- ./inp_files/67561.got.cif
#   From: 2010.03.12/outbox.cif.g09.slc.cpg/sg5_34_cif.got.tgz:67561.got - 2010.03.31 09:47:26.
