data_PCOD8048076
_publ_section_title
;
Structure prediction by ZEFSAII (Michael W. Deem and Ramdas Pophale) SiO2 
 PCOD8048076
Probable space group: C 2
;
_chemical_formula_sum "Si O2"
_cell_formula_units_Z 28
_cell_length_a 5.046295
_cell_length_b 19.139684
_cell_length_c 14.216924
_cell_angle_alpha 90.000000
_cell_angle_beta 108.289544
_cell_angle_gamma 90.000000
_cell_volume 1303.767423
_symmetry_space_group_name_H-M "C 2"
_symmetry_group_IT_number 5
_symmetry_cell_setting 'monoclinic'
loop_
_space_group_symop_operation_xyz
x,y,z
-x,y,-z
1/2+x,1/2+y,z
1/2-x,1/2+y,-z
loop_
_atom_site_type_symbol
_atom_site_label
_atom_site_fract_x
_atom_site_fract_y
_atom_site_fract_z
Si Si1 0.000000 0.162670 0.000000
Si Si2 0.520466 0.258271 0.400388
Si Si3 0.401736 0.639177 0.686684
Si Si4 0.718609 0.733348 0.849357
Si Si5 0.271231 0.553344 0.842212
Si Si6 0.316846 0.965876 0.888938
Si Si7 0.333492 0.317566 0.201778
Si Si8 0.000000 0.154364 0.500000
O O1 0.224162 0.118354 0.085534
O O2 0.799938 0.208230 0.044884
O O3 0.500000 0.296238 0.500000
O O4 0.255802 0.211202 0.347795
O O5 0.531076 0.315015 0.317730
O O6 0.772194 0.204816 0.429745
O O7 0.677325 0.665809 0.774754
O O8 0.243495 0.581242 0.731785
O O9 0.431357 0.606401 0.583973
O O10 0.476799 0.791421 0.810786
O O11 0.017469 0.769003 0.860841
O O12 0.563327 0.514428 0.891955
O O13 0.005891 0.504225 0.831677
O O14 0.179332 0.896939 0.831617
O O15 0.500000 0.946840 0.000000
#
# Coordination Sequence:
#
# PCOD8048076 Si02
#       8
#     2   4   4   4   4   4   4   2
#     4  10  22  40  62  94 128 162 208 278 328 386
#     4   9  19  36  62  96 128 161 199 265 350 395
#     4   9  20  34  63  95 128 161 204 269 325 402
#     4  10  22  37  61  94 125 161 201 270 337 373
#     4  11  24  42  65  89 128 173 230 256 317 385
#     4  12  25  44  64  88 126 188 224 264 305 373
#     4  11  23  41  62  92 131 164 219 260 321 390
#     4  10  16  34  64 100 128 158 200 258 360 392
#
# _framework density 21.476223999999998
#
# number of rings (size 3 to 8) (size 9 to 14) (size 15 to 20)
#    0.000    1.714    2.857    0.857    3.000    5.143 
#    0.000    0.000    1.571    0.000    0.000    0.000 
#    0.000    0.000    0.000    0.000    0.000    0.000 
#
# Total GULP energy -173504.757615 kJ/mol
# GULP energy per Si atom -12393.196972 kJ/mol
# Density = 2.142734 g / cm^3
# Si number density = 21.476224 Si / 1000 Ang^3
#
#
#
# Elastic Constant Matrix: (Units=GPa)
#
#
# Indices 1 2 3 4 5 6 
#
# 1 79.0953 22.1114 25.1939 0.0000 -20.1362 0.0000
# 2 22.1114 83.2796 52.5937 0.0000 -20.6242 0.0000
# 3 25.1939 52.5937 148.8787 0.0000 -41.6363 0.0000
# 4 0.0000 0.0000 0.0000 16.2403 0.0000 0.0587
# 5 -20.1362 -20.6242 -41.6363 0.0000 35.5880 0.0000
# 6 0.0000 0.0000 0.0000 0.0587 0.0000 32.5450
#
#
#
# Elastic Compliance Matrix: (Units=1/GPa)
#
#
# Indices 1 2 3 4 5 6 
#
# 1 0.015128 -0.002387 0.000431 0.000000 0.007681 0.000000
# 2 -0.002387 0.016190 -0.004562 0.000000 0.002695 0.000000
# 3 0.000431 -0.004562 0.011273 0.000000 0.010789 0.000000
# 4 0.000000 0.000000 0.000000 0.061576 0.000000 -0.000111
# 5 0.007681 0.002695 0.010789 0.000000 0.046630 0.000000
# 6 0.000000 0.000000 0.000000 -0.000111 0.000000 0.030727
#
#
# Mechanical properties :
#
#
# Convention : Reuss Voigt Hill
#
# Bulk Modulus (GPa) = 33.83376 56.78350 45.30863
# Shear Modulus (GPa) = 24.46068 30.96495 27.71282
#
# Velocity S-wave (km/s) = 3.37852 3.80126 3.59610
# Velocity P-wave (km/s) = 5.56843 6.76488 6.19561
#
# Compressibility (1/GPa) = 0.02955627
#
# Stress axis : x y z
#
# Youngs Moduli (GPa) = 66.10104 61.76770 88.71006
#
# Poissons Ratio (x) = 0.14743 -0.03826
# Poissons Ratio (y) = 0.15777 0.40467
# Poissons Ratio (z) = -0.02851 0.28176
#
# Static dielectric constant tensor:
#      x y z
#    x 3.907380 0.000000 -0.367800 
#    y 0.000000 3.547640 0.000000 
#    z -0.367800 0.000000 4.433310 
# 
# 
# High freq. dielectric constant tensor:
#      x y z
#    x 1.850880 0.000000 -0.009700 
#    y 0.000000 1.795990 0.000000 
#    z -0.009700 0.000000 1.858300 
# 
# From -- ./inp_files/49387.got.cif
#   From: 2010.03.12/outbox.cif.g09.slc.cpg/sg5_25_cif.got.tgz:49387.got - 2010.03.31 09:47:26.
