data_PCOD8048688
_publ_section_title
;
Structure prediction by ZEFSAII (Michael W. Deem and Ramdas Pophale) SiO2 
 PCOD8048688
Probable space group: C 2
;
_chemical_formula_sum "Si O2"
_cell_formula_units_Z 24
_cell_length_a 13.077042
_cell_length_b 7.890939
_cell_length_c 11.378761
_cell_angle_alpha 90.000000
_cell_angle_beta 115.724008
_cell_angle_gamma 90.000000
_cell_volume 1057.809513
_symmetry_space_group_name_H-M "C 2"
_symmetry_group_IT_number 5
_symmetry_cell_setting 'monoclinic'
loop_
_space_group_symop_operation_xyz
x,y,z
-x,y,-z
1/2+x,1/2+y,z
1/2-x,1/2+y,-z
loop_
_atom_site_type_symbol
_atom_site_label
_atom_site_fract_x
_atom_site_fract_y
_atom_site_fract_z
Si Si1 0.774565 0.856260 0.137366
Si Si2 0.911440 0.608981 0.053440
Si Si3 0.104443 0.106373 0.632534
Si Si4 0.793231 0.636661 0.348846
Si Si5 0.514398 0.945940 0.676891
Si Si6 0.729019 0.833725 0.528656
O O1 0.841719 0.773333 0.061692
O O2 0.728003 0.706530 0.200226
O O3 0.861657 0.956259 0.264275
O O4 0.673769 0.970663 0.041590
O O5 0.983705 0.519507 0.191308
O O6 0.000000 0.671778 0.000000
O O7 0.073716 0.263282 0.701825
O O8 0.206110 0.165959 0.595669
O O9 0.000000 0.047171 0.500000
O O10 0.918320 0.573470 0.375585
O O11 0.805037 0.785066 0.454089
O O12 0.715157 0.482251 0.362541
O O13 0.386651 0.926345 0.570216
#
# Coordination Sequence:
#
# PCOD8048688 Si02
#       6
#     4   4   4   4   4   4
#     4  11  23  41  62  91 126 165 214 265 309 367
#     4  11  24  43  66  88 122 169 215 262 312 366
#     4   9  19  37  61  90 128 161 197 257 317 372
#     4  10  20  34  58  88 120 157 197 244 303 366
#     4   9  20  39  60  87 124 160 199 254 308 362
#     4  10  19  36  61  92 124 160 197 242 313 379
#
# _framework density 22.688395
#
# number of rings (size 3 to 8) (size 9 to 14) (size 15 to 20)
#    0.000    2.000    0.000    4.500    0.000    2.667 
#    0.000   16.667    0.000    0.000    0.000    0.000 
#    0.000    0.000    0.000    0.000    0.000    0.000 
#
# Total GULP energy -148748.787226 kJ/mol
# GULP energy per Si atom -12395.732269 kJ/mol
# Density = 2.263676 g / cm^3
# Si number density = 22.688395 Si / 1000 Ang^3
#
#
#
# Elastic Constant Matrix: (Units=GPa)
#
#
# Indices 1 2 3 4 5 6 
#
# 1 96.3607 55.7025 50.4407 0.0000 -32.8765 0.0000
# 2 55.7025 106.6496 62.8227 0.0000 -9.2143 0.0000
# 3 50.4407 62.8227 102.1168 0.0000 -24.3950 0.0000
# 4 0.0000 0.0000 0.0000 49.4168 0.0000 -5.9941
# 5 -32.8765 -9.2143 -24.3950 0.0000 39.6030 0.0000
# 6 0.0000 0.0000 0.0000 -5.9941 0.0000 28.2687
#
#
#
# Elastic Compliance Matrix: (Units=1/GPa)
#
#
# Indices 1 2 3 4 5 6 
#
# 1 0.021414 -0.009026 -0.001500 0.000000 0.014753 0.000000
# 2 -0.009026 0.018728 -0.009160 0.000000 -0.008778 0.000000
# 3 -0.001500 -0.009160 0.018013 0.000000 0.007719 0.000000
# 4 0.000000 0.000000 0.000000 0.020770 0.000000 0.004404
# 5 0.014753 -0.008778 0.007719 0.000000 0.040210 0.000000
# 6 0.000000 0.000000 0.000000 0.004404 0.000000 0.036309
#
#
# Mechanical properties :
#
#
# Convention : Reuss Voigt Hill
#
# Bulk Modulus (GPa) = 53.24184 71.45099 62.34641
# Shear Modulus (GPa) = 24.86589 32.53511 28.70050
#
# Velocity S-wave (km/s) = 3.31414 3.79092 3.56052
# Velocity P-wave (km/s) = 6.17756 7.12195 6.66650
#
# Compressibility (1/GPa) = 0.01878222
#
# Stress axis : x y z
#
# Youngs Moduli (GPa) = 46.69862 53.39511 55.51439
#
# Poissons Ratio (x) = 0.48195 0.08329
# Poissons Ratio (y) = 0.42150 0.50853
# Poissons Ratio (z) = 0.07006 0.48912
#
# Static dielectric constant tensor:
#      x y z
#    x 3.846550 0.000000 -0.430980 
#    y 0.000000 4.438200 0.000000 
#    z -0.430980 0.000000 4.450570 
# 
# 
# High freq. dielectric constant tensor:
#      x y z
#    x 1.871740 0.000000 -0.031510 
#    y 0.000000 1.910920 0.000000 
#    z -0.031510 0.000000 1.893430 
# 
# From -- ./inp_files/41329.got.cif
#   From: 2010.03.12/outbox.cif.g09.slc.cpg/sg5_21_cif.got.tgz:41329.got - 2010.03.31 09:47:26.
