data_PCOD8048477
_publ_section_title
;
Structure prediction by ZEFSAII (Michael W. Deem and Ramdas Pophale) SiO2 
 PCOD8048477
Probable space group: C 2
;
_chemical_formula_sum "Si O2"
_cell_formula_units_Z 30
_cell_length_a 10.984558
_cell_length_b 11.406962
_cell_length_c 18.698205
_cell_angle_alpha 90.000000
_cell_angle_beta 146.306751
_cell_angle_gamma 90.000000
_cell_volume 1299.711579
_symmetry_space_group_name_H-M "C 2"
_symmetry_group_IT_number 5
_symmetry_cell_setting 'monoclinic'
loop_
_space_group_symop_operation_xyz
x,y,z
-x,y,-z
1/2+x,1/2+y,z
1/2-x,1/2+y,-z
loop_
_atom_site_type_symbol
_atom_site_label
_atom_site_fract_x
_atom_site_fract_y
_atom_site_fract_z
Si Si1 0.659929 0.268710 0.311757
Si Si2 0.542403 0.097032 0.370346
Si Si3 0.722097 0.596999 0.739665
Si Si4 0.744857 0.933263 0.363907
Si Si5 0.870781 0.201889 0.767369
Si Si6 0.830043 0.300928 0.972850
Si Si7 0.000000 0.529024 0.000000
Si Si8 0.178078 0.025118 0.372620
O O1 0.688727 0.189138 0.396691
O O2 0.810483 0.219925 0.319588
O O3 0.413841 0.258848 0.161471
O O4 0.735367 0.397027 0.371214
O O5 0.298031 0.152135 0.254861
O O6 0.605931 0.082618 0.485544
O O7 0.584910 0.970036 0.352622
O O8 0.848004 0.508402 0.748224
O O9 0.496796 0.529319 0.648247
O O10 0.865697 0.613791 0.881464
O O11 0.730459 0.797493 0.336358
O O12 0.000000 0.966347 0.500000
O O13 0.932084 0.094897 0.746224
O O14 0.089602 0.255369 0.910256
O O15 0.000000 0.242532 0.000000
O O16 0.839663 0.442911 0.968077
#
# Coordination Sequence:
#
# PCOD8048477 Si02
#       8
#     4   4   4   4   4   4   2   4
#     4  11  25  43  67 100 133 177 233 278 337 413
#     4  11  24  43  69  98 131 178 228 284 337 414
#     4  11  23  41  68  99 125 179 228 275 343 399
#     4  11  21  41  69  94 132 174 232 278 333 414
#     4  12  25  42  66 104 132 182 226 278 352 405
#     4  10  19  41  71  90 134 173 223 288 327 407
#     4  10  18  40  70  90 128 172 236 272 334 408
#     4  12  25  43  65  96 146 176 219 289 342 414
#
# _framework density 23.082042999999999
#
# number of rings (size 3 to 8) (size 9 to 14) (size 15 to 20)
#    0.400    0.533    5.333    2.000    3.733    1.067 
#    2.400    0.000    1.467    0.000    0.000    0.000 
#    0.000    0.000    0.000    0.000    0.000    0.000 
#
# Total GULP energy -185862.756459 kJ/mol
# GULP energy per Si atom -12390.850431 kJ/mol
# Density = 2.302951 g / cm^3
# Si number density = 23.082043 Si / 1000 Ang^3
#
#
#
# Elastic Constant Matrix: (Units=GPa)
#
#
# Indices 1 2 3 4 5 6 
#
# 1 76.0716 46.2635 11.5784 0.0000 -18.6737 0.0000
# 2 46.2635 130.4689 30.1117 0.0001 -18.3597 0.0000
# 3 11.5784 30.1117 85.6017 0.0006 -20.0839 0.0000
# 4 0.0000 0.0001 0.0006 26.8318 0.0001 -10.1813
# 5 -18.6737 -18.3597 -20.0839 0.0001 37.4691 0.0000
# 6 0.0000 0.0000 0.0000 -10.1813 0.0000 40.3664
#
#
#
# Elastic Compliance Matrix: (Units=1/GPa)
#
#
# Indices 1 2 3 4 5 6 
#
# 1 0.018140 -0.005738 0.001174 0.000000 0.006858 0.000000
# 2 -0.005738 0.010437 -0.002707 0.000000 0.000803 0.000000
# 3 0.001174 -0.002707 0.014071 0.000000 0.006801 0.000000
# 4 0.000000 0.000000 0.000000 0.041214 0.000000 0.010395
# 5 0.006858 0.000803 0.006801 0.000000 0.034146 0.000000
# 6 0.000000 0.000000 0.000000 0.010395 0.000000 0.027395
#
#
# Mechanical properties :
#
#
# Convention : Reuss Voigt Hill
#
# Bulk Modulus (GPa) = 35.57931 52.00548 43.79239
# Shear Modulus (GPa) = 29.53104 34.54603 32.03854
#
# Velocity S-wave (km/s) = 3.58074 3.87287 3.72967
# Velocity P-wave (km/s) = 5.70468 6.52522 6.12870
#
# Compressibility (1/GPa) = 0.02810622
#
# Stress axis : x y z
#
# Youngs Moduli (GPa) = 55.12656 95.81126 71.06800
#
# Poissons Ratio (x) = 0.54979 -0.08343
# Poissons Ratio (y) = 0.31633 0.19237
# Poissons Ratio (z) = -0.06472 0.25934
#
# Static dielectric constant tensor:
#      x y z
#    x 4.194470 0.000000 -0.180660 
#    y 0.000000 3.993780 0.000000 
#    z -0.180660 0.000000 3.933430 
# 
# 
# High freq. dielectric constant tensor:
#      x y z
#    x 1.908920 0.000000 -0.018610 
#    y 0.000000 1.896760 0.000000 
#    z -0.018610 0.000000 1.906670 
# 
# From -- ./inp_files/65374.got.cif
#   From: 2010.03.12/outbox.cif.g09.slc.cpg/sg5_33_cif.got.tgz:65374.got - 2010.03.31 09:47:26.
