data_PCOD8048383
_publ_section_title
;
Structure prediction by ZEFSAII (Michael W. Deem and Ramdas Pophale) SiO2 
 PCOD8048383
Probable space group: C 2
;
_chemical_formula_sum "Si O2"
_cell_formula_units_Z 32
_cell_length_a 25.579626
_cell_length_b 13.252151
_cell_length_c 9.031400
_cell_angle_alpha 90.000000
_cell_angle_beta 150.260659
_cell_angle_gamma 90.000000
_cell_volume 1518.677147
_symmetry_space_group_name_H-M "C 2"
_symmetry_group_IT_number 5
_symmetry_cell_setting 'monoclinic'
loop_
_space_group_symop_operation_xyz
x,y,z
-x,y,-z
1/2+x,1/2+y,z
1/2-x,1/2+y,-z
loop_
_atom_site_type_symbol
_atom_site_label
_atom_site_fract_x
_atom_site_fract_y
_atom_site_fract_z
Si Si1 0.428924 0.220510 0.084860
Si Si2 0.245153 0.649206 0.558168
Si Si3 0.897171 0.106174 0.681972
Si Si4 0.229085 0.280941 0.121016
Si Si5 0.891755 0.458171 0.304820
Si Si6 0.557386 0.384141 0.286250
Si Si7 0.778448 0.654441 0.960336
Si Si8 0.072078 0.543217 0.308489
O O1 0.485327 0.330688 0.235601
O O2 0.517681 0.137879 0.258591
O O3 0.335987 0.217350 0.734846
O O4 0.378118 0.201765 0.120264
O O5 0.320024 0.585526 0.632394
O O6 0.312093 0.720890 0.834847
O O7 0.183145 0.571994 0.509985
O O8 0.831922 0.169277 0.399709
O O9 0.943747 0.005281 0.719468
O O10 0.000000 0.165523 0.000000
O O11 0.322485 0.351901 0.406075
O O12 0.135679 0.347413 0.822866
O O13 0.271543 0.204150 0.102783
O O14 0.905603 0.455611 0.516898
O O15 0.000000 0.495464 0.500000
O O16 0.799049 0.535241 0.031077
O O17 0.500000 0.339292 0.000000
O O18 0.000000 0.498789 0.000000
#
# Coordination Sequence:
#
# PCOD8048383 Si02
#       8
#     4   4   4   4   4   4   4   4
#     4  10  18  36  70 100 121 168 220 281 331 376
#     4  10  20  39  66  94 125 174 218 270 334 391
#     4  10  24  43  67  89 135 180 219 267 337 400
#     4  12  24  39  66  99 136 172 223 272 336 400
#     4  12  24  42  64  97 134 176 218 279 340 390
#     4  11  19  38  64  98 126 161 220 279 326 383
#     4  11  23  42  67  98 136 174 222 279 332 392
#     4  10  19  36  67  95 123 164 224 274 326 389
#
# _framework density 21.070969999999999
#
# number of rings (size 3 to 8) (size 9 to 14) (size 15 to 20)
#    0.000    1.250    6.250    0.375    0.000    1.000 
#    4.500    3.125    5.500    0.000    0.000    0.000 
#    0.000    0.000    0.000    0.000    0.000    0.000 
#
# Total GULP energy -198310.262007 kJ/mol
# GULP energy per Si atom -12394.391375 kJ/mol
# Density = 2.102301 g / cm^3
# Si number density = 21.070970 Si / 1000 Ang^3
#
#
#
# Elastic Constant Matrix: (Units=GPa)
#
#
# Indices 1 2 3 4 5 6 
#
# 1 75.8108 15.8711 16.2402 0.0000 -8.4055 0.0000
# 2 15.8711 59.2526 16.3088 0.0000 -4.9726 0.0000
# 3 16.2402 16.3088 97.7828 0.0000 -1.4054 0.0000
# 4 0.0000 0.0000 0.0000 31.7484 0.0000 2.8052
# 5 -8.4055 -4.9726 -1.4054 0.0000 33.5385 0.0000
# 6 0.0000 0.0000 0.0000 2.8052 0.0000 24.9712
#
#
#
# Elastic Compliance Matrix: (Units=1/GPa)
#
#
# Indices 1 2 3 4 5 6 
#
# 1 0.014590 -0.003136 -0.001855 0.000000 0.003114 0.000000
# 2 -0.003136 0.018575 -0.002550 0.000000 0.001861 0.000000
# 3 -0.001855 -0.002550 0.010955 0.000000 -0.000384 0.000000
# 4 0.000000 0.000000 0.000000 0.031813 0.000000 -0.003574
# 5 0.003114 0.001861 -0.000384 0.000000 0.030857 0.000000
# 6 0.000000 0.000000 0.000000 -0.003574 0.000000 0.040448
#
#
# Mechanical properties :
#
#
# Convention : Reuss Voigt Hill
#
# Bulk Modulus (GPa) = 34.43986 36.63183 35.53584
# Shear Modulus (GPa) = 29.06978 30.34671 29.70824
#
# Velocity S-wave (km/s) = 3.71834 3.79913 3.75895
# Velocity P-wave (km/s) = 5.90042 6.05535 5.97839
#
# Compressibility (1/GPa) = 0.02903612
#
# Stress axis : x y z
#
# Youngs Moduli (GPa) = 68.54028 53.83557 91.28458
#
# Poissons Ratio (x) = 0.16883 0.16937
# Poissons Ratio (y) = 0.21494 0.23282
# Poissons Ratio (z) = 0.12717 0.13731
#
# Static dielectric constant tensor:
#      x y z
#    x 3.815250 0.000000 -0.118770 
#    y 0.000000 3.382040 0.000000 
#    z -0.118770 0.000000 4.064520 
# 
# 
# High freq. dielectric constant tensor:
#      x y z
#    x 1.817700 0.000000 -0.011460 
#    y 0.000000 1.785030 0.000000 
#    z -0.011460 0.000000 1.843020 
# 
# From -- ./inp_files/29827.got.cif
#   From: 2010.03.12/outbox.cif.g09.slc.cpg/sg5_15_cif.got.tgz:29827.got - 2010.03.31 09:47:26.
