data_PCOD8048015
_publ_section_title
;
Structure prediction by ZEFSAII (Michael W. Deem and Ramdas Pophale) SiO2 
 PCOD8048015
Probable space group: P 21
;
_chemical_formula_sum "Si O2"
_cell_formula_units_Z 16
_cell_length_a 9.145561
_cell_length_b 5.376622
_cell_length_c 12.863747
_cell_angle_alpha 90.000000
_cell_angle_beta 106.904546
_cell_angle_gamma 90.000000
_cell_volume 605.207369
_symmetry_space_group_name_H-M "P 21"
_symmetry_group_IT_number 4
_symmetry_cell_setting 'monoclinic'
loop_
_space_group_symop_operation_xyz
x,y,z
-x,1/2+y,-z
loop_
_atom_site_type_symbol
_atom_site_label
_atom_site_fract_x
_atom_site_fract_y
_atom_site_fract_z
Si Si1 0.097864 0.366000 0.515937
Si Si2 0.009622 0.804372 0.832805
Si Si3 0.754391 0.175437 0.753320
Si Si4 0.820065 0.494047 0.947027
Si Si5 0.505638 0.580868 0.941285
Si Si6 0.706310 0.587449 0.593699
Si Si7 0.254696 0.599571 0.734369
Si Si8 0.460580 0.904499 0.640015
O O1 0.192779 0.317000 0.429779
O O2 0.215866 0.399551 0.636459
O O3 0.005799 0.623454 0.481992
O O4 0.096195 0.682470 0.753780
O O5 0.955633 0.609686 0.907982
O O6 0.862595 0.939967 0.752177
O O7 0.125440 0.978491 0.921901
O O8 0.778377 0.235184 0.880382
O O9 0.806687 0.403284 0.687980
O O10 0.574241 0.129012 0.694223
O O11 0.662421 0.654180 0.913078
O O12 0.368519 0.477357 0.841250
O O13 0.550519 0.337204 0.018080
O O14 0.567551 0.670475 0.637380
O O15 0.643191 0.444807 0.481327
O O16 0.344339 0.840176 0.708491
#
# Coordination Sequence:
#
# PCOD8048015 Si02
#       8
#     2   2   2   2   2   2   2   2
#     4  12  32  56  85 129 186 229 290 361 437 523
#     4  12  28  53  85 122 174 227 292 357 433 534
#     4  12  28  50  88 117 172 227 285 357 440 505
#     4  12  28  52  83 120 167 229 288 355 433 526
#     4  12  30  53  86 125 164 217 285 360 420 510
#     4  12  27  52  85 123 168 232 289 352 422 531
#     4  12  30  53  85 126 169 232 286 363 441 507
#     4  12  27  51  83 124 168 225 289 355 426 518
#
# _framework density 26.437218999999999
#
# number of rings (size 3 to 8) (size 9 to 14) (size 15 to 20)
#    0.000    0.000    3.750    3.750   12.250    2.000 
#    0.000    0.000    0.000    0.000    0.000    0.000 
#    0.000    0.000    0.000    0.000    0.000    0.000 
#
# Total GULP energy -198411.486996 kJ/mol
# GULP energy per Si atom -12400.717937 kJ/mol
# Density = 2.637705 g / cm^3
# Si number density = 26.437219 Si / 1000 Ang^3
#
#
#
# Elastic Constant Matrix: (Units=GPa)
#
#
# Indices 1 2 3 4 5 6 
#
# 1 136.8641 18.7396 28.6639 0.0000 -10.8263 0.0000
# 2 18.7396 95.6680 23.1462 0.0000 -7.1208 0.0000
# 3 28.6639 23.1462 126.1998 0.0000 11.2858 0.0000
# 4 0.0000 0.0000 0.0000 38.9258 0.0000 0.4750
# 5 -10.8263 -7.1208 11.2858 0.0000 52.7828 0.0000
# 6 0.0000 0.0000 0.0000 0.4750 0.0000 45.0478
#
#
#
# Elastic Compliance Matrix: (Units=1/GPa)
#
#
# Indices 1 2 3 4 5 6 
#
# 1 0.007967 -0.000985 -0.001797 0.000000 0.001886 0.000000
# 2 -0.000985 0.011259 -0.001997 0.000000 0.001744 0.000000
# 3 -0.001797 -0.001997 0.008926 0.000000 -0.002547 0.000000
# 4 0.000000 0.000000 0.000000 0.025693 0.000000 -0.000271
# 5 0.001886 0.001744 -0.002547 0.000000 0.020112 0.000000
# 6 0.000000 0.000000 0.000000 -0.000271 0.000000 0.022202
#
#
# Mechanical properties :
#
#
# Convention : Reuss Voigt Hill
#
# Bulk Modulus (GPa) = 53.78598 55.53684 54.66141
# Shear Modulus (GPa) = 44.67632 46.56342 45.61987
#
# Velocity S-wave (km/s) = 4.11530 4.20132 4.15853
# Velocity P-wave (km/s) = 6.55514 6.67738 6.61654
#
# Compressibility (1/GPa) = 0.01859221
#
# Stress axis : x y z
#
# Youngs Moduli (GPa) = 125.51726 88.81933 112.02939
#
# Poissons Ratio (x) = 0.08752 0.20137
# Poissons Ratio (y) = 0.12368 0.22373
# Poissons Ratio (z) = 0.22561 0.17738
#
# Static dielectric constant tensor:
#      x y z
#    x 5.035700 0.000000 0.157380 
#    y 0.000000 4.457060 0.000000 
#    z 0.157380 0.000000 5.092980 
# 
# 
# High freq. dielectric constant tensor:
#      x y z
#    x 2.076290 0.000000 0.011050 
#    y 0.000000 2.044910 0.000000 
#    z 0.011050 0.000000 2.081980 
# 
# From -- ./inp_files/10762.got.cif
#   From: 2010.03.12/outbox.cif.g09.slc.cpg/sg4_6_cif.got.tgz:10762.got - 2010.03.31 09:31:35.
