data_PCOD8048233
_publ_section_title
;
Structure prediction by ZEFSAII (Michael W. Deem and Ramdas Pophale) SiO2 
 PCOD8048233
Probable space group: C 2
;
_chemical_formula_sum "Si O2"
_cell_formula_units_Z 26
_cell_length_a 16.195261
_cell_length_b 8.297689
_cell_length_c 9.302360
_cell_angle_alpha 90.000000
_cell_angle_beta 88.208195
_cell_angle_gamma 90.000000
_cell_volume 1249.470031
_symmetry_space_group_name_H-M "C 2"
_symmetry_group_IT_number 5
_symmetry_cell_setting 'monoclinic'
loop_
_space_group_symop_operation_xyz
x,y,z
-x,y,-z
1/2+x,1/2+y,z
1/2-x,1/2+y,-z
loop_
_atom_site_type_symbol
_atom_site_label
_atom_site_fract_x
_atom_site_fract_y
_atom_site_fract_z
Si Si1 0.699626 0.229450 0.856473
Si Si2 0.195514 0.682142 0.183520
Si Si3 0.257541 0.962053 0.345010
Si Si4 0.859186 0.204344 0.498378
Si Si5 0.877152 0.046501 0.218011
Si Si6 0.500000 0.710164 0.000000
Si Si7 0.880687 0.354798 0.782804
O O1 0.638514 0.354668 0.779687
O O2 0.794581 0.283661 0.843458
O O3 0.691736 0.054641 0.783118
O O4 0.670732 0.218410 0.021709
O O5 0.187466 0.845234 0.278360
O O6 0.291150 0.633186 0.187280
O O7 0.133113 0.545256 0.245981
O O8 0.323205 0.867774 0.435584
O O9 0.216142 0.090151 0.452320
O O10 0.910298 0.107340 0.373094
O O11 0.910609 0.261131 0.635884
O O12 0.942230 0.091190 0.092968
O O13 0.449611 0.828655 0.899011
#
# Coordination Sequence:
#
# PCOD8048233 Si02
#       7
#     4   4   4   4   4   2   4
#     4  10  19  35  64  96 120 162 208 270 300 374
#     4  10  19  35  64  96 120 162 208 270 300 374
#     4  10  18  32  62  96 130 148 216 260 324 352
#     4  10  20  35  58  94 122 167 196 268 306 387
#     4  10  22  37  61  90 127 163 213 245 330 363
#     4  12  24  42  62  92 128 176 206 268 304 392
#     4  10  22  37  61  90 127 163 213 245 330 363
#
# _framework density 20.808820000000001
#
# number of rings (size 3 to 8) (size 9 to 14) (size 15 to 20)
#    0.000    1.846    1.538    5.538    4.308    0.615 
#    0.000    0.769    0.000    0.000    8.000    0.000 
#    0.000    0.000    0.000    0.000    0.000    0.000 
#
# Total GULP energy -161169.102298 kJ/mol
# GULP energy per Si atom -12397.623254 kJ/mol
# Density = 2.076146 g / cm^3
# Si number density = 20.808820 Si / 1000 Ang^3
#
#
#
# Elastic Constant Matrix: (Units=GPa)
#
#
# Indices 1 2 3 4 5 6 
#
# 1 60.5977 32.6459 31.9841 0.0000 9.4731 0.0000
# 2 32.6459 121.0887 38.5092 0.0000 14.9428 0.0000
# 3 31.9841 38.5092 125.8286 0.0000 19.8010 0.0000
# 4 0.0000 0.0000 0.0000 41.2521 0.0000 1.1339
# 5 9.4731 14.9428 19.8010 0.0000 21.1954 0.0000
# 6 0.0000 0.0000 0.0000 1.1339 0.0000 18.0047
#
#
#
# Elastic Compliance Matrix: (Units=1/GPa)
#
#
# Indices 1 2 3 4 5 6 
#
# 1 0.021140 -0.004165 -0.003604 0.000000 -0.003145 0.000000
# 2 -0.004165 0.010350 -0.001470 0.000000 -0.004062 0.000000
# 3 -0.003604 -0.001470 0.010430 0.000000 -0.007097 0.000000
# 4 0.000000 0.000000 0.000000 0.024283 0.000000 -0.001529
# 5 -0.003145 -0.004062 -0.007097 0.000000 0.058080 0.000000
# 6 0.000000 0.000000 0.000000 -0.001529 0.000000 0.055637
#
#
# Mechanical properties :
#
#
# Convention : Reuss Voigt Hill
#
# Bulk Modulus (GPa) = 42.65709 57.08815 49.87262
# Shear Modulus (GPa) = 24.24691 29.71549 26.98120
#
# Velocity S-wave (km/s) = 3.41724 3.78302 3.60477
# Velocity P-wave (km/s) = 6.00950 6.82465 6.43000
#
# Compressibility (1/GPa) = 0.02344276
#
# Stress axis : x y z
#
# Youngs Moduli (GPa) = 47.30364 96.61825 95.87772
#
# Poissons Ratio (x) = 0.40243 0.34553
# Poissons Ratio (y) = 0.19703 0.14090
# Poissons Ratio (z) = 0.17048 0.14199
#
# Static dielectric constant tensor:
#      x y z
#    x 3.219100 0.000000 0.107700 
#    y 0.000000 4.084740 0.000000 
#    z 0.107700 0.000000 4.203160 
# 
# 
# High freq. dielectric constant tensor:
#      x y z
#    x 1.755350 0.000000 0.011170 
#    y 0.000000 1.827280 0.000000 
#    z 0.011170 0.000000 1.834850 
# 
# From -- ./inp_files/26688.got.cif
#   From: 2010.03.12/outbox.cif.g09.slc.cpg/sg5_14_cif.got.tgz:26688.got - 2010.03.31 09:47:26.
