data_PCOD8048725
_publ_section_title
;
Structure prediction by ZEFSAII (Michael W. Deem and Ramdas Pophale) SiO2 
 PCOD8048725
Probable space group: C 2
;
_chemical_formula_sum "Si O2"
_cell_formula_units_Z 24
_cell_length_a 10.138823
_cell_length_b 10.917837
_cell_length_c 18.906278
_cell_angle_alpha 90.000000
_cell_angle_beta 145.463407
_cell_angle_gamma 90.000000
_cell_volume 1186.482984
_symmetry_space_group_name_H-M "C 2"
_symmetry_group_IT_number 5
_symmetry_cell_setting 'monoclinic'
loop_
_space_group_symop_operation_xyz
x,y,z
-x,y,-z
1/2+x,1/2+y,z
1/2-x,1/2+y,-z
loop_
_atom_site_type_symbol
_atom_site_label
_atom_site_fract_x
_atom_site_fract_y
_atom_site_fract_z
Si Si1 0.827579 0.383850 0.068345
Si Si2 0.136381 0.766069 0.178679
Si Si3 0.000000 0.317325 0.000000
Si Si4 0.000000 0.577757 0.500000
Si Si5 0.614714 0.121338 0.821069
Si Si6 0.992156 0.459742 0.353219
Si Si7 0.080926 0.254975 0.297995
O O1 0.767884 0.511535 0.081019
O O2 0.035807 0.316896 0.202283
O O3 0.601805 0.295815 0.968216
O O4 0.919094 0.404491 0.028746
O O5 0.329907 0.701478 0.213547
O O6 0.099123 0.675811 0.228226
O O7 0.236475 0.897998 0.249065
O O8 0.793080 0.229363 0.883996
O O9 0.085757 0.496971 0.471611
O O10 0.779212 0.655006 0.376852
O O11 0.521179 0.076767 0.704155
O O12 0.162185 0.358550 0.391522
#
# Coordination Sequence:
#
# PCOD8048725 Si02
#       7
#     4   4   2   2   4   4   4
#     4  10  19  38  61  89 126 148 198 247 301 360
#     4   9  20  40  59  94 118 154 201 244 303 359
#     4  10  20  32  54  90 116 160 184 234 292 370
#     4  12  22  44  60  86 120 166 206 240 302 346
#     4  10  19  37  58  82 123 159 186 242 306 343
#     4   9  22  39  59  85 115 160 199 253 290 341
#     4   9  22  40  60  90 116 161 199 249 292 355
#
# _framework density 20.227851000000001
#
# number of rings (size 3 to 8) (size 9 to 14) (size 15 to 20)
#    1.000    1.333    0.000    2.500    0.000    2.667 
#   18.000    0.000    0.000    0.000    0.000    0.000 
#    0.000    0.000    0.000    0.000    0.000    0.000 
#
# Total GULP energy -148693.090568 kJ/mol
# GULP energy per Si atom -12391.090881 kJ/mol
# Density = 2.018181 g / cm^3
# Si number density = 20.227851 Si / 1000 Ang^3
#
#
#
# Elastic Constant Matrix: (Units=GPa)
#
#
# Indices 1 2 3 4 5 6 
#
# 1 91.6116 12.5142 21.7540 0.0000 -14.6317 0.0000
# 2 12.5142 48.1608 17.6542 0.0000 -11.5847 0.0000
# 3 21.7540 17.6542 56.6998 0.0000 -11.1772 -0.0001
# 4 0.0000 0.0000 0.0000 22.4582 0.0000 -1.8561
# 5 -14.6317 -11.5847 -11.1772 0.0000 39.1896 0.0000
# 6 0.0000 0.0000 -0.0001 -1.8561 0.0000 35.8269
#
#
#
# Elastic Compliance Matrix: (Units=1/GPa)
#
#
# Indices 1 2 3 4 5 6 
#
# 1 0.012488 -0.001061 -0.003818 0.000000 0.003260 0.000000
# 2 -0.001061 0.024547 -0.006234 0.000000 0.005082 0.000000
# 3 -0.003818 -0.006234 0.021614 0.000000 0.002896 0.000000
# 4 0.000000 0.000000 0.000000 0.044719 0.000000 0.002317
# 5 0.003260 0.005082 0.002896 0.000000 0.029062 0.000000
# 6 0.000000 0.000000 0.000000 0.002317 0.000000 0.028032
#
#
# Mechanical properties :
#
#
# Convention : Reuss Voigt Hill
#
# Bulk Modulus (GPa) = 27.45608 33.36855 30.41232
# Shear Modulus (GPa) = 25.66348 29.13158 27.39753
#
# Velocity S-wave (km/s) = 3.56577 3.79908 3.68427
# Velocity P-wave (km/s) = 5.52774 5.98131 5.75899
#
# Compressibility (1/GPa) = 0.03642180
#
# Stress axis : x y z
#
# Youngs Moduli (GPa) = 80.07741 40.73781 46.26705
#
# Poissons Ratio (x) = 0.04323 0.17666
# Poissons Ratio (y) = 0.08497 0.28843
# Poissons Ratio (z) = 0.30576 0.25396
#
# Static dielectric constant tensor:
#      x y z
#    x 3.758270 0.000000 -0.094090 
#    y 0.000000 3.491300 0.000000 
#    z -0.094090 0.000000 3.229410 
# 
# 
# High freq. dielectric constant tensor:
#      x y z
#    x 1.800030 0.000000 -0.011970 
#    y 0.000000 1.773390 0.000000 
#    z -0.011970 0.000000 1.759400 
# 
# From -- ./inp_files/38757.got.cif
#   From: 2010.03.12/outbox.cif.g09.slc.cpg/sg5_20_cif.got.tgz:38757.got - 2010.03.31 09:47:26.
