data_PCOD8048281
_publ_section_title
;
Structure prediction by ZEFSAII (Michael W. Deem and Ramdas Pophale) SiO2 
 PCOD8048281
Probable space group: C 2
;
_chemical_formula_sum "Si O2"
_cell_formula_units_Z 26
_cell_length_a 19.499921
_cell_length_b 7.708671
_cell_length_c 11.553375
_cell_angle_alpha 90.000000
_cell_angle_beta 135.768358
_cell_angle_gamma 90.000000
_cell_volume 1211.444079
_symmetry_space_group_name_H-M "C 2"
_symmetry_group_IT_number 5
_symmetry_cell_setting 'monoclinic'
loop_
_space_group_symop_operation_xyz
x,y,z
-x,y,-z
1/2+x,1/2+y,z
1/2-x,1/2+y,-z
loop_
_atom_site_type_symbol
_atom_site_label
_atom_site_fract_x
_atom_site_fract_y
_atom_site_fract_z
Si Si1 0.623824 0.536290 0.937494
Si Si2 0.000000 0.753326 0.500000
Si Si3 0.111681 0.458896 0.532873
Si Si4 0.913995 0.127375 0.636747
Si Si5 0.207679 0.276689 0.858703
Si Si6 0.306900 0.636754 0.743823
Si Si7 0.689581 0.449773 0.690078
O O1 0.510925 0.508234 0.764753
O O2 0.659089 0.715859 0.919960
O O3 0.693464 0.376876 0.983675
O O4 0.625537 0.544255 0.078909
O O5 0.962129 0.623807 0.556105
O O6 0.906520 0.875877 0.355964
O O7 0.061384 0.307005 0.398836
O O8 0.134342 0.397209 0.693152
O O9 0.214525 0.515067 0.598443
O O10 0.869872 0.176164 0.707320
O O11 0.839054 0.015133 0.472085
O O12 0.235916 0.106214 0.818813
O O13 0.272166 0.809032 0.767530
#
# Coordination Sequence:
#
# PCOD8048281 Si02
#       7
#     4   2   4   4   4   4   4
#     4  11  22  36  60  83 117 151 188 242 289 343
#     4  10  18  34  58  92 112 142 194 238 288 326
#     4   9  20  36  60  88 121 149 190 243 282 339
#     4  11  21  37  60  88 115 153 195 234 278 342
#     4  10  21  38  57  86 115 151 191 239 302 335
#     4  10  21  38  57  84 120 159 188 226 289 347
#     4  10  21  37  61  84 116 153 193 239 282 340
#
# _framework density 21.461991000000001
#
# number of rings (size 3 to 8) (size 9 to 14) (size 15 to 20)
#    0.000    1.846    0.000    4.154    0.000    4.923 
#    0.000    4.615    0.000    9.231    0.000    0.000 
#    0.000    0.000    0.000    0.000    0.000    0.000 
#
# Total GULP energy -161159.231797 kJ/mol
# GULP energy per Si atom -12396.863984 kJ/mol
# Density = 2.141314 g / cm^3
# Si number density = 21.461991 Si / 1000 Ang^3
#
#
#
# Elastic Constant Matrix: (Units=GPa)
#
#
# Indices 1 2 3 4 5 6 
#
# 1 92.7795 10.9820 26.8099 0.0000 -1.0888 0.0000
# 2 10.9820 82.1223 14.9929 0.0000 9.1869 0.0000
# 3 26.8099 14.9929 67.8303 0.0000 0.4906 0.0000
# 4 0.0000 0.0000 0.0000 32.6536 0.0000 2.2629
# 5 -1.0888 9.1869 0.4906 0.0000 24.7278 0.0000
# 6 0.0000 0.0000 0.0000 2.2629 0.0000 20.4238
#
#
#
# Elastic Compliance Matrix: (Units=1/GPa)
#
#
# Indices 1 2 3 4 5 6 
#
# 1 0.012238 -0.000896 -0.004646 0.000000 0.000964 0.000000
# 2 -0.000896 0.013315 -0.002553 0.000000 -0.004936 0.000000
# 3 -0.004646 -0.002553 0.017140 0.000000 0.000404 0.000000
# 4 0.000000 0.000000 0.000000 0.030861 0.000000 -0.003419
# 5 0.000964 -0.004936 0.000404 0.000000 0.042308 0.000000
# 6 0.000000 0.000000 0.000000 -0.003419 0.000000 0.049341
#
#
# Mechanical properties :
#
#
# Convention : Reuss Voigt Hill
#
# Bulk Modulus (GPa) = 37.73177 38.70021 38.21599
# Shear Modulus (GPa) = 26.28397 28.22419 27.25408
#
# Velocity S-wave (km/s) = 3.50333 3.63033 3.56740
# Velocity P-wave (km/s) = 5.82952 5.97022 5.90029
#
# Compressibility (1/GPa) = 0.02650286
#
# Stress axis : x y z
#
# Youngs Moduli (GPa) = 81.71156 75.10278 58.34158
#
# Poissons Ratio (x) = 0.06731 0.27106
# Poissons Ratio (y) = 0.07323 0.14896
# Poissons Ratio (z) = 0.37963 0.19175
#
# Static dielectric constant tensor:
#      x y z
#    x 3.675750 0.000000 -0.015230 
#    y 0.000000 3.942870 0.000000 
#    z -0.015230 0.000000 3.772480 
# 
# 
# High freq. dielectric constant tensor:
#      x y z
#    x 1.828470 0.000000 -0.004470 
#    y 0.000000 1.846060 0.000000 
#    z -0.004470 0.000000 1.836290 
# 
# From -- ./inp_files/46169.got.cif
#   From: 2010.03.12/outbox.cif.g09.slc.cpg/sg5_24_cif.got.tgz:46169.got - 2010.03.31 09:47:26.
