data_PCOD8048857
_publ_section_title
;
Structure prediction by ZEFSAII (Michael W. Deem and Ramdas Pophale) SiO2 
 PCOD8048857
Probable space group: C 2
;
_chemical_formula_sum "Si O2"
_cell_formula_units_Z 32
_cell_length_a 18.565733
_cell_length_b 15.025677
_cell_length_c 13.164407
_cell_angle_alpha 90.000000
_cell_angle_beta 23.618547
_cell_angle_gamma 90.000000
_cell_volume 1471.322496
_symmetry_space_group_name_H-M "C 2"
_symmetry_group_IT_number 5
_symmetry_cell_setting 'monoclinic'
loop_
_space_group_symop_operation_xyz
x,y,z
-x,y,-z
1/2+x,1/2+y,z
1/2-x,1/2+y,-z
loop_
_atom_site_type_symbol
_atom_site_label
_atom_site_fract_x
_atom_site_fract_y
_atom_site_fract_z
Si Si1 0.165326 0.830840 0.363130
Si Si2 0.544488 0.919204 0.136716
Si Si3 0.615395 0.838351 0.451492
Si Si4 0.628703 0.134855 0.430885
Si Si5 0.549828 0.636441 0.549305
Si Si6 0.154996 0.983132 0.932272
Si Si7 0.185917 0.978118 0.498479
Si Si8 0.197919 0.557766 0.060870
O O1 0.195691 0.733114 0.370974
O O2 0.121650 0.896417 0.511976
O O3 0.000000 0.834351 0.500000
O O4 0.354736 0.848192 0.063046
O O5 0.475371 0.876430 0.330365
O O6 0.386197 0.963515 0.277081
O O7 0.695508 0.994349 0.965250
O O8 0.500000 0.852638 0.500000
O O9 0.644244 0.732848 0.432346
O O10 0.799536 0.892318 0.188846
O O11 0.500000 0.136605 0.500000
O O12 0.499360 0.101939 0.688268
O O13 0.798156 0.068519 0.199155
O O14 0.500000 0.607189 0.500000
O O15 0.681309 0.567138 0.435430
O O16 0.355110 0.632150 0.857613
O O17 0.277805 0.992502 0.873974
O O18 0.945557 0.983546 0.233893
#
# Coordination Sequence:
#
# PCOD8048857 Si02
#       8
#     4   4   4   4   4   4   4   4
#     4  11  24  40  68  96 129 170 221 266 321 388
#     4  12  24  41  66  95 136 173 211 270 338 382
#     4  11  22  40  70 102 128 171 223 277 317 384
#     4   9  19  36  63 100 119 157 216 278 313 371
#     4  10  23  40  70  97 130 174 226 270 322 389
#     4  10  19  41  69  93 128 168 218 267 320 387
#     4  11  25  43  63  95 137 177 212 267 331 399
#     4  10  19  39  66  95 126 167 219 268 328 374
#
# _framework density 21.749141000000002
#
# number of rings (size 3 to 8) (size 9 to 14) (size 15 to 20)
#    0.000    1.500    2.500    3.375    7.000    1.500 
#    2.250    1.250    8.250    0.000    0.000    0.000 
#    0.000    0.000    0.000    0.000    0.000    0.000 
#
# Total GULP energy -198305.606708 kJ/mol
# GULP energy per Si atom -12394.100419 kJ/mol
# Density = 2.169964 g / cm^3
# Si number density = 21.749141 Si / 1000 Ang^3
#
#
#
# Elastic Constant Matrix: (Units=GPa)
#
#
# Indices 1 2 3 4 5 6 
#
# 1 62.5723 38.4457 25.8535 -0.0070 -3.7745 0.0018
# 2 38.4457 158.6755 50.5022 -0.0076 -1.0837 0.0019
# 3 25.8535 50.5022 110.5388 -0.0133 5.8906 0.0040
# 4 -0.0070 -0.0076 -0.0133 25.1580 0.0044 10.0000
# 5 -3.7745 -1.0837 5.8906 0.0044 30.0448 -0.0020
# 6 0.0018 0.0019 0.0040 10.0000 -0.0020 13.5682
#
#
#
# Elastic Compliance Matrix: (Units=1/GPa)
#
#
# Indices 1 2 3 4 5 6 
#
# 1 0.019748 -0.003797 -0.003041 0.000004 0.002940 -0.000003
# 2 -0.003797 0.008131 -0.002847 0.000000 0.000374 0.000001
# 3 -0.003041 -0.002847 0.011201 0.000008 -0.002681 -0.000009
# 4 0.000004 0.000000 0.000008 0.056218 -0.000012 -0.041434
# 5 0.002940 0.000374 -0.002681 -0.000012 0.034192 0.000014
# 6 -0.000003 0.000001 -0.000009 -0.041434 0.000014 0.104239
#
#
# Mechanical properties :
#
#
# Convention : Reuss Voigt Hill
#
# Bulk Modulus (GPa) = 50.73200 62.37660 56.55430
# Shear Modulus (GPa) = 19.25531 28.21987 23.73759
#
# Velocity S-wave (km/s) = 2.97869 3.60601 3.30726
# Velocity P-wave (km/s) = 5.93353 6.78823 6.37522
#
# Compressibility (1/GPa) = 0.01971143
#
# Stress axis : x y z
#
# Youngs Moduli (GPa) = 50.63760 122.99089 89.27621
#
# Poissons Ratio (x) = 0.46699 0.27147
# Poissons Ratio (y) = 0.19227 0.25413
# Poissons Ratio (z) = 0.15398 0.35011
#
# Static dielectric constant tensor:
#      x y z
#    x 3.764190 0.000000 0.291150 
#    y 0.000000 4.093620 0.000000 
#    z 0.291150 0.000000 3.948690 
# 
# 
# High freq. dielectric constant tensor:
#      x y z
#    x 1.838650 0.000000 0.017050 
#    y 0.000000 1.856670 0.000000 
#    z 0.017050 0.000000 1.853340 
# 
# From -- ./inp_files/57182.got.cif
#   From: 2010.03.12/outbox.cif.g09.slc.cpg/sg5_29_cif.got.tgz:57182.got - 2010.03.31 09:47:26.
