data_PCOD8048438
_publ_section_title
;
Structure prediction by ZEFSAII (Michael W. Deem and Ramdas Pophale) SiO2 
 PCOD8048438
Probable space group: C 2
;
_chemical_formula_sum "Si O2"
_cell_formula_units_Z 24
_cell_length_a 13.811563
_cell_length_b 7.805688
_cell_length_c 19.507502
_cell_angle_alpha 90.000000
_cell_angle_beta 152.868062
_cell_angle_gamma 90.000000
_cell_volume 959.090579
_symmetry_space_group_name_H-M "C 2"
_symmetry_group_IT_number 5
_symmetry_cell_setting 'monoclinic'
loop_
_space_group_symop_operation_xyz
x,y,z
-x,y,-z
1/2+x,1/2+y,z
1/2-x,1/2+y,-z
loop_
_atom_site_type_symbol
_atom_site_label
_atom_site_fract_x
_atom_site_fract_y
_atom_site_fract_z
Si Si1 0.713810 0.238440 0.676530
Si Si2 0.990474 0.919684 0.171875
Si Si3 0.995653 0.577722 0.648567
Si Si4 0.943085 0.406108 0.178756
Si Si5 0.360696 0.741685 0.346005
Si Si6 0.008817 0.085930 0.313568
O O1 0.500000 0.204210 0.500000
O O2 0.641948 0.233452 0.711069
O O3 0.882081 0.088944 0.768470
O O4 0.839024 0.408374 0.730171
O O5 0.985880 0.912438 0.253176
O O6 0.116175 0.760590 0.217102
O O7 0.753868 0.929156 0.995146
O O8 0.046223 0.563139 0.761129
O O9 0.050884 0.407931 0.638948
O O10 0.751747 0.627153 0.484788
O O11 0.916727 0.236274 0.207551
O O12 0.500000 0.702936 0.500000
O O13 0.378681 0.581869 0.303672
#
# Coordination Sequence:
#
# PCOD8048438 Si02
#       6
#     4   4   4   4   4   4
#     4  10  18  39  70  90 124 178 219 259 324 400
#     4  10  19  39  64  96 134 168 213 280 332 378
#     4  10  18  38  67  92 126 172 224 263 320 397
#     4  10  22  35  67 101 127 170 218 278 330 377
#     4  10  19  36  69  96 120 180 221 259 328 402
#     4  10  20  38  66  96 126 173 224 264 321 407
#
# _framework density 25.023706000000001
#
# number of rings (size 3 to 8) (size 9 to 14) (size 15 to 20)
#    0.000    2.000    5.000    1.000    0.000    6.000 
#    6.000    0.833    7.333    0.000    0.000    0.000 
#    0.000    0.000    0.000    0.000    0.000    0.000 
#
# Total GULP energy -148709.433871 kJ/mol
# GULP energy per Si atom -12392.452823 kJ/mol
# Density = 2.496675 g / cm^3
# Si number density = 25.023706 Si / 1000 Ang^3
#
#
#
# Elastic Constant Matrix: (Units=GPa)
#
#
# Indices 1 2 3 4 5 6 
#
# 1 255.4191 34.8692 90.9938 0.0004 -4.0253 0.0001
# 2 34.8692 42.2265 9.6312 -0.0016 5.0173 0.0006
# 3 90.9938 9.6312 169.0271 0.0012 -0.1079 0.0024
# 4 0.0004 -0.0016 0.0012 26.7972 0.0013 2.6807
# 5 -4.0253 5.0173 -0.1079 0.0013 26.3920 0.0004
# 6 0.0001 0.0006 0.0024 2.6807 0.0004 32.3182
#
#
#
# Elastic Compliance Matrix: (Units=1/GPa)
#
#
# Indices 1 2 3 4 5 6 
#
# 1 0.005462 -0.004083 -0.002707 0.000000 0.001598 0.000000
# 2 -0.004083 0.027609 0.000621 0.000002 -0.005869 -0.000001
# 3 -0.002707 0.000621 0.007338 0.000000 -0.000501 -0.000001
# 4 0.000000 0.000002 0.000000 0.037630 -0.000002 -0.003121
# 5 0.001598 -0.005869 -0.000501 -0.000002 0.039248 0.000000
# 6 0.000000 -0.000001 -0.000001 -0.003121 0.000000 0.031201
#
#
# Mechanical properties :
#
#
# Convention : Reuss Voigt Hill
#
# Bulk Modulus (GPa) = 35.62331 81.96235 58.79283
# Shear Modulus (GPa) = 29.38043 39.18004 34.28023
#
# Velocity S-wave (km/s) = 3.43024 3.96121 3.70525
# Velocity P-wave (km/s) = 5.47316 7.33120 6.46923
#
# Compressibility (1/GPa) = 0.02807151
#
# Stress axis : x y z
#
# Youngs Moduli (GPa) = 183.08376 36.22011 136.28355
#
# Poissons Ratio (x) = 0.14788 0.36888
# Poissons Ratio (y) = 0.74750 -0.08464
# Poissons Ratio (z) = 0.49556 -0.02249
#
# Static dielectric constant tensor:
#      x y z
#    x 5.936870 0.000000 0.121210 
#    y 0.000000 4.706780 0.000000 
#    z 0.121210 0.000000 4.105220 
# 
# 
# High freq. dielectric constant tensor:
#      x y z
#    x 2.030550 0.000000 0.003610 
#    y 0.000000 1.987930 0.000000 
#    z 0.003610 0.000000 1.969750 
# 
# From -- ./inp_files/55698.got.cif
#   From: 2010.03.12/outbox.cif.g09.slc.cpg/sg5_28_cif.got.tgz:55698.got - 2010.03.31 09:47:26.
