data_PCOD8048898
_publ_section_title
;
Structure prediction by ZEFSAII (Michael W. Deem and Ramdas Pophale) SiO2 
 PCOD8048898
Probable space group: C 2
;
_chemical_formula_sum "Si O2"
_cell_formula_units_Z 28
_cell_length_a 11.064719
_cell_length_b 16.087156
_cell_length_c 8.273697
_cell_angle_alpha 90.000000
_cell_angle_beta 112.068173
_cell_angle_gamma 90.000000
_cell_volume 1364.821954
_symmetry_space_group_name_H-M "C 2"
_symmetry_group_IT_number 5
_symmetry_cell_setting 'monoclinic'
loop_
_space_group_symop_operation_xyz
x,y,z
-x,y,-z
1/2+x,1/2+y,z
1/2-x,1/2+y,-z
loop_
_atom_site_type_symbol
_atom_site_label
_atom_site_fract_x
_atom_site_fract_y
_atom_site_fract_z
Si Si1 0.924563 0.159210 0.793198
Si Si2 0.786312 0.787226 0.383911
Si Si3 0.981913 0.745561 0.724114
Si Si4 0.254379 0.470659 0.419292
Si Si5 0.500000 0.380450 0.000000
Si Si6 0.228051 0.995036 0.214640
Si Si7 0.000000 0.087437 0.500000
Si Si8 0.004068 0.562704 0.696442
O O1 0.850754 0.245045 0.723734
O O2 0.008273 0.141249 0.671153
O O3 0.823356 0.085669 0.765746
O O4 0.000000 0.169359 0.000000
O O5 0.903576 0.747381 0.346647
O O6 0.773395 0.884244 0.336357
O O7 0.834573 0.766740 0.590722
O O8 0.990526 0.649803 0.788100
O O9 0.018652 0.818556 0.863050
O O10 0.250310 0.447230 0.606696
O O11 0.372051 0.530963 0.431836
O O12 0.117082 0.509662 0.299885
O O13 0.373603 0.440889 0.940170
O O14 0.364755 0.011222 0.190351
O O15 0.000000 0.577770 0.500000
#
# Coordination Sequence:
#
# PCOD8048898 Si02
#       8
#     4   4   4   4   2   4   2   4
#     4  11  23  43  68  95 133 172 218 272 333 393
#     4  11  21  41  63  93 125 171 213 267 326 388
#     4  11  21  40  66  91 126 169 221 262 325 398
#     4  10  21  38  67  94 125 170 222 271 320 394
#     4  12  24  38  66 102 124 164 228 286 314 386
#     4  10  20  40  64  95 128 174 216 267 338 393
#     4  10  22  42  70  98 118 178 228 266 324 392
#     4  10  19  41  65  89 126 174 213 260 340 396
#
# _framework density 20.515495999999999
#
# number of rings (size 3 to 8) (size 9 to 14) (size 15 to 20)
#    0.000    1.429    5.000    2.571    2.000    0.000 
#   11.571    1.429    0.000    0.000    0.000    0.000 
#    0.000    0.000    0.000    0.000    0.000    0.000 
#
# Total GULP energy -173472.854596 kJ/mol
# GULP energy per Si atom -12390.918185 kJ/mol
# Density = 2.046880 g / cm^3
# Si number density = 20.515496 Si / 1000 Ang^3
#
#
#
# Elastic Constant Matrix: (Units=GPa)
#
#
# Indices 1 2 3 4 5 6 
#
# 1 118.7029 47.3443 48.5712 0.0000 27.0308 0.0000
# 2 47.3443 114.6458 53.1175 0.0000 20.3931 0.0000
# 3 48.5712 53.1175 89.8837 0.0000 8.6782 0.0000
# 4 0.0000 0.0000 0.0000 34.8684 0.0000 9.2049
# 5 27.0308 20.3931 8.6782 0.0000 27.9043 0.0000
# 6 0.0000 0.0000 0.0000 9.2049 0.0000 32.4819
#
#
#
# Elastic Compliance Matrix: (Units=1/GPa)
#
#
# Indices 1 2 3 4 5 6 
#
# 1 0.013601 -0.001101 -0.005675 0.000000 -0.010606 0.000000
# 2 -0.001101 0.013486 -0.006728 0.000000 -0.006697 0.000000
# 3 -0.005675 -0.006728 0.017694 0.000000 0.004912 0.000000
# 4 0.000000 0.000000 0.000000 0.030998 0.000000 -0.008784
# 5 -0.010606 -0.006697 0.004912 0.000000 0.049477 0.000000
# 6 0.000000 0.000000 0.000000 -0.008784 0.000000 0.033276
#
#
# Mechanical properties :
#
#
# Convention : Reuss Voigt Hill
#
# Bulk Modulus (GPa) = 56.26653 69.03313 62.64983
# Shear Modulus (GPa) = 26.11473 30.66422 28.38947
#
# Velocity S-wave (km/s) = 3.57168 3.87031 3.72399
# Velocity P-wave (km/s) = 6.67046 7.32767 7.00678
#
# Compressibility (1/GPa) = 0.01777256
#
# Stress axis : x y z
#
# Youngs Moduli (GPa) = 73.52611 74.15371 56.51652
#
# Poissons Ratio (x) = 0.08162 0.32074
# Poissons Ratio (y) = 0.08093 0.38024
# Poissons Ratio (z) = 0.41727 0.49891
#
# Static dielectric constant tensor:
#      x y z
#    x 3.589530 0.000000 0.514970 
#    y 0.000000 3.705610 0.000000 
#    z 0.514970 0.000000 2.359830 
# 
# 
# High freq. dielectric constant tensor:
#      x y z
#    x 1.794680 0.000000 0.014660 
#    y 0.000000 1.810950 0.000000 
#    z 0.014660 0.000000 1.781830 
# 
# From -- ./inp_files/20567.got.cif
#   From: 2010.03.12/outbox.cif.g09.slc.cpg/sg5_11_cif.got.tgz:20567.got - 2010.03.31 09:47:26.
