data_PCOD8048457
_publ_section_title
;
Structure prediction by ZEFSAII (Michael W. Deem and Ramdas Pophale) SiO2 
 PCOD8048457
Probable space group: C 2
;
_chemical_formula_sum "Si O2"
_cell_formula_units_Z 24
_cell_length_a 8.927729
_cell_length_b 15.479584
_cell_length_c 16.381379
_cell_angle_alpha 90.000000
_cell_angle_beta 146.916037
_cell_angle_gamma 90.000000
_cell_volume 1235.770863
_symmetry_space_group_name_H-M "C 2"
_symmetry_group_IT_number 5
_symmetry_cell_setting 'monoclinic'
loop_
_space_group_symop_operation_xyz
x,y,z
-x,y,-z
1/2+x,1/2+y,z
1/2-x,1/2+y,-z
loop_
_atom_site_type_symbol
_atom_site_label
_atom_site_fract_x
_atom_site_fract_y
_atom_site_fract_z
Si Si1 0.742278 0.341750 0.333005
Si Si2 0.777701 0.428839 0.843192
Si Si3 0.298107 0.846917 0.169063
Si Si4 0.565428 0.181296 0.781478
Si Si5 0.971573 0.248564 0.100830
Si Si6 0.215021 0.499075 0.323593
O O1 0.497045 0.410410 0.231106
O O2 0.796677 0.322999 0.263044
O O3 0.672691 0.250691 0.344947
O O4 0.000000 0.380266 0.500000
O O5 0.706541 0.489929 0.735183
O O6 0.932853 0.341285 0.888358
O O7 0.000000 0.480052 0.000000
O O8 0.394488 0.761925 0.160988
O O9 0.512399 0.923937 0.258306
O O10 0.000000 0.876903 0.000000
O O11 0.778289 0.181745 0.801826
O O12 0.438707 0.087841 0.730471
O O13 0.710970 0.213311 0.931675
O O14 0.500000 0.493046 0.500000
#
# Coordination Sequence:
#
# PCOD8048457 Si02
#       6
#     4   4   4   4   4   4
#     4  11  20  35  62  87 118 157 197 247 298 354
#     4  10  18  40  60  82 114 160 201 240 287 356
#     4  11  21  38  62  93 116 152 213 248 289 364
#     4  10  19  38  58  83 121 158 193 245 311 348
#     4   9  18  37  63  84 110 154 208 253 282 347
#     4  11  24  38  58  91 126 158 192 246 310 364
#
# _framework density 19.421077
#
# number of rings (size 3 to 8) (size 9 to 14) (size 15 to 20)
#    0.000    1.667    5.000    2.500    2.333    0.000 
#    3.000    0.000    0.000    2.000    0.000    0.000 
#    0.000    0.000    0.000    0.000    0.000    0.000 
#
# Total GULP energy -148735.097570 kJ/mol
# GULP energy per Si atom -12394.591464 kJ/mol
# Density = 1.937687 g / cm^3
# Si number density = 19.421077 Si / 1000 Ang^3
#
#
#
# Elastic Constant Matrix: (Units=GPa)
#
#
# Indices 1 2 3 4 5 6 
#
# 1 146.6909 32.7184 70.0602 0.0024 -0.0712 0.0001
# 2 32.7184 72.2524 45.7542 -0.0006 11.1367 0.0002
# 3 70.0602 45.7542 159.2535 -0.0070 -3.2149 0.0003
# 4 0.0024 -0.0006 -0.0070 11.0373 0.0000 1.9839
# 5 -0.0712 11.1367 -3.2149 0.0000 29.9777 -0.0004
# 6 0.0001 0.0002 0.0003 1.9839 -0.0004 20.9840
#
#
#
# Elastic Compliance Matrix: (Units=1/GPa)
#
#
# Indices 1 2 3 4 5 6 
#
# 1 0.008839 -0.001963 -0.003317 -0.000004 0.000395 0.000000
# 2 -0.001963 0.018871 -0.004710 -0.000001 -0.007520 0.000000
# 3 -0.003317 -0.004710 0.009146 0.000006 0.002723 -0.000001
# 4 -0.000004 -0.000001 0.000006 0.092168 0.000001 -0.008714
# 5 0.000395 -0.007520 0.002723 0.000001 0.036445 0.000001
# 6 0.000000 0.000000 -0.000001 -0.008714 0.000001 0.048479
#
#
# Mechanical properties :
#
#
# Convention : Reuss Voigt Hill
#
# Bulk Modulus (GPa) = 59.25112 75.02915 67.14013
# Shear Modulus (GPa) = 20.87213 27.71074 24.29144
#
# Velocity S-wave (km/s) = 3.28184 3.78145 3.54047
# Velocity P-wave (km/s) = 6.70340 7.60148 7.16652
#
# Compressibility (1/GPa) = 0.01687732
#
# Stress axis : x y z
#
# Youngs Moduli (GPa) = 113.13302 52.99108 109.33178
#
# Poissons Ratio (x) = 0.10404 0.36261
# Poissons Ratio (y) = 0.22211 0.51494
# Poissons Ratio (z) = 0.37521 0.24958
#
# Static dielectric constant tensor:
#      x y z
#    x 3.987280 0.000000 0.128200 
#    y 0.000000 3.225360 0.000000 
#    z 0.128200 0.000000 3.718590 
# 
# 
# High freq. dielectric constant tensor:
#      x y z
#    x 1.765000 0.000000 0.012900 
#    y 0.000000 1.719550 0.000000 
#    z 0.012900 0.000000 1.764310 
# 
# From -- ./inp_files/15827.got.cif
#   From: 2010.03.12/outbox.cif.g09.slc.cpg/sg5_8_cif.got.tgz:15827.got - 2010.03.31 09:47:26.
