data_PCOD8048900
_publ_section_title
;
Structure prediction by ZEFSAII (Michael W. Deem and Ramdas Pophale) SiO2 
 PCOD8048900
Probable space group: C 2
;
_chemical_formula_sum "Si O2"
_cell_formula_units_Z 32
_cell_length_a 10.348222
_cell_length_b 21.118369
_cell_length_c 9.082091
_cell_angle_alpha 90.000000
_cell_angle_beta 126.847792
_cell_angle_gamma 90.000000
_cell_volume 1588.281821
_symmetry_space_group_name_H-M "C 2"
_symmetry_group_IT_number 5
_symmetry_cell_setting 'monoclinic'
loop_
_space_group_symop_operation_xyz
x,y,z
-x,y,-z
1/2+x,1/2+y,z
1/2-x,1/2+y,-z
loop_
_atom_site_type_symbol
_atom_site_label
_atom_site_fract_x
_atom_site_fract_y
_atom_site_fract_z
Si Si1 0.550009 0.630160 0.871585
Si Si2 0.588307 0.313224 0.711032
Si Si3 0.198999 0.768091 0.315504
Si Si4 0.832586 0.418862 0.819268
Si Si5 0.053579 0.364569 0.386442
Si Si6 0.825361 0.265946 0.090591
Si Si7 0.840381 0.142647 0.475534
Si Si8 0.184706 0.563873 0.130012
O O1 0.561297 0.705557 0.853160
O O2 0.395826 0.611325 0.666811
O O3 0.714594 0.593540 0.937949
O O4 0.500000 0.610505 0.000000
O O5 0.500000 0.290408 0.500000
O O6 0.457971 0.309247 0.752061
O O7 0.668352 0.382202 0.750152
O O8 0.734080 0.269152 0.869651
O O9 0.348101 0.806494 0.480377
O O10 0.202292 0.755222 0.142595
O O11 0.209846 0.699323 0.402193
O O12 0.848407 0.413083 0.651374
O O13 0.806686 0.488281 0.866317
O O14 0.000000 0.390931 0.000000
O O15 0.000000 0.402075 0.500000
O O16 0.916825 0.331691 0.190762
O O17 0.762090 0.084886 0.335298
O O18 0.000000 0.169503 0.500000
O O19 0.000000 0.587560 0.000000
#
# Coordination Sequence:
#
# PCOD8048900 Si02
#       8
#     4   4   4   4   4   4   4   4
#     4  11  24  40  67 100 127 174 217 267 331 387
#     4  12  26  35  59  99 132 165 209 273 322 373
#     4  11  20  38  60  98 130 159 212 260 330 385
#     4  11  23  46  65  88 128 179 222 259 324 394
#     4  10  20  38  66  92 123 168 215 257 322 396
#     4  11  22  38  63  90 135 172 205 260 329 398
#     4  10  19  41  66  92 124 175 212 258 322 394
#     4  10  24  45  70  93 124 178 227 267 318 385
#
# _framework density 20.147558
#
# number of rings (size 3 to 8) (size 9 to 14) (size 15 to 20)
#    0.000    1.250    6.250    0.750    5.250    1.500 
#    0.000    4.375    0.000    0.000    0.000    0.000 
#    0.000    0.000    0.000    0.000    0.000    0.000 
#
# Total GULP energy -198228.546151 kJ/mol
# GULP energy per Si atom -12389.284134 kJ/mol
# Density = 2.010170 g / cm^3
# Si number density = 20.147558 Si / 1000 Ang^3
#
#
#
# Elastic Constant Matrix: (Units=GPa)
#
#
# Indices 1 2 3 4 5 6 
#
# 1 118.8091 45.2202 45.7070 0.0000 -7.3363 0.0000
# 2 45.2202 43.9156 25.9658 0.0000 -4.7010 0.0000
# 3 45.7070 25.9658 137.2183 0.0000 -6.4065 0.0000
# 4 0.0000 0.0000 0.0000 24.4893 0.0000 4.9092
# 5 -7.3363 -4.7010 -6.4065 0.0000 32.5115 0.0000
# 6 0.0000 0.0000 0.0000 4.9092 0.0000 25.4035
#
#
#
# Elastic Compliance Matrix: (Units=1/GPa)
#
#
# Indices 1 2 3 4 5 6 
#
# 1 0.014456 -0.013477 -0.002224 0.000000 0.000875 0.000000
# 2 -0.013477 0.038454 -0.002695 0.000000 0.001988 0.000000
# 3 -0.002224 -0.002695 0.008576 0.000000 0.000798 0.000000
# 4 0.000000 0.000000 0.000000 0.042480 0.000000 -0.008209
# 5 0.000875 0.001988 0.000798 0.000000 0.031401 0.000000
# 6 0.000000 0.000000 0.000000 -0.008209 0.000000 0.040951
#
#
# Mechanical properties :
#
#
# Convention : Reuss Voigt Hill
#
# Bulk Modulus (GPa) = 40.49480 59.30323 49.89902
# Shear Modulus (GPa) = 22.58969 28.68420 25.63694
#
# Velocity S-wave (km/s) = 3.35208 3.77730 3.57102
# Velocity P-wave (km/s) = 5.92661 6.96580 6.46711
#
# Compressibility (1/GPa) = 0.02469453
#
# Stress axis : x y z
#
# Youngs Moduli (GPa) = 69.17574 26.00503 116.60799
#
# Poissons Ratio (x) = 0.35046 0.25936
# Poissons Ratio (y) = 0.93226 0.31424
# Poissons Ratio (z) = 0.15386 0.07008
#
# Static dielectric constant tensor:
#      x y z
#    x 3.826730 0.000000 -0.018840 
#    y 0.000000 3.262400 0.000000 
#    z -0.018840 0.000000 4.102630 
# 
# 
# High freq. dielectric constant tensor:
#      x y z
#    x 1.778040 0.000000 0.001190 
#    y 0.000000 1.752300 0.000000 
#    z 0.001190 0.000000 1.803890 
# 
# From -- ./inp_files/21980.got.cif
#   From: 2010.03.12/outbox.cif.g09.slc.cpg/sg5_11_cif.got.tgz:21980.got - 2010.03.31 09:47:26.
