data_PCOD8048270
_publ_section_title
;
Structure prediction by ZEFSAII (Michael W. Deem and Ramdas Pophale) SiO2 
 PCOD8048270
Probable space group: C 2
;
_chemical_formula_sum "Si O2"
_cell_formula_units_Z 24
_cell_length_a 16.174762
_cell_length_b 8.854133
_cell_length_c 8.735851
_cell_angle_alpha 90.000000
_cell_angle_beta 85.237495
_cell_angle_gamma 90.000000
_cell_volume 1246.772232
_symmetry_space_group_name_H-M "C 2"
_symmetry_group_IT_number 5
_symmetry_cell_setting 'monoclinic'
loop_
_space_group_symop_operation_xyz
x,y,z
-x,y,-z
1/2+x,1/2+y,z
1/2-x,1/2+y,-z
loop_
_atom_site_type_symbol
_atom_site_label
_atom_site_fract_x
_atom_site_fract_y
_atom_site_fract_z
Si Si1 0.822926 0.116300 0.071212
Si Si2 0.738402 0.669976 0.357931
Si Si3 0.320269 0.977579 0.089294
Si Si4 0.074794 0.196208 0.211952
Si Si5 0.500000 0.930328 0.000000
Si Si6 0.500000 0.528534 0.500000
Si Si7 0.161889 0.966599 0.615367
O O1 0.813508 0.296362 0.093601
O O2 0.857662 0.034216 0.215388
O O3 0.892936 0.085214 0.929678
O O4 0.733812 0.044607 0.042267
O O5 0.785337 0.544328 0.251141
O O6 0.659050 0.744805 0.286604
O O7 0.798389 0.805031 0.384140
O O8 0.716494 0.591021 0.520540
O O9 0.417398 0.027083 0.053855
O O10 0.013511 0.124994 0.344313
O O11 0.023863 0.333339 0.146351
O O12 0.580040 0.430142 0.527437
#
# Coordination Sequence:
#
# PCOD8048270 Si02
#       7
#     4   4   4   4   2   2   4
#     4  10  19  35  59  82 110 150 187 224 270 332
#     4  10  22  39  56  80 110 150 188 222 277 339
#     4  10  20  36  57  83 111 143 187 228 273 330
#     4   9  19  34  55  81 111 147 185 218 271 338
#     4  10  18  34  56  84 112 142 182 232 272 316
#     4  10  20  34  54  84 114 142 184 232 272 318
#     4  11  21  37  58  80 111 148 186 230 275 327
#
# _framework density 19.249706
#
# number of rings (size 3 to 8) (size 9 to 14) (size 15 to 20)
#    0.000    2.000    0.000    6.000    0.000    1.333 
#    0.000   10.000    0.000    2.000    0.000    0.000 
#    0.000    0.000    0.000    0.000    0.000    0.000 
#
# Total GULP energy -148720.198787 kJ/mol
# GULP energy per Si atom -12393.349899 kJ/mol
# Density = 1.920589 g / cm^3
# Si number density = 19.249706 Si / 1000 Ang^3
#
#
#
# Elastic Constant Matrix: (Units=GPa)
#
#
# Indices 1 2 3 4 5 6 
#
# 1 91.7000 30.2288 26.5133 0.0000 -3.4742 0.0000
# 2 30.2288 83.1720 31.5751 0.0000 3.0530 0.0000
# 3 26.5133 31.5751 122.1354 0.0000 -9.9669 0.0000
# 4 0.0000 0.0000 0.0000 14.5513 0.0000 1.8500
# 5 -3.4742 3.0530 -9.9669 0.0000 26.1847 0.0000
# 6 0.0000 0.0000 0.0000 1.8500 0.0000 15.5918
#
#
#
# Elastic Compliance Matrix: (Units=1/GPa)
#
#
# Indices 1 2 3 4 5 6 
#
# 1 0.012774 -0.004098 -0.001585 0.000000 0.001569 0.000000
# 2 -0.004098 0.014872 -0.003242 0.000000 -0.003512 0.000000
# 3 -0.001585 -0.003242 0.009684 0.000000 0.003854 0.000000
# 4 0.000000 0.000000 0.000000 0.069775 0.000000 -0.008279
# 5 0.001569 -0.003512 0.003854 0.000000 0.040275 0.000000
# 6 0.000000 0.000000 0.000000 -0.008279 0.000000 0.065119
#
#
# Mechanical properties :
#
#
# Convention : Reuss Voigt Hill
#
# Bulk Modulus (GPa) = 51.33574 52.62687 51.98131
# Shear Modulus (GPa) = 21.11097 25.17824 23.14461
#
# Velocity S-wave (km/s) = 3.31522 3.62052 3.47123
# Velocity P-wave (km/s) = 6.43277 6.69896 6.56721
#
# Compressibility (1/GPa) = 0.01947961
#
# Stress axis : x y z
#
# Youngs Moduli (GPa) = 78.28401 67.23843 103.25912
#
# Poissons Ratio (x) = 0.27557 0.16371
# Poissons Ratio (y) = 0.32084 0.33474
# Poissons Ratio (z) = 0.12411 0.21797
#
# Static dielectric constant tensor:
#      x y z
#    x 3.902780 0.000000 -0.022360 
#    y 0.000000 3.165070 0.000000 
#    z -0.022360 0.000000 4.246050 
# 
# 
# High freq. dielectric constant tensor:
#      x y z
#    x 1.766470 0.000000 0.003750 
#    y 0.000000 1.712260 0.000000 
#    z 0.003750 0.000000 1.767210 
# 
# From -- ./inp_files/22823.got.cif
#   From: 2010.03.12/outbox.cif.g09.slc.cpg/sg5_12_cif.got.tgz:22823.got - 2010.03.31 09:47:26.
