data_PCOD8048288
_publ_section_title
;
Structure prediction by ZEFSAII (Michael W. Deem and Ramdas Pophale) SiO2 
 PCOD8048288
Probable space group: C 2
;
_chemical_formula_sum "Si O2"
_cell_formula_units_Z 30
_cell_length_a 17.087770
_cell_length_b 8.938151
_cell_length_c 20.551062
_cell_angle_alpha 90.000000
_cell_angle_beta 150.127915
_cell_angle_gamma 90.000000
_cell_volume 1563.340758
_symmetry_space_group_name_H-M "C 2"
_symmetry_group_IT_number 5
_symmetry_cell_setting 'monoclinic'
loop_
_space_group_symop_operation_xyz
x,y,z
-x,y,-z
1/2+x,1/2+y,z
1/2-x,1/2+y,-z
loop_
_atom_site_type_symbol
_atom_site_label
_atom_site_fract_x
_atom_site_fract_y
_atom_site_fract_z
Si Si1 0.000000 0.228380 0.000000
Si Si2 0.805954 0.955165 0.898947
Si Si3 0.527304 0.308400 0.595075
Si Si4 0.654765 0.957854 0.201895
Si Si5 0.256822 0.513225 0.412674
Si Si6 0.908712 0.800079 0.845178
Si Si7 0.526883 0.025731 0.360615
Si Si8 0.857870 0.322000 0.444762
O O1 0.958553 0.332654 0.908904
O O2 0.861420 0.126161 0.929204
O O3 0.819335 0.875356 0.839741
O O4 0.621134 0.947849 0.783006
O O5 0.912554 0.865934 0.029242
O O6 0.500000 0.264212 0.500000
O O7 0.673377 0.422724 0.704541
O O8 0.376557 0.384269 0.520503
O O9 0.550443 0.159170 0.653639
O O10 0.653202 0.945892 0.279016
O O11 0.593628 0.123627 0.140921
O O12 0.146972 0.574095 0.391022
O O13 0.367848 0.647024 0.467893
O O14 0.813592 0.848012 0.711783
O O15 0.626839 0.917169 0.478899
O O16 0.000000 0.365810 0.500000
#
# Coordination Sequence:
#
# PCOD8048288 Si02
#       8
#     2   4   4   4   4   4   4   4
#     4  10  18  34  60  86 110 148 196 244 274 336
#     4  10  21  34  55  90 116 146 190 242 284 340
#     4  10  21  36  59  88 112 149 196 238 281 340
#     4  10  19  38  61  84 109 153 197 237 278 342
#     4  10  23  38  56  85 124 148 184 241 296 340
#     4   9  19  35  57  84 111 145 201 237 271 332
#     4  12  22  37  58  89 120 152 183 244 296 335
#     4  11  20  37  63  85 108 155 202 234 274 346
#
# _framework density 19.189675999999999
#
# number of rings (size 3 to 8) (size 9 to 14) (size 15 to 20)
#    0.000    1.867    2.667    4.000    0.000    1.067 
#    0.000    2.667    0.000    0.000    0.000    0.000 
#    0.000    0.000    0.000    0.000    0.000    0.000 
#
# Total GULP energy -185900.503761 kJ/mol
# GULP energy per Si atom -12393.366917 kJ/mol
# Density = 1.914600 g / cm^3
# Si number density = 19.189676 Si / 1000 Ang^3
#
#
#
# Elastic Constant Matrix: (Units=GPa)
#
#
# Indices 1 2 3 4 5 6 
#
# 1 67.7292 11.7394 27.6208 0.0000 3.7116 0.0000
# 2 11.7394 93.3260 56.6835 0.0000 -9.1541 0.0000
# 3 27.6208 56.6835 122.3531 0.0002 -2.7194 0.0000
# 4 0.0000 0.0000 0.0002 31.6137 0.0000 -1.7378
# 5 3.7116 -9.1541 -2.7194 0.0000 20.2398 0.0000
# 6 0.0000 0.0000 0.0000 -1.7378 0.0000 20.5820
#
#
#
# Elastic Compliance Matrix: (Units=1/GPa)
#
#
# Indices 1 2 3 4 5 6 
#
# 1 0.016512 -0.000164 -0.003732 0.000000 -0.003604 0.000000
# 2 -0.000164 0.015632 -0.007068 0.000000 0.006151 0.000000
# 3 -0.003732 -0.007068 0.012271 0.000000 -0.000864 0.000000
# 4 0.000000 0.000000 0.000000 0.031779 0.000000 0.002683
# 5 -0.003604 0.006151 -0.000864 0.000000 0.052734 0.000000
# 6 0.000000 0.000000 0.000000 0.002683 0.000000 0.048813
#
#
# Mechanical properties :
#
#
# Convention : Reuss Voigt Hill
#
# Bulk Modulus (GPa) = 44.46945 52.83288 48.65117
# Shear Modulus (GPa) = 24.13529 26.97807 25.55668
#
# Velocity S-wave (km/s) = 3.55029 3.75355 3.65333
# Velocity P-wave (km/s) = 6.32693 6.81008 6.57295
#
# Compressibility (1/GPa) = 0.02248735
#
# Stress axis : x y z
#
# Youngs Moduli (GPa) = 60.56039 63.97080 81.49368
#
# Poissons Ratio (x) = 0.01049 0.30411
# Poissons Ratio (y) = 0.00993 0.57602
# Poissons Ratio (z) = 0.22600 0.45216
#
# Static dielectric constant tensor:
#      x y z
#    x 3.065580 0.000000 -0.030280 
#    y 0.000000 3.715190 0.000000 
#    z -0.030280 0.000000 3.877740 
# 
# 
# High freq. dielectric constant tensor:
#      x y z
#    x 1.707540 0.000000 -0.001680 
#    y 0.000000 1.754170 0.000000 
#    z -0.001680 0.000000 1.759930 
# 
# From -- ./inp_files/66622.got.cif
#   From: 2010.03.12/outbox.cif.g09.slc.cpg/sg5_34_cif.got.tgz:66622.got - 2010.03.31 09:47:26.
