data_PCOD8048349
_publ_section_title
;
Structure prediction by ZEFSAII (Michael W. Deem and Ramdas Pophale) SiO2 
 PCOD8048349
Probable space group: C 2
;
_chemical_formula_sum "Si O2"
_cell_formula_units_Z 30
_cell_length_a 23.585390
_cell_length_b 8.965199
_cell_length_c 8.248094
_cell_angle_alpha 90.000000
_cell_angle_beta 61.934110
_cell_angle_gamma 90.000000
_cell_volume 1538.953864
_symmetry_space_group_name_H-M "C 2"
_symmetry_group_IT_number 5
_symmetry_cell_setting 'monoclinic'
loop_
_space_group_symop_operation_xyz
x,y,z
-x,y,-z
1/2+x,1/2+y,z
1/2-x,1/2+y,-z
loop_
_atom_site_type_symbol
_atom_site_label
_atom_site_fract_x
_atom_site_fract_y
_atom_site_fract_z
Si Si1 0.158276 0.438010 0.944682
Si Si2 0.500000 0.529442 0.000000
Si Si3 0.280281 0.666034 0.309646
Si Si4 0.957944 0.251834 0.798637
Si Si5 0.299676 0.221782 0.289175
Si Si6 0.791810 0.425468 0.765745
Si Si7 0.878188 0.971130 0.318941
Si Si8 0.093628 0.224644 0.477155
O O1 0.200689 0.328935 0.776315
O O2 0.156942 0.595742 0.853983
O O3 0.084106 0.390729 0.076354
O O4 0.196601 0.444650 0.060573
O O5 0.542674 0.628684 0.062719
O O6 0.450547 0.428864 0.167342
O O7 0.258789 0.658057 0.526701
O O8 0.223971 0.590987 0.278430
O O9 0.345541 0.570144 0.221311
O O10 0.923619 0.185927 0.685033
O O11 0.032149 0.293349 0.656593
O O12 0.270145 0.321199 0.184001
O O13 0.339971 0.314922 0.372139
O O14 0.852929 0.354549 0.589622
O O15 0.881732 0.067564 0.480436
#
# Coordination Sequence:
#
# PCOD8048349 Si02
#       8
#     4   2   4   4   4   4   4   4
#     4  11  21  38  57  86 119 152 195 245 285 352
#     4  10  18  36  58  82 112 144 196 246 276 354
#     4  11  21  36  56  83 113 156 193 237 288 349
#     4   9  19  33  60  89 110 149 195 236 293 334
#     4  11  23  36  55  85 119 156 195 236 295 347
#     4  10  21  36  58  86 117 153 194 241 292 341
#     4  10  20  36  56  80 112 150 192 238 285 336
#     4   9  18  36  58  85 117 148 192 244 282 351
#
# _framework density 19.493763000000001
#
# number of rings (size 3 to 8) (size 9 to 14) (size 15 to 20)
#    0.000    1.867    2.667    2.400    0.000    0.000 
#    0.000    3.333    0.000    0.000    0.000    0.000 
#    0.000    0.000    0.000    0.000    0.000    0.000 
#
# Total GULP energy -185857.292627 kJ/mol
# GULP energy per Si atom -12390.486175 kJ/mol
# Density = 1.944939 g / cm^3
# Si number density = 19.493763 Si / 1000 Ang^3
#
#
#
# Elastic Constant Matrix: (Units=GPa)
#
#
# Indices 1 2 3 4 5 6 
#
# 1 90.6135 42.4623 32.9763 0.0000 -2.1937 0.0000
# 2 42.4623 96.4297 37.3594 0.0000 -6.0292 0.0000
# 3 32.9763 37.3594 90.1241 0.0000 -3.8575 0.0000
# 4 0.0000 0.0000 0.0000 30.2462 0.0000 4.7770
# 5 -2.1937 -6.0292 -3.8575 0.0000 26.0851 0.0000
# 6 0.0000 0.0000 0.0000 4.7770 0.0000 26.4753
#
#
#
# Elastic Compliance Matrix: (Units=1/GPa)
#
#
# Indices 1 2 3 4 5 6 
#
# 1 0.014645 -0.005234 -0.003208 0.000000 -0.000453 0.000000
# 2 -0.005234 0.014342 -0.003932 0.000000 0.002293 0.000000
# 3 -0.003208 -0.003932 0.013937 0.000000 0.000882 0.000000
# 4 0.000000 0.000000 0.000000 0.034032 0.000000 -0.006140
# 5 -0.000453 0.002293 0.000882 0.000000 0.038959 0.000000
# 6 0.000000 0.000000 0.000000 -0.006140 0.000000 0.038879
#
#
# Mechanical properties :
#
#
# Convention : Reuss Voigt Hill
#
# Bulk Modulus (GPa) = 55.01837 55.86257 55.44047
# Shear Modulus (GPa) = 26.93950 27.51928 27.22939
#
# Velocity S-wave (km/s) = 3.72150 3.76133 3.74147
# Velocity P-wave (km/s) = 6.83746 6.89799 6.86780
#
# Compressibility (1/GPa) = 0.01817575
#
# Stress axis : x y z
#
# Youngs Moduli (GPa) = 68.28104 69.72623 71.74972
#
# Poissons Ratio (x) = 0.36497 0.23019
# Poissons Ratio (y) = 0.35741 0.28210
# Poissons Ratio (z) = 0.21907 0.27415
#
# Static dielectric constant tensor:
#      x y z
#    x 3.734190 0.000000 -0.049930 
#    y 0.000000 3.313640 0.000000 
#    z -0.049930 0.000000 3.522580 
# 
# 
# High freq. dielectric constant tensor:
#      x y z
#    x 1.770650 0.000000 -0.002780 
#    y 0.000000 1.726650 0.000000 
#    z -0.002780 0.000000 1.763200 
# 
# From -- ./inp_files/28920.got.cif
#   From: 2010.03.12/outbox.cif.g09.slc.cpg/sg5_15_cif.got.tgz:28920.got - 2010.03.31 09:47:26.
