data_PCOD8048382
_publ_section_title
;
Structure prediction by ZEFSAII (Michael W. Deem and Ramdas Pophale) SiO2 
 PCOD8048382
Probable space group: C 2
;
_chemical_formula_sum "Si O2"
_cell_formula_units_Z 26
_cell_length_a 12.228333
_cell_length_b 8.414871
_cell_length_c 11.232673
_cell_angle_alpha 90.000000
_cell_angle_beta 83.113633
_cell_angle_gamma 90.000000
_cell_volume 1147.501959
_symmetry_space_group_name_H-M "C 2"
_symmetry_group_IT_number 5
_symmetry_cell_setting 'monoclinic'
loop_
_space_group_symop_operation_xyz
x,y,z
-x,y,-z
1/2+x,1/2+y,z
1/2-x,1/2+y,-z
loop_
_atom_site_type_symbol
_atom_site_label
_atom_site_fract_x
_atom_site_fract_y
_atom_site_fract_z
Si Si1 0.790287 0.479120 0.944845
Si Si2 0.904438 0.757321 0.241893
Si Si3 0.500000 0.165174 0.000000
Si Si4 0.991420 0.211789 0.639992
Si Si5 0.195952 0.081639 0.715985
Si Si6 0.802159 0.133867 0.826135
Si Si7 0.934761 0.569824 0.625130
O O1 0.727805 0.581265 0.850692
O O2 0.804601 0.298509 0.900497
O O3 0.911375 0.550584 0.948050
O O4 0.717173 0.491907 0.075861
O O5 0.799069 0.638792 0.254945
O O6 0.012222 0.680570 0.283265
O O7 0.868958 0.919723 0.310553
O O8 0.937851 0.783109 0.099149
O O9 0.911161 0.101072 0.731959
O O10 0.941029 0.385988 0.658366
O O11 0.000000 0.156892 0.500000
O O12 0.111527 0.218687 0.686487
O O13 0.306094 0.107608 0.624111
O O14 0.000000 0.612816 0.500000
#
# Coordination Sequence:
#
# PCOD8048382 Si02
#       7
#     4   4   2   4   4   4   4
#     4  10  21  39  65  96 131 169 221 270 326 392
#     4  10  21  41  66  91 135 167 215 273 324 390
#     4  10  18  36  68  92 130 170 208 270 334 388
#     4  11  25  45  67  97 139 173 219 276 324 395
#     4  11  24  43  65 100 131 167 229 268 327 396
#     4  10  22  41  64  97 133 172 216 272 325 390
#     4  11  24  44  67  93 132 178 219 272 325 393
#
# _framework density 22.657914999999999
#
# number of rings (size 3 to 8) (size 9 to 14) (size 15 to 20)
#    0.000    1.538    4.615    0.000    2.154    8.615 
#    2.769    0.000    0.000    0.000    0.000    0.000 
#    0.000    0.000    0.000    0.000    0.000    0.000 
#
# Total GULP energy -161135.390288 kJ/mol
# GULP energy per Si atom -12395.030022 kJ/mol
# Density = 2.260634 g / cm^3
# Si number density = 22.657915 Si / 1000 Ang^3
#
#
#
# Elastic Constant Matrix: (Units=GPa)
#
#
# Indices 1 2 3 4 5 6 
#
# 1 175.4452 17.0787 49.2144 0.0000 -14.4326 0.0000
# 2 17.0787 24.0826 22.8525 0.0000 -3.8457 0.0000
# 3 49.2144 22.8525 86.4557 0.0000 -19.3333 0.0000
# 4 0.0000 0.0000 0.0000 21.6959 0.0000 -2.0899
# 5 -14.4326 -3.8457 -19.3333 0.0000 49.1102 0.0000
# 6 0.0000 0.0000 0.0000 -2.0899 0.0000 26.8332
#
#
#
# Elastic Compliance Matrix: (Units=1/GPa)
#
#
# Indices 1 2 3 4 5 6 
#
# 1 0.006840 -0.001583 -0.003348 0.000000 0.000568 0.000000
# 2 -0.001583 0.055902 -0.014256 0.000000 -0.001700 0.000000
# 3 -0.003348 -0.014256 0.018390 0.000000 0.005139 0.000000
# 4 0.000000 0.000000 0.000000 0.046440 0.000000 0.003617
# 5 0.000568 -0.001700 0.005139 0.000000 0.022419 0.000000
# 6 0.000000 0.000000 0.000000 0.003617 0.000000 0.037549
#
#
# Mechanical properties :
#
#
# Convention : Reuss Voigt Hill
#
# Bulk Modulus (GPa) = 23.38684 51.58608 37.48646
# Shear Modulus (GPa) = 20.81892 32.65038 26.73465
#
# Velocity S-wave (km/s) = 3.03452 3.80019 3.43873
# Velocity P-wave (km/s) = 4.75624 6.48629 5.68744
#
# Compressibility (1/GPa) = 0.04275908
#
# Stress axis : x y z
#
# Youngs Moduli (GPa) = 146.20371 17.88838 54.37771
#
# Poissons Ratio (x) = 0.02831 0.18206
# Poissons Ratio (y) = 0.23140 0.77518
# Poissons Ratio (z) = 0.48951 0.25501
#
# Static dielectric constant tensor:
#      x y z
#    x 4.332350 0.000000 -0.020080 
#    y 0.000000 3.632240 0.000000 
#    z -0.020080 0.000000 4.243550 
# 
# 
# High freq. dielectric constant tensor:
#      x y z
#    x 1.917280 0.000000 -0.006190 
#    y 0.000000 1.859220 0.000000 
#    z -0.006190 0.000000 1.892260 
# 
# From -- ./inp_files/38388.got.cif
#   From: 2010.03.12/outbox.cif.g09.slc.cpg/sg5_20_cif.got.tgz:38388.got - 2010.03.31 09:47:26.
