data_PCOD8048785
_publ_section_title
;
Structure prediction by ZEFSAII (Michael W. Deem and Ramdas Pophale) SiO2 
 PCOD8048785
Probable space group: C 2
;
_chemical_formula_sum "Si O2"
_cell_formula_units_Z 26
_cell_length_a 19.550573
_cell_length_b 9.006789
_cell_length_c 7.902882
_cell_angle_alpha 90.000000
_cell_angle_beta 57.338174
_cell_angle_gamma 90.000000
_cell_volume 1171.548540
_symmetry_space_group_name_H-M "C 2"
_symmetry_group_IT_number 5
_symmetry_cell_setting 'monoclinic'
loop_
_space_group_symop_operation_xyz
x,y,z
-x,y,-z
1/2+x,1/2+y,z
1/2-x,1/2+y,-z
loop_
_atom_site_type_symbol
_atom_site_label
_atom_site_fract_x
_atom_site_fract_y
_atom_site_fract_z
Si Si1 0.726177 0.565310 0.575554
Si Si2 0.174081 0.465408 0.249763
Si Si3 0.945949 0.244671 0.909738
Si Si4 0.795824 0.745873 0.976183
Si Si5 0.500000 0.864584 0.500000
Si Si6 0.718965 0.858943 0.763656
Si Si7 0.087564 0.922455 0.949742
O O1 0.794249 0.536746 0.622707
O O2 0.707769 0.741329 0.620356
O O3 0.762892 0.521212 0.342532
O O4 0.646635 0.461518 0.712862
O O5 0.202172 0.567142 0.049547
O O6 0.078016 0.468992 0.395690
O O7 0.212940 0.300729 0.178792
O O8 0.999281 0.266515 0.670522
O O9 0.918644 0.074371 0.936922
O O10 0.866635 0.352668 0.017332
O O11 0.000000 0.280543 0.000000
O O12 0.793097 0.816641 0.790068
O O13 0.874679 0.799535 0.975646
O O14 0.000000 0.866092 0.000000
#
# Coordination Sequence:
#
# PCOD8048785 Si02
#       7
#     4   4   4   4   2   4   4
#     4   9  20  37  61  86 125 169 211 265 326 392
#     4  10  22  40  64  92 131 169 219 267 328 395
#     4  10  21  40  64  95 132 166 220 277 330 397
#     4  10  21  41  66  89 129 172 217 270 326 395
#     4  12  22  40  66 100 132 178 216 274 340 388
#     4  10  19  38  59  93 123 166 218 263 321 397
#     4   9  20  42  61  91 131 167 218 283 324 391
#
# _framework density 22.192848999999999
#
# number of rings (size 3 to 8) (size 9 to 14) (size 15 to 20)
#    0.000    2.154    1.538    1.846    0.000    2.462 
#   13.846    0.769    0.000    0.000    0.000    0.000 
#    0.000    0.000    0.000    0.000    0.000    0.000 
#
# Total GULP energy -161134.276385 kJ/mol
# GULP energy per Si atom -12394.944337 kJ/mol
# Density = 2.214234 g / cm^3
# Si number density = 22.192849 Si / 1000 Ang^3
#
#
#
# Elastic Constant Matrix: (Units=GPa)
#
#
# Indices 1 2 3 4 5 6 
#
# 1 122.3683 9.6432 26.2784 0.0000 -26.1908 0.0000
# 2 9.6432 52.9690 13.1715 0.0000 -16.8663 0.0000
# 3 26.2784 13.1715 110.7048 0.0000 -7.7461 0.0000
# 4 0.0000 0.0000 0.0000 36.2138 0.0000 0.2255
# 5 -26.1908 -16.8663 -7.7461 0.0000 38.0072 0.0000
# 6 0.0000 0.0000 0.0000 0.2255 0.0000 27.0005
#
#
#
# Elastic Compliance Matrix: (Units=1/GPa)
#
#
# Indices 1 2 3 4 5 6 
#
# 1 0.010003 0.000863 -0.001996 0.000000 0.006869 0.000000
# 2 0.000863 0.022488 -0.002171 0.000000 0.010131 0.000000
# 3 -0.001996 -0.002171 0.009741 0.000000 -0.000354 0.000000
# 4 0.000000 0.000000 0.000000 0.027615 0.000000 -0.000231
# 5 0.006869 0.010131 -0.000354 0.000000 0.035468 0.000000
# 6 0.000000 0.000000 0.000000 -0.000231 0.000000 0.037038
#
#
# Mechanical properties :
#
#
# Convention : Reuss Voigt Hill
#
# Bulk Modulus (GPa) = 28.07360 42.69204 35.38282
# Shear Modulus (GPa) = 31.08742 36.04092 33.56417
#
# Velocity S-wave (km/s) = 3.74677 4.03425 3.89316
# Velocity P-wave (km/s) = 5.60312 6.40147 6.01555
#
# Compressibility (1/GPa) = 0.03562066
#
# Stress axis : x y z
#
# Youngs Moduli (GPa) = 99.97015 44.46850 102.66408
#
# Poissons Ratio (x) = -0.03836 0.20496
# Poissons Ratio (y) = -0.08623 0.22293
# Poissons Ratio (z) = 0.19959 0.09656
#
# Static dielectric constant tensor:
#      x y z
#    x 4.100640 0.000000 -0.008390 
#    y 0.000000 3.937350 0.000000 
#    z -0.008390 0.000000 3.953140 
# 
# 
# High freq. dielectric constant tensor:
#      x y z
#    x 1.883050 0.000000 0.010630 
#    y 0.000000 1.859540 0.000000 
#    z 0.010630 0.000000 1.862800 
# 
# From -- ./inp_files/28892.got.cif
#   From: 2010.03.12/outbox.cif.g09.slc.cpg/sg5_15_cif.got.tgz:28892.got - 2010.03.31 09:47:26.
