data_PCOD8048518
_publ_section_title
;
Structure prediction by ZEFSAII (Michael W. Deem and Ramdas Pophale) SiO2 
 PCOD8048518
Probable space group: C 2
;
_chemical_formula_sum "Si O2"
_cell_formula_units_Z 32
_cell_length_a 21.991738
_cell_length_b 9.983307
_cell_length_c 22.008786
_cell_angle_alpha 90.000000
_cell_angle_beta 158.786171
_cell_angle_gamma 90.000000
_cell_volume 1748.469850
_symmetry_space_group_name_H-M "C 2"
_symmetry_group_IT_number 5
_symmetry_cell_setting 'monoclinic'
loop_
_space_group_symop_operation_xyz
x,y,z
-x,y,-z
1/2+x,1/2+y,z
1/2-x,1/2+y,-z
loop_
_atom_site_type_symbol
_atom_site_label
_atom_site_fract_x
_atom_site_fract_y
_atom_site_fract_z
Si Si1 0.526762 0.776720 0.959113
Si Si2 0.943752 0.255546 0.660396
Si Si3 0.745640 0.790505 0.390624
Si Si4 0.471652 0.089214 0.040483
Si Si5 0.301020 0.541404 0.124480
Si Si6 0.715753 0.097324 0.369276
Si Si7 0.110272 0.759023 0.755269
Si Si8 0.951005 0.534375 0.213303
O O1 0.390308 0.723369 0.782471
O O2 0.488454 0.933090 0.926676
O O3 0.500000 0.708995 0.000000
O O4 0.722312 0.748242 0.128515
O O5 0.819393 0.262360 0.601922
O O6 0.864685 0.201651 0.523081
O O7 0.093880 0.151889 0.814030
O O8 0.018873 0.402868 0.717367
O O9 0.932210 0.724623 0.555821
O O10 0.773638 0.948511 0.404769
O O11 0.603079 0.158198 0.209692
O O12 0.500000 0.154832 0.000000
O O13 0.282348 0.104315 0.891425
O O14 0.412839 0.410266 0.241456
O O15 0.152064 0.489034 0.942375
O O16 0.624301 0.092247 0.349292
O O17 0.142647 0.650196 0.837590
#
# Coordination Sequence:
#
# PCOD8048518 Si02
#       8
#     4   4   4   4   4   4   4   4
#     4   9  19  34  52  78 107 134 175 225 262 301
#     4  11  19  32  50  79 111 135 167 211 264 313
#     4  10  19  32  52  79 109 136 171 215 260 315
#     4   8  16  32  52  76 103 132 172 222 262 298
#     4  10  19  32  53  76 106 139 171 217 263 310
#     4   9  17  31  49  74 108 133 165 215 258 307
#     4  11  19  33  54  77 107 140 173 215 265 309
#     4  10  20  32  48  77 109 138 172 210 259 320
#
# _framework density 18.301717
#
# number of rings (size 3 to 8) (size 9 to 14) (size 15 to 20)
#    0.000    2.250    2.500    3.750    0.000    0.500 
#    0.000    0.625    0.000    0.750    3.250    0.000 
#    0.000    0.000    0.000    0.000    0.000    0.000 
#
# Total GULP energy -198224.640423 kJ/mol
# GULP energy per Si atom -12389.040026 kJ/mol
# Density = 1.826006 g / cm^3
# Si number density = 18.301717 Si / 1000 Ang^3
#
#
#
# Elastic Constant Matrix: (Units=GPa)
#
#
# Indices 1 2 3 4 5 6 
#
# 1 82.3946 37.5714 44.2274 -0.0001 -1.7213 -0.0003
# 2 37.5714 55.8250 24.7595 -0.0010 2.5575 -0.0008
# 3 44.2274 24.7595 112.0793 0.0007 2.2363 -0.0010
# 4 -0.0001 -0.0010 0.0007 23.3757 -0.0001 1.8989
# 5 -1.7213 2.5575 2.2363 -0.0001 25.1926 -0.0004
# 6 -0.0003 -0.0008 -0.0010 1.8989 -0.0004 14.4659
#
#
#
# Elastic Compliance Matrix: (Units=1/GPa)
#
#
# Indices 1 2 3 4 5 6 
#
# 1 0.020394 -0.011384 -0.005593 0.000000 0.003046 0.000000
# 2 -0.011384 0.026281 -0.001247 0.000001 -0.003335 0.000001
# 3 -0.005593 -0.001247 0.011430 0.000000 -0.001270 0.000001
# 4 0.000000 0.000001 0.000000 0.043241 0.000000 -0.005676
# 5 0.003046 -0.003335 -0.001270 0.000000 0.040354 0.000001
# 6 0.000000 0.000001 0.000001 -0.005676 0.000001 0.069873
#
#
# Mechanical properties :
#
#
# Convention : Reuss Voigt Hill
#
# Bulk Modulus (GPa) = 46.17694 51.49060 48.83377
# Shear Modulus (GPa) = 19.58941 22.18955 20.88948
#
# Velocity S-wave (km/s) = 3.27518 3.48577 3.38212
# Velocity P-wave (km/s) = 6.29191 6.66305 6.48014
#
# Compressibility (1/GPa) = 0.02165583
#
# Stress axis : x y z
#
# Youngs Moduli (GPa) = 49.03414 38.05060 87.48698
#
# Poissons Ratio (x) = 0.43318 0.48936
# Poissons Ratio (y) = 0.55822 0.10908
# Poissons Ratio (z) = 0.27427 0.04744
#
# Static dielectric constant tensor:
#      x y z
#    x 3.360230 0.000000 -0.066450 
#    y 0.000000 3.019010 0.000000 
#    z -0.066450 0.000000 3.524890 
# 
# 
# High freq. dielectric constant tensor:
#      x y z
#    x 1.684720 0.000000 0.003150 
#    y 0.000000 1.666730 0.000000 
#    z 0.003150 0.000000 1.725490 
# 
# From -- ./inp_files/29306.got.cif
#   From: 2010.03.12/outbox.cif.g09.slc.cpg/sg5_15_cif.got.tgz:29306.got - 2010.03.31 09:47:26.
