data_PCOD8048189
_publ_section_title
;
Structure prediction by ZEFSAII (Michael W. Deem and Ramdas Pophale) SiO2 
 PCOD8048189
Probable space group: C 2
;
_chemical_formula_sum "Si O2"
_cell_formula_units_Z 30
_cell_length_a 24.219718
_cell_length_b 9.587034
_cell_length_c 11.055552
_cell_angle_alpha 90.000000
_cell_angle_beta 41.091140
_cell_angle_gamma 90.000000
_cell_volume 1687.213848
_symmetry_space_group_name_H-M "C 2"
_symmetry_group_IT_number 5
_symmetry_cell_setting 'monoclinic'
loop_
_space_group_symop_operation_xyz
x,y,z
-x,y,-z
1/2+x,1/2+y,z
1/2-x,1/2+y,-z
loop_
_atom_site_type_symbol
_atom_site_label
_atom_site_fract_x
_atom_site_fract_y
_atom_site_fract_z
Si Si1 0.753956 0.626570 0.904315
Si Si2 0.013927 0.097288 0.118263
Si Si3 0.796354 0.595056 0.106282
Si Si4 0.359368 0.392568 0.977531
Si Si5 0.500000 0.761041 0.500000
Si Si6 0.393119 0.831643 0.897477
Si Si7 0.408280 0.297881 0.634322
Si Si8 0.113189 0.064576 0.473844
O O1 0.844438 0.674211 0.704237
O O2 0.763853 0.578616 0.024589
O O3 0.720750 0.496498 0.880443
O O4 0.691705 0.757564 0.006171
O O5 0.924187 0.096308 0.332612
O O6 0.062705 0.237392 0.074357
O O7 0.064254 0.959214 0.075016
O O8 0.000000 0.095630 0.000000
O O9 0.713597 0.578176 0.324892
O O10 0.837702 0.743322 0.070551
O O11 0.868121 0.476799 0.004121
O O12 0.381334 0.378216 0.800399
O O13 0.454337 0.853688 0.679412
O O14 0.572333 0.665940 0.440713
O O15 0.500000 0.229753 0.500000
O O16 0.410536 0.407227 0.521945
#
# Coordination Sequence:
#
# PCOD8048189 Si02
#       8
#     4   4   4   4   2   4   4   4
#     4  10  18  30  52  81 117 141 166 208 259 333
#     4  10  22  40  57  72  98 145 191 230 262 315
#     4  11  19  32  53  84 111 143 164 219 274 318
#     4  10  20  34  54  78 112 141 175 211 268 325
#     4  10  18  30  50  84 114 146 174 210 264 328
#     4  10  19  34  55  81 109 141 180 215 262 324
#     4  11  17  30  52  86 110 141 175 209 267 326
#     4  11  17  31  56  76 107 140 181 212 271 322
#
# _framework density 17.780792000000002
#
# number of rings (size 3 to 8) (size 9 to 14) (size 15 to 20)
#    0.000    1.600    6.000    1.600    0.000    0.000 
#    4.800    2.000    0.000    0.000    0.000    0.000 
#    0.000    0.000    0.000    0.000    0.000    0.000 
#
# Total GULP energy -185967.284210 kJ/mol
# GULP energy per Si atom -12397.818947 kJ/mol
# Density = 1.774032 g / cm^3
# Si number density = 17.780792 Si / 1000 Ang^3
#
#
#
# Elastic Constant Matrix: (Units=GPa)
#
#
# Indices 1 2 3 4 5 6 
#
# 1 53.8830 31.7205 36.5877 0.0000 4.1188 0.0000
# 2 31.7205 114.7856 56.6449 0.0000 -15.4788 0.0000
# 3 36.5877 56.6449 115.9827 0.0000 -18.1748 0.0000
# 4 0.0000 0.0000 0.0000 24.7003 0.0000 -9.3506
# 5 4.1188 -15.4788 -18.1748 0.0000 28.4570 0.0000
# 6 0.0000 0.0000 0.0000 -9.3506 0.0000 11.9236
#
#
#
# Elastic Compliance Matrix: (Units=1/GPa)
#
#
# Indices 1 2 3 4 5 6 
#
# 1 0.028244 -0.005420 -0.008185 0.000000 -0.012263 0.000000
# 2 -0.005420 0.012747 -0.003674 0.000000 0.005372 0.000000
# 3 -0.008185 -0.003674 0.014302 0.000000 0.008321 0.000000
# 4 0.000000 0.000000 0.000000 0.057579 0.000000 0.045154
# 5 -0.012263 0.005372 0.008321 0.000000 0.045152 0.000000
# 6 0.000000 0.000000 0.000000 0.045154 0.000000 0.119278
#
#
# Mechanical properties :
#
#
# Convention : Reuss Voigt Hill
#
# Bulk Modulus (GPa) = 48.22447 59.39529 53.80988
# Shear Modulus (GPa) = 15.68522 23.66272 19.67397
#
# Velocity S-wave (km/s) = 2.97331 3.65197 3.32998
# Velocity P-wave (km/s) = 6.24243 7.15956 6.71667
#
# Compressibility (1/GPa) = 0.02073636
#
# Stress axis : x y z
#
# Youngs Moduli (GPa) = 35.40536 78.44905 69.91980
#
# Poissons Ratio (x) = 0.42519 0.57226
# Poissons Ratio (y) = 0.19190 0.25689
# Poissons Ratio (z) = 0.28978 0.28823
#
# Static dielectric constant tensor:
#      x y z
#    x 2.934810 0.000000 -0.383940 
#    y 0.000000 3.305600 0.000000 
#    z -0.383940 0.000000 3.539590 
# 
# 
# High freq. dielectric constant tensor:
#      x y z
#    x 1.641660 0.000000 -0.031620 
#    y 0.000000 1.686970 0.000000 
#    z -0.031620 0.000000 1.688890 
# 
# From -- ./inp_files/44159.got.cif
#   From: 2010.03.12/outbox.cif.g09.slc.cpg/sg5_23_cif.got.tgz:44159.got - 2010.03.31 09:47:26.
