data_PCOD8048140
_publ_section_title
;
Structure prediction by ZEFSAII (Michael W. Deem and Ramdas Pophale) SiO2 
 PCOD8048140
Probable space group: C 2
;
_chemical_formula_sum "Si O2"
_cell_formula_units_Z 32
_cell_length_a 22.740353
_cell_length_b 17.154603
_cell_length_c 10.225131
_cell_angle_alpha 90.000000
_cell_angle_beta 154.166480
_cell_angle_gamma 90.000000
_cell_volume 1738.168466
_symmetry_space_group_name_H-M "C 2"
_symmetry_group_IT_number 5
_symmetry_cell_setting 'monoclinic'
loop_
_space_group_symop_operation_xyz
x,y,z
-x,y,-z
1/2+x,1/2+y,z
1/2-x,1/2+y,-z
loop_
_atom_site_type_symbol
_atom_site_label
_atom_site_fract_x
_atom_site_fract_y
_atom_site_fract_z
Si Si1 0.362379 0.278780 0.587316
Si Si2 0.514251 0.118919 0.390998
Si Si3 0.749918 0.219587 0.166754
Si Si4 0.761007 0.231842 0.903315
Si Si5 0.160516 0.838574 0.187250
Si Si6 0.502669 0.616611 0.655904
Si Si7 0.891421 0.013651 0.900236
Si Si8 0.386013 0.094573 0.670834
O O1 0.272370 0.295230 0.276754
O O2 0.293290 0.321515 0.571485
O O3 0.374449 0.187561 0.643097
O O4 0.508589 0.313156 0.855353
O O5 0.500000 0.070904 0.500000
O O6 0.634966 0.176041 0.665884
O O7 0.559700 0.063627 0.362067
O O8 0.388798 0.172330 0.098223
O O9 0.758317 0.289256 0.288633
O O10 0.860801 0.153199 0.414316
O O11 0.778695 0.264213 0.085915
O O12 0.891003 0.185632 0.116175
O O13 0.168614 0.930327 0.178279
O O14 0.500000 0.584705 0.500000
O O15 0.539385 0.548491 0.831155
O O16 0.762168 0.062603 0.591827
O O17 0.000000 0.008135 0.000000
O O18 0.500000 0.066736 0.000000
#
# Coordination Sequence:
#
# PCOD8048140 Si02
#       8
#     4   4   4   4   4   4   4   4
#     4  10  17  35  58  79 110 149 192 239 274 333
#     4   9  16  30  56  87 107 140 193 243 275 331
#     4  10  19  33  63  87 110 146 204 239 293 350
#     4   9  17  34  58  89 110 144 200 249 281 341
#     4  11  21  38  56  87 117 150 192 251 289 355
#     4  10  22  39  58  91 123 156 197 254 299 360
#     4  12  26  40  56  87 131 159 193 248 314 354
#     4  11  20  37  63  83 110 154 203 241 286 355
#
# _framework density 18.410183
#
# number of rings (size 3 to 8) (size 9 to 14) (size 15 to 20)
#    0.000    1.750    7.500    0.000    3.500    0.000 
#    2.250    1.250    0.000    2.250    0.000    0.000 
#    0.000    0.000    0.000    0.000    0.000    0.000 
#
# Total GULP energy -198232.266723 kJ/mol
# GULP energy per Si atom -12389.516670 kJ/mol
# Density = 1.836828 g / cm^3
# Si number density = 18.410183 Si / 1000 Ang^3
#
#
#
# Elastic Constant Matrix: (Units=GPa)
#
#
# Indices 1 2 3 4 5 6 
#
# 1 135.6903 29.0784 20.9186 0.0000 -17.4128 0.0000
# 2 29.0784 62.8393 19.4759 0.0000 -0.6783 0.0000
# 3 20.9186 19.4759 72.8895 0.0000 -1.1939 0.0000
# 4 0.0000 0.0000 0.0000 20.7190 0.0000 -2.4371
# 5 -17.4128 -0.6783 -1.1939 0.0000 36.6855 0.0000
# 6 0.0000 0.0000 0.0000 -2.4371 0.0000 14.8659
#
#
#
# Elastic Compliance Matrix: (Units=1/GPa)
#
#
# Indices 1 2 3 4 5 6 
#
# 1 0.008905 -0.003603 -0.001525 0.000000 0.004110 0.000000
# 2 -0.003603 0.018810 -0.004016 0.000000 -0.001493 0.000000
# 3 -0.001525 -0.004016 0.015225 0.000000 -0.000303 0.000000
# 4 0.000000 0.000000 0.000000 0.049214 0.000000 0.008068
# 5 0.004110 -0.001493 -0.000303 0.000000 0.029172 0.000000
# 6 0.000000 0.000000 0.000000 0.008068 0.000000 0.068591
#
#
# Mechanical properties :
#
#
# Convention : Reuss Voigt Hill
#
# Bulk Modulus (GPa) = 40.56861 45.59609 43.08235
# Shear Modulus (GPa) = 23.10293 27.91717 25.51005
#
# Velocity S-wave (km/s) = 3.54630 3.89832 3.72647
# Velocity P-wave (km/s) = 6.23315 6.71439 6.47824
#
# Compressibility (1/GPa) = 0.02464960
#
# Stress axis : x y z
#
# Youngs Moduli (GPa) = 112.30219 53.16412 65.68000
#
# Poissons Ratio (x) = 0.19157 0.10019
# Poissons Ratio (y) = 0.40467 0.26379
# Poissons Ratio (z) = 0.17130 0.21352
#
# Static dielectric constant tensor:
#      x y z
#    x 4.176870 0.000000 -0.250390 
#    y 0.000000 3.045050 0.000000 
#    z -0.250390 0.000000 3.436700 
# 
# 
# High freq. dielectric constant tensor:
#      x y z
#    x 1.738260 0.000000 -0.005700 
#    y 0.000000 1.657840 0.000000 
#    z -0.005700 0.000000 1.716790 
# 
# From -- ./inp_files/47577.got.cif
#   From: 2010.03.12/outbox.cif.g09.slc.cpg/sg5_24_cif.got.tgz:47577.got - 2010.03.31 09:47:26.
