data_PCOD8048627
_publ_section_title
;
Structure prediction by ZEFSAII (Michael W. Deem and Ramdas Pophale) SiO2 
 PCOD8048627
Probable space group: C 2
;
_chemical_formula_sum "Si O2"
_cell_formula_units_Z 32
_cell_length_a 21.812019
_cell_length_b 17.156281
_cell_length_c 11.787119
_cell_angle_alpha 90.000000
_cell_angle_beta 159.023930
_cell_angle_gamma 90.000000
_cell_volume 1579.003256
_symmetry_space_group_name_H-M "C 2"
_symmetry_group_IT_number 5
_symmetry_cell_setting 'monoclinic'
loop_
_space_group_symop_operation_xyz
x,y,z
-x,y,-z
1/2+x,1/2+y,z
1/2-x,1/2+y,-z
loop_
_atom_site_type_symbol
_atom_site_label
_atom_site_fract_x
_atom_site_fract_y
_atom_site_fract_z
Si Si1 0.353386 0.573320 0.078476
Si Si2 0.274577 0.542474 0.196412
Si Si3 0.288112 0.920614 0.256136
Si Si4 0.870260 0.241914 0.030316
Si Si5 0.747911 0.277682 0.336170
Si Si6 0.309708 0.720455 0.684175
Si Si7 0.013870 0.632470 0.896757
Si Si8 0.313146 0.890627 0.049663
O O1 0.262119 0.570276 0.043735
O O2 0.558008 0.570285 0.447919
O O3 0.302976 0.655609 0.937391
O O4 0.287555 0.508628 0.873790
O O5 0.285048 0.448500 0.206236
O O6 0.107346 0.571626 0.975594
O O7 0.208018 0.864038 0.215734
O O8 0.235996 0.889940 0.042014
O O9 0.491901 0.920724 0.620168
O O10 0.779880 0.302232 0.957157
O O11 0.073066 0.246861 0.403616
O O12 0.816676 0.269988 0.811846
O O13 0.756026 0.277962 0.487937
O O14 0.605257 0.216782 0.050138
O O15 0.181305 0.647723 0.478089
O O16 0.500000 0.683534 0.000000
O O17 0.000000 0.597711 0.000000
#
# Coordination Sequence:
#
# PCOD8048627 Si02
#       8
#     4   4   4   4   4   4   4   4
#     4  10  21  35  61  89 124 158 199 249 302 359
#     4  10  21  37  56  87 128 157 197 247 305 357
#     4   9  19  35  58  85 118 155 199 246 300 351
#     4  10  19  35  59  87 115 157 199 241 299 356
#     4   9  18  36  60  82 113 156 199 241 292 354
#     4   9  20  36  58  84 118 152 201 251 291 348
#     4  10  20  36  59  85 117 157 203 247 293 355
#     4   9  20  35  56  83 123 156 193 246 300 355
#
# _framework density 20.265948999999999
#
# number of rings (size 3 to 8) (size 9 to 14) (size 15 to 20)
#    0.000    2.500    1.250    0.000    3.500    2.000 
#    0.000    3.125    0.000    5.250    0.000    0.000 
#    0.000    0.000    0.000    0.000    0.000    0.000 
#
# Total GULP energy -198268.900922 kJ/mol
# GULP energy per Si atom -12391.806308 kJ/mol
# Density = 2.021982 g / cm^3
# Si number density = 20.265949 Si / 1000 Ang^3
#
#
#
# Elastic Constant Matrix: (Units=GPa)
#
#
# Indices 1 2 3 4 5 6 
#
# 1 99.9691 60.4475 29.9481 0.0000 0.0903 0.0000
# 2 60.4475 150.8413 32.7905 0.0000 -15.3490 0.0000
# 3 29.9481 32.7905 62.7315 0.0000 -7.6854 0.0000
# 4 0.0000 0.0000 0.0000 25.3198 0.0000 0.1760
# 5 0.0903 -15.3490 -7.6854 0.0000 21.5161 0.0000
# 6 0.0000 0.0000 0.0000 0.1760 0.0000 33.1705
#
#
#
# Elastic Compliance Matrix: (Units=1/GPa)
#
#
# Indices 1 2 3 4 5 6 
#
# 1 0.014759 -0.005427 -0.004906 0.000000 -0.005685 0.000000
# 2 -0.005427 0.009841 -0.001768 0.000000 0.006411 0.000000
# 3 -0.004906 -0.001768 0.019927 0.000000 0.005877 0.000000
# 4 0.000000 0.000000 0.000000 0.039496 0.000000 -0.000210
# 5 -0.005685 0.006411 0.005877 0.000000 0.053174 0.000000
# 6 0.000000 0.000000 0.000000 -0.000210 0.000000 0.030148
#
#
# Mechanical properties :
#
#
# Convention : Reuss Voigt Hill
#
# Bulk Modulus (GPa) = 49.19711 62.21266 55.70489
# Shear Modulus (GPa) = 25.21154 28.69167 26.95160
#
# Velocity S-wave (km/s) = 3.53091 3.76674 3.65073
# Velocity P-wave (km/s) = 6.39934 7.04858 6.73179
#
# Compressibility (1/GPa) = 0.02032640
#
# Stress axis : x y z
#
# Youngs Moduli (GPa) = 67.75444 101.61789 50.18260
#
# Poissons Ratio (x) = 0.55144 0.24620
# Poissons Ratio (y) = 0.36767 0.08871
# Poissons Ratio (z) = 0.33241 0.17964
#
# Static dielectric constant tensor:
#      x y z
#    x 3.780610 0.000000 -0.018590 
#    y 0.000000 3.492350 0.000000 
#    z -0.018590 0.000000 3.679250 
# 
# 
# High freq. dielectric constant tensor:
#      x y z
#    x 1.786700 0.000000 -0.004490 
#    y 0.000000 1.768980 0.000000 
#    z -0.004490 0.000000 1.791440 
# 
# From -- ./inp_files/47571.got.cif
#   From: 2010.03.12/outbox.cif.g09.slc.cpg/sg5_24_cif.got.tgz:47571.got - 2010.03.31 09:47:26.
