data_PCOD8048282
_publ_section_title
;
Structure prediction by ZEFSAII (Michael W. Deem and Ramdas Pophale) SiO2 
 PCOD8048282
Probable space group: C 2
;
_chemical_formula_sum "Si O2"
_cell_formula_units_Z 32
_cell_length_a 16.302193
_cell_length_b 21.415651
_cell_length_c 9.074928
_cell_angle_alpha 90.000000
_cell_angle_beta 150.281487
_cell_angle_gamma 90.000000
_cell_volume 1570.629882
_symmetry_space_group_name_H-M "C 2"
_symmetry_group_IT_number 5
_symmetry_cell_setting 'monoclinic'
loop_
_space_group_symop_operation_xyz
x,y,z
-x,y,-z
1/2+x,1/2+y,z
1/2-x,1/2+y,-z
loop_
_atom_site_type_symbol
_atom_site_label
_atom_site_fract_x
_atom_site_fract_y
_atom_site_fract_z
Si Si1 0.123969 0.519760 0.914683
Si Si2 0.323543 0.329566 0.298961
Si Si3 0.600465 0.582720 0.807744
Si Si4 0.824014 0.685605 0.297206
Si Si5 0.190821 0.018558 0.502406
Si Si6 0.086929 0.623515 0.281412
Si Si7 0.510900 0.889895 0.681460
Si Si8 0.317086 0.891662 0.646587
O O1 0.998320 0.465688 0.668260
O O2 0.040495 0.586063 0.816182
O O3 0.253083 0.533686 0.987327
O O4 0.220473 0.497531 0.209370
O O5 0.500000 0.346247 0.500000
O O6 0.280565 0.257575 0.204004
O O7 0.298736 0.345818 0.435262
O O8 0.194615 0.372526 0.015113
O O9 0.500000 0.599246 0.500000
O O10 0.492112 0.544405 0.756008
O O11 0.673504 0.646210 0.991713
O O12 0.834068 0.676048 0.490458
O O13 0.000000 0.668132 0.500000
O O14 0.276110 0.075081 0.553529
O O15 0.208169 0.953898 0.439979
O O16 0.000000 0.653464 0.000000
O O17 0.500000 0.863674 0.500000
O O18 0.365760 0.861876 0.561643
O O19 0.500000 0.907241 0.000000
#
# Coordination Sequence:
#
# PCOD8048282 Si02
#       8
#     4   4   4   4   4   4   4   4
#     4  10  18  34  61  90 126 163 205 249 324 393
#     4  10  24  43  67  87 119 178 223 258 312 379
#     4  10  23  35  60  98 130 169 200 269 325 374
#     4  11  23  44  64  90 127 174 220 256 310 394
#     4  10  18  34  58  93 128 156 202 258 323 375
#     4  10  20  37  63  92 122 166 206 256 320 388
#     4  11  23  38  64  98 122 169 213 267 321 383
#     4  10  18  39  63  88 125 168 209 254 316 382
#
# _framework density 20.373991
#
# number of rings (size 3 to 8) (size 9 to 14) (size 15 to 20)
#    0.000    1.750    5.000    0.375    3.500    1.000 
#    6.750    3.125    0.000    0.000    0.000    0.000 
#    0.000    0.000    0.000    0.000    0.000    0.000 
#
# Total GULP energy -198237.242900 kJ/mol
# GULP energy per Si atom -12389.827681 kJ/mol
# Density = 2.032762 g / cm^3
# Si number density = 20.373991 Si / 1000 Ang^3
#
#
#
# Elastic Constant Matrix: (Units=GPa)
#
#
# Indices 1 2 3 4 5 6 
#
# 1 154.3302 39.2770 47.2804 0.0000 11.7736 0.0000
# 2 39.2770 58.9727 22.5287 0.0000 8.7572 0.0000
# 3 47.2804 22.5287 51.2670 0.0000 8.5626 0.0000
# 4 0.0000 0.0000 0.0000 24.2387 0.0000 4.6143
# 5 11.7736 8.7572 8.5626 0.0000 38.1535 0.0000
# 6 0.0000 0.0000 0.0000 4.6143 0.0000 41.6051
#
#
#
# Elastic Compliance Matrix: (Units=1/GPa)
#
#
# Indices 1 2 3 4 5 6 
#
# 1 0.009649 -0.003583 -0.007235 0.000000 -0.000531 0.000000
# 2 -0.003583 0.021995 -0.005924 0.000000 -0.002613 0.000000
# 3 -0.007235 -0.005924 0.029279 0.000000 -0.002979 0.000000
# 4 0.000000 0.000000 0.000000 0.042146 0.000000 -0.004674
# 5 -0.000531 -0.002613 -0.002979 0.000000 0.027642 0.000000
# 6 0.000000 0.000000 0.000000 -0.004674 0.000000 0.024554
#
#
# Mechanical properties :
#
#
# Convention : Reuss Voigt Hill
#
# Bulk Modulus (GPa) = 36.44682 53.63802 45.04242
# Shear Modulus (GPa) = 25.26593 31.16506 28.21549
#
# Velocity S-wave (km/s) = 3.52534 3.91532 3.72543
# Velocity P-wave (km/s) = 5.87353 6.84277 6.37659
#
# Compressibility (1/GPa) = 0.02743724
#
# Stress axis : x y z
#
# Youngs Moduli (GPa) = 103.64212 45.46533 34.15442
#
# Poissons Ratio (x) = 0.16292 0.24710
# Poissons Ratio (y) = 0.37139 0.20234
# Poissons Ratio (z) = 0.74984 0.26934
#
# Static dielectric constant tensor:
#      x y z
#    x 4.193400 0.000000 0.164950 
#    y 0.000000 3.500090 0.000000 
#    z 0.164950 0.000000 3.427170 
# 
# 
# High freq. dielectric constant tensor:
#      x y z
#    x 1.818510 0.000000 0.011750 
#    y 0.000000 1.772840 0.000000 
#    z 0.011750 0.000000 1.766830 
# 
# From -- ./inp_files/25651.got.cif
#   From: 2010.03.12/outbox.cif.g09.slc.cpg/sg5_13_cif.got.tgz:25651.got - 2010.03.31 09:47:26.
