data_PCOD8048524
_publ_section_title
;
Structure prediction by ZEFSAII (Michael W. Deem and Ramdas Pophale) SiO2 
 PCOD8048524
Probable space group: C 2
;
_chemical_formula_sum "Si O2"
_cell_formula_units_Z 30
_cell_length_a 8.312628
_cell_length_b 21.016251
_cell_length_c 9.691460
_cell_angle_alpha 90.000000
_cell_angle_beta 78.377879
_cell_angle_gamma 90.000000
_cell_volume 1658.388018
_symmetry_space_group_name_H-M "C 2"
_symmetry_group_IT_number 5
_symmetry_cell_setting 'monoclinic'
loop_
_space_group_symop_operation_xyz
x,y,z
-x,y,-z
1/2+x,1/2+y,z
1/2-x,1/2+y,-z
loop_
_atom_site_type_symbol
_atom_site_label
_atom_site_fract_x
_atom_site_fract_y
_atom_site_fract_z
Si Si1 0.791760 0.443870 0.953049
Si Si2 0.943516 0.590098 0.662238
Si Si3 0.613164 0.522343 0.776217
Si Si4 0.873369 0.828624 0.901607
Si Si5 0.851277 0.685572 0.913133
Si Si6 0.500000 0.622703 0.000000
Si Si7 0.573578 0.419423 0.346785
Si Si8 0.382965 0.981995 0.221641
O O1 0.639134 0.469870 0.892493
O O2 0.948576 0.443402 0.827116
O O3 0.773002 0.372772 0.015201
O O4 0.807436 0.492688 0.080612
O O5 0.782384 0.546119 0.679005
O O6 0.908948 0.650588 0.763944
O O7 0.000000 0.612064 0.500000
O O8 0.088662 0.549048 0.708137
O O9 0.509158 0.486944 0.677751
O O10 0.515510 0.581459 0.857778
O O11 0.814660 0.758078 0.873836
O O12 0.956940 0.863106 0.756748
O O13 0.000000 0.819749 0.000000
O O14 0.671385 0.661147 0.994250
O O15 0.000000 0.677820 0.000000
O O16 0.500000 0.392699 0.500000
O O17 0.766028 0.436045 0.331926
#
# Coordination Sequence:
#
# PCOD8048524 Si02
#       8
#     4   4   4   4   4   2   4   4
#     4   9  17  32  55  79 104 134 174 223 270 313
#     4  10  21  36  52  76 112 144 174 216 271 329
#     4  10  19  32  55  78 109 139 167 221 280 316
#     4  10  19  37  55  76 104 140 180 222 262 312
#     4  10  24  36  58  81 104 147 190 224 266 314
#     4  10  20  36  56  84 108 138 180 232 270 314
#     4  11  21  32  53  83 109 139 173 215 271 331
#     4   9  19  29  52  83 105 133 170 217 270 319
#
# _framework density 18.089856000000001
#
# number of rings (size 3 to 8) (size 9 to 14) (size 15 to 20)
#    0.000    2.133    1.333    2.400    7.467    2.667 
#    0.000    0.000    0.000    0.000    0.000    0.000 
#    0.000    0.000    0.000    0.000    0.000    0.000 
#
# Total GULP energy -185881.792865 kJ/mol
# GULP energy per Si atom -12392.119524 kJ/mol
# Density = 1.804868 g / cm^3
# Si number density = 18.089856 Si / 1000 Ang^3
#
#
#
# Elastic Constant Matrix: (Units=GPa)
#
#
# Indices 1 2 3 4 5 6 
#
# 1 78.8263 38.0400 39.1787 0.0000 -9.1511 0.0000
# 2 38.0400 121.1363 54.6385 0.0000 -4.2402 0.0000
# 3 39.1787 54.6385 112.1137 0.0000 -18.0158 0.0000
# 4 0.0000 0.0000 0.0000 3.1942 0.0000 -1.5034
# 5 -9.1511 -4.2402 -18.0158 0.0000 24.5011 0.0000
# 6 0.0000 0.0000 0.0000 -1.5034 0.0000 22.6037
#
#
#
# Elastic Compliance Matrix: (Units=1/GPa)
#
#
# Indices 1 2 3 4 5 6 
#
# 1 0.016482 -0.003443 -0.003615 0.000000 0.002902 0.000000
# 2 -0.003443 0.011408 -0.004815 0.000000 -0.002852 0.000000
# 3 -0.003615 -0.004815 0.013810 0.000000 0.007971 0.000000
# 4 0.000000 0.000000 0.000000 0.323189 0.000000 0.021496
# 5 0.002902 -0.002852 0.007971 0.000000 0.047266 0.000000
# 6 0.000000 0.000000 0.000000 0.021496 0.000000 0.045670
#
#
# Mechanical properties :
#
#
# Convention : Reuss Voigt Hill
#
# Bulk Modulus (GPa) = 55.69992 63.97674 59.83833
# Shear Modulus (GPa) = 10.25520 22.07438 16.16479
#
# Velocity S-wave (km/s) = 2.38356 3.49702 2.99253
# Velocity P-wave (km/s) = 6.19941 7.19363 6.71495
#
# Compressibility (1/GPa) = 0.01795335
#
# Stress axis : x y z
#
# Youngs Moduli (GPa) = 60.67397 87.65460 72.40976
#
# Poissons Ratio (x) = 0.30184 0.26177
# Poissons Ratio (y) = 0.20893 0.34864
# Poissons Ratio (z) = 0.21934 0.42205
#
# Static dielectric constant tensor:
#      x y z
#    x 3.686770 0.000000 -0.092580 
#    y 0.000000 3.406700 0.000000 
#    z -0.092580 0.000000 3.235780 
# 
# 
# High freq. dielectric constant tensor:
#      x y z
#    x 1.709110 0.000000 -0.009540 
#    y 0.000000 1.683220 0.000000 
#    z -0.009540 0.000000 1.689620 
# 
# From -- ./inp_files/16791.got.cif
#   From: 2010.03.12/outbox.cif.g09.slc.cpg/sg5_9_cif.got.tgz:16791.got - 2010.03.31 09:47:26.
