data_PCOD8048788
_publ_section_title
;
Structure prediction by ZEFSAII (Michael W. Deem and Ramdas Pophale) SiO2 
 PCOD8048788
Probable space group: C 2
;
_chemical_formula_sum "Si O2"
_cell_formula_units_Z 32
_cell_length_a 26.402545
_cell_length_b 8.542004
_cell_length_c 20.101150
_cell_angle_alpha 90.000000
_cell_angle_beta 19.475514
_cell_angle_gamma 90.000000
_cell_volume 1511.462047
_symmetry_space_group_name_H-M "C 2"
_symmetry_group_IT_number 5
_symmetry_cell_setting 'monoclinic'
loop_
_space_group_symop_operation_xyz
x,y,z
-x,y,-z
1/2+x,1/2+y,z
1/2-x,1/2+y,-z
loop_
_atom_site_type_symbol
_atom_site_label
_atom_site_fract_x
_atom_site_fract_y
_atom_site_fract_z
Si Si1 0.053266 0.265210 0.735408
Si Si2 0.231082 0.773883 0.206236
Si Si3 0.202905 0.550369 0.135213
Si Si4 0.171756 0.064713 0.802550
Si Si5 0.105743 0.228559 0.196929
Si Si6 0.792322 0.979474 0.386462
Si Si7 0.610085 0.358672 0.000084
Si Si8 0.859281 0.110257 0.710511
O O1 0.152019 0.423918 0.605355
O O2 0.030146 0.210367 0.687314
O O3 0.149612 0.142673 0.657313
O O4 0.894921 0.300480 0.967815
O O5 0.128886 0.652979 0.287326
O O6 0.246832 0.711845 0.262244
O O7 0.149508 0.939443 0.310519
O O8 0.106633 0.405923 0.225478
O O9 0.355013 0.478410 0.982181
O O10 0.239520 0.675681 0.032113
O O11 0.256868 0.012455 0.629490
O O12 0.174576 0.920867 0.850334
O O13 0.000000 0.116670 0.000000
O O14 0.089642 0.103844 0.275913
O O15 0.927103 0.847630 0.222090
O O16 0.696398 0.195763 0.905662
O O17 0.000000 0.198879 0.500000
#
# Coordination Sequence:
#
# PCOD8048788 Si02
#       8
#     4   4   4   4   4   4   4   4
#     4  11  23  39  63  96 126 162 213 265 318 382
#     4  10  20  43  62  90 129 166 211 264 319 380
#     4   9  17  36  65  85 113 164 200 258 309 381
#     4   9  17  40  67  84 118 175 207 247 318 391
#     4  10  19  38  60  89 121 157 206 253 323 368
#     4  11  22  41  65  96 127 165 211 265 316 392
#     4   9  19  40  65  84 124 165 206 257 320 377
#     4  11  25  40  60  93 127 161 212 268 311 378
#
# _framework density 21.171552999999999
#
# number of rings (size 3 to 8) (size 9 to 14) (size 15 to 20)
#    0.000    2.000    5.000    1.500    3.500    0.000 
#    4.500    3.125    0.000    0.000    0.000    0.000 
#    0.000    0.000    0.000    0.000    0.000    0.000 
#
# Total GULP energy -198219.742026 kJ/mol
# GULP energy per Si atom -12388.733877 kJ/mol
# Density = 2.112337 g / cm^3
# Si number density = 21.171553 Si / 1000 Ang^3
#
#
#
# Elastic Constant Matrix: (Units=GPa)
#
#
# Indices 1 2 3 4 5 6 
#
# 1 122.9374 22.5759 18.7164 -0.0014 8.0824 0.0002
# 2 22.5759 78.9305 11.4078 0.0053 -0.2952 -0.0007
# 3 18.7164 11.4078 60.3725 0.0044 6.5084 -0.0007
# 4 -0.0014 0.0053 0.0044 21.0956 -0.0005 -0.0076
# 5 8.0824 -0.2952 6.5084 -0.0005 15.8626 0.0001
# 6 0.0002 -0.0007 -0.0007 -0.0076 0.0001 26.5639
#
#
#
# Elastic Compliance Matrix: (Units=1/GPa)
#
#
# Indices 1 2 3 4 5 6 
#
# 1 0.009118 -0.002338 -0.001966 0.000002 -0.003883 0.000000
# 2 -0.002338 0.013651 -0.002103 -0.000003 0.002308 0.000000
# 3 -0.001966 -0.002103 0.018275 -0.000004 -0.006536 0.000000
# 4 0.000002 -0.000003 -0.000004 0.047403 0.000002 0.000014
# 5 -0.003883 0.002308 -0.006536 0.000002 0.067744 0.000000
# 6 0.000000 0.000000 0.000000 0.000014 0.000000 0.037645
#
#
# Mechanical properties :
#
#
# Convention : Reuss Voigt Hill
#
# Bulk Modulus (GPa) = 35.42536 40.84894 38.13715
# Shear Modulus (GPa) = 23.14144 26.67377 24.90760
#
# Velocity S-wave (km/s) = 3.30971 3.55334 3.43369
# Velocity P-wave (km/s) = 5.60129 6.01424 5.81143
#
# Compressibility (1/GPa) = 0.02822836
#
# Stress axis : x y z
#
# Youngs Moduli (GPa) = 109.67005 73.25562 54.71827
#
# Poissons Ratio (x) = 0.17130 0.10760
# Poissons Ratio (y) = 0.25645 0.11509
# Poissons Ratio (z) = 0.21565 0.15408
#
# Static dielectric constant tensor:
#      x y z
#    x 4.206460 0.000000 0.030650 
#    y 0.000000 3.707070 0.000000 
#    z 0.030650 0.000000 3.583820 
# 
# 
# High freq. dielectric constant tensor:
#      x y z
#    x 1.846690 0.000000 0.003310 
#    y 0.000000 1.813940 0.000000 
#    z 0.003310 0.000000 1.803840 
# 
# From -- ./inp_files/67569.got.cif
#   From: 2010.03.12/outbox.cif.g09.slc.cpg/sg5_34_cif.got.tgz:67569.got - 2010.03.31 09:47:26.
