data_PCOD8048331
_publ_section_title
;
Structure prediction by ZEFSAII (Michael W. Deem and Ramdas Pophale) SiO2 
 PCOD8048331
Probable space group: C 2
;
_chemical_formula_sum "Si O2"
_cell_formula_units_Z 24
_cell_length_a 18.462907
_cell_length_b 7.458635
_cell_length_c 13.006368
_cell_angle_alpha 90.000000
_cell_angle_beta 148.787139
_cell_angle_gamma 90.000000
_cell_volume 928.172729
_symmetry_space_group_name_H-M "C 2"
_symmetry_group_IT_number 5
_symmetry_cell_setting 'monoclinic'
loop_
_space_group_symop_operation_xyz
x,y,z
-x,y,-z
1/2+x,1/2+y,z
1/2-x,1/2+y,-z
loop_
_atom_site_type_symbol
_atom_site_label
_atom_site_fract_x
_atom_site_fract_y
_atom_site_fract_z
Si Si1 0.374695 0.703100 0.780884
Si Si2 0.922136 0.384894 0.300518
Si Si3 0.563659 0.119912 0.180653
Si Si4 0.853218 0.851908 0.369772
Si Si5 0.799052 0.580035 0.975393
Si Si6 0.863738 0.161149 0.547073
O O1 0.394138 0.911901 0.776795
O O2 0.225164 0.692663 0.661168
O O3 0.387484 0.587457 0.691750
O O4 0.500000 0.625487 0.000000
O O5 0.818896 0.531818 0.121160
O O6 0.000000 0.448110 0.500000
O O7 0.038758 0.331675 0.358252
O O8 0.824573 0.214668 0.201846
O O9 0.450959 0.158827 0.132075
O O10 0.705076 0.234540 0.362730
O O11 0.500000 0.194413 0.000000
O O12 0.000000 0.781176 0.500000
O O13 0.891634 0.014045 0.493383
O O14 0.742149 0.909126 0.145817
#
# Coordination Sequence:
#
# PCOD8048331 Si02
#       6
#     4   4   4   4   4   4
#     4  10  19  35  59  90 121 167 219 279 337 407
#     4  12  24  44  68  99 141 181 231 293 349 412
#     4  10  18  35  61  86 114 164 225 262 340 403
#     4  11  20  38  66  93 126 180 230 275 349 413
#     4  12  22  42  68  97 134 187 229 289 350 419
#     4  11  19  36  67  89 129 175 225 284 338 408
#
# _framework density 25.857256
#
# number of rings (size 3 to 8) (size 9 to 14) (size 15 to 20)
#    0.000    1.000   10.000    0.000    0.000    1.333 
#    0.000    5.000    0.000    0.000    0.000    0.000 
#    0.000    0.000    0.000    0.000    0.000    0.000 
#
# Total GULP energy -148687.882980 kJ/mol
# GULP energy per Si atom -12390.656915 kJ/mol
# Density = 2.579840 g / cm^3
# Si number density = 25.857256 Si / 1000 Ang^3
#
#
#
# Elastic Constant Matrix: (Units=GPa)
#
#
# Indices 1 2 3 4 5 6 
#
# 1 165.4996 11.8026 72.0893 0.0000 10.5592 0.0000
# 2 11.8026 28.2793 13.0950 0.0000 -1.1684 0.0000
# 3 72.0893 13.0950 147.6811 0.0000 -7.8977 0.0000
# 4 0.0000 0.0000 0.0000 22.4619 0.0000 4.3815
# 5 10.5592 -1.1684 -7.8977 0.0000 69.4909 0.0000
# 6 0.0000 0.0000 0.0000 4.3815 0.0000 27.3600
#
#
#
# Elastic Compliance Matrix: (Units=1/GPa)
#
#
# Indices 1 2 3 4 5 6 
#
# 1 0.007925 -0.001610 -0.003815 0.000000 -0.001665 0.000000
# 2 -0.001610 0.037207 -0.002482 0.000000 0.000588 0.000000
# 3 -0.003815 -0.002482 0.008937 0.000000 0.001554 0.000000
# 4 0.000000 0.000000 0.000000 0.045955 0.000000 -0.007359
# 5 -0.001665 0.000588 0.001554 0.000000 0.014830 0.000000
# 6 0.000000 0.000000 0.000000 -0.007359 0.000000 0.037728
#
#
# Mechanical properties :
#
#
# Convention : Reuss Voigt Hill
#
# Bulk Modulus (GPa) = 26.13997 59.49266 42.81632
# Shear Modulus (GPa) = 27.60184 40.16074 33.88129
#
# Velocity S-wave (km/s) = 3.27076 3.94530 3.62376
# Velocity P-wave (km/s) = 4.93914 6.61906 5.83982
#
# Compressibility (1/GPa) = 0.03825559
#
# Stress axis : x y z
#
# Youngs Moduli (GPa) = 126.18265 26.87662 111.89851
#
# Poissons Ratio (x) = 0.04327 0.42687
# Poissons Ratio (y) = 0.20314 0.27772
# Poissons Ratio (z) = 0.48136 0.06670
#
# Static dielectric constant tensor:
#      x y z
#    x 4.841030 0.000000 0.320830 
#    y 0.000000 3.838330 0.000000 
#    z 0.320830 0.000000 4.660500 
# 
# 
# High freq. dielectric constant tensor:
#      x y z
#    x 2.049380 0.000000 0.001910 
#    y 0.000000 1.975360 0.000000 
#    z 0.001910 0.000000 2.055770 
# 
# From -- ./inp_files/44728.got.cif
#   From: 2010.03.12/outbox.cif.g09.slc.cpg/sg5_23_cif.got.tgz:44728.got - 2010.03.31 09:47:26.
