data_PCOD8048673
_publ_section_title
;
Structure prediction by ZEFSAII (Michael W. Deem and Ramdas Pophale) SiO2 
 PCOD8048673
Probable space group: C 2
;
_chemical_formula_sum "Si O2"
_cell_formula_units_Z 32
_cell_length_a 19.560899
_cell_length_b 8.581402
_cell_length_c 24.683581
_cell_angle_alpha 90.000000
_cell_angle_beta 24.561536
_cell_angle_gamma 90.000000
_cell_volume 1722.281854
_symmetry_space_group_name_H-M "C 2"
_symmetry_group_IT_number 5
_symmetry_cell_setting 'monoclinic'
loop_
_space_group_symop_operation_xyz
x,y,z
-x,y,-z
1/2+x,1/2+y,z
1/2-x,1/2+y,-z
loop_
_atom_site_type_symbol
_atom_site_label
_atom_site_fract_x
_atom_site_fract_y
_atom_site_fract_z
Si Si1 0.751528 0.661870 0.402248
Si Si2 0.538034 0.451015 0.737234
Si Si3 0.748486 0.244755 0.097742
Si Si4 0.191030 0.938509 0.353870
Si Si5 0.479178 0.661990 0.681867
Si Si6 0.520801 0.744620 0.818153
Si Si7 0.961913 0.455583 0.762818
Si Si8 0.191033 0.468101 0.853860
O O1 0.805872 0.841708 0.362945
O O2 0.737926 0.599373 0.350648
O O3 0.572410 0.645387 0.557842
O O4 0.876664 0.561111 0.348112
O O5 0.376613 0.345477 0.848175
O O6 0.570516 0.552542 0.660003
O O7 0.514958 0.565473 0.804521
O O8 0.762019 0.307263 0.149390
O O9 0.694159 0.064907 0.137030
O O10 0.927631 0.261233 0.942145
O O11 0.290672 0.797518 0.310131
O O12 0.250009 0.953290 0.249998
O O13 0.000000 0.898322 0.500000
O O14 0.485031 0.841128 0.695502
O O15 0.290649 0.609129 0.810125
O O16 0.429383 0.854020 0.840077
O O17 0.000000 0.508253 0.000000
#
# Coordination Sequence:
#
# PCOD8048673 Si02
#       8
#     4   4   4   4   4   4   4   4
#     4  10  19  36  59  83 116 146 185 239 280 336
#     4   9  20  34  56  91 110 146 182 232 294 332
#     4  10  19  36  59  83 116 146 185 239 280 336
#     4  11  22  40  60  80 111 156 195 230 281 338
#     4  10  19  36  59  83 116 145 188 237 277 340
#     4  10  19  36  59  83 116 145 188 237 277 340
#     4   9  20  34  56  91 110 146 182 232 294 332
#     4  11  22  40  60  80 111 156 195 230 281 338
#
# _framework density 18.580000999999999
#
# number of rings (size 3 to 8) (size 9 to 14) (size 15 to 20)
#    0.000    2.000    2.500    1.500    0.000    0.000 
#    9.000    2.500    0.000    0.000    0.000    0.000 
#    0.000    0.000    0.000    0.000    0.000    0.000 
#
# Total GULP energy -198417.837903 kJ/mol
# GULP energy per Si atom -12401.114869 kJ/mol
# Density = 1.853771 g / cm^3
# Si number density = 18.580001 Si / 1000 Ang^3
#
#
#
# Elastic Constant Matrix: (Units=GPa)
#
#
# Indices 1 2 3 4 5 6 
#
# 1 102.3292 46.5452 49.1654 -0.0010 10.9714 -0.0046
# 2 46.5452 124.8173 43.5966 0.0199 0.3835 0.0128
# 3 49.1654 43.5966 124.4177 0.0090 4.5980 0.0087
# 4 -0.0010 0.0199 0.0090 22.6115 0.0078 -0.6880
# 5 10.9714 0.3835 4.5980 0.0078 35.0080 0.0050
# 6 -0.0046 0.0128 0.0087 -0.6880 0.0050 16.8319
#
#
#
# Elastic Compliance Matrix: (Units=1/GPa)
#
#
# Indices 1 2 3 4 5 6 
#
# 1 0.013798 -0.003735 -0.004005 0.000007 -0.003757 0.000010
# 2 -0.003735 0.010144 -0.002128 -0.000009 0.001339 -0.000008
# 3 -0.004005 -0.002128 0.010369 -0.000003 -0.000083 -0.000005
# 4 0.000007 -0.000009 -0.000003 0.044280 -0.000012 0.001810
# 5 -0.003757 0.001339 -0.000083 -0.000012 0.029739 -0.000011
# 6 0.000010 -0.000008 -0.000005 0.001810 -0.000011 0.059485
#
#
# Mechanical properties :
#
#
# Convention : Reuss Voigt Hill
#
# Bulk Modulus (GPa) = 68.61108 70.01986 69.31547
# Shear Modulus (GPa) = 25.98625 29.04075 27.51350
#
# Velocity S-wave (km/s) = 3.74386 3.95778 3.85231
# Velocity P-wave (km/s) = 7.46299 7.65851 7.56138
#
# Compressibility (1/GPa) = 0.01457491
#
# Stress axis : x y z
#
# Youngs Moduli (GPa) = 72.47194 98.58351 96.44347
#
# Poissons Ratio (x) = 0.36822 0.38625
# Poissons Ratio (y) = 0.27069 0.20522
# Poissons Ratio (z) = 0.29025 0.20977
#
# Static dielectric constant tensor:
#      x y z
#    x 3.381470 -0.000010 -0.048380 
#    y -0.000010 3.432100 0.000000 
#    z -0.048380 0.000000 3.367230 
# 
# 
# High freq. dielectric constant tensor:
#      x y z
#    x 1.714960 0.000000 0.002180 
#    y 0.000000 1.716600 0.000000 
#    z 0.002180 0.000000 1.721010 
# 
# From -- ./inp_files/47182.got.cif
#   From: 2010.03.12/outbox.cif.g09.slc.cpg/sg5_24_cif.got.tgz:47182.got - 2010.03.31 09:47:26.
