data_PCOD8048010
_publ_section_title
;
Structure prediction by ZEFSAII (Michael W. Deem and Ramdas Pophale) SiO2 
 PCOD8048010
Probable space group: P 21
;
_chemical_formula_sum "Si O2"
_cell_formula_units_Z 14
_cell_length_a 16.289255
_cell_length_b 5.370914
_cell_length_c 9.554236
_cell_angle_alpha 90.000000
_cell_angle_beta 43.613471
_cell_angle_gamma 90.000000
_cell_volume 576.583414
_symmetry_space_group_name_H-M "P 21"
_symmetry_group_IT_number 4
_symmetry_cell_setting 'monoclinic'
loop_
_space_group_symop_operation_xyz
x,y,z
-x,1/2+y,-z
loop_
_atom_site_type_symbol
_atom_site_label
_atom_site_fract_x
_atom_site_fract_y
_atom_site_fract_z
Si Si1 0.931317 0.621080 0.245518
Si Si2 0.705021 0.702870 0.011884
Si Si3 0.720248 0.306747 0.449759
Si Si4 0.932341 0.727706 0.547284
Si Si5 0.425952 0.968098 0.607761
Si Si6 0.172391 0.418551 0.871929
Si Si7 0.496453 0.839092 0.088667
O O1 0.845863 0.380752 0.365703
O O2 0.905198 0.786248 0.417024
O O3 0.901438 0.725622 0.129738
O O4 0.072237 0.581954 0.072829
O O5 0.637436 0.457676 0.159223
O O6 0.745890 0.826155 0.104910
O O7 0.607915 0.875935 0.055192
O O8 0.813526 0.642533 0.775346
O O9 0.671095 0.510690 0.397958
O O10 0.624591 0.256715 0.687426
O O11 0.738981 0.054883 0.342139
O O12 0.017472 0.483468 0.448960
O O13 0.487085 0.704554 0.503699
O O14 0.528004 0.606575 0.950113
#
# Coordination Sequence:
#
# PCOD8048010 Si02
#       7
#     2   2   2   2   2   2   2
#     4  12  27  49  79 116 162 208 269 327 399 471
#     4  12  28  52  83 115 162 207 271 328 401 482
#     4  12  28  47  82 112 160 205 267 329 400 469
#     4  12  31  51  79 113 160 213 266 321 397 478
#     4  12  27  48  79 118 153 202 264 332 395 466
#     4  12  27  50  81 120 156 215 267 337 394 470
#     4  12  32  53  79 116 161 214 262 326 404 480
#
# _framework density 24.280961999999999
#
# number of rings (size 3 to 8) (size 9 to 14) (size 15 to 20)
#    0.000    0.000    5.714    1.714   12.000    2.286 
#    0.000    0.000    0.000    0.000    0.000    0.000 
#    0.000    0.000    0.000    0.000    0.000    0.000 
#
# Total GULP energy -173522.328042 kJ/mol
# GULP energy per Si atom -12394.452003 kJ/mol
# Density = 2.422570 g / cm^3
# Si number density = 24.280962 Si / 1000 Ang^3
#
#
#
# Elastic Constant Matrix: (Units=GPa)
#
#
# Indices 1 2 3 4 5 6 
#
# 1 111.9000 22.7618 8.6563 0.0000 8.8155 0.0000
# 2 22.7618 85.9361 7.2171 0.0000 -3.1196 0.0000
# 3 8.6563 7.2171 129.9715 0.0000 -11.6553 0.0000
# 4 0.0000 0.0000 0.0000 32.0845 0.0000 5.9271
# 5 8.8155 -3.1196 -11.6553 0.0000 36.9466 0.0000
# 6 0.0000 0.0000 0.0000 5.9271 0.0000 20.0682
#
#
#
# Elastic Compliance Matrix: (Units=1/GPa)
#
#
# Indices 1 2 3 4 5 6 
#
# 1 0.009747 -0.002619 -0.000753 0.000000 -0.002785 0.000000
# 2 -0.002619 0.012418 -0.000376 0.000000 0.001555 0.000000
# 3 -0.000753 -0.000376 0.008005 0.000000 0.002673 0.000000
# 4 0.000000 0.000000 0.000000 0.032966 0.000000 -0.009737
# 5 -0.002785 0.001555 0.002673 0.000000 0.028705 0.000000
# 6 0.000000 0.000000 0.000000 -0.009737 0.000000 0.052706
#
#
# Mechanical properties :
#
#
# Convention : Reuss Voigt Hill
#
# Bulk Modulus (GPa) = 44.10526 45.00867 44.55696
# Shear Modulus (GPa) = 31.32788 37.09801 34.21294
#
# Velocity S-wave (km/s) = 3.59587 3.91303 3.75780
# Velocity P-wave (km/s) = 5.95351 6.24440 6.10069
#
# Compressibility (1/GPa) = 0.02267303
#
# Stress axis : x y z
#
# Youngs Moduli (GPa) = 102.59530 80.52587 124.92566
#
# Poissons Ratio (x) = 0.21094 0.09412
# Poissons Ratio (y) = 0.26875 0.04693
# Poissons Ratio (z) = 0.07730 0.03025
#
# Static dielectric constant tensor:
#      x y z
#    x 5.012290 0.000000 -0.080820 
#    y 0.000000 4.153340 0.000000 
#    z -0.080820 0.000000 4.756790 
# 
# 
# High freq. dielectric constant tensor:
#      x y z
#    x 1.985360 0.000000 -0.003660 
#    y 0.000000 1.939650 0.000000 
#    z -0.003660 0.000000 1.990030 
# 
# From -- ./inp_files/7094.got.cif
#   From: 2010.03.12/outbox.cif.g09.slc.cpg/sg4_4_cif.got.tgz:7094.got - 2010.03.31 09:31:35.
