data_PCOD8048841
_publ_section_title
;
Structure prediction by ZEFSAII (Michael W. Deem and Ramdas Pophale) SiO2 
 PCOD8048841
Probable space group: C 2
;
_chemical_formula_sum "Si O2"
_cell_formula_units_Z 32
_cell_length_a 10.478098
_cell_length_b 10.512794
_cell_length_c 22.978011
_cell_angle_alpha 90.000000
_cell_angle_beta 34.229074
_cell_angle_gamma 90.000000
_cell_volume 1423.763595
_symmetry_space_group_name_H-M "C 2"
_symmetry_group_IT_number 5
_symmetry_cell_setting 'monoclinic'
loop_
_space_group_symop_operation_xyz
x,y,z
-x,y,-z
1/2+x,1/2+y,z
1/2-x,1/2+y,-z
loop_
_atom_site_type_symbol
_atom_site_label
_atom_site_fract_x
_atom_site_fract_y
_atom_site_fract_z
Si Si1 0.380351 0.345920 0.384524
Si Si2 0.988797 0.290404 0.385957
Si Si3 0.394340 0.680549 0.975681
Si Si4 0.416017 0.426107 0.913697
Si Si5 0.345232 0.747421 0.232562
Si Si6 0.646201 0.490084 0.717895
Si Si7 0.426914 0.888198 0.761751
Si Si8 0.299651 0.600577 0.614264
O O1 0.220272 0.354489 0.500913
O O2 0.635121 0.343244 0.311449
O O3 0.373714 0.467836 0.343902
O O4 0.301691 0.223561 0.378854
O O5 0.184739 0.391867 0.317947
O O6 0.953049 0.291324 0.329890
O O7 0.072425 0.151096 0.375465
O O8 0.207419 0.790231 0.036438
O O9 0.500000 0.682890 0.000000
O O10 0.291678 0.540280 0.997549
O O11 0.599925 0.704625 0.853436
O O12 0.420188 0.467730 0.843464
O O13 0.666254 0.419110 0.848009
O O14 0.264224 0.630940 0.303668
O O15 0.560245 0.817416 0.180861
O O16 0.584799 0.013029 0.707270
O O17 0.500000 0.536167 0.500000
#
# Coordination Sequence:
#
# PCOD8048841 Si02
#       8
#     4   4   4   4   4   4   4   4
#     4  10  19  39  63  90 131 176 225 267 315 386
#     4   9  20  38  62  91 127 181 224 262 319 382
#     4  11  25  49  74 102 128 178 220 288 345 417
#     4  10  24  46  74  99 135 172 225 280 352 405
#     4  11  25  40  61  98 135 167 223 274 339 391
#     4   9  19  42  62  91 127 171 215 275 322 394
#     4  11  24  41  62  98 142 172 215 279 326 398
#     4   9  19  37  63  90 126 180 230 262 310 384
#
# _framework density 22.475642000000001
#
# number of rings (size 3 to 8) (size 9 to 14) (size 15 to 20)
#    0.000    2.000    0.000    4.125    3.500    3.000 
#   13.500    0.000    0.000    0.000    0.000    0.000 
#    0.000    0.000    0.000    0.000    0.000    0.000 
#
# Total GULP energy -198229.684628 kJ/mol
# GULP energy per Si atom -12389.355289 kJ/mol
# Density = 2.242449 g / cm^3
# Si number density = 22.475642 Si / 1000 Ang^3
#
#
#
# Elastic Constant Matrix: (Units=GPa)
#
#
# Indices 1 2 3 4 5 6 
#
# 1 96.6135 35.5439 42.5050 -0.0005 10.9566 0.0001
# 2 35.5439 73.9811 40.7627 -0.0039 4.5931 0.0005
# 3 42.5050 40.7627 77.1690 -0.0114 8.6931 0.0016
# 4 -0.0005 -0.0039 -0.0114 28.8855 0.0025 2.8175
# 5 10.9566 4.5931 8.6931 0.0025 23.2913 -0.0002
# 6 0.0001 0.0005 0.0016 2.8175 -0.0002 18.9830
#
#
#
# Elastic Compliance Matrix: (Units=1/GPa)
#
#
# Indices 1 2 3 4 5 6 
#
# 1 0.014657 -0.003658 -0.005684 -0.000002 -0.004052 0.000001
# 2 -0.003658 0.019979 -0.008652 -0.000001 0.001010 0.000000
# 3 -0.005684 -0.008652 0.021051 0.000008 -0.003477 -0.000003
# 4 -0.000002 -0.000001 0.000008 0.035128 -0.000005 -0.005214
# 5 -0.004052 0.001010 -0.003477 -0.000005 0.045939 0.000001
# 6 0.000001 0.000000 -0.000003 -0.005214 0.000001 0.053453
#
#
# Mechanical properties :
#
#
# Convention : Reuss Voigt Hill
#
# Bulk Modulus (GPa) = 50.76702 53.93187 52.34945
# Shear Modulus (GPa) = 21.48115 22.82875 22.15495
#
# Velocity S-wave (km/s) = 3.09488 3.19048 3.14304
# Velocity P-wave (km/s) = 5.95043 6.13351 6.04267
#
# Compressibility (1/GPa) = 0.01969783
#
# Stress axis : x y z
#
# Youngs Moduli (GPa) = 68.22875 50.05206 47.50261
#
# Poissons Ratio (x) = 0.18311 0.27001
# Poissons Ratio (y) = 0.24960 0.41101
# Poissons Ratio (z) = 0.38782 0.43307
#
# Static dielectric constant tensor:
#      x y z
#    x 4.306300 0.000000 0.423680 
#    y 0.000000 4.089870 0.000010 
#    z 0.423680 0.000010 4.230600 
# 
# 
# High freq. dielectric constant tensor:
#      x y z
#    x 1.884070 0.000000 0.016910 
#    y 0.000000 1.885120 0.000000 
#    z 0.016910 0.000000 1.876990 
# 
# From -- ./inp_files/68390.got.cif
#   From: 2010.03.12/outbox.cif.g09.slc.cpg/sg5_35_cif.got.tgz:68390.got - 2010.03.31 09:47:26.
