data_PCOD8048847
_publ_section_title
;
Structure prediction by ZEFSAII (Michael W. Deem and Ramdas Pophale) SiO2 
 PCOD8048847
Probable space group: C 2
;
_chemical_formula_sum "Si O2"
_cell_formula_units_Z 26
_cell_length_a 20.062837
_cell_length_b 10.098440
_cell_length_c 8.445224
_cell_angle_alpha 90.000000
_cell_angle_beta 132.838730
_cell_angle_gamma 90.000000
_cell_volume 1254.648212
_symmetry_space_group_name_H-M "C 2"
_symmetry_group_IT_number 5
_symmetry_cell_setting 'monoclinic'
loop_
_space_group_symop_operation_xyz
x,y,z
-x,y,-z
1/2+x,1/2+y,z
1/2-x,1/2+y,-z
loop_
_atom_site_type_symbol
_atom_site_label
_atom_site_fract_x
_atom_site_fract_y
_atom_site_fract_z
Si Si1 0.585832 0.308260 0.954744
Si Si2 0.132761 0.443281 0.448136
Si Si3 0.394024 0.244364 0.659691
Si Si4 0.802385 0.316422 0.757736
Si Si5 0.332779 0.058674 0.040644
Si Si6 0.000000 0.467386 0.500000
Si Si7 0.800781 0.043477 0.907939
O O1 0.487690 0.275885 0.718123
O O2 0.659250 0.193439 0.041999
O O3 0.589177 0.317661 0.148809
O O4 0.613632 0.448764 0.926089
O O5 0.109408 0.585280 0.332579
O O6 0.147197 0.338985 0.328828
O O7 0.227834 0.458337 0.691182
O O8 0.051403 0.390595 0.435913
O O9 0.307097 0.307918 0.433281
O O10 0.836105 0.175895 0.878780
O O11 0.828961 0.431588 0.921573
O O12 0.240151 0.077254 0.987645
O O13 0.418618 0.054175 0.297617
#
# Coordination Sequence:
#
# PCOD8048847 Si02
#       7
#     4   4   4   4   4   2   4
#     4  11  20  39  68  92 128 167 216 267 305 390
#     4  10  19  39  64  93 125 166 220 266 310 385
#     4  10  21  37  65  96 120 166 225 253 317 384
#     4  11  22  40  67  96 128 175 213 269 331 382
#     4  11  22  40  69  94 131 171 221 262 321 381
#     4  10  22  38  62 102 120 160 224 278 296 382
#     4  10  23  39  60 100 135 165 208 273 327 376
#
# _framework density 20.722940999999999
#
# number of rings (size 3 to 8) (size 9 to 14) (size 15 to 20)
#    0.000    1.538    4.615    0.923    0.000    0.615 
#    0.000    3.077    6.769    0.000    0.000    0.000 
#    0.000    0.000    0.000    0.000    0.000    0.000 
#
# Total GULP energy -161103.074081 kJ/mol
# GULP energy per Si atom -12392.544160 kJ/mol
# Density = 2.067577 g / cm^3
# Si number density = 20.722941 Si / 1000 Ang^3
#
#
#
# Elastic Constant Matrix: (Units=GPa)
#
#
# Indices 1 2 3 4 5 6 
#
# 1 139.6874 63.6951 19.7650 0.0000 -3.5521 0.0000
# 2 63.6951 121.4690 31.6657 0.0000 10.6931 0.0000
# 3 19.7650 31.6657 53.3598 0.0000 7.3573 0.0000
# 4 0.0000 0.0000 0.0000 16.1049 0.0000 7.5325
# 5 -3.5521 10.6931 7.3573 0.0000 30.1769 0.0000
# 6 0.0000 0.0000 0.0000 7.5325 0.0000 24.2377
#
#
#
# Elastic Compliance Matrix: (Units=1/GPa)
#
#
# Indices 1 2 3 4 5 6 
#
# 1 0.009714 -0.005114 -0.001005 0.000000 0.003200 0.000000
# 2 -0.005114 0.012563 -0.005034 0.000000 -0.003826 0.000000
# 3 -0.001005 -0.005034 0.022631 0.000000 -0.003852 0.000000
# 4 0.000000 0.000000 0.000000 0.072653 0.000000 -0.022579
# 5 0.003200 -0.003826 -0.003852 0.000000 0.035810 0.000000
# 6 0.000000 0.000000 0.000000 -0.022579 0.000000 0.048275
#
#
# Mechanical properties :
#
#
# Convention : Reuss Voigt Hill
#
# Bulk Modulus (GPa) = 44.23979 60.52976 52.38478
# Shear Modulus (GPa) = 21.59963 27.39660 24.49811
#
# Velocity S-wave (km/s) = 3.23198 3.63993 3.44201
# Velocity P-wave (km/s) = 5.94324 6.85113 6.41327
#
# Compressibility (1/GPa) = 0.02260409
#
# Stress axis : x y z
#
# Youngs Moduli (GPa) = 102.94290 79.59852 44.18675
#
# Poissons Ratio (x) = 0.40703 0.04440
# Poissons Ratio (y) = 0.52641 0.22242
# Poissons Ratio (z) = 0.10345 0.40067
#
# Static dielectric constant tensor:
#      x y z
#    x 4.217930 0.000000 0.064850 
#    y 0.000000 3.479560 0.000000 
#    z 0.064850 0.000000 3.662550 
# 
# 
# High freq. dielectric constant tensor:
#      x y z
#    x 1.825960 0.000000 -0.002200 
#    y 0.000000 1.785390 0.000000 
#    z -0.002200 0.000000 1.799650 
# 
# From -- ./inp_files/29139.got.cif
#   From: 2010.03.12/outbox.cif.g09.slc.cpg/sg5_15_cif.got.tgz:29139.got - 2010.03.31 09:47:26.
