data_PCOD8048658
_publ_section_title
;
Structure prediction by ZEFSAII (Michael W. Deem and Ramdas Pophale) SiO2 
 PCOD8048658
Probable space group: C 2
;
_chemical_formula_sum "Si O2"
_cell_formula_units_Z 30
_cell_length_a 11.914599
_cell_length_b 14.924126
_cell_length_c 8.803616
_cell_angle_alpha 90.000000
_cell_angle_beta 66.179663
_cell_angle_gamma 90.000000
_cell_volume 1432.067065
_symmetry_space_group_name_H-M "C 2"
_symmetry_group_IT_number 5
_symmetry_cell_setting 'monoclinic'
loop_
_space_group_symop_operation_xyz
x,y,z
-x,y,-z
1/2+x,1/2+y,z
1/2-x,1/2+y,-z
loop_
_atom_site_type_symbol
_atom_site_label
_atom_site_fract_x
_atom_site_fract_y
_atom_site_fract_z
Si Si1 0.500000 0.302270 0.500000
Si Si2 0.337039 0.244475 0.326925
Si Si3 0.123687 0.941123 0.243471
Si Si4 0.476595 0.917455 0.691444
Si Si5 0.682822 0.041923 0.690372
Si Si6 0.078381 0.235041 0.603432
Si Si7 0.114687 0.045693 0.676120
Si Si8 0.809652 0.909847 0.126380
O O1 0.443913 0.243241 0.395157
O O2 0.611889 0.360207 0.369472
O O3 0.337869 0.145638 0.253164
O O4 0.209809 0.268118 0.475588
O O5 0.355259 0.321622 0.191482
O O6 0.247384 0.996645 0.206864
O O7 0.128665 0.902182 0.071278
O O8 0.004094 0.002024 0.335459
O O9 0.500000 0.926620 0.500000
O O10 0.519027 0.818776 0.723606
O O11 0.335082 0.922991 0.810178
O O12 0.551819 0.994372 0.737651
O O13 0.766790 0.031667 0.495073
O O14 0.089639 0.151514 0.712539
O O15 0.000000 0.204008 0.500000
O O16 0.139940 0.000084 0.823391
#
# Coordination Sequence:
#
# PCOD8048658 Si02
#       8
#     2   4   4   4   4   4   4   4
#     4  12  24  42  68  94 128 180 224 268 334 394
#     4  11  23  40  66 101 130 172 223 270 327 394
#     4  12  24  41  68  95 135 171 221 274 336 386
#     4  11  21  41  67  91 128 174 216 260 331 394
#     4  11  23  42  69  95 131 173 224 268 328 401
#     4  10  19  35  69  95 125 165 224 263 322 389
#     4  11  20  38  68  99 124 166 222 278 322 389
#     4  12  24  42  65  97 137 173 215 278 331 388
#
# _framework density 20.948740999999998
#
# number of rings (size 3 to 8) (size 9 to 14) (size 15 to 20)
#    0.000    0.800    6.667    2.800    0.933    0.533 
#    0.000    6.667    8.800    0.000    0.000    0.000 
#    0.000    0.000    0.000    0.000    0.000    0.000 
#
# Total GULP energy -186028.029852 kJ/mol
# GULP energy per Si atom -12401.868657 kJ/mol
# Density = 2.090106 g / cm^3
# Si number density = 20.948741 Si / 1000 Ang^3
#
#
#
# Elastic Constant Matrix: (Units=GPa)
#
#
# Indices 1 2 3 4 5 6 
#
# 1 112.8313 49.2284 12.2823 0.0000 6.1880 0.0000
# 2 49.2284 133.8187 34.5606 0.0000 11.4492 0.0000
# 3 12.2823 34.5606 71.9896 0.0000 11.0897 0.0000
# 4 0.0000 0.0000 0.0000 15.9549 0.0000 3.7799
# 5 6.1880 11.4492 11.0897 0.0000 27.3708 0.0000
# 6 0.0000 0.0000 0.0000 3.7799 0.0000 58.1933
#
#
#
# Elastic Compliance Matrix: (Units=1/GPa)
#
#
# Indices 1 2 3 4 5 6 
#
# 1 0.010576 -0.003865 0.000182 0.000000 -0.000848 0.000000
# 2 -0.003865 0.010051 -0.003896 0.000000 -0.001752 0.000000
# 3 0.000182 -0.003896 0.016516 0.000000 -0.005103 0.000000
# 4 0.000000 0.000000 0.000000 0.063656 0.000000 -0.004135
# 5 -0.000848 -0.001752 -0.005103 0.000000 0.039527 0.000000
# 6 0.000000 0.000000 0.000000 -0.004135 0.000000 0.017453
#
#
# Mechanical properties :
#
#
# Convention : Reuss Voigt Hill
#
# Bulk Modulus (GPa) = 45.48613 56.75357 51.11985
# Shear Modulus (GPa) = 27.73690 35.14169 31.43930
#
# Velocity S-wave (km/s) = 3.64268 4.10018 3.87818
# Velocity P-wave (km/s) = 6.28111 7.04030 6.67151
#
# Compressibility (1/GPa) = 0.02198472
#
# Stress axis : x y z
#
# Youngs Moduli (GPa) = 94.55560 99.49598 60.54613
#
# Poissons Ratio (x) = 0.38455 -0.01100
# Poissons Ratio (y) = 0.36545 0.23588
# Poissons Ratio (z) = -0.01718 0.38762
#
# Static dielectric constant tensor:
#      x y z
#    x 3.691490 0.000000 -0.194110 
#    y 0.000000 3.873320 0.000000 
#    z -0.194110 0.000000 3.328400 
# 
# 
# High freq. dielectric constant tensor:
#      x y z
#    x 1.837980 0.000000 -0.003860 
#    y 0.000000 1.824940 0.000000 
#    z -0.003860 0.000000 1.784350 
# 
# From -- ./inp_files/20627.got.cif
#   From: 2010.03.12/outbox.cif.g09.slc.cpg/sg5_11_cif.got.tgz:20627.got - 2010.03.31 09:47:26.
