data_PCOD8048049
_publ_section_title
;
Structure prediction by ZEFSAII (Michael W. Deem and Ramdas Pophale) SiO2 
 PCOD8048049
Probable space group: C 2
;
_chemical_formula_sum "Si O2"
_cell_formula_units_Z 32
_cell_length_a 16.563304
_cell_length_b 19.961982
_cell_length_c 9.847864
_cell_angle_alpha 90.000000
_cell_angle_beta 145.308878
_cell_angle_gamma 90.000000
_cell_volume 1853.194645
_symmetry_space_group_name_H-M "C 2"
_symmetry_group_IT_number 5
_symmetry_cell_setting 'monoclinic'
loop_
_space_group_symop_operation_xyz
x,y,z
-x,y,-z
1/2+x,1/2+y,z
1/2-x,1/2+y,-z
loop_
_atom_site_type_symbol
_atom_site_label
_atom_site_fract_x
_atom_site_fract_y
_atom_site_fract_z
Si Si1 0.109757 0.514330 0.456752
Si Si2 0.807232 0.518509 0.117418
Si Si3 0.938887 0.895790 0.765743
Si Si4 0.565037 0.770750 0.739398
Si Si5 0.553862 0.620066 0.726795
Si Si6 0.393772 0.547293 0.727491
Si Si7 0.336832 0.866510 0.501485
Si Si8 0.280016 0.373469 0.964015
O O1 0.164815 0.515630 0.685303
O O2 0.227122 0.557289 0.535979
O O3 0.097299 0.439466 0.379314
O O4 0.948130 0.541726 0.228711
O O5 0.757574 0.443032 0.010875
O O6 0.688789 0.572612 0.922556
O O7 0.790798 0.854648 0.566175
O O8 0.915315 0.973327 0.696680
O O9 0.000000 0.893224 0.000000
O O10 0.048740 0.864822 0.808533
O O11 0.500000 0.771529 0.500000
O O12 0.596133 0.695378 0.829708
O O13 0.451157 0.807612 0.680255
O O14 0.712738 0.811665 0.953590
O O15 0.500000 0.618223 0.500000
O O16 0.428446 0.598197 0.654421
O O17 0.500000 0.560694 0.000000
O O18 0.282508 0.870632 0.272833
#
# Coordination Sequence:
#
# PCOD8048049 Si02
#       8
#     4   4   4   4   4   4   4   4
#     4   9  16  26  54  81  96 114 172 231 251 271
#     4  10  16  29  49  80 101 125 167 217 258 282
#     4   8  13  21  43  73  95 108 155 217 253 271
#     4   9  17  28  42  66 102 132 159 197 250 301
#     4  11  22  33  46  74 111 143 163 190 254 326
#     4  10  16  31  50  77  99 128 170 210 249 290
#     4   8  13  23  41  72  98 115 150 216 258 276
#     4   9  13  24  44  69  94 123 160 207 250 282
#
# _framework density 17.267479999999999
#
# number of rings (size 3 to 8) (size 9 to 14) (size 15 to 20)
#    0.000    2.750    3.750    1.500    0.000    0.000 
#    0.000    1.875    0.000    3.000    9.750    0.000 
#    0.000    0.000    0.000    0.000    0.000    0.000 
#
# Total GULP energy -198210.277349 kJ/mol
# GULP energy per Si atom -12388.142334 kJ/mol
# Density = 1.722818 g / cm^3
# Si number density = 17.267480 Si / 1000 Ang^3
#
#
#
# Elastic Constant Matrix: (Units=GPa)
#
#
# Indices 1 2 3 4 5 6 
#
# 1 133.0797 66.5174 40.9951 0.0000 46.9035 0.0000
# 2 66.5174 119.4879 36.5914 0.0000 24.3727 0.0000
# 3 40.9951 36.5914 34.7611 0.0000 24.1035 0.0000
# 4 0.0000 0.0000 0.0000 16.1804 0.0000 1.8598
# 5 46.9035 24.3727 24.1035 0.0000 33.0682 0.0000
# 6 0.0000 0.0000 0.0000 1.8598 0.0000 18.6767
#
#
#
# Elastic Compliance Matrix: (Units=1/GPa)
#
#
# Indices 1 2 3 4 5 6 
#
# 1 0.017717 -0.005364 -0.001142 0.000000 -0.020345 0.000000
# 2 -0.005364 0.013983 -0.013189 0.000000 0.006915 0.000000
# 3 -0.001142 -0.013189 0.073061 0.000000 -0.041914 0.000000
# 4 0.000000 0.000000 0.000000 0.062519 0.000000 -0.006226
# 5 -0.020345 0.006915 -0.041914 0.000000 0.084552 0.000000
# 6 0.000000 0.000000 0.000000 -0.006226 0.000000 0.054162
#
#
# Mechanical properties :
#
#
# Convention : Reuss Voigt Hill
#
# Bulk Modulus (GPa) = 15.29673 63.94850 39.62261
# Shear Modulus (GPa) = 13.61755 23.13339 18.37547
#
# Velocity S-wave (km/s) = 2.81129 3.66417 3.26570
# Velocity P-wave (km/s) = 4.40633 7.41728 6.10048
#
# Compressibility (1/GPa) = 0.06537344
#
# Stress axis : x y z
#
# Youngs Moduli (GPa) = 56.44232 71.51388 13.68725
#
# Poissons Ratio (x) = 0.38357 0.01563
# Poissons Ratio (y) = 0.30273 0.18052
# Poissons Ratio (z) = 0.06444 0.94318
#
# Static dielectric constant tensor:
#      x y z
#    x 3.536010 0.000000 0.500010 
#    y 0.000000 3.214020 0.000000 
#    z 0.500010 0.000000 2.946590 
# 
# 
# High freq. dielectric constant tensor:
#      x y z
#    x 1.670940 0.000000 0.041110 
#    y 0.000000 1.642320 0.000000 
#    z 0.041110 0.000000 1.618730 
# 
# From -- ./inp_files/25455.got.cif
#   From: 2010.03.12/outbox.cif.g09.slc.cpg/sg5_13_cif.got.tgz:25455.got - 2010.03.31 09:47:26.
