data_PCOD8048519
_publ_section_title
;
Structure prediction by ZEFSAII (Michael W. Deem and Ramdas Pophale) SiO2 
 PCOD8048519
Probable space group: C 2
;
_chemical_formula_sum "Si O2"
_cell_formula_units_Z 32
_cell_length_a 17.075981
_cell_length_b 5.018004
_cell_length_c 18.709455
_cell_angle_alpha 90.000000
_cell_angle_beta 92.445947
_cell_angle_gamma 90.000000
_cell_volume 1601.702852
_symmetry_space_group_name_H-M "C 2"
_symmetry_group_IT_number 5
_symmetry_cell_setting 'monoclinic'
loop_
_space_group_symop_operation_xyz
x,y,z
-x,y,-z
1/2+x,1/2+y,z
1/2-x,1/2+y,-z
loop_
_atom_site_type_symbol
_atom_site_label
_atom_site_fract_x
_atom_site_fract_y
_atom_site_fract_z
Si Si1 0.668740 0.359050 0.137762
Si Si2 0.697357 0.829015 0.489281
Si Si3 0.561791 0.272088 0.262707
Si Si4 0.590266 0.830212 0.617813
Si Si5 0.085095 0.277520 0.355455
Si Si6 0.112205 0.825886 0.709955
Si Si7 0.227873 0.858559 0.841075
Si Si8 0.200523 0.748142 0.989877
O O1 0.594202 0.321780 0.185174
O O2 0.699145 0.658826 0.148307
O O3 0.739028 0.157663 0.161417
O O4 0.641406 0.308076 0.053874
O O5 0.768363 0.622529 0.498400
O O6 0.630032 0.765847 0.544155
O O7 0.658676 0.812428 0.410077
O O8 0.590747 0.485256 0.322108
O O9 0.468459 0.278810 0.251061
O O10 0.591801 0.987017 0.291241
O O11 0.496190 0.821176 0.604551
O O12 0.617229 0.620429 0.678341
O O13 0.619444 0.118254 0.645274
O O14 0.182261 0.787045 0.767700
O O15 0.170602 0.824164 0.908786
O O16 0.223447 0.437099 0.992435
#
# Coordination Sequence:
#
# PCOD8048519 Si02
#       8
#     4   4   4   4   4   4   4   4
#     4  10  19  32  53  77 104 138 174 214 257 304
#     4  12  25  38  57  84 108 130 170 224 259 294
#     4  10  21  36  55  79 105 136 175 214 254 306
#     4  10  22  40  57  74 105 144 172 202 258 322
#     4  10  22  40  57  74 105 144 172 202 258 322
#     4  10  21  36  55  79 105 136 175 214 254 306
#     4  10  19  32  53  77 104 138 174 214 257 304
#     4   8  16  30  47  72 103 136 172 206 252 310
#
# _framework density 19.978739000000001
#
# number of rings (size 3 to 8) (size 9 to 14) (size 15 to 20)
#    0.000    2.000    0.000    3.375    0.000    6.000 
#    0.000    5.625    0.000    0.000    0.000   15.750 
#    0.000    0.000    0.000    0.000    0.000    0.000 
#
# Total GULP energy -198396.026640 kJ/mol
# GULP energy per Si atom -12399.751665 kJ/mol
# Density = 1.993327 g / cm^3
# Si number density = 19.978739 Si / 1000 Ang^3
#
#
#
# Elastic Constant Matrix: (Units=GPa)
#
#
# Indices 1 2 3 4 5 6 
#
# 1 28.2173 7.1852 12.1504 0.0000 -9.5293 0.0000
# 2 7.1852 76.5916 -6.9050 0.0000 2.4275 0.0000
# 3 12.1504 -6.9050 50.1128 0.0000 -18.7781 0.0000
# 4 0.0000 0.0000 0.0000 16.7080 0.0000 -2.5251
# 5 -9.5293 2.4275 -18.7781 0.0000 28.2355 0.0000
# 6 0.0000 0.0000 0.0000 -2.5251 0.0000 23.6701
#
#
#
# Elastic Compliance Matrix: (Units=1/GPa)
#
#
# Indices 1 2 3 4 5 6 
#
# 1 0.043338 -0.005055 -0.007406 0.000000 0.010135 0.000000
# 2 -0.005055 0.013810 0.002723 0.000000 -0.001082 0.000000
# 3 -0.007406 0.002723 0.028106 0.000000 0.015958 0.000000
# 4 0.000000 0.000000 0.000000 0.060832 0.000000 0.006489
# 5 0.010135 -0.001082 0.015958 0.000000 0.049543 0.000000
# 6 0.000000 0.000000 0.000000 0.006489 0.000000 0.042940
#
#
# Mechanical properties :
#
#
# Convention : Reuss Voigt Hill
#
# Bulk Modulus (GPa) = 15.20267 19.97588 17.58928
# Shear Modulus (GPa) = 17.85895 23.22212 20.54053
#
# Velocity S-wave (km/s) = 2.99306 3.41301 3.20991
# Velocity P-wave (km/s) = 4.42385 5.05488 4.74986
#
# Compressibility (1/GPa) = 0.06577792
#
# Stress axis : x y z
#
# Youngs Moduli (GPa) = 23.07427 72.41017 35.58004
#
# Poissons Ratio (x) = 0.36600 0.26352
# Poissons Ratio (y) = 0.11663 -0.09688
# Poissons Ratio (z) = 0.17090 -0.19716
#
# Static dielectric constant tensor:
#      x y z
#    x 3.289410 0.000000 -0.208420 
#    y 0.000000 3.777820 0.000000 
#    z -0.208420 0.000000 3.718260 
# 
# 
# High freq. dielectric constant tensor:
#      x y z
#    x 1.739750 0.000000 -0.017110 
#    y 0.000000 1.800890 0.000000 
#    z -0.017110 0.000000 1.788090 
# 
# From -- ./inp_files/61218.got.cif
#   From: 2010.03.12/outbox.cif.g09.slc.cpg/sg5_31_cif.got.tgz:61218.got - 2010.03.31 09:47:26.
