data_PCOD8048481
_publ_section_title
;
Structure prediction by ZEFSAII (Michael W. Deem and Ramdas Pophale) SiO2 
 PCOD8048481
Probable space group: C 2
;
_chemical_formula_sum "Si O2"
_cell_formula_units_Z 30
_cell_length_a 11.794558
_cell_length_b 8.902036
_cell_length_c 15.089969
_cell_angle_alpha 90.000000
_cell_angle_beta 60.198637
_cell_angle_gamma 90.000000
_cell_volume 1374.851537
_symmetry_space_group_name_H-M "C 2"
_symmetry_group_IT_number 5
_symmetry_cell_setting 'monoclinic'
loop_
_space_group_symop_operation_xyz
x,y,z
-x,y,-z
1/2+x,1/2+y,z
1/2-x,1/2+y,-z
loop_
_atom_site_type_symbol
_atom_site_label
_atom_site_fract_x
_atom_site_fract_y
_atom_site_fract_z
Si Si1 0.814477 0.591730 0.886963
Si Si2 0.087853 0.369537 0.548263
Si Si3 0.000000 0.859988 0.500000
Si Si4 0.482695 0.857854 0.232403
Si Si5 0.690675 0.308007 0.275839
Si Si6 0.674981 0.555092 0.555212
Si Si7 0.605410 0.355031 0.028154
Si Si8 0.536555 0.530492 0.221720
O O1 0.802620 0.670716 0.795857
O O2 0.811861 0.714612 0.966550
O O3 0.947813 0.495152 0.845179
O O4 0.694188 0.479720 0.946637
O O5 0.004692 0.398951 0.668739
O O6 0.174491 0.512975 0.491075
O O7 0.000000 0.327519 0.500000
O O8 0.182921 0.229354 0.528534
O O9 0.083387 0.765205 0.394211
O O10 0.107801 0.965265 0.502526
O O11 0.333347 0.840103 0.259729
O O12 0.565331 0.704084 0.185104
O O13 0.646878 0.462787 0.244397
O O14 0.603675 0.526692 0.676049
O O15 0.525370 0.430126 0.139187
O O16 0.500000 0.292599 0.000000
#
# Coordination Sequence:
#
# PCOD8048481 Si02
#       8
#     4   4   2   4   4   4   4   4
#     4  11  26  43  68 102 128 169 228 273 334 401
#     4  11  24  39  60  94 131 173 219 263 323 387
#     4  10  18  42  66  90 136 184 214 262 326 390
#     4  11  23  42  64  95 133 174 217 272 330 388
#     4  10  22  43  66  96 136 176 219 271 325 392
#     4  10  21  41  63  90 132 173 216 268 319 382
#     4  11  24  45  69  96 130 171 217 280 339 390
#     4   9  22  42  65  93 128 171 219 274 328 387
#
# _framework density 21.820537999999999
#
# number of rings (size 3 to 8) (size 9 to 14) (size 15 to 20)
#    0.000    1.600    2.000    1.600    0.000    9.600 
#    2.400    0.667    0.000    0.000    0.000    0.000 
#    0.000    0.000    0.000    0.000    0.000    0.000 
#
# Total GULP energy -185988.095829 kJ/mol
# GULP energy per Si atom -12399.206389 kJ/mol
# Density = 2.177087 g / cm^3
# Si number density = 21.820538 Si / 1000 Ang^3
#
#
#
# Elastic Constant Matrix: (Units=GPa)
#
#
# Indices 1 2 3 4 5 6 
#
# 1 83.7217 26.8585 36.5815 0.0000 4.9856 0.0000
# 2 26.8585 94.4383 32.7601 0.0000 -1.7078 0.0000
# 3 36.5815 32.7601 91.5181 0.0000 14.8713 0.0000
# 4 0.0000 0.0000 0.0000 29.9389 0.0000 -23.3932
# 5 4.9856 -1.7078 14.8713 0.0000 25.1401 0.0000
# 6 0.0000 0.0000 0.0000 -23.3932 0.0000 2.0027
#
#
#
# Elastic Compliance Matrix: (Units=1/GPa)
#
#
# Indices 1 2 3 4 5 6 
#
# 1 0.014968 -0.002503 -0.005064 0.000000 -0.000143 0.000000
# 2 -0.002503 0.012835 -0.004222 0.000000 0.003866 0.000000
# 3 -0.005064 -0.004222 0.015871 0.000000 -0.008671 0.000000
# 4 0.000000 0.000000 0.000000 -0.004110 0.000000 -0.048007
# 5 -0.000143 0.003866 -0.008671 0.000000 0.045197 0.000000
# 6 0.000000 0.000000 0.000000 -0.048007 0.000000 -0.061440
#
#
# Mechanical properties :
#
#
# Convention : Reuss Voigt Hill
#
# Bulk Modulus (GPa) = 49.75932 51.34202 50.55067
# Shear Modulus (GPa) = 93.28427 22.98155 58.13291
#
# Velocity S-wave (km/s) = 6.54549 3.24884 5.16713
# Velocity P-wave (km/s) = 8.94304 6.13625 7.66915
#
# Compressibility (1/GPa) = 0.02009674
#
# Stress axis : x y z
#
# Youngs Moduli (GPa) = 66.80697 77.90968 63.00642
#
# Poissons Ratio (x) = 0.19501 0.31906
# Poissons Ratio (y) = 0.16722 0.26603
# Poissons Ratio (z) = 0.33831 0.32896
#
# Static dielectric constant tensor:
#      x y z
#    x 3.906010 0.000000 -0.183470 
#    y 0.000000 4.112280 0.000000 
#    z -0.183470 0.000000 4.407730 
# 
# 
# High freq. dielectric constant tensor:
#      x y z
#    x 1.849020 0.000000 0.006570 
#    y 0.000000 1.863260 0.000000 
#    z 0.006570 0.000000 1.865600 
# 
# From -- ./inp_files/52434.got.cif
#   From: 2010.03.12/outbox.cif.g09.slc.cpg/sg5_27_cif.got.tgz:52434.got - 2010.03.31 09:47:26.
