data_PCOD8048425
_publ_section_title
;
Structure prediction by ZEFSAII (Michael W. Deem and Ramdas Pophale) SiO2 
 PCOD8048425
Probable space group: C 2
;
_chemical_formula_sum "Si O2"
_cell_formula_units_Z 26
_cell_length_a 19.341779
_cell_length_b 9.580349
_cell_length_c 8.651716
_cell_angle_alpha 90.000000
_cell_angle_beta 128.111920
_cell_angle_gamma 90.000000
_cell_volume 1261.386025
_symmetry_space_group_name_H-M "C 2"
_symmetry_group_IT_number 5
_symmetry_cell_setting 'monoclinic'
loop_
_space_group_symop_operation_xyz
x,y,z
-x,y,-z
1/2+x,1/2+y,z
1/2-x,1/2+y,-z
loop_
_atom_site_type_symbol
_atom_site_label
_atom_site_fract_x
_atom_site_fract_y
_atom_site_fract_z
Si Si1 0.575857 0.018940 0.316273
Si Si2 0.888580 0.576910 0.993206
Si Si3 0.647034 0.290311 0.419622
Si Si4 0.796242 0.306290 0.383334
Si Si5 0.644875 0.403088 0.993570
Si Si6 0.696617 0.510598 0.743410
Si Si7 0.500000 0.407680 0.000000
O O1 0.471080 0.010782 0.198159
O O2 0.621940 0.146801 0.474866
O O3 0.615143 0.874147 0.430117
O O4 0.599907 0.051229 0.172350
O O5 0.881557 0.739808 0.029022
O O6 0.800449 0.494809 0.921364
O O7 0.733661 0.260851 0.437705
O O8 0.664862 0.416256 0.558790
O O9 0.561046 0.315466 0.195996
O O10 0.825353 0.170584 0.327063
O O11 0.741978 0.416952 0.202080
O O12 0.642653 0.462207 0.818577
O O13 0.570284 0.491375 0.988360
#
# Coordination Sequence:
#
# PCOD8048425 Si02
#       7
#     4   4   4   4   4   4   2
#     4  11  18  37  74  92 126 169 222 270 311 399
#     4  10  19  39  64  97 123 170 225 261 319 386
#     4  11  18  37  67 100 123 171 224 263 318 398
#     4  10  21  39  62  98 135 167 210 270 336 386
#     4  10  20  39  64  91 134 170 220 275 315 394
#     4  11  23  37  63  99 138 167 215 275 333 382
#     4  10  18  38  64  94 120 164 230 268 308 386
#
# _framework density 20.612247
#
# number of rings (size 3 to 8) (size 9 to 14) (size 15 to 20)
#    0.000    1.538    7.692    0.000    0.000    3.077 
#    0.000    3.846   16.923    0.000    0.000    0.000 
#    0.000    0.000    0.000    0.000    0.000    0.000 
#
# Total GULP energy -161053.490774 kJ/mol
# GULP energy per Si atom -12388.730060 kJ/mol
# Density = 2.056533 g / cm^3
# Si number density = 20.612247 Si / 1000 Ang^3
#
#
#
# Elastic Constant Matrix: (Units=GPa)
#
#
# Indices 1 2 3 4 5 6 
#
# 1 105.9037 50.8617 65.0267 0.0000 2.4725 0.0000
# 2 50.8617 85.4773 64.0962 0.0000 9.0537 0.0000
# 3 65.0267 64.0962 104.3304 0.0000 15.2792 0.0000
# 4 0.0000 0.0000 0.0000 33.0643 0.0000 -2.4597
# 5 2.4725 9.0537 15.2792 0.0000 45.9302 0.0000
# 6 0.0000 0.0000 0.0000 -2.4597 0.0000 23.7756
#
#
#
# Elastic Compliance Matrix: (Units=1/GPa)
#
#
# Indices 1 2 3 4 5 6 
#
# 1 0.016213 -0.003819 -0.008138 0.000000 0.002587 0.000000
# 2 -0.003819 0.022593 -0.011435 0.000000 -0.000444 0.000000
# 3 -0.008138 -0.011435 0.022378 0.000000 -0.004752 0.000000
# 4 0.000000 0.000000 0.000000 0.030479 0.000000 0.003153
# 5 0.002587 -0.000444 -0.004752 0.000000 0.023301 0.000000
# 6 0.000000 0.000000 0.000000 0.003153 0.000000 0.042386
#
#
# Mechanical properties :
#
#
# Convention : Reuss Voigt Hill
#
# Bulk Modulus (GPa) = 69.44100 72.85339 71.14720
# Shear Modulus (GPa) = 23.93096 28.26914 26.10005
#
# Velocity S-wave (km/s) = 3.41105 3.70736 3.56229
# Velocity P-wave (km/s) = 7.01969 7.33127 7.17717
#
# Compressibility (1/GPa) = 0.01440071
#
# Stress axis : x y z
#
# Youngs Moduli (GPa) = 61.67859 44.26130 44.68639
#
# Poissons Ratio (x) = 0.16904 0.36365
# Poissons Ratio (y) = 0.23555 0.51098
# Poissons Ratio (z) = 0.50193 0.50612
#
# Static dielectric constant tensor:
#      x y z
#    x 3.988570 0.000000 0.283560 
#    y 0.000000 3.442400 0.000000 
#    z 0.283560 0.000000 3.783010 
# 
# 
# High freq. dielectric constant tensor:
#      x y z
#    x 1.807100 0.000000 0.017490 
#    y 0.000000 1.773540 0.000000 
#    z 0.017490 0.000000 1.801100 
# 
# From -- ./inp_files/28787.got.cif
#   From: 2010.03.12/outbox.cif.g09.slc.cpg/sg5_15_cif.got.tgz:28787.got - 2010.03.31 09:47:26.
