data_PCOD8048912
_publ_section_title
;
Structure prediction by ZEFSAII (Michael W. Deem and Ramdas Pophale) SiO2 
 PCOD8048912
Probable space group: C 2
;
_chemical_formula_sum "Si O2"
_cell_formula_units_Z 20
_cell_length_a 7.266003
_cell_length_b 12.059750
_cell_length_c 12.246320
_cell_angle_alpha 90.000000
_cell_angle_beta 120.030286
_cell_angle_gamma 90.000000
_cell_volume 929.046589
_symmetry_space_group_name_H-M "C 2"
_symmetry_group_IT_number 5
_symmetry_cell_setting 'monoclinic'
loop_
_space_group_symop_operation_xyz
x,y,z
-x,y,-z
1/2+x,1/2+y,z
1/2-x,1/2+y,-z
loop_
_atom_site_type_symbol
_atom_site_label
_atom_site_fract_x
_atom_site_fract_y
_atom_site_fract_z
Si Si1 0.500000 0.722420 0.000000
Si Si2 0.885279 0.396450 0.800189
Si Si3 0.030068 0.780003 0.319502
Si Si4 0.762485 0.936708 0.473896
Si Si5 0.456140 0.137157 0.105866
Si Si6 0.000000 0.623326 0.500000
O O1 0.521585 0.798235 0.896869
O O2 0.292042 0.644807 0.934228
O O3 0.640974 0.374463 0.764644
O O4 0.897963 0.401741 0.671490
O O5 0.966879 0.511429 0.872313
O O6 0.095936 0.708327 0.233702
O O7 0.236428 0.838756 0.434516
O O8 0.917154 0.700837 0.376821
O O9 0.000000 0.955327 0.500000
O O10 0.691984 0.049023 0.511845
O O11 0.500000 0.188183 0.000000
#
# Coordination Sequence:
#
# PCOD8048912 Si02
#       6
#     2   4   4   4   4   2
#     4  10  24  42  64  94 126 174 214 264 312 372
#     4  10  19  42  65  88 134 163 208 267 310 370
#     4  10  22  43  65  96 132 163 209 272 316 373
#     4  10  22  41  64  98 131 165 207 268 318 381
#     4  11  23  45  67  91 130 174 212 261 319 373
#     4  12  20  40  66  92 130 166 208 252 324 380
#
# _framework density 21.527446000000001
#
# number of rings (size 3 to 8) (size 9 to 14) (size 15 to 20)
#    0.000    1.600    6.000    0.000    0.000    1.600 
#   18.000    0.000    0.000    0.000    0.000    0.000 
#    0.000    0.000    0.000    0.000    0.000    0.000 
#
# Total GULP energy -123950.656135 kJ/mol
# GULP energy per Si atom -12395.065614 kJ/mol
# Density = 2.147845 g / cm^3
# Si number density = 21.527446 Si / 1000 Ang^3
#
#
#
# Elastic Constant Matrix: (Units=GPa)
#
#
# Indices 1 2 3 4 5 6 
#
# 1 58.7234 41.9071 34.1474 0.0000 -8.8962 0.0000
# 2 41.9071 122.7894 55.1120 0.0000 -2.2590 0.0000
# 3 34.1474 55.1120 148.6923 0.0000 -13.3116 0.0000
# 4 0.0000 0.0000 0.0000 39.9202 0.0000 1.6052
# 5 -8.8962 -2.2590 -13.3116 0.0000 27.3774 0.0000
# 6 0.0000 0.0000 0.0000 1.6052 0.0000 26.9653
#
#
#
# Elastic Compliance Matrix: (Units=1/GPa)
#
#
# Indices 1 2 3 4 5 6 
#
# 1 0.024478 -0.007156 -0.002415 0.000000 0.006189 0.000000
# 2 -0.007156 0.011888 -0.003014 0.000000 -0.002810 0.000000
# 3 -0.002415 -0.003014 0.008682 0.000000 0.003188 0.000000
# 4 0.000000 0.000000 0.000000 0.025110 0.000000 -0.001495
# 5 0.006189 -0.002810 0.003188 0.000000 0.039856 0.000000
# 6 0.000000 0.000000 0.000000 -0.001495 0.000000 0.037174
#
#
# Mechanical properties :
#
#
# Convention : Reuss Voigt Hill
#
# Bulk Modulus (GPa) = 50.30884 65.83757 58.07320
# Shear Modulus (GPa) = 27.93540 32.12180 30.02860
#
# Velocity S-wave (km/s) = 3.60622 3.86700 3.73889
# Velocity P-wave (km/s) = 6.38436 7.11251 6.75825
#
# Compressibility (1/GPa) = 0.01987722
#
# Stress axis : x y z
#
# Youngs Moduli (GPa) = 40.85313 84.12108 115.17452
#
# Poissons Ratio (x) = 0.60201 0.27812
# Poissons Ratio (y) = 0.29236 0.34716
# Poissons Ratio (z) = 0.09865 0.25356
#
# Static dielectric constant tensor:
#      x y z
#    x 3.366840 0.000000 -0.084530 
#    y 0.000000 3.918670 0.000000 
#    z -0.084530 0.000000 4.417280 
# 
# 
# High freq. dielectric constant tensor:
#      x y z
#    x 1.797970 0.000000 -0.006820 
#    y 0.000000 1.845650 0.000000 
#    z -0.006820 0.000000 1.872770 
# 
# From -- ./inp_files/34966.got.cif
#   From: 2010.03.12/outbox.cif.g09.slc.cpg/sg5_18_cif.got.tgz:34966.got - 2010.03.31 09:47:26.
