data_PCOD8048625
_publ_section_title
;
Structure prediction by ZEFSAII (Michael W. Deem and Ramdas Pophale) SiO2 
 PCOD8048625
Probable space group: C 2
;
_chemical_formula_sum "Si O2"
_cell_formula_units_Z 30
_cell_length_a 12.330517
_cell_length_b 18.080070
_cell_length_c 15.144869
_cell_angle_alpha 90.000000
_cell_angle_beta 27.331512
_cell_angle_gamma 90.000000
_cell_volume 1550.209363
_symmetry_space_group_name_H-M "C 2"
_symmetry_group_IT_number 5
_symmetry_cell_setting 'monoclinic'
loop_
_space_group_symop_operation_xyz
x,y,z
-x,y,-z
1/2+x,1/2+y,z
1/2-x,1/2+y,-z
loop_
_atom_site_type_symbol
_atom_site_label
_atom_site_fract_x
_atom_site_fract_y
_atom_site_fract_z
Si Si1 0.000000 0.652241 0.000000
Si Si2 0.910715 0.382028 0.837572
Si Si3 0.599104 0.323240 0.522621
Si Si4 0.065387 0.762847 0.091315
Si Si5 0.144813 0.345761 0.315836
Si Si6 0.251793 0.430573 0.866799
Si Si7 0.304574 0.716379 0.505163
Si Si8 0.561655 0.569214 0.357908
O O1 0.148670 0.702533 0.959872
O O2 0.819729 0.603197 0.185187
O O3 0.846435 0.395777 0.779989
O O4 0.193711 0.383916 0.641539
O O5 0.808031 0.302235 0.943894
O O6 0.795753 0.437705 0.992830
O O7 0.500000 0.301254 0.500000
O O8 0.400489 0.357092 0.732074
O O9 0.718074 0.248356 0.474066
O O10 0.906477 0.826913 0.159651
O O11 0.929414 0.721357 0.266340
O O12 0.000000 0.386995 0.500000
O O13 0.011566 0.267671 0.394611
O O14 0.418126 0.499928 0.722241
O O15 0.000000 0.430239 0.000000
O O16 0.383254 0.630549 0.446489
O O17 0.500000 0.540707 0.500000
#
# Coordination Sequence:
#
# PCOD8048625 Si02
#       8
#     2   4   4   4   4   4   4   4
#     4  12  18  32  58  86 118 148 188 240 320 360
#     4  11  21  35  57  84 124 162 201 248 300 364
#     4  11  22  39  60  86 123 160 211 258 293 348
#     4  11  17  32  58  92 121 147 196 260 308 365
#     4   9  17  30  55  89 123 146 188 260 317 352
#     4  12  25  39  57  85 128 173 206 239 306 373
#     4  10  19  35  58  90 120 159 201 253 309 353
#     4  12  23  37  57  88 125 160 194 249 315 368
#
# _framework density 19.352224
#
# number of rings (size 3 to 8) (size 9 to 14) (size 15 to 20)
#    0.000    1.067    7.333    1.600    0.000    0.000 
#    0.000    0.000    0.000    0.000   10.400    0.000 
#    0.000    0.000    0.000    0.000    0.000    0.000 
#
# Total GULP energy -185852.266954 kJ/mol
# GULP energy per Si atom -12390.151130 kJ/mol
# Density = 1.930818 g / cm^3
# Si number density = 19.352224 Si / 1000 Ang^3
#
#
#
# Elastic Constant Matrix: (Units=GPa)
#
#
# Indices 1 2 3 4 5 6 
#
# 1 96.8409 31.3203 39.3589 -0.0285 23.4058 0.0715
# 2 31.3203 65.9419 25.9782 -0.0631 10.5159 0.1084
# 3 39.3589 25.9782 112.4711 0.1302 23.5148 0.1468
# 4 -0.0285 -0.0631 0.1302 27.9659 -0.0311 9.3199
# 5 23.4058 10.5159 23.5148 -0.0311 44.4978 -0.0302
# 6 0.0715 0.1084 0.1468 9.3199 -0.0302 14.9148
#
#
#
# Elastic Compliance Matrix: (Units=1/GPa)
#
#
# Indices 1 2 3 4 5 6 
#
# 1 0.014222 -0.004865 -0.002844 0.000020 -0.004828 -0.000027
# 2 -0.004865 0.018531 -0.002470 0.000097 -0.000515 -0.000149
# 3 -0.002844 -0.002470 0.011267 -0.000046 -0.003875 -0.000059
# 4 0.000020 0.000097 -0.000046 0.045164 0.000003 -0.028222
# 5 -0.004828 -0.000515 -0.003875 0.000003 0.027182 0.000118
# 6 -0.000027 -0.000149 -0.000059 -0.028222 0.000118 0.084685
#
#
# Mechanical properties :
#
#
# Convention : Reuss Voigt Hill
#
# Bulk Modulus (GPa) = 42.25976 52.06318 47.16147
# Shear Modulus (GPa) = 21.80582 29.38212 25.59397
#
# Velocity S-wave (km/s) = 3.36041 3.90074 3.64061
# Velocity P-wave (km/s) = 6.07791 6.87379 6.48807
#
# Compressibility (1/GPa) = 0.02366317
#
# Stress axis : x y z
#
# Youngs Moduli (GPa) = 70.31126 53.96346 88.75379
#
# Poissons Ratio (x) = 0.26252 0.25241
# Poissons Ratio (y) = 0.34205 0.21923
# Poissons Ratio (z) = 0.19996 0.13329
#
# Static dielectric constant tensor:
#      x y z
#    x 3.506470 -0.000100 0.228400 
#    y -0.000100 3.183390 0.000230 
#    z 0.228400 0.000230 4.061540 
# 
# 
# High freq. dielectric constant tensor:
#      x y z
#    x 1.731950 -0.000010 0.016480 
#    y -0.000010 1.696290 0.000030 
#    z 0.016480 0.000030 1.793220 
# 
# From -- ./inp_files/53395.got.cif
#   From: 2010.03.12/outbox.cif.g09.slc.cpg/sg5_27_cif.got.tgz:53395.got - 2010.03.31 09:47:26.
