data_PCOD8048136
_publ_section_title
;
Structure prediction by ZEFSAII (Michael W. Deem and Ramdas Pophale) SiO2 
 PCOD8048136
Probable space group: C 2
;
_chemical_formula_sum "Si O2"
_cell_formula_units_Z 28
_cell_length_a 16.260397
_cell_length_b 8.238895
_cell_length_c 11.522575
_cell_angle_alpha 90.000000
_cell_angle_beta 114.093246
_cell_angle_gamma 90.000000
_cell_volume 1409.173428
_symmetry_space_group_name_H-M "C 2"
_symmetry_group_IT_number 5
_symmetry_cell_setting 'monoclinic'
loop_
_space_group_symop_operation_xyz
x,y,z
-x,y,-z
1/2+x,1/2+y,z
1/2-x,1/2+y,-z
loop_
_atom_site_type_symbol
_atom_site_label
_atom_site_fract_x
_atom_site_fract_y
_atom_site_fract_z
Si Si1 0.026045 0.887820 0.147524
Si Si2 0.799692 0.505262 0.315800
Si Si3 0.795740 0.699847 0.767532
Si Si4 0.851932 0.483311 0.608113
Si Si5 0.048807 0.610436 0.757698
Si Si6 0.904867 0.484817 0.983271
Si Si7 0.877726 0.202114 0.790375
O O1 0.952933 0.793196 0.187326
O O2 0.122247 0.810040 0.227637
O O3 0.038304 0.079277 0.183885
O O4 0.000000 0.869726 0.000000
O O5 0.788970 0.320013 0.259955
O O6 0.807232 0.485233 0.457622
O O7 0.886444 0.598442 0.315832
O O8 0.713671 0.609679 0.230127
O O9 0.781610 0.573816 0.653601
O O10 0.821132 0.599187 0.897922
O O11 0.864982 0.302142 0.664689
O O12 0.949536 0.565204 0.659924
O O13 0.089659 0.479405 0.874070
O O14 0.899360 0.312012 0.916002
O O15 0.000000 0.569053 0.000000
#
# Coordination Sequence:
#
# PCOD8048136 Si02
#       7
#     4   4   4   4   4   4   4
#     4  10  17  34  60  87 110 151 200 238 294 367
#     4  11  23  36  54  92 121 152 198 249 303 345
#     4   9  18  34  59  80 109 157 194 236 289 352
#     4  10  20  40  61  78 116 167 204 232 285 368
#     4  11  21  36  61  85 122 156 189 254 306 351
#     4  11  17  38  61  86 113 156 202 239 298 363
#     4  10  22  35  62  90 109 156 211 248 287 362
#
# _framework density 19.869803999999998
#
# number of rings (size 3 to 8) (size 9 to 14) (size 15 to 20)
#    0.000    1.714    5.714    1.714    0.000    1.143 
#    0.000    2.857    0.000    5.143    0.000    0.000 
#    0.000    0.000    0.000    0.000    0.000    0.000 
#
# Total GULP energy -173473.749129 kJ/mol
# GULP energy per Si atom -12390.982081 kJ/mol
# Density = 1.982458 g / cm^3
# Si number density = 19.869804 Si / 1000 Ang^3
#
#
#
# Elastic Constant Matrix: (Units=GPa)
#
#
# Indices 1 2 3 4 5 6 
#
# 1 55.6875 26.6933 -5.5084 0.0000 -0.0914 0.0000
# 2 26.6933 121.2101 25.1489 0.0000 4.6242 0.0000
# 3 -5.5084 25.1489 68.0754 0.0000 7.3720 0.0000
# 4 0.0000 0.0000 0.0000 22.4865 0.0000 4.5793
# 5 -0.0914 4.6242 7.3720 0.0000 20.5508 0.0000
# 6 0.0000 0.0000 0.0000 4.5793 0.0000 25.5425
#
#
#
# Elastic Compliance Matrix: (Units=1/GPa)
#
#
# Indices 1 2 3 4 5 6 
#
# 1 0.020891 -0.005362 0.003673 0.000000 -0.000018 0.000000
# 2 -0.005362 0.010326 -0.004156 0.000000 -0.000857 0.000000
# 3 0.003673 -0.004156 0.017083 0.000000 -0.005176 0.000000
# 4 0.000000 0.000000 0.000000 0.046156 0.000000 -0.008275
# 5 -0.000018 -0.000857 -0.005176 0.000000 0.050709 0.000000
# 6 0.000000 0.000000 0.000000 -0.008275 0.000000 0.040634
#
#
# Mechanical properties :
#
#
# Convention : Reuss Voigt Hill
#
# Bulk Modulus (GPa) = 27.31472 37.51563 32.41518
# Shear Modulus (GPa) = 23.84452 26.95859 25.40155
#
# Velocity S-wave (km/s) = 3.46791 3.68742 3.57935
# Velocity P-wave (km/s) = 5.46003 6.08696 5.78200
#
# Compressibility (1/GPa) = 0.03661030
#
# Stress axis : x y z
#
# Youngs Moduli (GPa) = 47.86762 96.84355 58.53890
#
# Poissons Ratio (x) = 0.51929 -0.21503
# Poissons Ratio (y) = 0.25667 0.24328
# Poissons Ratio (z) = -0.17583 0.40246
#
# Static dielectric constant tensor:
#      x y z
#    x 3.279660 0.000000 0.123350 
#    y 0.000000 4.048130 0.000000 
#    z 0.123350 0.000000 3.574860 
# 
# 
# High freq. dielectric constant tensor:
#      x y z
#    x 1.728360 0.000000 0.016350 
#    y 0.000000 1.784630 0.000000 
#    z 0.016350 0.000000 1.779430 
# 
# From -- ./inp_files/41769.got.cif
#   From: 2010.03.12/outbox.cif.g09.slc.cpg/sg5_21_cif.got.tgz:41769.got - 2010.03.31 09:47:26.
