data_PCOD8048800
_publ_section_title
;
Structure prediction by ZEFSAII (Michael W. Deem and Ramdas Pophale) SiO2 
 PCOD8048800
Probable space group: C 2
;
_chemical_formula_sum "Si O2"
_cell_formula_units_Z 30
_cell_length_a 17.452001
_cell_length_b 12.862784
_cell_length_c 10.605530
_cell_angle_alpha 90.000000
_cell_angle_beta 139.001925
_cell_angle_gamma 90.000000
_cell_volume 1561.847813
_symmetry_space_group_name_H-M "C 2"
_symmetry_group_IT_number 5
_symmetry_cell_setting 'monoclinic'
loop_
_space_group_symop_operation_xyz
x,y,z
-x,y,-z
1/2+x,1/2+y,z
1/2-x,1/2+y,-z
loop_
_atom_site_type_symbol
_atom_site_label
_atom_site_fract_x
_atom_site_fract_y
_atom_site_fract_z
Si Si1 0.151911 0.051580 0.411557
Si Si2 0.199317 0.630200 0.625608
Si Si3 0.500000 0.989111 0.500000
Si Si4 0.127047 0.321903 0.814601
Si Si5 0.136399 0.132372 0.668020
Si Si6 0.441366 0.678769 0.052998
Si Si7 0.594207 0.350400 0.448956
Si Si8 0.351341 0.420832 0.206173
O O1 0.254414 0.076768 0.442626
O O2 0.181335 0.106593 0.582884
O O3 0.023468 0.082553 0.198373
O O4 0.158583 0.926164 0.429949
O O5 0.134703 0.732240 0.490954
O O6 0.104316 0.560379 0.577941
O O7 0.306434 0.648439 0.856135
O O8 0.545683 0.914462 0.666151
O O9 0.178608 0.245498 0.769357
O O10 0.052261 0.261215 0.826593
O O11 0.234971 0.372603 0.014304
O O12 0.000000 0.141647 0.500000
O O13 0.164682 0.046154 0.811261
O O14 0.500000 0.728083 0.000000
O O15 0.456466 0.371817 0.254546
O O16 0.627301 0.391554 0.625139
#
# Coordination Sequence:
#
# PCOD8048800 Si02
#       8
#     4   4   2   4   4   4   4   4
#     4  10  21  40  65  90 122 166 218 254 296 385
#     4  11  25  40  63  92 130 160 205 266 318 370
#     4  12  28  40  58  98 128 160 202 268 336 350
#     4  12  23  38  63  93 126 165 202 266 305 371
#     4  11  19  38  63  85 116 162 213 248 300 365
#     4  10  21  39  64  93 122 170 214 254 301 370
#     4  10  19  38  62  90 116 166 203 248 311 362
#     4  10  20  34  63  90 116 159 215 245 296 371
#
# _framework density 19.208016000000001
#
# number of rings (size 3 to 8) (size 9 to 14) (size 15 to 20)
#    0.000    1.333    6.000    0.800    3.733    3.200 
#    0.000    0.000    0.000    3.200    0.000    0.000 
#    0.000    0.000    0.000    0.000    0.000    0.000 
#
# Total GULP energy -185865.192222 kJ/mol
# GULP energy per Si atom -12391.012815 kJ/mol
# Density = 1.916430 g / cm^3
# Si number density = 19.208016 Si / 1000 Ang^3
#
#
#
# Elastic Constant Matrix: (Units=GPa)
#
#
# Indices 1 2 3 4 5 6 
#
# 1 149.9240 87.7494 134.7299 0.0000 -11.8322 0.0000
# 2 87.7494 158.3838 136.6961 0.0000 -9.0428 0.0000
# 3 134.7299 136.6961 426.7890 0.0000 -37.4025 0.0000
# 4 0.0000 0.0000 0.0000 -10.6652 0.0000 -18.9277
# 5 -11.8322 -9.0428 -37.4025 0.0000 33.5408 0.0000
# 6 0.0000 0.0000 0.0000 -18.9277 0.0000 20.6816
#
#
#
# Elastic Compliance Matrix: (Units=1/GPa)
#
#
# Indices 1 2 3 4 5 6 
#
# 1 0.011112 -0.004335 -0.002082 0.000000 0.000430 0.000000
# 2 -0.004335 0.010439 -0.002064 0.000000 -0.001017 0.000000
# 3 -0.002082 -0.002064 0.003933 0.000000 0.003094 0.000000
# 4 0.000000 0.000000 0.000000 -0.035730 0.000000 -0.032700
# 5 0.000430 -0.001017 0.003094 0.000000 0.033143 0.000000
# 6 0.000000 0.000000 0.000000 -0.032700 0.000000 0.018425
#
#
# Mechanical properties :
#
#
# Convention : Reuss Voigt Hill
#
# Bulk Modulus (GPa) = 117.34822 161.49416 139.42119
# Shear Modulus (GPa) = 81.80072 33.77287 57.78679
#
# Velocity S-wave (km/s) = 6.53293 4.19772 5.49091
# Velocity P-wave (km/s) = 10.86884 10.38044 10.62744
#
# Compressibility (1/GPa) = 0.00852165
#
# Stress axis : x y z
#
# Youngs Moduli (GPa) = 89.99219 95.79469 254.29085
#
# Poissons Ratio (x) = 0.41529 0.52935
# Poissons Ratio (y) = 0.39014 0.52486
# Poissons Ratio (z) = 0.18734 0.19772
#
# Static dielectric constant tensor:
#      x y z
#    x 3.650320 0.000000 -0.502810 
#    y 0.000000 3.324780 0.000000 
#    z -0.502810 0.000000 4.534300 
# 
# 
# High freq. dielectric constant tensor:
#      x y z
#    x 1.739670 0.000000 -0.007100 
#    y 0.000000 1.751570 0.000000 
#    z -0.007100 0.000000 1.746160 
# 
# From -- ./inp_files/44683.got.cif
#   From: 2010.03.12/outbox.cif.g09.slc.cpg/sg5_23_cif.got.tgz:44683.got - 2010.03.31 09:47:26.
