data_PCOD8048729
_publ_section_title
;
Structure prediction by ZEFSAII (Michael W. Deem and Ramdas Pophale) SiO2 
 PCOD8048729
Probable space group: C 2
;
_chemical_formula_sum "Si O2"
_cell_formula_units_Z 28
_cell_length_a 12.195849
_cell_length_b 7.888675
_cell_length_c 14.778452
_cell_angle_alpha 90.000000
_cell_angle_beta 111.163856
_cell_angle_gamma 90.000000
_cell_volume 1325.922026
_symmetry_space_group_name_H-M "C 2"
_symmetry_group_IT_number 5
_symmetry_cell_setting 'monoclinic'
loop_
_space_group_symop_operation_xyz
x,y,z
-x,y,-z
1/2+x,1/2+y,z
1/2-x,1/2+y,-z
loop_
_atom_site_type_symbol
_atom_site_label
_atom_site_fract_x
_atom_site_fract_y
_atom_site_fract_z
Si Si1 0.134091 0.196450 0.059064
Si Si2 0.213090 0.199776 0.742734
Si Si3 0.655830 0.804424 0.399430
Si Si4 0.777828 0.950783 0.606911
Si Si5 0.588124 0.960342 0.196199
Si Si6 0.671536 0.912832 0.898778
Si Si7 0.993834 0.023791 0.397406
O O1 0.132071 0.297531 0.152609
O O2 0.218557 0.033314 0.091458
O O3 0.189607 0.317638 0.999020
O O4 0.000000 0.136732 0.000000
O O5 0.221141 0.346019 0.670211
O O6 0.154844 0.273466 0.815335
O O7 0.137693 0.039214 0.681871
O O8 0.339493 0.127611 0.809046
O O9 0.723216 0.915006 0.492750
O O10 0.739047 0.653706 0.382681
O O11 0.609680 0.928439 0.308228
O O12 0.543672 0.717157 0.414564
O O13 0.919466 0.912151 0.641025
O O14 0.453196 0.009977 0.134538
O O15 0.000000 0.946690 0.500000
#
# Coordination Sequence:
#
# PCOD8048729 Si02
#       7
#     4   4   4   4   4   4   4
#     4  10  24  43  64  89 123 154 197 250 304 361
#     4  12  22  39  64  87 125 160 198 253 300 351
#     4  10  19  37  59  84 123 157 202 245 294 345
#     4  10  21  35  62  87 118 165 203 241 296 351
#     4  11  23  40  62  91 122 156 202 253 295 360
#     4  11  23  42  64  92 118 159 198 246 307 363
#     4  10  20  37  61  82 123 165 199 242 301 340
#
# _framework density 21.117380000000001
#
# number of rings (size 3 to 8) (size 9 to 14) (size 15 to 20)
#    0.857    0.571    2.857    3.429    0.000    2.286 
#    0.000    1.429    3.143    0.000    0.000    0.000 
#    0.000    0.000    0.000    0.000    0.000    0.000 
#
# Total GULP energy -173525.578005 kJ/mol
# GULP energy per Si atom -12394.684143 kJ/mol
# Density = 2.106932 g / cm^3
# Si number density = 21.117380 Si / 1000 Ang^3
#
#
#
# Elastic Constant Matrix: (Units=GPa)
#
#
# Indices 1 2 3 4 5 6 
#
# 1 86.2888 10.9282 24.1119 0.0000 4.4555 0.0000
# 2 10.9282 35.2022 12.0940 0.0000 11.4702 0.0000
# 3 24.1119 12.0940 84.4818 0.0000 3.5935 0.0000
# 4 0.0000 0.0000 0.0000 19.7083 0.0000 5.9071
# 5 4.4555 11.4702 3.5935 0.0000 31.0196 0.0000
# 6 0.0000 0.0000 0.0000 5.9071 0.0000 41.9479
#
#
#
# Elastic Compliance Matrix: (Units=1/GPa)
#
#
# Indices 1 2 3 4 5 6 
#
# 1 0.012870 -0.002723 -0.003264 0.000000 -0.000464 0.000000
# 2 -0.002723 0.034380 -0.003638 0.000000 -0.011900 0.000000
# 3 -0.003264 -0.003638 0.013277 0.000000 0.000276 0.000000
# 4 0.000000 0.000000 0.000000 0.052976 0.000000 -0.007460
# 5 -0.000464 -0.011900 0.000276 0.000000 0.036673 0.000000
# 6 0.000000 0.000000 0.000000 -0.007460 0.000000 0.024890
#
#
# Mechanical properties :
#
#
# Convention : Reuss Voigt Hill
#
# Bulk Modulus (GPa) = 24.22629 33.36013 28.79321
# Shear Modulus (GPa) = 24.02980 29.12440 26.57710
#
# Velocity S-wave (km/s) = 3.37696 3.71774 3.55144
# Velocity P-wave (km/s) = 5.16742 5.85325 5.52100
#
# Compressibility (1/GPa) = 0.04127747
#
# Stress axis : x y z
#
# Youngs Moduli (GPa) = 77.70160 29.08646 75.31567
#
# Poissons Ratio (x) = 0.07920 0.24580
# Poissons Ratio (y) = 0.21158 0.27403
# Poissons Ratio (z) = 0.25359 0.10583
#
# Static dielectric constant tensor:
#      x y z
#    x 3.886180 0.000000 0.043630 
#    y 0.000000 3.432950 0.000000 
#    z 0.043630 0.000000 3.753920 
# 
# 
# High freq. dielectric constant tensor:
#      x y z
#    x 1.835210 0.000000 -0.001780 
#    y 0.000000 1.798290 0.000000 
#    z -0.001780 0.000000 1.832520 
# 
# From -- ./inp_files/52296.got.cif
#   From: 2010.03.12/outbox.cif.g09.slc.cpg/sg5_27_cif.got.tgz:52296.got - 2010.03.31 09:47:26.
