data_PCOD8048513
_publ_section_title
;
Structure prediction by ZEFSAII (Michael W. Deem and Ramdas Pophale) SiO2 
 PCOD8048513
Probable space group: C 2
;
_chemical_formula_sum "Si O2"
_cell_formula_units_Z 32
_cell_length_a 25.386557
_cell_length_b 5.188730
_cell_length_c 13.635357
_cell_angle_alpha 90.000000
_cell_angle_beta 100.230993
_cell_angle_gamma 90.000000
_cell_volume 1767.544994
_symmetry_space_group_name_H-M "C 2"
_symmetry_group_IT_number 5
_symmetry_cell_setting 'monoclinic'
loop_
_space_group_symop_operation_xyz
x,y,z
-x,y,-z
1/2+x,1/2+y,z
1/2-x,1/2+y,-z
loop_
_atom_site_type_symbol
_atom_site_label
_atom_site_fract_x
_atom_site_fract_y
_atom_site_fract_z
Si Si1 0.851755 0.916310 0.822028
Si Si2 0.477241 0.904633 0.101713
Si Si3 0.679257 0.396053 0.796388
Si Si4 0.356513 0.897879 0.112012
Si Si5 0.209572 0.840519 0.383543
Si Si6 0.476206 0.404727 0.883594
Si Si7 0.721111 0.339971 0.606490
Si Si8 0.301481 0.916847 0.894986
O O1 0.841982 0.881718 0.702286
O O2 0.817321 0.705822 0.869394
O O3 0.913080 0.867778 0.866975
O O4 0.835421 0.203462 0.847865
O O5 0.495779 0.165595 0.163181
O O6 0.413708 0.870657 0.078467
O O7 0.506170 0.666160 0.166549
O O8 0.500000 0.943794 0.000000
O O9 0.652520 0.665160 0.816078
O O10 0.677609 0.376220 0.677629
O O11 0.739529 0.371289 0.854516
O O12 0.644799 0.165131 0.830097
O O13 0.311059 0.885805 0.013964
O O14 0.233791 0.560024 0.368442
O O15 0.191872 0.862590 0.491347
O O16 0.252977 0.058912 0.372441
O O17 0.500000 0.444448 0.000000
#
# Coordination Sequence:
#
# PCOD8048513 Si02
#       8
#     4   4   4   4   4   4   4   4
#     4  12  20  34  58  83 110 145 182 222 282 317
#     4  10  20  37  52  72  98 136 182 234 268 297
#     4  12  22  37  52  79 111 153 180 218 263 326
#     4  12  24  36  54  76 110 151 191 214 267 329
#     4  10  19  35  56  83 104 146 178 226 271 314
#     4  10  19  32  51  76 104 134 174 225 273 311
#     4  10  20  36  56  76 114 140 184 223 264 313
#     4  12  22  35  50  79 117 151 180 216 251 329
#
# _framework density 18.104205
#
# number of rings (size 3 to 8) (size 9 to 14) (size 15 to 20)
#    0.000    1.000    2.500    7.500    0.000    0.000 
#    0.000    0.000    0.000    0.000    0.000    5.250 
#    0.000    0.000    0.000    0.000    0.000    0.000 
#
# Total GULP energy -198398.687559 kJ/mol
# GULP energy per Si atom -12399.917972 kJ/mol
# Density = 1.806300 g / cm^3
# Si number density = 18.104205 Si / 1000 Ang^3
#
#
#
# Elastic Constant Matrix: (Units=GPa)
#
#
# Indices 1 2 3 4 5 6 
#
# 1 74.7381 9.5549 21.7547 0.0000 -3.8581 0.0000
# 2 9.5549 110.0503 4.5231 0.0000 -1.7734 0.0000
# 3 21.7547 4.5231 89.6726 0.0000 -6.1465 0.0000
# 4 0.0000 0.0000 0.0000 22.4044 0.0000 -6.5507
# 5 -3.8581 -1.7734 -6.1465 0.0000 18.6399 0.0000
# 6 0.0000 0.0000 0.0000 -6.5507 0.0000 26.9713
#
#
#
# Elastic Compliance Matrix: (Units=1/GPa)
#
#
# Indices 1 2 3 4 5 6 
#
# 1 0.014592 -0.001100 -0.003361 0.000000 0.001807 0.000000
# 2 -0.001100 0.009198 -0.000156 0.000000 0.000596 0.000000
# 3 -0.003361 -0.000156 0.012202 0.000000 0.003313 0.000000
# 4 0.000000 0.000000 0.000000 0.048046 0.000000 0.011669
# 5 0.001807 0.000596 0.003313 0.000000 0.055172 0.000000
# 6 0.000000 0.000000 0.000000 0.011669 0.000000 0.039911
#
#
# Mechanical properties :
#
#
# Convention : Reuss Voigt Hill
#
# Bulk Modulus (GPa) = 37.37066 38.45848 37.91457
# Shear Modulus (GPa) = 25.34547 29.51167 27.42857
#
# Velocity S-wave (km/s) = 3.74569 4.04183 3.89657
# Velocity P-wave (km/s) = 6.27644 6.56284 6.42123
#
# Compressibility (1/GPa) = 0.02675896
#
# Stress axis : x y z
#
# Youngs Moduli (GPa) = 68.52981 108.71624 81.95393
#
# Poissons Ratio (x) = 0.11955 0.27542
# Poissons Ratio (y) = 0.07536 0.01281
# Poissons Ratio (z) = 0.23031 0.01700
#
# Static dielectric constant tensor:
#      x y z
#    x 3.173710 0.000000 -0.029580 
#    y 0.000000 4.431030 0.000000 
#    z -0.029580 0.000000 3.397000 
# 
# 
# High freq. dielectric constant tensor:
#      x y z
#    x 1.674650 0.000000 -0.001490 
#    y 0.000000 1.740650 0.000000 
#    z -0.001490 0.000000 1.672000 
# 
# From -- ./inp_files/46949.got.cif
#   From: 2010.03.12/outbox.cif.g09.slc.cpg/sg5_24_cif.got.tgz:46949.got - 2010.03.31 09:47:26.
