data_PCOD8048497
_publ_section_title
;
Structure prediction by ZEFSAII (Michael W. Deem and Ramdas Pophale) SiO2 
 PCOD8048497
Probable space group: C 2
;
_chemical_formula_sum "Si O2"
_cell_formula_units_Z 32
_cell_length_a 12.930143
_cell_length_b 25.723792
_cell_length_c 14.847530
_cell_angle_alpha 90.000000
_cell_angle_beta 160.488227
_cell_angle_gamma 90.000000
_cell_volume 1649.452079
_symmetry_space_group_name_H-M "C 2"
_symmetry_group_IT_number 5
_symmetry_cell_setting 'monoclinic'
loop_
_space_group_symop_operation_xyz
x,y,z
-x,y,-z
1/2+x,1/2+y,z
1/2-x,1/2+y,-z
loop_
_atom_site_type_symbol
_atom_site_label
_atom_site_fract_x
_atom_site_fract_y
_atom_site_fract_z
Si Si1 0.297091 0.839540 0.998552
Si Si2 0.846687 0.971469 0.783382
Si Si3 0.148136 0.127086 0.219640
Si Si4 0.176236 0.043441 0.924298
Si Si5 0.409694 0.394903 0.527398
Si Si6 0.650771 0.743509 0.219446
Si Si7 0.114529 0.017478 0.494321
Si Si8 0.153369 0.848371 0.216122
O O1 0.158409 0.865835 0.794809
O O2 0.022081 0.827141 0.841242
O O3 0.556996 0.876888 0.256292
O O4 0.449461 0.783543 0.110631
O O5 0.500000 0.992807 0.500000
O O6 0.858748 0.910087 0.789052
O O7 0.019903 0.991996 0.837524
O O8 0.000000 0.993676 0.000000
O O9 0.500000 0.106511 0.500000
O O10 0.148568 0.185740 0.260498
O O11 0.951510 0.093636 0.128846
O O12 0.000000 0.123188 0.000000
O O13 0.097386 0.046416 0.753488
O O14 0.541513 0.038593 0.236635
O O15 0.500000 0.380107 0.500000
O O16 0.420728 0.456181 0.552899
O O17 0.000000 0.765184 0.500000
O O18 0.500000 0.738448 0.000000
O O19 0.000000 0.031984 0.500000
O O20 0.500000 0.826917 0.500000
O O21 0.000000 0.826739 0.000000
#
# Coordination Sequence:
#
# PCOD8048497 Si02
#       8
#     4   4   4   4   4   4   4   4
#     4  12  21  35  58  80 110 152 190 223 277 336
#     4  10  19  31  49  76 106 135 175 221 269 325
#     4  10  21  38  60  89 118 141 176 231 292 346
#     4  12  21  36  59  79 108 150 189 224 280 338
#     4  11  22  35  54  83 115 145 184 230 278 335
#     4  10  21  37  58  87 117 141 176 231 290 343
#     4  11  24  38  53  79 114 151 191 232 269 318
#     4  10  21  34  48  71 105 143 181 222 260 307
#
# _framework density 19.400382
#
# number of rings (size 3 to 8) (size 9 to 14) (size 15 to 20)
#    0.000    1.250    0.000    7.875    0.000    4.000 
#    0.000    0.000    0.000    2.250    0.000    0.000 
#    0.000    0.000    0.000    0.000    0.000    0.000 
#
# Total GULP energy -198441.385249 kJ/mol
# GULP energy per Si atom -12402.586578 kJ/mol
# Density = 1.935623 g / cm^3
# Si number density = 19.400382 Si / 1000 Ang^3
#
#
#
# Elastic Constant Matrix: (Units=GPa)
#
#
# Indices 1 2 3 4 5 6 
#
# 1 109.5282 41.8882 37.9173 -0.3328 3.5242 -0.1119
# 2 41.8882 79.3459 35.2166 0.0509 6.5488 0.0108
# 3 37.9173 35.2166 137.3097 0.2341 1.2614 -0.0406
# 4 -0.3328 0.0509 0.2341 0.3328 0.2286 7.8323
# 5 3.5242 6.5488 1.2614 0.2286 42.5671 0.0367
# 6 -0.1119 0.0108 -0.0406 7.8323 0.0367 22.3672
#
#
#
# Elastic Compliance Matrix: (Units=1/GPa)
#
#
# Indices 1 2 3 4 5 6 
#
# 1 0.011849 -0.005413 -0.001880 -0.001751 -0.000084 0.000672
# 2 -0.005413 0.016881 -0.002817 0.000514 -0.002068 -0.000217
# 3 -0.001880 -0.002817 0.008519 0.001081 0.000331 -0.000372
# 4 -0.001751 0.000514 0.001081 -0.414440 0.002135 0.145113
# 5 -0.000084 -0.002068 0.000331 0.002135 0.023797 -0.000785
# 6 0.000672 -0.000217 -0.000372 0.145113 -0.000785 -0.006102
#
#
# Mechanical properties :
#
#
# Convention : Reuss Voigt Hill
#
# Bulk Modulus (GPa) = 58.71858 61.80313 60.26085
# Shear Modulus (GPa) = -14.98807 27.13087 6.07140
#
# Velocity S-wave (km/s) = -2.78252 3.74367 1.77097
# Velocity P-wave (km/s) = 4.47316 7.11425 5.94230
#
# Compressibility (1/GPa) = 0.01703039
#
# Stress axis : x y z
#
# Youngs Moduli (GPa) = 84.39470 59.23712 117.38002
#
# Poissons Ratio (x) = 0.32066 0.22065
# Poissons Ratio (y) = 0.45684 0.33063
# Poissons Ratio (z) = 0.15864 0.16686
#
# Static dielectric constant tensor:
#      x y z
#    x 3.533780 0.000080 -0.073070 
#    y 0.000080 3.520180 0.000350 
#    z -0.073070 0.000350 3.858770 
# 
# 
# High freq. dielectric constant tensor:
#      x y z
#    x 1.751330 0.000000 -0.006100 
#    y 0.000000 1.731780 -0.000010 
#    z -0.006100 -0.000010 1.779910 
# 
# From -- ./inp_files/53586.got.cif
#   From: 2010.03.12/outbox.cif.g09.slc.cpg/sg5_27_cif.got.tgz:53586.got - 2010.03.31 09:47:26.
