data_PCOD8048702
_publ_section_title
;
Structure prediction by ZEFSAII (Michael W. Deem and Ramdas Pophale) SiO2 
 PCOD8048702
Probable space group: C 2
;
_chemical_formula_sum "Si O2"
_cell_formula_units_Z 32
_cell_length_a 12.486625
_cell_length_b 14.709404
_cell_length_c 17.759147
_cell_angle_alpha 90.000000
_cell_angle_beta 26.477999
_cell_angle_gamma 90.000000
_cell_volume 1454.303488
_symmetry_space_group_name_H-M "C 2"
_symmetry_group_IT_number 5
_symmetry_cell_setting 'monoclinic'
loop_
_space_group_symop_operation_xyz
x,y,z
-x,y,-z
1/2+x,1/2+y,z
1/2-x,1/2+y,-z
loop_
_atom_site_type_symbol
_atom_site_label
_atom_site_fract_x
_atom_site_fract_y
_atom_site_fract_z
Si Si1 0.219799 0.215940 0.803389
Si Si2 0.387049 0.521558 0.151077
Si Si3 0.218302 0.142039 0.303957
Si Si4 0.613697 0.836397 0.348436
Si Si5 0.154278 0.843647 0.544783
Si Si6 0.846650 0.514383 0.954648
Si Si7 0.332683 0.490125 0.769980
Si Si8 0.668848 0.867911 0.729281
O O1 0.282498 0.111149 0.743596
O O2 0.462290 0.263077 0.682637
O O3 0.129804 0.265966 0.783740
O O4 0.000000 0.221242 0.000000
O O5 0.250405 0.429124 0.250501
O O6 0.586875 0.542657 0.088711
O O7 0.500000 0.508418 0.000000
O O8 0.282457 0.246619 0.242931
O O9 0.000000 0.137025 0.500000
O O10 0.126623 0.091965 0.285589
O O11 0.460622 0.094717 0.183247
O O12 0.500000 0.847732 0.500000
O O13 0.414991 0.815997 0.409592
O O14 0.156242 0.863290 0.453222
O O15 0.077581 0.936249 0.638129
O O16 0.842817 0.494877 0.047367
O O17 0.923419 0.421557 0.861551
O O18 0.250477 0.429075 0.749812
#
# Coordination Sequence:
#
# PCOD8048702 Si02
#       8
#     4   4   4   4   4   4   4   4
#     4  10  22  39  62  91 121 158 206 252 304 370
#     4  11  26  43  61  88 123 164 209 253 306 371
#     4  10  22  39  62  91 121 158 206 252 304 370
#     4  11  26  43  61  88 123 164 209 253 306 371
#     4  11  22  39  64  91 124 163 200 257 312 352
#     4  11  22  39  64  91 124 163 200 257 312 352
#     4  10  19  36  63  92 121 155 201 251 304 365
#     4  10  19  36  63  92 121 155 201 251 304 365
#
# _framework density 22.00366
#
# number of rings (size 3 to 8) (size 9 to 14) (size 15 to 20)
#    0.000    1.500    0.000    7.500    0.000    9.000 
#    0.000    0.000    0.000    0.000    0.000    0.000 
#    0.000    0.000    0.000    0.000    0.000    0.000 
#
# Total GULP energy -198247.440283 kJ/mol
# GULP energy per Si atom -12390.465018 kJ/mol
# Density = 2.195358 g / cm^3
# Si number density = 22.003660 Si / 1000 Ang^3
#
#
#
# Elastic Constant Matrix: (Units=GPa)
#
#
# Indices 1 2 3 4 5 6 
#
# 1 89.1329 36.6224 39.3252 -0.2110 -6.0115 0.0262
# 2 36.6224 218.4596 76.5326 0.3471 1.0579 0.0152
# 3 39.3252 76.5326 102.6718 -0.2346 5.8207 -0.0089
# 4 -0.2110 0.3471 -0.2346 25.2187 0.4873 -4.5441
# 5 -6.0115 1.0579 5.8207 0.4873 43.5249 0.0283
# 6 0.0262 0.0152 -0.0089 -4.5441 0.0283 21.3853
#
#
#
# Elastic Compliance Matrix: (Units=1/GPa)
#
#
# Indices 1 2 3 4 5 6 
#
# 1 0.013846 -0.000574 -0.005023 0.000024 0.002598 -0.000017
# 2 -0.000574 0.006229 -0.004444 -0.000146 0.000365 -0.000037
# 3 -0.005023 -0.004444 0.015125 0.000222 -0.002611 0.000066
# 4 0.000024 -0.000146 0.000222 0.041246 -0.000490 0.008765
# 5 0.002598 0.000365 -0.002611 -0.000490 0.023680 -0.000140
# 6 -0.000017 -0.000037 0.000066 0.008765 -0.000140 0.048624
#
#
# Mechanical properties :
#
#
# Convention : Reuss Voigt Hill
#
# Bulk Modulus (GPa) = 66.14615 79.46942 72.80778
# Shear Modulus (GPa) = 28.75666 35.21138 31.98402
#
# Velocity S-wave (km/s) = 3.61903 4.00465 3.81672
# Velocity P-wave (km/s) = 6.89854 7.58801 7.25147
#
# Compressibility (1/GPa) = 0.01511804
#
# Stress axis : x y z
#
# Youngs Moduli (GPa) = 72.22113 160.53288 66.11578
#
# Poissons Ratio (x) = 0.09219 0.33207
# Poissons Ratio (y) = 0.04147 0.29385
# Poissons Ratio (z) = 0.36274 0.71348
#
# Static dielectric constant tensor:
#      x y z
#    x 3.990740 0.000590 -0.052270 
#    y 0.000590 5.783350 -0.000450 
#    z -0.052270 -0.000450 4.049450 
# 
# 
# High freq. dielectric constant tensor:
#      x y z
#    x 1.853640 0.000000 0.010950 
#    y 0.000000 1.876050 0.000010 
#    z 0.010950 0.000010 1.865830 
# 
# From -- ./inp_files/66251.got.cif
#   From: 2010.03.12/outbox.cif.g09.slc.cpg/sg5_34_cif.got.tgz:66251.got - 2010.03.31 09:47:26.
