data_PCOD8048079
_publ_section_title
;
Structure prediction by ZEFSAII (Michael W. Deem and Ramdas Pophale) SiO2 
 PCOD8048079
Probable space group: C 2
;
_chemical_formula_sum "Si O2"
_cell_formula_units_Z 24
_cell_length_a 19.537830
_cell_length_b 8.511098
_cell_length_c 10.522525
_cell_angle_alpha 90.000000
_cell_angle_beta 45.554388
_cell_angle_gamma 90.000000
_cell_volume 1249.190504
_symmetry_space_group_name_H-M "C 2"
_symmetry_group_IT_number 5
_symmetry_cell_setting 'monoclinic'
loop_
_space_group_symop_operation_xyz
x,y,z
-x,y,-z
1/2+x,1/2+y,z
1/2-x,1/2+y,-z
loop_
_atom_site_type_symbol
_atom_site_label
_atom_site_fract_x
_atom_site_fract_y
_atom_site_fract_z
Si Si1 0.958313 0.819370 0.932821
Si Si2 0.263969 0.353156 0.309391
Si Si3 0.570497 0.985834 0.515903
Si Si4 0.443783 0.979242 0.186284
Si Si5 0.275652 0.520462 0.544674
Si Si6 0.448676 0.357633 0.440806
O O1 0.016897 0.656552 0.858750
O O2 0.980943 0.900817 0.768869
O O3 0.843850 0.801856 0.102263
O O4 0.000000 0.917123 0.000000
O O5 0.178741 0.435473 0.341216
O O6 0.306256 0.472313 0.361286
O O7 0.219231 0.206960 0.444730
O O8 0.500000 0.918445 0.500000
O O9 0.567864 0.172973 0.524183
O O10 0.541077 0.910549 0.691289
O O11 0.333453 0.969380 0.289425
O O12 0.500000 0.887082 0.000000
O O13 0.345645 0.438884 0.555818
O O14 0.500000 0.425145 0.500000
#
# Coordination Sequence:
#
# PCOD8048079 Si02
#       6
#     4   4   4   4   4   4
#     4  10  16  35  58  80 104 147 187 213 282 336
#     4  11  20  33  62  82 107 148 189 229 268 334
#     4   9  20  37  57  79 112 148 183 222 279 326
#     4   9  16  31  56  78  99 144 183 218 260 337
#     4  11  19  33  58  84 107 142 192 222 277 323
#     4  10  21  38  57  80 115 149 180 227 277 330
#
# _framework density 19.212440999999998
#
# number of rings (size 3 to 8) (size 9 to 14) (size 15 to 20)
#    0.000    2.000    5.000    2.000    0.000    0.667 
#    3.000    0.000   22.000    0.000    0.000    0.000 
#    0.000    0.000    0.000    0.000    0.000    0.000 
#
# Total GULP energy -148670.682222 kJ/mol
# GULP energy per Si atom -12389.223518 kJ/mol
# Density = 1.916871 g / cm^3
# Si number density = 19.212441 Si / 1000 Ang^3
#
#
#
# Elastic Constant Matrix: (Units=GPa)
#
#
# Indices 1 2 3 4 5 6 
#
# 1 188.6500 26.1865 77.9079 0.0000 -2.4424 0.0000
# 2 26.1865 35.4292 23.3449 0.0000 -1.0088 0.0000
# 3 77.9079 23.3449 140.6377 0.0000 0.6052 0.0000
# 4 0.0000 0.0000 0.0000 19.7417 0.0000 -7.3585
# 5 -2.4424 -1.0088 0.6052 0.0000 29.7261 0.0000
# 6 0.0000 0.0000 0.0000 -7.3585 0.0000 23.9800
#
#
#
# Elastic Compliance Matrix: (Units=1/GPa)
#
#
# Indices 1 2 3 4 5 6 
#
# 1 0.007156 -0.002986 -0.003471 0.000000 0.000557 0.000000
# 2 -0.002986 0.032979 -0.003824 0.000000 0.000952 0.000000
# 3 -0.003471 -0.003824 0.009671 0.000000 -0.000612 0.000000
# 4 0.000000 0.000000 0.000000 0.057196 0.000000 0.017551
# 5 0.000557 0.000952 -0.000612 0.000000 0.033731 0.000000
# 6 0.000000 0.000000 0.000000 0.017551 0.000000 0.047087
#
#
# Mechanical properties :
#
#
# Convention : Reuss Voigt Hill
#
# Bulk Modulus (GPa) = 34.19569 68.84393 51.51981
# Shear Modulus (GPa) = 22.92202 30.50806 26.71504
#
# Velocity S-wave (km/s) = 3.45785 3.98921 3.73300
# Velocity P-wave (km/s) = 5.81203 7.55838 6.74199
#
# Compressibility (1/GPa) = 0.02924345
#
# Stress axis : x y z
#
# Youngs Moduli (GPa) = 139.74460 30.32193 103.40637
#
# Poissons Ratio (x) = 0.09055 0.35890
# Poissons Ratio (y) = 0.41731 0.39545
# Poissons Ratio (z) = 0.48503 0.11596
#
# Static dielectric constant tensor:
#      x y z
#    x 3.852140 0.000000 0.294790 
#    y 0.000000 3.181590 0.000000 
#    z 0.294790 0.000000 3.977820 
# 
# 
# High freq. dielectric constant tensor:
#      x y z
#    x 1.748330 0.000000 -0.004580 
#    y 0.000000 1.706730 0.000000 
#    z -0.004580 0.000000 1.750530 
# 
# From -- ./inp_files/45940.got.cif
#   From: 2010.03.12/outbox.cif.g09.slc.cpg/sg5_23_cif.got.tgz:45940.got - 2010.03.31 09:47:26.
