data_PCOD8048990
_publ_section_title
;
Structure prediction by ZEFSAII (Michael W. Deem and Ramdas Pophale) SiO2 
 PCOD8048990
Probable space group: C 2
;
_chemical_formula_sum "Si O2"
_cell_formula_units_Z 26
_cell_length_a 8.405262
_cell_length_b 12.547941
_cell_length_c 14.654631
_cell_angle_alpha 90.000000
_cell_angle_beta 120.291431
_cell_angle_gamma 90.000000
_cell_volume 1334.585387
_symmetry_space_group_name_H-M "C 2"
_symmetry_group_IT_number 5
_symmetry_cell_setting 'monoclinic'
loop_
_space_group_symop_operation_xyz
x,y,z
-x,y,-z
1/2+x,1/2+y,z
1/2-x,1/2+y,-z
loop_
_atom_site_type_symbol
_atom_site_label
_atom_site_fract_x
_atom_site_fract_y
_atom_site_fract_z
Si Si1 0.500000 0.493011 0.000000
Si Si2 0.632272 0.105469 0.881253
Si Si3 0.799158 0.380860 0.563253
Si Si4 0.137522 0.846830 0.876496
Si Si5 0.616452 0.108454 0.363595
Si Si6 0.500000 0.717501 0.500000
Si Si7 0.500000 0.956393 0.000000
Si Si8 0.457329 0.324496 0.355615
O O1 0.337392 0.567634 0.913166
O O2 0.546896 0.420706 0.926388
O O3 0.636341 0.227368 0.914501
O O4 0.476690 0.089359 0.760635
O O5 0.581959 0.031477 0.948806
O O6 0.896632 0.495976 0.588075
O O7 0.940872 0.291641 0.568317
O O8 0.622309 0.391444 0.447087
O O9 0.733827 0.351200 0.647780
O O10 0.344836 0.880361 0.914248
O O11 0.037136 0.853401 0.749521
O O12 0.830549 0.144699 0.416049
O O13 0.499369 0.198432 0.383030
#
# Coordination Sequence:
#
# PCOD8048990 Si02
#       8
#     2   4   4   4   4   2   2   4
#     4  10  22  38  60  82 108 146 188 228 278 326
#     4  10  21  37  56  83 109 143 187 227 276 330
#     4  10  20  37  56  80 114 146 182 227 270 325
#     4  10  20  38  57  80 113 144 182 234 273 323
#     4  10  21  37  57  81 113 146 183 227 271 326
#     4  10  22  36  56  84 110 146 188 220 270 330
#     4  10  20  34  56  80 108 144 182 230 284 322
#     4   9  20  37  56  80 112 148 185 223 274 327
#
# _framework density 19.481707
#
# number of rings (size 3 to 8) (size 9 to 14) (size 15 to 20)
#    0.000    2.154    0.000    2.769    0.000    6.154 
#    0.000   15.385    0.000    0.000    0.000    0.000 
#    0.000    0.000    0.000    0.000    0.000    0.000 
#
# Total GULP energy -161148.094333 kJ/mol
# GULP energy per Si atom -12396.007256 kJ/mol
# Density = 1.943737 g / cm^3
# Si number density = 19.481707 Si / 1000 Ang^3
#
#
#
# Elastic Constant Matrix: (Units=GPa)
#
#
# Indices 1 2 3 4 5 6 
#
# 1 105.4698 71.1732 25.5783 0.0000 -14.8885 0.0000
# 2 71.1732 183.8730 30.5843 0.0000 -25.0581 0.0000
# 3 25.5783 30.5843 101.5340 0.0000 13.1279 0.0000
# 4 0.0000 0.0000 0.0000 30.6547 0.0000 3.4534
# 5 -14.8885 -25.0581 13.1279 0.0000 47.7424 0.0000
# 6 0.0000 0.0000 0.0000 3.4534 0.0000 21.7615
#
#
#
# Elastic Compliance Matrix: (Units=1/GPa)
#
#
# Indices 1 2 3 4 5 6 
#
# 1 0.013415 -0.004461 -0.002358 0.000000 0.002490 0.000000
# 2 -0.004461 0.007878 -0.001663 0.000000 0.003201 0.000000
# 3 -0.002358 -0.001663 0.011563 0.000000 -0.004788 0.000000
# 4 0.000000 0.000000 0.000000 0.033215 0.000000 -0.005271
# 5 0.002490 0.003201 -0.004788 0.000000 0.024719 0.000000
# 6 0.000000 0.000000 0.000000 -0.005271 0.000000 0.046789
#
#
# Mechanical properties :
#
#
# Convention : Reuss Voigt Hill
#
# Bulk Modulus (GPa) = 62.92376 71.72761 67.32568
# Shear Modulus (GPa) = 31.28101 37.60110 34.44106
#
# Velocity S-wave (km/s) = 4.01142 4.39802 4.20916
# Velocity P-wave (km/s) = 7.33650 7.91758 7.63257
#
# Compressibility (1/GPa) = 0.01589225
#
# Stress axis : x y z
#
# Youngs Moduli (GPa) = 74.54215 126.93183 86.48372
#
# Poissons Ratio (x) = 0.56627 0.20390
# Poissons Ratio (y) = 0.33255 0.14383
# Poissons Ratio (z) = 0.17575 0.21110
#
# Static dielectric constant tensor:
#      x y z
#    x 3.663200 0.000000 0.247780 
#    y 0.000000 3.684230 0.000000 
#    z 0.247780 0.000000 3.598030 
# 
# 
# High freq. dielectric constant tensor:
#      x y z
#    x 1.754450 0.000000 0.007190 
#    y 0.000000 1.772490 0.000000 
#    z 0.007190 0.000000 1.757690 
# 
# From -- ./inp_files/35464.got.cif
#   From: 2010.03.12/outbox.cif.g09.slc.cpg/sg5_18_cif.got.tgz:35464.got - 2010.03.31 09:47:26.
