data_PCOD8048674
_publ_section_title
;
Structure prediction by ZEFSAII (Michael W. Deem and Ramdas Pophale) SiO2 
 PCOD8048674
Probable space group: C 2
;
_chemical_formula_sum "Si O2"
_cell_formula_units_Z 28
_cell_length_a 29.272862
_cell_length_b 8.827244
_cell_length_c 9.487964
_cell_angle_alpha 90.000000
_cell_angle_beta 144.291976
_cell_angle_gamma 90.000000
_cell_volume 1430.933681
_symmetry_space_group_name_H-M "C 2"
_symmetry_group_IT_number 5
_symmetry_cell_setting 'monoclinic'
loop_
_space_group_symop_operation_xyz
x,y,z
-x,y,-z
1/2+x,1/2+y,z
1/2-x,1/2+y,-z
loop_
_atom_site_type_symbol
_atom_site_label
_atom_site_fract_x
_atom_site_fract_y
_atom_site_fract_z
Si Si1 0.902272 0.768620 0.984131
Si Si2 0.274338 0.848911 0.959093
Si Si3 0.669246 0.188822 0.910862
Si Si4 0.977584 0.006315 0.792213
Si Si5 0.353838 0.249354 0.556935
Si Si6 0.949732 0.576518 0.596346
Si Si7 0.561165 0.745738 0.534857
O O1 0.843083 0.759164 0.966046
O O2 0.965440 0.635893 0.151498
O O3 0.850369 0.735857 0.715859
O O4 0.944667 0.932000 0.082629
O O5 0.218980 0.815048 0.953652
O O6 0.233481 0.786605 0.714904
O O7 0.354760 0.758192 0.180670
O O8 0.285901 0.028567 0.974206
O O9 0.584712 0.165504 0.625865
O O10 0.938463 0.125365 0.590000
O O11 0.914445 0.876623 0.659164
O O12 0.000000 0.080515 0.000000
O O13 0.387066 0.095212 0.567685
O O14 0.963366 0.402512 0.596833
O O15 0.500000 0.694913 0.500000
#
# Coordination Sequence:
#
# PCOD8048674 Si02
#       7
#     4   4   4   4   4   4   4
#     4  10  19  36  59  84 106 144 189 220 264 327
#     4  10  21  38  55  81 113 145 180 223 278 323
#     4  10  20  35  58  80 111 146 182 227 269 325
#     4   9  20  36  56  82 112 143 180 225 274 320
#     4   9  19  37  59  80 111 147 180 221 270 329
#     4   9  18  34  56  83 112 143 181 223 269 318
#     4  11  22  36  56  82 110 142 184 231 270 320
#
# _framework density 19.567644000000001
#
# number of rings (size 3 to 8) (size 9 to 14) (size 15 to 20)
#    0.000    2.286    0.000    4.286    0.000    5.714 
#    0.000    8.571    0.000    0.000    0.000    0.000 
#    0.000    0.000    0.000    0.000    0.000    0.000 
#
# Total GULP energy -173601.296145 kJ/mol
# GULP energy per Si atom -12400.092582 kJ/mol
# Density = 1.952311 g / cm^3
# Si number density = 19.567644 Si / 1000 Ang^3
#
#
#
# Elastic Constant Matrix: (Units=GPa)
#
#
# Indices 1 2 3 4 5 6 
#
# 1 118.8530 41.6584 56.7946 0.0000 -22.1575 0.0000
# 2 41.6584 53.3529 31.2822 0.0000 -7.5889 0.0000
# 3 56.7946 31.2822 140.0467 0.0000 -15.6418 0.0000
# 4 0.0000 0.0000 0.0000 27.4122 0.0000 -2.5689
# 5 -22.1575 -7.5889 -15.6418 0.0000 31.0232 0.0000
# 6 0.0000 0.0000 0.0000 -2.5689 0.0000 21.6591
#
#
#
# Elastic Compliance Matrix: (Units=1/GPa)
#
#
# Indices 1 2 3 4 5 6 
#
# 1 0.013959 -0.008157 -0.003124 0.000000 0.006399 0.000000
# 2 -0.008157 0.026604 -0.002711 0.000000 -0.000685 0.000000
# 3 -0.003124 -0.002711 0.009208 0.000000 0.001748 0.000000
# 4 0.000000 0.000000 0.000000 0.036890 0.000000 0.004375
# 5 0.006399 -0.000685 0.001748 0.000000 0.037518 0.000000
# 6 0.000000 0.000000 0.000000 0.004375 0.000000 0.046689
#
#
# Mechanical properties :
#
#
# Convention : Reuss Voigt Hill
#
# Bulk Modulus (GPa) = 45.89927 63.52480 54.71204
# Shear Modulus (GPa) = 24.25824 28.18671 26.22248
#
# Velocity S-wave (km/s) = 3.52477 3.79948 3.66470
# Velocity P-wave (km/s) = 6.33033 7.19602 6.77701
#
# Compressibility (1/GPa) = 0.02178684
#
# Stress axis : x y z
#
# Youngs Moduli (GPa) = 71.64006 37.58770 108.59830
#
# Poissons Ratio (x) = 0.30661 0.33926
# Poissons Ratio (y) = 0.58438 0.29442
# Poissons Ratio (z) = 0.22381 0.10190
#
# Static dielectric constant tensor:
#      x y z
#    x 3.511310 0.000000 -0.145110 
#    y 0.000000 3.420310 0.000000 
#    z -0.145110 0.000000 3.800540 
# 
# 
# High freq. dielectric constant tensor:
#      x y z
#    x 1.752600 0.000000 -0.007240 
#    y 0.000000 1.748330 0.000000 
#    z -0.007240 0.000000 1.771400 
# 
# From -- ./inp_files/31616.got.cif
#   From: 2010.03.12/outbox.cif.g09.slc.cpg/sg5_16_cif.got.tgz:31616.got - 2010.03.31 09:47:26.
