data_PCOD8048319
_publ_section_title
;
Structure prediction by ZEFSAII (Michael W. Deem and Ramdas Pophale) SiO2 
 PCOD8048319
Probable space group: C 2
;
_chemical_formula_sum "Si O2"
_cell_formula_units_Z 30
_cell_length_a 14.575627
_cell_length_b 11.547162
_cell_length_c 27.257003
_cell_angle_alpha 90.000000
_cell_angle_beta 20.325245
_cell_angle_gamma 90.000000
_cell_volume 1593.479512
_symmetry_space_group_name_H-M "C 2"
_symmetry_group_IT_number 5
_symmetry_cell_setting 'monoclinic'
loop_
_space_group_symop_operation_xyz
x,y,z
-x,y,-z
1/2+x,1/2+y,z
1/2-x,1/2+y,-z
loop_
_atom_site_type_symbol
_atom_site_label
_atom_site_fract_x
_atom_site_fract_y
_atom_site_fract_z
Si Si1 0.377089 0.772960 0.493300
Si Si2 0.500000 0.169888 0.500000
Si Si3 0.160000 0.846685 0.501821
Si Si4 0.742629 0.986294 0.772960
Si Si5 0.589860 0.480334 0.690016
Si Si6 0.827668 0.347766 0.040019
Si Si7 0.712104 0.048302 0.623290
Si Si8 0.432999 0.164218 0.213523
O O1 0.339567 0.793594 0.454433
O O2 0.287223 0.881442 0.570954
O O3 0.198676 0.661188 0.595240
O O4 0.682748 0.746734 0.352585
O O5 0.536809 0.246704 0.529977
O O6 0.246205 0.087863 0.634713
O O7 0.356558 0.932379 0.372845
O O8 0.916442 0.919941 0.645568
O O9 0.616258 0.101161 0.813094
O O10 0.918217 0.027267 0.730588
O O11 0.507653 0.904677 0.908535
O O12 0.399006 0.434927 0.828307
O O13 0.697601 0.238845 0.077884
O O14 0.000000 0.305428 0.000000
O O15 0.522070 0.070453 0.765139
O O16 0.000000 0.025298 0.500000
#
# Coordination Sequence:
#
# PCOD8048319 Si02
#       8
#     4   2   4   4   4   4   4   4
#     4  10  20  34  59  84 108 141 183 232 271 331
#     4  12  22  32  56  86 118 140 172 236 274 332
#     4  11  21  35  54  89 116 140 177 223 290 323
#     4  10  21  37  55  77 113 147 180 224 272 327
#     4  10  21  36  55  83 113 141 184 225 278 319
#     4  10  22  38  54  77 106 149 193 223 265 325
#     4  10  18  35  57  80 109 145 176 223 279 325
#     4  11  19  37  61  79 105 147 190 223 273 329
#
# _framework density 18.826725
#
# number of rings (size 3 to 8) (size 9 to 14) (size 15 to 20)
#    0.000    1.600    4.667    1.600    2.800    1.067 
#    0.000    1.333    0.000    0.000    0.000    0.000 
#    0.000    0.000    0.000    0.000    0.000    0.000 
#
# Total GULP energy -186002.821731 kJ/mol
# GULP energy per Si atom -12400.188115 kJ/mol
# Density = 1.878387 g / cm^3
# Si number density = 18.826725 Si / 1000 Ang^3
#
#
#
# Elastic Constant Matrix: (Units=GPa)
#
#
# Indices 1 2 3 4 5 6 
#
# 1 84.7758 47.2760 20.3378 0.0347 2.8543 0.0507
# 2 47.2760 94.9048 21.2198 0.1863 -4.8276 0.0356
# 3 20.3378 21.2198 64.7811 0.9668 -3.2756 0.3293
# 4 0.0347 0.1863 0.9668 21.0127 0.1773 -4.8221
# 5 2.8543 -4.8276 -3.2756 0.1773 21.2708 -0.0984
# 6 0.0507 0.0356 0.3293 -4.8221 -0.0984 44.6985
#
#
#
# Elastic Compliance Matrix: (Units=1/GPa)
#
#
# Indices 1 2 3 4 5 6 
#
# 1 0.017204 -0.008141 -0.002971 0.000225 -0.004615 0.000023
# 2 -0.008141 0.015309 -0.002245 -0.000051 0.004222 0.000017
# 3 -0.002971 -0.002245 0.017247 -0.000838 0.002551 -0.000207
# 4 0.000225 -0.000051 -0.000838 0.048844 -0.000553 0.005274
# 5 -0.004615 0.004222 0.002551 -0.000553 0.048988 0.000031
# 6 0.000023 0.000017 -0.000207 0.005274 0.000031 0.022943
#
#
# Mechanical properties :
#
#
# Convention : Reuss Voigt Hill
#
# Bulk Modulus (GPa) = 43.39085 46.90321 45.14703
# Shear Modulus (GPa) = 24.39863 27.77162 26.08513
#
# Velocity S-wave (km/s) = 3.60385 3.84489 3.72632
# Velocity P-wave (km/s) = 6.35724 6.68417 6.52275
#
# Compressibility (1/GPa) = 0.02304633
#
# Stress axis : x y z
#
# Youngs Moduli (GPa) = 58.12710 65.32174 57.98023
#
# Poissons Ratio (x) = 0.53177 0.17228
# Poissons Ratio (y) = 0.47320 0.13015
# Poissons Ratio (z) = 0.17271 0.14663
#
# Static dielectric constant tensor:
#      x y z
#    x 3.625080 0.000180 0.072910 
#    y 0.000180 3.544860 0.000100 
#    z 0.072910 0.000100 3.290060 
# 
# 
# High freq. dielectric constant tensor:
#      x y z
#    x 1.743370 0.000000 0.006110 
#    y 0.000000 1.730680 0.000010 
#    z 0.006110 0.000010 1.700010 
# 
# From -- ./inp_files/42499.got.cif
#   From: 2010.03.12/outbox.cif.g09.slc.cpg/sg5_22_cif.got.tgz:42499.got - 2010.03.31 09:47:26.
