data_PCOD8048450
_publ_section_title
;
Structure prediction by ZEFSAII (Michael W. Deem and Ramdas Pophale) SiO2 
 PCOD8048450
Probable space group: C 2
;
_chemical_formula_sum "Si O2"
_cell_formula_units_Z 32
_cell_length_a 14.897392
_cell_length_b 11.438721
_cell_length_c 18.138426
_cell_angle_alpha 90.000000
_cell_angle_beta 148.264315
_cell_angle_gamma 90.000000
_cell_volume 1625.826708
_symmetry_space_group_name_H-M "C 2"
_symmetry_group_IT_number 5
_symmetry_cell_setting 'monoclinic'
loop_
_space_group_symop_operation_xyz
x,y,z
-x,y,-z
1/2+x,1/2+y,z
1/2-x,1/2+y,-z
loop_
_atom_site_type_symbol
_atom_site_label
_atom_site_fract_x
_atom_site_fract_y
_atom_site_fract_z
Si Si1 0.173889 0.746810 0.855554
Si Si2 0.693609 0.978893 0.115367
Si Si3 0.887527 0.139810 0.136751
Si Si4 0.497994 0.795659 0.655082
Si Si5 0.258266 0.533265 0.659653
Si Si6 0.051941 0.558368 0.655773
Si Si7 0.814766 0.782220 0.656827
Si Si8 0.841265 0.121022 0.342950
O O1 0.280249 0.842492 0.884000
O O2 0.092737 0.648166 0.748145
O O3 0.011316 0.810194 0.778076
O O4 0.293433 0.690088 0.000108
O O5 0.758204 0.058557 0.092754
O O6 0.790629 0.010359 0.258532
O O7 0.500000 0.006905 0.000000
O O8 0.957795 0.247924 0.233252
O O9 0.048201 0.066034 0.221506
O O10 0.298958 0.768459 0.497100
O O11 0.613791 0.731921 0.675619
O O12 0.544535 0.931571 0.688071
O O13 0.204330 0.572576 0.703395
O O14 0.235640 0.393458 0.643416
O O15 0.129825 0.587942 0.509169
O O16 0.802530 0.666971 0.700205
O O17 0.000000 0.074146 0.500000
#
# Coordination Sequence:
#
# PCOD8048450 Si02
#       8
#     4   4   4   4   4   4   4   4
#     4  12  26  39  59  87 126 163 197 242 297 357
#     4  11  25  44  56  85 125 161 198 244 296 350
#     4  11  24  41  63  85 121 162 202 246 288 359
#     4   9  19  37  67  92 116 148 199 252 301 348
#     4  10  20  41  64  91 119 150 200 248 299 353
#     4  10  22  39  64  92 120 153 192 248 306 358
#     4  10  18  39  66  92 115 149 202 253 291 353
#     4   9  18  39  68  91 111 151 202 250 299 350
#
# _framework density 19.682295
#
# number of rings (size 3 to 8) (size 9 to 14) (size 15 to 20)
#    0.000    1.750    2.500    1.500    3.500    0.000 
#    2.250    0.000    0.000    0.000    0.000    0.000 
#    0.000    0.000    0.000    0.000    0.000    0.000 
#
# Total GULP energy -198382.913661 kJ/mol
# GULP energy per Si atom -12398.932104 kJ/mol
# Density = 1.963750 g / cm^3
# Si number density = 19.682295 Si / 1000 Ang^3
#
#
#
# Elastic Constant Matrix: (Units=GPa)
#
#
# Indices 1 2 3 4 5 6 
#
# 1 87.2324 32.5924 54.6099 -0.0003 9.2412 0.0002
# 2 32.5924 92.9712 48.8470 -0.0011 -13.3838 -0.0001
# 3 54.6099 48.8470 116.2345 -0.0017 -5.8229 -0.0001
# 4 -0.0003 -0.0011 -0.0017 26.1941 0.0001 -1.7233
# 5 9.2412 -13.3838 -5.8229 0.0001 41.6740 -0.0002
# 6 0.0002 -0.0001 -0.0001 -1.7233 -0.0002 23.4414
#
#
#
# Elastic Compliance Matrix: (Units=1/GPa)
#
#
# Indices 1 2 3 4 5 6 
#
# 1 0.017937 -0.003303 -0.007343 0.000000 -0.006064 0.000000
# 2 -0.003303 0.014986 -0.004500 0.000000 0.004917 0.000000
# 3 -0.007343 -0.004500 0.014052 0.000001 0.002147 0.000000
# 4 0.000000 0.000000 0.000001 0.038362 0.000000 0.002820
# 5 -0.006064 0.004917 0.002147 0.000000 0.027219 0.000000
# 6 0.000000 0.000000 0.000000 0.002820 0.000000 0.042867
#
#
# Mechanical properties :
#
#
# Convention : Reuss Voigt Hill
#
# Bulk Modulus (GPa) = 59.94015 63.17074 61.55545
# Shear Modulus (GPa) = 26.14030 28.95447 27.54739
#
# Velocity S-wave (km/s) = 3.64828 3.83964 3.74518
# Velocity P-wave (km/s) = 6.94741 7.19875 7.07420
#
# Compressibility (1/GPa) = 0.01668331
#
# Stress axis : x y z
#
# Youngs Moduli (GPa) = 55.75018 66.72989 71.16594
#
# Poissons Ratio (x) = 0.22042 0.52257
# Poissons Ratio (y) = 0.18415 0.32021
# Poissons Ratio (z) = 0.40937 0.30025
#
# Static dielectric constant tensor:
#      x y z
#    x 3.592230 0.000000 -0.077420 
#    y 0.000000 3.406160 0.000000 
#    z -0.077420 0.000000 3.719420 
# 
# 
# High freq. dielectric constant tensor:
#      x y z
#    x 1.769560 0.000000 0.001450 
#    y 0.000000 1.760220 0.000000 
#    z 0.001450 0.000000 1.769540 
# 
# From -- ./inp_files/23647.got.cif
#   From: 2010.03.12/outbox.cif.g09.slc.cpg/sg5_12_cif.got.tgz:23647.got - 2010.03.31 09:47:26.
