data_PCOD8048043
_publ_section_title
;
Structure prediction by ZEFSAII (Michael W. Deem and Ramdas Pophale) SiO2 
 PCOD8048043
Probable space group: C 2
;
_chemical_formula_sum "Si O2"
_cell_formula_units_Z 28
_cell_length_a 8.949309
_cell_length_b 32.443949
_cell_length_c 5.301614
_cell_angle_alpha 90.000000
_cell_angle_beta 126.328067
_cell_angle_gamma 90.000000
_cell_volume 1240.141835
_symmetry_space_group_name_H-M "C 2"
_symmetry_group_IT_number 5
_symmetry_cell_setting 'monoclinic'
loop_
_space_group_symop_operation_xyz
x,y,z
-x,y,-z
1/2+x,1/2+y,z
1/2-x,1/2+y,-z
loop_
_atom_site_type_symbol
_atom_site_label
_atom_site_fract_x
_atom_site_fract_y
_atom_site_fract_z
Si Si1 0.289555 0.986560 0.539556
Si Si2 0.210430 0.653769 0.460429
Si Si3 0.877686 0.746757 0.627687
Si Si4 0.620776 0.400969 0.370776
Si Si5 0.202164 0.521496 0.952163
Si Si6 0.879635 0.323734 0.629635
Si Si7 0.797544 0.618772 0.047545
O O1 0.273106 0.937274 0.523111
O O2 0.503612 0.999223 0.753613
O O3 0.190920 0.006257 0.192450
O O4 0.190920 0.006258 0.689389
O O5 0.223706 0.702846 0.473697
O O6 0.309456 0.634682 0.808711
O O7 0.997220 0.640095 0.247219
O O8 0.309456 0.634680 0.310203
O O9 0.711544 0.779003 0.461536
O O10 0.000000 0.752651 0.500000
O O11 0.000000 0.752654 0.000000
O O12 0.500000 0.405240 0.500000
O O13 0.718220 0.357136 0.468213
O O14 0.500000 0.405242 0.000000
O O15 0.177625 0.570151 0.927619
O O16 0.000000 0.329729 0.500000
O O17 0.000000 0.329731 0.000000
#
# Coordination Sequence:
#
# PCOD8048043 Si02
#       7
#     4   4   4   4   4   4   4
#     4  10  20  33  57  84 124 163 203 250 322 364
#     4  10  16  27  49  85 123 161 194 263 303 361
#     4  12  21  40  65  97 132 165 212 266 331 375
#     4  12  26  46  68  96 127 171 217 266 327 393
#     4  10  19  32  55  95 130 163 202 279 305 363
#     4  12  28  46  70  96 127 171 210 272 326 398
#     4  10  16  28  48  89 131 154 214 252 324 332
#
# _framework density 22.578064000000001
#
# number of rings (size 3 to 8) (size 9 to 14) (size 15 to 20)
#    0.000    1.143    2.857    7.714    4.000    0.000 
#    0.000    0.000    0.000    0.000    0.000   34.000 
#    0.000    0.000    0.000    0.000    0.000    0.000 
#
# Total GULP energy -173559.787093 kJ/mol
# GULP energy per Si atom -12397.127650 kJ/mol
# Density = 2.252668 g / cm^3
# Si number density = 22.578064 Si / 1000 Ang^3
#
#
#
# Elastic Constant Matrix: (Units=GPa)
#
#
# Indices 1 2 3 4 5 6 
#
# 1 66.7648 39.4207 76.8962 0.0000 -31.7872 0.0000
# 2 39.4207 184.3124 43.5588 0.0000 -5.9320 0.0000
# 3 76.8962 43.5588 136.8569 0.0000 -68.5501 0.0000
# 4 0.0000 0.0000 0.0000 36.1115 0.0000 -4.7616
# 5 -31.7872 -5.9320 -68.5501 0.0000 58.6547 0.0000
# 6 0.0000 0.0000 0.0000 -4.7616 0.0000 32.7846
#
#
#
# Elastic Compliance Matrix: (Units=1/GPa)
#
#
# Indices 1 2 3 4 5 6 
#
# 1 0.047616 -0.003138 -0.031328 0.000000 -0.011126 0.000000
# 2 -0.003138 0.006454 -0.001968 0.000000 -0.003348 0.000000
# 3 -0.031328 -0.001968 0.040838 0.000000 0.030551 0.000000
# 4 0.000000 0.000000 0.000000 0.028233 0.000000 0.004101
# 5 -0.011126 -0.003348 0.030551 0.000000 0.046386 0.000000
# 6 0.000000 0.000000 0.000000 0.004101 0.000000 0.031098
#
#
# Mechanical properties :
#
#
# Convention : Reuss Voigt Hill
#
# Bulk Modulus (GPa) = 45.37171 78.63174 62.00173
# Shear Modulus (GPa) = 17.80379 40.71405 29.25892
#
# Velocity S-wave (km/s) = 2.81115 4.25108 3.60377
# Velocity P-wave (km/s) = 5.53858 7.68101 6.69603
#
# Compressibility (1/GPa) = 0.02204016
#
# Stress axis : x y z
#
# Youngs Moduli (GPa) = 21.00139 154.94076 24.48694
#
# Poissons Ratio (x) = 0.48626 0.76713
# Poissons Ratio (y) = 0.06591 0.04818
# Poissons Ratio (z) = 0.65793 0.30487
#
# Static dielectric constant tensor:
#      x y z
#    x 2.774200 0.000000 0.606090 
#    y 0.000000 4.126040 0.000000 
#    z 0.606090 0.000000 2.350510 
# 
# 
# High freq. dielectric constant tensor:
#      x y z
#    x 1.878470 0.000000 -0.041100 
#    y 0.000000 1.902920 0.000000 
#    z -0.041100 0.000000 1.907190 
# 
# From -- ./inp_files/3999.got.cif
#   From: 2010.03.12/outbox.cif.g09.slc.cpg/sg5_2_cif.got.tgz:3999.got - 2010.03.31 09:47:26.
