data_PCOD8048644
_publ_section_title
;
Structure prediction by ZEFSAII (Michael W. Deem and Ramdas Pophale) SiO2 
 PCOD8048644
Probable space group: C 2
;
_chemical_formula_sum "Si O2"
_cell_formula_units_Z 28
_cell_length_a 12.652480
_cell_length_b 6.344939
_cell_length_c 14.537093
_cell_angle_alpha 90.000000
_cell_angle_beta 122.016345
_cell_angle_gamma 90.000000
_cell_volume 989.518052
_symmetry_space_group_name_H-M "C 2"
_symmetry_group_IT_number 5
_symmetry_cell_setting 'monoclinic'
loop_
_space_group_symop_operation_xyz
x,y,z
-x,y,-z
1/2+x,1/2+y,z
1/2-x,1/2+y,-z
loop_
_atom_site_type_symbol
_atom_site_label
_atom_site_fract_x
_atom_site_fract_y
_atom_site_fract_z
Si Si1 0.324090 0.103400 0.778954
Si Si2 0.636596 0.468392 0.545976
Si Si3 0.640127 0.704229 0.058879
Si Si4 0.841195 0.429524 0.499931
Si Si5 0.302068 0.592388 0.720220
Si Si6 0.003895 0.388105 0.260017
Si Si7 0.238847 0.783847 0.077466
O O1 0.231328 0.946736 0.677612
O O2 0.306820 0.347391 0.747237
O O3 0.307738 0.075238 0.884962
O O4 0.463101 0.040165 0.811394
O O5 0.500000 0.365933 0.500000
O O6 0.706467 0.384464 0.485990
O O7 0.614132 0.718593 0.527714
O O8 0.706060 0.736542 0.189570
O O9 0.628584 0.452165 0.036412
O O10 0.500000 0.795430 0.000000
O O11 0.725807 0.772770 0.012389
O O12 0.817133 0.610470 0.407804
O O13 0.946982 0.497321 0.622598
O O14 0.428179 0.660864 0.723941
O O15 0.856564 0.360656 0.194013
#
# Coordination Sequence:
#
# PCOD8048644 Si02
#       7
#     4   4   4   4   4   4   4
#     4   9  23  39  63 101 130 178 231 283 341 408
#     4  10  19  35  61  87 127 173 218 267 332 394
#     4  11  25  44  68 102 136 178 234 294 339 413
#     4  10  20  37  66  96 133 176 216 282 337 403
#     4  10  21  42  66  99 145 173 230 289 340 411
#     4  11  21  42  73  98 138 186 231 284 350 419
#     4  11  25  44  71 100 132 189 229 287 361 400
#
# _framework density 28.296600000000002
#
# number of rings (size 3 to 8) (size 9 to 14) (size 15 to 20)
#    0.000    1.714    2.857    0.857    2.000    2.286 
#    0.000    0.714   18.857    0.000    0.000    0.000 
#    0.000    0.000    0.000    0.000    0.000    0.000 
#
# Total GULP energy -173463.376293 kJ/mol
# GULP energy per Si atom -12390.241164 kJ/mol
# Density = 2.823220 g / cm^3
# Si number density = 28.296600 Si / 1000 Ang^3
#
#
#
# Elastic Constant Matrix: (Units=GPa)
#
#
# Indices 1 2 3 4 5 6 
#
# 1 125.0992 16.6811 36.9811 0.0000 -5.9173 0.0000
# 2 16.6811 41.3158 46.9696 0.0000 -13.5883 0.0000
# 3 36.9811 46.9696 155.5852 0.0000 -37.9316 0.0000
# 4 0.0000 0.0000 0.0000 56.6082 0.0000 -20.5040
# 5 -5.9173 -13.5883 -37.9316 0.0000 43.6186 0.0000
# 6 0.0000 0.0000 0.0000 -20.5040 0.0000 46.8348
#
#
#
# Elastic Compliance Matrix: (Units=1/GPa)
#
#
# Indices 1 2 3 4 5 6 
#
# 1 0.008709 -0.001841 -0.001733 0.000000 -0.000900 0.000000
# 2 -0.001841 0.037422 -0.010252 0.000000 0.002493 0.000000
# 3 -0.001733 -0.010252 0.011546 0.000000 0.006612 0.000000
# 4 0.000000 0.000000 0.000000 0.020994 0.000000 0.009191
# 5 -0.000900 0.002493 0.006612 0.000000 0.029330 0.000000
# 6 0.000000 0.000000 0.000000 0.009191 0.000000 0.025376
#
#
# Mechanical properties :
#
#
# Convention : Reuss Voigt Hill
#
# Bulk Modulus (GPa) = 33.30695 58.14042 45.72369
# Shear Modulus (GPa) = 29.23305 44.17022 36.70164
#
# Velocity S-wave (km/s) = 3.21767 3.95520 3.60534
# Velocity P-wave (km/s) = 5.05971 6.43813 5.79009
#
# Compressibility (1/GPa) = 0.03002376
#
# Stress axis : x y z
#
# Youngs Moduli (GPa) = 114.82260 26.72232 86.60762
#
# Poissons Ratio (x) = 0.04921 0.15013
# Poissons Ratio (y) = 0.21144 0.88789
# Poissons Ratio (z) = 0.19904 0.27395
#
# Static dielectric constant tensor:
#      x y z
#    x 4.814310 0.000000 -0.550920 
#    y 0.000000 5.660500 0.000000 
#    z -0.550920 0.000000 5.843860 
# 
# 
# High freq. dielectric constant tensor:
#      x y z
#    x 2.129580 0.000000 -0.031030 
#    y 0.000000 2.186650 0.000000 
#    z -0.031030 0.000000 2.157330 
# 
# From -- ./inp_files/52503.got.cif
#   From: 2010.03.12/outbox.cif.g09.slc.cpg/sg5_27_cif.got.tgz:52503.got - 2010.03.31 09:47:26.
