data_PCOD8048308
_publ_section_title
;
Structure prediction by ZEFSAII (Michael W. Deem and Ramdas Pophale) SiO2 
 PCOD8048308
Probable space group: C 2
;
_chemical_formula_sum "Si O2"
_cell_formula_units_Z 20
_cell_length_a 12.303790
_cell_length_b 13.292651
_cell_length_c 8.977750
_cell_angle_alpha 90.000000
_cell_angle_beta 137.821820
_cell_angle_gamma 90.000000
_cell_volume 985.880344
_symmetry_space_group_name_H-M "C 2"
_symmetry_group_IT_number 5
_symmetry_cell_setting 'monoclinic'
loop_
_space_group_symop_operation_xyz
x,y,z
-x,y,-z
1/2+x,1/2+y,z
1/2-x,1/2+y,-z
loop_
_atom_site_type_symbol
_atom_site_label
_atom_site_fract_x
_atom_site_fract_y
_atom_site_fract_z
Si Si1 0.280894 0.159360 0.532101
Si Si2 0.485730 0.770805 0.151634
Si Si3 0.173449 0.854160 0.920177
Si Si4 0.000000 0.731856 0.000000
Si Si5 0.486350 0.547346 0.152110
Si Si6 0.000000 0.731096 0.500000
O O1 0.375681 0.160140 0.784542
O O2 0.401328 0.160250 0.513367
O O3 0.164276 0.259432 0.406738
O O4 0.167768 0.059637 0.407428
O O5 0.403232 0.658183 0.061443
O O6 0.500000 0.814936 0.000000
O O7 0.369051 0.843582 0.129326
O O8 0.121738 0.802399 0.713957
O O9 0.092725 0.801897 0.978978
O O10 0.122213 0.971268 0.861632
O O11 0.500000 0.503021 0.000000
#
# Coordination Sequence:
#
# PCOD8048308 Si02
#       6
#     4   4   4   2   4   2
#     4   9  19  38  63  90 125 165 210 246 318 367
#     4   9  18  37  65  87 119 167 211 252 302 379
#     4  11  19  36  64  89 125 168 206 250 319 361
#     4  10  22  34  64  94 124 162 204 262 314 364
#     4   9  18  37  63  90 122 162 210 256 307 371
#     4  10  18  34  64  82 120 176 198 254 306 384
#
# _framework density 20.286438
#
# number of rings (size 3 to 8) (size 9 to 14) (size 15 to 20)
#    1.200    1.200    3.000    0.000    0.000    0.800 
#    3.600    0.000   28.600    0.000    0.000    0.000 
#    0.000    0.000    0.000    0.000    0.000    0.000 
#
# Total GULP energy -123910.641334 kJ/mol
# GULP energy per Si atom -12391.064133 kJ/mol
# Density = 2.024026 g / cm^3
# Si number density = 20.286438 Si / 1000 Ang^3
#
#
#
# Elastic Constant Matrix: (Units=GPa)
#
#
# Indices 1 2 3 4 5 6 
#
# 1 98.3063 37.0970 40.6676 0.0000 14.3199 0.0000
# 2 37.0970 64.0703 18.6830 0.0000 5.9348 0.0000
# 3 40.6676 18.6830 136.4674 0.0000 0.0092 0.0000
# 4 0.0000 0.0000 0.0000 11.6655 0.0000 10.5750
# 5 14.3199 5.9348 0.0092 0.0000 34.2876 0.0000
# 6 0.0000 0.0000 0.0000 10.5750 0.0000 32.6184
#
#
#
# Elastic Compliance Matrix: (Units=1/GPa)
#
#
# Indices 1 2 3 4 5 6 
#
# 1 0.015093 -0.007249 -0.003505 0.000000 -0.005048 0.000000
# 2 -0.007249 0.020015 -0.000580 0.000000 -0.000437 0.000000
# 3 -0.003505 -0.000580 0.008452 0.000000 0.001562 0.000000
# 4 0.000000 0.000000 0.000000 0.121403 0.000000 -0.039359
# 5 -0.005048 -0.000437 0.001562 0.000000 0.031348 0.000000
# 6 0.000000 0.000000 0.000000 -0.039359 0.000000 0.043418
#
#
# Mechanical properties :
#
#
# Convention : Reuss Voigt Hill
#
# Bulk Modulus (GPa) = 47.86697 54.63767 51.25232
# Shear Modulus (GPa) = 18.56247 29.20741 23.88494
#
# Velocity S-wave (km/s) = 3.02821 3.79852 3.43503
# Velocity P-wave (km/s) = 5.98945 6.79926 6.40716
#
# Compressibility (1/GPa) = 0.02089123
#
# Stress axis : x y z
#
# Youngs Moduli (GPa) = 66.25517 49.96313 118.32196
#
# Poissons Ratio (x) = 0.36220 0.41472
# Poissons Ratio (y) = 0.48031 0.06860
# Poissons Ratio (z) = 0.23222 0.02897
#
# Static dielectric constant tensor:
#      x y z
#    x 3.594030 0.000000 0.077820 
#    y 0.000000 3.206650 0.000000 
#    z 0.077820 0.000000 3.717580 
# 
# 
# High freq. dielectric constant tensor:
#      x y z
#    x 1.792580 0.000000 0.003570 
#    y 0.000000 1.746360 0.000000 
#    z 0.003570 0.000000 1.789730 
# 
# From -- ./inp_files/19883.got.cif
#   From: 2010.03.12/outbox.cif.g09.slc.cpg/sg5_10_cif.got.tgz:19883.got - 2010.03.31 09:47:26.
