data_PCOD8048997
_publ_section_title
;
Structure prediction by ZEFSAII (Michael W. Deem and Ramdas Pophale) SiO2 
 PCOD8048997
Probable space group: C 2
;
_chemical_formula_sum "Si O2"
_cell_formula_units_Z 20
_cell_length_a 22.302146
_cell_length_b 5.040234
_cell_length_c 17.744949
_cell_angle_alpha 90.000000
_cell_angle_beta 154.004641
_cell_angle_gamma 90.000000
_cell_volume 874.262676
_symmetry_space_group_name_H-M "C 2"
_symmetry_group_IT_number 5
_symmetry_cell_setting 'monoclinic'
loop_
_space_group_symop_operation_xyz
x,y,z
-x,y,-z
1/2+x,1/2+y,z
1/2-x,1/2+y,-z
loop_
_atom_site_type_symbol
_atom_site_label
_atom_site_fract_x
_atom_site_fract_y
_atom_site_fract_z
Si Si1 0.005516 0.993070 0.346322
Si Si2 0.152453 0.506640 0.777603
Si Si3 0.559873 0.032360 0.986528
Si Si4 0.147306 0.888130 0.644695
Si Si5 0.960578 0.016847 0.130297
O O1 0.889415 0.771924 0.224972
O O2 0.047300 0.014689 0.305704
O O3 0.141768 0.894033 0.546800
O O4 0.949163 0.271263 0.315136
O O5 0.152805 0.591034 0.687999
O O6 0.305313 0.443011 0.977061
O O7 0.725650 0.061369 0.180631
O O8 0.500000 0.964008 0.000000
O O9 0.520543 0.800829 0.885360
O O10 0.490935 0.297434 0.875594
O O11 0.000000 0.020969 0.500000
#
# Coordination Sequence:
#
# PCOD8048997 Si02
#       5
#     4   4   4   4   4
#     4  11  21  35  57  91 119 148 190 245 288 333
#     4  10  20  34  56  88 124 153 183 232 295 349
#     4  11  24  42  60  82 116 159 196 233 288 353
#     4   9  21  37  60  87 117 149 190 235 284 339
#     4  11  21  38  60  84 115 155 196 237 286 344
#
# _framework density 22.87642
#
# number of rings (size 3 to 8) (size 9 to 14) (size 15 to 20)
#    0.000    1.600    0.000    6.600    0.000   15.200 
#    0.000    2.000    0.000    0.000    0.000    0.000 
#    0.000    0.000    0.000    0.000    0.000    0.000 
#
# Total GULP energy -123905.408357 kJ/mol
# GULP energy per Si atom -12390.540836 kJ/mol
# Density = 2.282435 g / cm^3
# Si number density = 22.876420 Si / 1000 Ang^3
#
#
#
# Elastic Constant Matrix: (Units=GPa)
#
#
# Indices 1 2 3 4 5 6 
#
# 1 77.8803 22.7950 41.3914 0.0000 -36.6055 0.0000
# 2 22.7950 104.4819 26.2915 0.0011 -15.8349 -0.0003
# 3 41.3914 26.2915 77.0425 0.0010 -43.7845 -0.0006
# 4 0.0000 0.0011 0.0010 16.4242 -0.0004 -7.2318
# 5 -36.6055 -15.8349 -43.7845 -0.0004 46.5454 0.0002
# 6 0.0000 -0.0003 -0.0006 -7.2318 0.0002 30.9531
#
#
#
# Elastic Compliance Matrix: (Units=1/GPa)
#
#
# Indices 1 2 3 4 5 6 
#
# 1 0.021254 -0.001810 -0.003549 0.000001 0.012761 0.000000
# 2 -0.001810 0.010628 -0.003027 -0.000001 -0.000655 0.000000
# 3 -0.003549 -0.003027 0.029541 -0.000001 0.023968 0.000000
# 4 0.000001 -0.000001 -0.000001 0.067868 0.000000 0.015856
# 5 0.012761 -0.000655 0.023968 0.000000 0.053844 0.000000
# 6 0.000000 0.000000 0.000000 0.015856 0.000000 0.036012
#
#
# Mechanical properties :
#
#
# Convention : Reuss Voigt Hill
#
# Bulk Modulus (GPa) = 22.39548 48.92893 35.66220
# Shear Modulus (GPa) = 19.93612 30.04632 24.99122
#
# Velocity S-wave (km/s) = 2.95527 3.62804 3.30880
# Velocity P-wave (km/s) = 4.63205 6.24380 5.49731
#
# Compressibility (1/GPa) = 0.04465187
#
# Stress axis : x y z
#
# Youngs Moduli (GPa) = 47.04970 94.08831 33.85165
#
# Poissons Ratio (x) = 0.17030 0.12013
# Poissons Ratio (y) = 0.08516 0.10246
# Poissons Ratio (z) = 0.16697 0.28479
#
# Static dielectric constant tensor:
#      x y z
#    x 4.014220 0.000000 -0.524810 
#    y 0.000000 4.112270 0.000000 
#    z -0.524810 0.000000 4.409570 
# 
# 
# High freq. dielectric constant tensor:
#      x y z
#    x 1.874300 0.000000 -0.039020 
#    y 0.000000 1.909180 0.000000 
#    z -0.039020 0.000000 1.890920 
# 
# From -- ./inp_files/63117.got.cif
#   From: 2010.03.12/outbox.cif.g09.slc.cpg/sg5_32_cif.got.tgz:63117.got - 2010.03.31 09:47:26.
