data_PCOD8048935
_publ_section_title
;
Structure prediction by ZEFSAII (Michael W. Deem and Ramdas Pophale) SiO2 
 PCOD8048935
Probable space group: C 2
;
_chemical_formula_sum "Si O2"
_cell_formula_units_Z 28
_cell_length_a 20.886206
_cell_length_b 8.890659
_cell_length_c 10.941746
_cell_angle_alpha 90.000000
_cell_angle_beta 136.225799
_cell_angle_gamma 90.000000
_cell_volume 1405.633395
_symmetry_space_group_name_H-M "C 2"
_symmetry_group_IT_number 5
_symmetry_cell_setting 'monoclinic'
loop_
_space_group_symop_operation_xyz
x,y,z
-x,y,-z
1/2+x,1/2+y,z
1/2-x,1/2+y,-z
loop_
_atom_site_type_symbol
_atom_site_label
_atom_site_fract_x
_atom_site_fract_y
_atom_site_fract_z
Si Si1 0.985041 0.921950 0.733045
Si Si2 0.452738 0.735712 0.213504
Si Si3 0.636685 0.664448 0.360737
Si Si4 0.188422 0.286622 0.192836
Si Si5 0.500000 0.930363 0.500000
Si Si6 0.170810 0.595258 0.315483
Si Si7 0.117910 0.654716 0.511383
Si Si8 0.000000 0.780500 0.000000
O O1 0.964864 0.778560 0.619688
O O2 0.884970 0.992832 0.629461
O O3 0.051172 0.053314 0.766353
O O4 0.029020 0.876726 0.922713
O O5 0.553408 0.773461 0.291934
O O6 0.445034 0.825331 0.328850
O O7 0.370166 0.792977 0.012693
O O8 0.640709 0.667829 0.218835
O O9 0.736579 0.700153 0.558865
O O10 0.188490 0.441662 0.268188
O O11 0.292970 0.235661 0.305392
O O12 0.579814 0.030400 0.550409
O O13 0.143722 0.571327 0.420367
O O14 0.089184 0.678929 0.137357
#
# Coordination Sequence:
#
# PCOD8048935 Si02
#       8
#     4   4   4   4   2   4   4   2
#     4   9  19  40  55  93 119 165 192 242 332 363
#     4  10  23  39  65  87 123 167 214 260 302 370
#     4   9  19  36  61  93 125 155 190 253 328 380
#     4  11  19  37  64  99 124 154 205 263 327 363
#     4  12  26  46  58  86 124 178 232 246 298 370
#     4  10  21  35  63 100 132 149 197 261 326 382
#     4  10  23  41  63  88 128 174 201 258 315 371
#     4  10  20  30  60 100 130 154 188 250 322 390
#
# _framework density 19.919844999999999
#
# number of rings (size 3 to 8) (size 9 to 14) (size 15 to 20)
#    0.857    1.143    1.429    2.143    6.000    0.571 
#    2.571    4.286    0.000    0.000    0.000    0.000 
#    0.000    0.000    0.000    0.000    0.000    0.000 
#
# Total GULP energy -173443.830821 kJ/mol
# GULP energy per Si atom -12388.845059 kJ/mol
# Density = 1.987451 g / cm^3
# Si number density = 19.919845 Si / 1000 Ang^3
#
#
#
# Elastic Constant Matrix: (Units=GPa)
#
#
# Indices 1 2 3 4 5 6 
#
# 1 68.1596 44.3189 55.2504 0.0000 -5.8272 0.0000
# 2 44.3189 105.4356 59.7049 0.0000 -11.3461 0.0000
# 3 55.2504 59.7049 166.5292 0.0000 -2.4618 0.0000
# 4 0.0000 0.0000 0.0000 25.3823 0.0000 -8.1966
# 5 -5.8272 -11.3461 -2.4618 0.0000 25.6160 0.0000
# 6 0.0000 0.0000 0.0000 -8.1966 0.0000 37.6813
#
#
#
# Elastic Compliance Matrix: (Units=1/GPa)
#
#
# Indices 1 2 3 4 5 6 
#
# 1 0.023517 -0.006623 -0.005400 0.000000 0.001897 0.000000
# 2 -0.006623 0.014405 -0.002899 0.000000 0.004595 0.000000
# 3 -0.005400 -0.002899 0.008811 0.000000 -0.001666 0.000000
# 4 0.000000 0.000000 0.000000 0.042374 0.000000 0.009217
# 5 0.001897 0.004595 -0.001666 0.000000 0.041345 0.000000
# 6 0.000000 0.000000 0.000000 0.009217 0.000000 0.028543
#
#
# Mechanical properties :
#
#
# Convention : Reuss Voigt Hill
#
# Bulk Modulus (GPa) = 59.21079 73.18586 66.19833
# Shear Modulus (GPa) = 25.71093 29.79260 27.75176
#
# Velocity S-wave (km/s) = 3.59656 3.87153 3.73657
# Velocity P-wave (km/s) = 6.85828 7.53690 7.20558
#
# Compressibility (1/GPa) = 0.01688881
#
# Stress axis : x y z
#
# Youngs Moduli (GPa) = 42.52162 69.42206 113.49163
#
# Poissons Ratio (x) = 0.45981 0.61283
# Poissons Ratio (y) = 0.28164 0.32901
# Poissons Ratio (z) = 0.22961 0.20125
#
# Static dielectric constant tensor:
#      x y z
#    x 3.301940 0.000000 0.040310 
#    y 0.000000 3.638130 0.000000 
#    z 0.040310 0.000000 3.616890 
# 
# 
# High freq. dielectric constant tensor:
#      x y z
#    x 1.741540 0.000000 0.006880 
#    y 0.000000 1.781560 0.000000 
#    z 0.006880 0.000000 1.781360 
# 
# From -- ./inp_files/47221.got.cif
#   From: 2010.03.12/outbox.cif.g09.slc.cpg/sg5_24_cif.got.tgz:47221.got - 2010.03.31 09:47:26.
