data_PCOD8048472
_publ_section_title
;
Structure prediction by ZEFSAII (Michael W. Deem and Ramdas Pophale) SiO2 
 PCOD8048472
Probable space group: C 2
;
_chemical_formula_sum "Si O2"
_cell_formula_units_Z 22
_cell_length_a 12.617510
_cell_length_b 7.202993
_cell_length_c 10.819306
_cell_angle_alpha 90.000000
_cell_angle_beta 82.237089
_cell_angle_gamma 90.000000
_cell_volume 974.288566
_symmetry_space_group_name_H-M "C 2"
_symmetry_group_IT_number 5
_symmetry_cell_setting 'monoclinic'
loop_
_space_group_symop_operation_xyz
x,y,z
-x,y,-z
1/2+x,1/2+y,z
1/2-x,1/2+y,-z
loop_
_atom_site_type_symbol
_atom_site_label
_atom_site_fract_x
_atom_site_fract_y
_atom_site_fract_z
Si Si1 0.329356 0.156190 0.208874
Si Si2 0.532831 0.787373 0.618278
Si Si3 0.734680 0.747059 0.710879
Si Si4 0.000000 0.543136 0.000000
Si Si5 0.848474 0.420950 0.824648
Si Si6 0.389406 0.183925 0.465210
O O1 0.440604 0.160656 0.115332
O O2 0.243745 0.270967 0.145015
O O3 0.356001 0.258675 0.334481
O O4 0.277892 0.952444 0.231693
O O5 0.500000 0.669496 0.500000
O O6 0.613377 0.675226 0.695919
O O7 0.429053 0.861711 0.704376
O O8 0.599673 0.962236 0.553282
O O9 0.794221 0.618992 0.801483
O O10 0.797904 0.745810 0.572723
O O11 0.090756 0.422094 0.053962
O O12 0.500000 0.270009 0.500000
#
# Coordination Sequence:
#
# PCOD8048472 Si02
#       6
#     4   4   4   2   4   4
#     4  11  27  45  71 109 134 190 235 278 353 415
#     4  10  19  41  66 101 143 175 222 289 342 406
#     4  11  22  44  74 101 142 183 228 288 354 409
#     4  12  26  52  70  96 150 180 240 298 326 410
#     4  12  25  48  70  97 144 183 235 295 336 407
#     4  10  18  40  68 100 145 172 217 289 348 400
#
# _framework density 22.580580000000001
#
# number of rings (size 3 to 8) (size 9 to 14) (size 15 to 20)
#    0.000    1.091    7.273    1.091    5.091    0.000 
#    6.545    1.818    0.000    0.000    0.000    0.000 
#    0.000    0.000    0.000    0.000    0.000    0.000 
#
# Total GULP energy -136327.914698 kJ/mol
# GULP energy per Si atom -12393.446791 kJ/mol
# Density = 2.252919 g / cm^3
# Si number density = 22.580580 Si / 1000 Ang^3
#
#
#
# Elastic Constant Matrix: (Units=GPa)
#
#
# Indices 1 2 3 4 5 6 
#
# 1 154.8518 42.8395 31.4630 0.0000 24.8170 0.0000
# 2 42.8395 59.4122 31.9190 0.0000 -4.2865 0.0000
# 3 31.4630 31.9190 96.8081 0.0000 3.5013 0.0000
# 4 0.0000 0.0000 0.0000 11.5914 0.0000 -0.3326
# 5 24.8170 -4.2865 3.5013 0.0000 63.0544 0.0000
# 6 0.0000 0.0000 0.0000 -0.3326 0.0000 21.2810
#
#
#
# Elastic Compliance Matrix: (Units=1/GPa)
#
#
# Indices 1 2 3 4 5 6 
#
# 1 0.009000 -0.006415 -0.000667 0.000000 -0.003941 0.000000
# 2 -0.006415 0.025227 -0.006399 0.000000 0.004595 0.000000
# 3 -0.000667 -0.006399 0.012688 0.000000 -0.000877 0.000000
# 4 0.000000 0.000000 0.000000 0.086310 0.000000 0.001349
# 5 -0.003941 0.004595 -0.000877 0.000000 0.017772 0.000000
# 6 0.000000 0.000000 0.000000 0.001349 0.000000 0.047011
#
#
# Mechanical properties :
#
#
# Convention : Reuss Voigt Hill
#
# Bulk Modulus (GPa) = 50.12048 58.16835 54.14442
# Shear Modulus (GPa) = 21.58708 32.84206 27.21457
#
# Velocity S-wave (km/s) = 3.09528 3.81785 3.47539
# Velocity P-wave (km/s) = 5.91767 6.72688 6.33521
#
# Compressibility (1/GPa) = 0.01995192
#
# Stress axis : x y z
#
# Youngs Moduli (GPa) = 111.11435 39.64080 78.81438
#
# Poissons Ratio (x) = 0.25430 0.05259
# Poissons Ratio (y) = 0.71282 0.50431
# Poissons Ratio (z) = 0.07414 0.25365
#
# Static dielectric constant tensor:
#      x y z
#    x 4.765740 0.000000 0.371880 
#    y 0.000000 3.602740 0.000000 
#    z 0.371880 0.000000 4.182590 
# 
# 
# High freq. dielectric constant tensor:
#      x y z
#    x 1.920220 0.000000 0.008900 
#    y 0.000000 1.845510 0.000000 
#    z 0.008900 0.000000 1.891240 
# 
# From -- ./inp_files/38272.got.cif
#   From: 2010.03.12/outbox.cif.g09.slc.cpg/sg5_20_cif.got.tgz:38272.got - 2010.03.31 09:47:26.
