data_PCOD8048904
_publ_section_title
;
Structure prediction by ZEFSAII (Michael W. Deem and Ramdas Pophale) SiO2 
 PCOD8048904
Probable space group: C 2
;
_chemical_formula_sum "Si O2"
_cell_formula_units_Z 24
_cell_length_a 14.753774
_cell_length_b 8.955759
_cell_length_c 14.406223
_cell_angle_alpha 90.000000
_cell_angle_beta 149.074310
_cell_angle_gamma 90.000000
_cell_volume 978.264273
_symmetry_space_group_name_H-M "C 2"
_symmetry_group_IT_number 5
_symmetry_cell_setting 'monoclinic'
loop_
_space_group_symop_operation_xyz
x,y,z
-x,y,-z
1/2+x,1/2+y,z
1/2-x,1/2+y,-z
loop_
_atom_site_type_symbol
_atom_site_label
_atom_site_fract_x
_atom_site_fract_y
_atom_site_fract_z
Si Si1 0.139017 0.750000 0.187511
Si Si2 0.347907 0.426452 0.125708
Si Si3 0.902377 0.444290 0.511801
Si Si4 0.818405 0.249211 0.161501
Si Si5 0.106057 0.780401 0.497423
Si Si6 0.470060 0.924977 0.869524
O O1 0.217688 0.856700 0.336090
O O2 0.286417 0.695593 0.240275
O O3 0.049281 0.604492 0.153937
O O4 0.000000 0.838717 0.000000
O O5 0.362023 0.605733 0.135662
O O6 0.497687 0.367913 0.324952
O O7 0.354258 0.342729 0.030444
O O8 0.148667 0.374726 0.976221
O O9 0.865781 0.611591 0.513242
O O10 0.000000 0.450393 0.500000
O O11 0.013633 0.360819 0.688955
O O12 0.298316 0.851366 0.674133
O O13 0.000000 0.790554 0.500000
O O14 0.500000 0.869113 0.000000
#
# Coordination Sequence:
#
# PCOD8048904 Si02
#       6
#     4   4   4   4   4   4
#     4  10  19  41  68  92 122 168 223 260 311 392
#     4  12  24  42  66  95 134 169 215 270 329 379
#     4   9  21  38  62  91 124 169 213 259 320 383
#     4  11  22  42  63  92 131 168 209 270 328 373
#     4  11  21  40  65  95 131 169 217 270 319 384
#     4  11  21  41  69  97 120 172 225 260 311 393
#
# _framework density 24.533248
#
# number of rings (size 3 to 8) (size 9 to 14) (size 15 to 20)
#    0.000    1.333    5.000    2.000    0.000    2.000 
#    9.000    0.000    0.000    0.000    0.000    0.000 
#    0.000    0.000    0.000    0.000    0.000    0.000 
#
# Total GULP energy -148768.672247 kJ/mol
# GULP energy per Si atom -12397.389354 kJ/mol
# Density = 2.447741 g / cm^3
# Si number density = 24.533248 Si / 1000 Ang^3
#
#
#
# Elastic Constant Matrix: (Units=GPa)
#
#
# Indices 1 2 3 4 5 6 
#
# 1 26.5449 -2.9774 3.5318 0.0000 3.1640 0.0000
# 2 -2.9774 149.3907 78.1378 0.0000 -8.4717 0.0000
# 3 3.5318 78.1378 220.7546 0.0000 12.1561 0.0000
# 4 0.0000 0.0000 0.0000 53.0353 0.0000 -0.3063
# 5 3.1640 -8.4717 12.1561 0.0000 38.2741 0.0000
# 6 0.0000 0.0000 0.0000 -0.3063 0.0000 22.1461
#
#
#
# Elastic Compliance Matrix: (Units=1/GPa)
#
#
# Indices 1 2 3 4 5 6 
#
# 1 0.038218 0.001048 -0.000836 0.000000 -0.002662 0.000000
# 2 0.001048 0.008547 -0.003197 0.000000 0.002821 0.000000
# 3 -0.000836 -0.003197 0.005812 0.000000 -0.002484 0.000000
# 4 0.000000 0.000000 0.000000 0.018857 0.000000 0.000261
# 5 -0.002662 0.002821 -0.002484 0.000000 0.027761 0.000000
# 6 0.000000 0.000000 0.000000 0.000261 0.000000 0.045158
#
#
# Mechanical properties :
#
#
# Convention : Reuss Voigt Hill
#
# Bulk Modulus (GPa) = 21.45627 61.56384 41.51006
# Shear Modulus (GPa) = 30.14609 43.89096 37.01852
#
# Velocity S-wave (km/s) = 3.50921 4.23429 3.88869
# Velocity P-wave (km/s) = 5.01838 7.00387 6.09255
#
# Compressibility (1/GPa) = 0.04660642
#
# Stress axis : x y z
#
# Youngs Moduli (GPa) = 26.16565 116.99909 172.06255
#
# Poissons Ratio (x) = -0.12260 0.14380
# Poissons Ratio (y) = -0.02742 0.55015
# Poissons Ratio (z) = 0.02187 0.37409
#
# Static dielectric constant tensor:
#      x y z
#    x 4.409310 0.000000 0.049070 
#    y 0.000000 4.331030 0.000000 
#    z 0.049070 0.000000 4.667850 
# 
# 
# High freq. dielectric constant tensor:
#      x y z
#    x 1.975110 0.000000 0.002630 
#    y 0.000000 1.966590 0.000000 
#    z 0.002630 0.000000 1.997010 
# 
# From -- ./inp_files/55794.got.cif
#   From: 2010.03.12/outbox.cif.g09.slc.cpg/sg5_28_cif.got.tgz:55794.got - 2010.03.31 09:47:26.
