data_PCOD8048433
_publ_section_title
;
Structure prediction by ZEFSAII (Michael W. Deem and Ramdas Pophale) SiO2 
 PCOD8048433
Probable space group: C 2
;
_chemical_formula_sum "Si O2"
_cell_formula_units_Z 24
_cell_length_a 21.080551
_cell_length_b 8.756850
_cell_length_c 8.554625
_cell_angle_alpha 90.000000
_cell_angle_beta 40.738271
_cell_angle_gamma 90.000000
_cell_volume 1030.578350
_symmetry_space_group_name_H-M "C 2"
_symmetry_group_IT_number 5
_symmetry_cell_setting 'monoclinic'
loop_
_space_group_symop_operation_xyz
x,y,z
-x,y,-z
1/2+x,1/2+y,z
1/2-x,1/2+y,-z
loop_
_atom_site_type_symbol
_atom_site_label
_atom_site_fract_x
_atom_site_fract_y
_atom_site_fract_z
Si Si1 0.000000 0.320280 0.500000
Si Si2 0.687721 0.949645 0.012162
Si Si3 0.500000 0.095102 0.000000
Si Si4 0.379464 0.814146 0.144694
Si Si5 0.934469 0.159614 0.330118
Si Si6 0.046612 0.818489 0.648243
Si Si7 0.649668 0.280719 0.139575
O O1 0.925597 0.425605 0.733433
O O2 0.932441 0.218048 0.512187
O O3 0.697871 0.130881 0.971354
O O4 0.708182 0.843471 0.816546
O O5 0.763544 0.902616 0.004722
O O6 0.555813 0.198942 0.770616
O O7 0.578658 0.986071 0.932939
O O8 0.355733 0.750298 0.364282
O O9 0.457013 0.691003 0.935988
O O10 0.908452 0.980641 0.381354
O O11 0.933159 0.849043 0.818180
O O12 0.103800 0.746806 0.395528
#
# Coordination Sequence:
#
# PCOD8048433 Si02
#       7
#     2   4   2   4   4   4   4
#     4  10  20  38  72  86 126 170 220 260 336 376
#     4  11  24  43  62  96 126 173 215 275 316 393
#     4  10  18  38  66  90 122 176 216 254 326 394
#     4   9  20  38  62  91 128 168 216 260 327 386
#     4   9  19  34  65  94 121 164 215 260 319 381
#     4  11  22  41  66  97 130 171 213 272 320 386
#     4  11  26  40  65  95 135 166 224 264 327 380
#
# _framework density 23.287894999999999
#
# number of rings (size 3 to 8) (size 9 to 14) (size 15 to 20)
#    0.000    2.000    1.667    3.000   11.667    0.000 
#    0.000    3.333    0.000    0.000    0.000    0.000 
#    0.000    0.000    0.000    0.000    0.000    0.000 
#
# Total GULP energy -148704.454703 kJ/mol
# GULP energy per Si atom -12392.037892 kJ/mol
# Density = 2.323489 g / cm^3
# Si number density = 23.287895 Si / 1000 Ang^3
#
#
#
# Elastic Constant Matrix: (Units=GPa)
#
#
# Indices 1 2 3 4 5 6 
#
# 1 86.2000 20.6879 8.9591 0.0000 10.6639 0.0000
# 2 20.6879 107.1106 2.0046 0.0000 14.4546 0.0000
# 3 8.9591 2.0046 28.8036 0.0000 16.9561 0.0000
# 4 0.0000 0.0000 0.0000 29.0431 0.0000 10.3441
# 5 10.6639 14.4546 16.9561 0.0000 40.5742 0.0000
# 6 0.0000 0.0000 0.0000 10.3441 0.0000 32.9954
#
#
#
# Elastic Compliance Matrix: (Units=1/GPa)
#
#
# Indices 1 2 3 4 5 6 
#
# 1 0.012601 -0.002207 -0.003023 0.000000 -0.001262 0.000000
# 2 -0.002207 0.010267 0.002366 0.000000 -0.004066 0.000000
# 3 -0.003023 0.002366 0.047112 0.000000 -0.019737 0.000000
# 4 0.000000 0.000000 0.000000 0.038759 0.000000 -0.012151
# 5 -0.001262 -0.004066 -0.019737 0.000000 0.034675 0.000000
# 6 0.000000 0.000000 0.000000 -0.012151 0.000000 0.034117
#
#
# Mechanical properties :
#
#
# Convention : Reuss Voigt Hill
#
# Bulk Modulus (GPa) = 15.56378 31.71306 23.63842
# Shear Modulus (GPa) = 24.42894 33.22005 28.82450
#
# Velocity S-wave (km/s) = 3.24234 3.78099 3.52198
# Velocity P-wave (km/s) = 4.55134 5.71914 5.16833
#
# Compressibility (1/GPa) = 0.06425174
#
# Stress axis : x y z
#
# Youngs Moduli (GPa) = 79.35935 97.40094 21.22608
#
# Poissons Ratio (x) = 0.21495 0.06416
# Poissons Ratio (y) = 0.17514 -0.05021
# Poissons Ratio (z) = 0.23987 -0.23041
#
# Static dielectric constant tensor:
#      x y z
#    x 4.495430 0.000000 0.377510 
#    y 0.000000 3.998330 0.000000 
#    z 0.377510 0.000000 3.913340 
# 
# 
# High freq. dielectric constant tensor:
#      x y z
#    x 1.928670 0.000000 0.023480 
#    y 0.000000 1.917820 0.000000 
#    z 0.023480 0.000000 1.883700 
# 
# From -- ./inp_files/28898.got.cif
#   From: 2010.03.12/outbox.cif.g09.slc.cpg/sg5_15_cif.got.tgz:28898.got - 2010.03.31 09:47:26.
