data_PCOD8048608
_publ_section_title
;
Structure prediction by ZEFSAII (Michael W. Deem and Ramdas Pophale) SiO2 
 PCOD8048608
Probable space group: C 2
;
_chemical_formula_sum "Si O2"
_cell_formula_units_Z 28
_cell_length_a 35.185621
_cell_length_b 4.979266
_cell_length_c 10.354196
_cell_angle_alpha 90.000000
_cell_angle_beta 123.450116
_cell_angle_gamma 90.000000
_cell_volume 1513.573625
_symmetry_space_group_name_H-M "C 2"
_symmetry_group_IT_number 5
_symmetry_cell_setting 'monoclinic'
loop_
_space_group_symop_operation_xyz
x,y,z
-x,y,-z
1/2+x,1/2+y,z
1/2-x,1/2+y,-z
loop_
_atom_site_type_symbol
_atom_site_label
_atom_site_fract_x
_atom_site_fract_y
_atom_site_fract_z
Si Si1 0.747652 0.527920 0.913928
Si Si2 0.509615 0.054435 0.369712
Si Si3 0.446210 0.641407 0.907479
Si Si4 0.574782 0.141609 0.970725
Si Si5 0.434478 0.552787 0.596570
Si Si6 0.850090 0.132996 0.254734
Si Si7 0.655117 0.133001 0.933751
O O1 0.698338 0.596556 0.759520
O O2 0.749168 0.212382 0.950383
O O3 0.792637 0.603592 0.914979
O O4 0.500000 0.110010 0.500000
O O5 0.549135 0.249289 0.393272
O O6 0.525451 0.750026 0.376061
O O7 0.463148 0.107305 0.208717
O O8 0.425324 0.440991 0.973581
O O9 0.423387 0.596514 0.725923
O O10 0.434472 0.942081 0.928279
O O11 0.500000 0.594518 0.000000
O O12 0.623403 0.084210 0.997403
O O13 0.388825 0.601173 0.432463
O O14 0.854425 0.425012 0.199718
O O15 0.854319 0.924164 0.144590
#
# Coordination Sequence:
#
# PCOD8048608 Si02
#       7
#     4   4   4   4   4   4   4
#     4   8  16  31  54  78 107 136 164 205 264 326
#     4  12  23  35  53  79 106 135 166 220 275 307
#     4  12  23  40  54  71 102 152 190 210 250 301
#     4  12  22  37  56  75 106 139 182 223 250 309
#     4  12  23  36  54  75 107 139 180 214 251 316
#     4  10  19  35  55  83 110 135 168 216 269 319
#     4  10  20  35  56  84 108 134 171 216 272 315
#
# _framework density 18.499267
#
# number of rings (size 3 to 8) (size 9 to 14) (size 15 to 20)
#    0.000    1.143    2.857    5.143    0.000    0.000 
#    0.000    0.000    0.000    1.714    0.000    0.000 
#    0.000    0.000    0.000    0.000    0.000    0.000 
#
# Total GULP energy -173614.243063 kJ/mol
# GULP energy per Si atom -12401.017362 kJ/mol
# Density = 1.845716 g / cm^3
# Si number density = 18.499267 Si / 1000 Ang^3
#
#
#
# Elastic Constant Matrix: (Units=GPa)
#
#
# Indices 1 2 3 4 5 6 
#
# 1 115.1230 10.3956 45.5869 0.0000 9.4996 0.0000
# 2 10.3956 69.8386 4.1492 0.0000 0.0373 0.0000
# 3 45.5869 4.1492 49.1865 0.0000 -11.8880 0.0000
# 4 0.0000 0.0000 0.0000 19.9983 0.0000 -5.9398
# 5 9.4996 0.0373 -11.8880 0.0000 21.1156 0.0000
# 6 0.0000 0.0000 0.0000 -5.9398 0.0000 25.2605
#
#
#
# Elastic Compliance Matrix: (Units=1/GPa)
#
#
# Indices 1 2 3 4 5 6 
#
# 1 0.020252 -0.001569 -0.024121 0.000000 -0.022688 0.000000
# 2 -0.001569 0.014525 0.000456 0.000000 0.000937 0.000000
# 3 -0.024121 0.000456 0.052401 0.000000 0.040353 0.000000
# 4 0.000000 0.000000 0.000000 0.053759 0.000000 0.012641
# 5 -0.022688 0.000937 0.040353 0.000000 0.080282 0.000000
# 6 0.000000 0.000000 0.000000 0.012641 0.000000 0.042560
#
#
# Mechanical properties :
#
#
# Convention : Reuss Voigt Hill
#
# Bulk Modulus (GPa) = 27.24174 39.37908 33.31041
# Shear Modulus (GPa) = 15.31470 24.87597 20.09533
#
# Velocity S-wave (km/s) = 2.88037 3.67099 3.29945
# Velocity P-wave (km/s) = 5.08132 6.26907 5.70619
#
# Compressibility (1/GPa) = 0.03670838
#
# Stress axis : x y z
#
# Youngs Moduli (GPa) = 49.37841 68.84799 19.08358
#
# Poissons Ratio (x) = 0.10805 0.46031
# Poissons Ratio (y) = 0.07749 -0.00870
# Poissons Ratio (z) = 1.19105 -0.03137
#
# Static dielectric constant tensor:
#      x y z
#    x 3.539560 0.000000 0.197600 
#    y 0.000000 3.639470 0.000000 
#    z 0.197600 0.000000 3.268130 
# 
# 
# High freq. dielectric constant tensor:
#      x y z
#    x 1.714980 0.000000 0.016170 
#    y 0.000000 1.742890 0.000000 
#    z 0.016170 0.000000 1.688490 
# 
# From -- ./inp_files/32042.got.cif
#   From: 2010.03.12/outbox.cif.g09.slc.cpg/sg5_17_cif.got.tgz:32042.got - 2010.03.31 09:47:26.
