data_PCOD8048837
_publ_section_title
;
Structure prediction by ZEFSAII (Michael W. Deem and Ramdas Pophale) SiO2 
 PCOD8048837
Probable space group: C 2
;
_chemical_formula_sum "Si O2"
_cell_formula_units_Z 30
_cell_length_a 27.008264
_cell_length_b 7.512076
_cell_length_c 9.306516
_cell_angle_alpha 90.000000
_cell_angle_beta 128.673761
_cell_angle_gamma 90.000000
_cell_volume 1474.134867
_symmetry_space_group_name_H-M "C 2"
_symmetry_group_IT_number 5
_symmetry_cell_setting 'monoclinic'
loop_
_space_group_symop_operation_xyz
x,y,z
-x,y,-z
1/2+x,1/2+y,z
1/2-x,1/2+y,-z
loop_
_atom_site_type_symbol
_atom_site_label
_atom_site_fract_x
_atom_site_fract_y
_atom_site_fract_z
Si Si1 0.306395 0.322510 0.214670
Si Si2 0.133676 0.010467 0.201669
Si Si3 0.000000 0.193870 0.000000
Si Si4 0.266343 0.468607 0.841343
Si Si5 0.434070 0.209812 0.797482
Si Si6 0.554591 0.219858 0.494606
Si Si7 0.815792 0.161892 0.428323
Si Si8 0.565582 0.880388 0.358471
O O1 0.274260 0.148101 0.223605
O O2 0.378936 0.272361 0.312894
O O3 0.297878 0.486944 0.307190
O O4 0.272831 0.378627 0.007409
O O5 0.165298 0.020617 0.102132
O O6 0.179899 0.112965 0.395703
O O7 0.123596 0.804006 0.224808
O O8 0.062103 0.079869 0.081327
O O9 0.993554 0.299658 0.837344
O O10 0.234206 0.321487 0.680351
O O11 0.449286 0.309820 0.671507
O O12 0.404351 0.015881 0.706877
O O13 0.500000 0.194443 0.000000
O O14 0.500000 0.293474 0.500000
O O15 0.545520 0.003762 0.458207
O O16 0.884501 0.232838 0.499143
#
# Coordination Sequence:
#
# PCOD8048837 Si02
#       8
#     4   4   2   4   4   4   4   4
#     4  12  25  49  64  96 143 176 227 279 331 408
#     4  11  25  40  72 100 130 180 224 283 344 394
#     4  10  20  42  60 102 136 160 222 284 338 394
#     4  12  27  46  70  99 133 186 226 277 341 401
#     4  10  19  39  62  93 139 163 218 278 324 398
#     4  10  22  40  68  97 132 176 218 266 343 400
#     4  11  23  45  69  90 138 177 220 288 325 392
#     4   9  19  39  65  91 134 174 209 277 333 386
#
# _framework density 20.350921
#
# number of rings (size 3 to 8) (size 9 to 14) (size 15 to 20)
#    0.800    0.533    5.333    0.000    3.733    0.000 
#    7.200    0.000    0.000    0.000    0.000    0.000 
#    0.000    0.000    0.000    0.000    0.000    0.000 
#
# Total GULP energy -185834.731589 kJ/mol
# GULP energy per Si atom -12388.982106 kJ/mol
# Density = 2.030460 g / cm^3
# Si number density = 20.350921 Si / 1000 Ang^3
#
#
#
# Elastic Constant Matrix: (Units=GPa)
#
#
# Indices 1 2 3 4 5 6 
#
# 1 102.2216 31.7880 14.7072 0.0000 8.6043 0.0000
# 2 31.7880 113.5382 34.4453 0.0000 6.4100 0.0000
# 3 14.7072 34.4453 84.3585 0.0000 11.2961 0.0000
# 4 0.0000 0.0000 0.0000 32.5380 0.0000 -0.5586
# 5 8.6043 6.4100 11.2961 0.0000 23.2755 0.0000
# 6 0.0000 0.0000 0.0000 -0.5586 0.0000 15.4184
#
#
#
# Elastic Compliance Matrix: (Units=1/GPa)
#
#
# Indices 1 2 3 4 5 6 
#
# 1 0.010962 -0.002785 -0.000357 0.000000 -0.003112 0.000000
# 2 -0.002785 0.010776 -0.003909 0.000000 -0.000041 0.000000
# 3 -0.000357 -0.003909 0.014279 0.000000 -0.005721 0.000000
# 4 0.000000 0.000000 0.000000 0.030752 0.000000 0.001114
# 5 -0.003112 -0.000041 -0.005721 0.000000 0.046902 0.000000
# 6 0.000000 0.000000 0.000000 0.001114 0.000000 0.064898
#
#
# Mechanical properties :
#
#
# Convention : Reuss Voigt Hill
#
# Bulk Modulus (GPa) = 45.63303 51.33326 48.48315
# Shear Modulus (GPa) = 25.00308 28.85823 26.93066
#
# Velocity S-wave (km/s) = 3.50894 3.76976 3.64168
# Velocity P-wave (km/s) = 6.23607 6.65033 6.44653
#
# Compressibility (1/GPa) = 0.02191395
#
# Stress axis : x y z
#
# Youngs Moduli (GPa) = 91.22352 92.80286 70.03491
#
# Poissons Ratio (x) = 0.25846 0.02502
# Poissons Ratio (y) = 0.25406 0.27375
# Poissons Ratio (z) = 0.03259 0.36275
#
# Static dielectric constant tensor:
#      x y z
#    x 3.201250 0.000000 0.025610 
#    y 0.000000 3.882720 0.000000 
#    z 0.025610 0.000000 3.833870 
# 
# 
# High freq. dielectric constant tensor:
#      x y z
#    x 1.756830 0.000000 0.005780 
#    y 0.000000 1.807190 0.000000 
#    z 0.005780 0.000000 1.807930 
# 
# From -- ./inp_files/31658.got.cif
#   From: 2010.03.12/outbox.cif.g09.slc.cpg/sg5_16_cif.got.tgz:31658.got - 2010.03.31 09:47:26.
