data_PCOD8048160
_publ_section_title
;
Structure prediction by ZEFSAII (Michael W. Deem and Ramdas Pophale) SiO2 
 PCOD8048160
Probable space group: C 2
;
_chemical_formula_sum "Si O2"
_cell_formula_units_Z 24
_cell_length_a 9.694876
_cell_length_b 16.331326
_cell_length_c 8.453421
_cell_angle_alpha 90.000000
_cell_angle_beta 66.811102
_cell_angle_gamma 90.000000
_cell_volume 1230.301993
_symmetry_space_group_name_H-M "C 2"
_symmetry_group_IT_number 5
_symmetry_cell_setting 'monoclinic'
loop_
_space_group_symop_operation_xyz
x,y,z
-x,y,-z
1/2+x,1/2+y,z
1/2-x,1/2+y,-z
loop_
_atom_site_type_symbol
_atom_site_label
_atom_site_fract_x
_atom_site_fract_y
_atom_site_fract_z
Si Si1 0.885198 0.777970 0.415660
Si Si2 0.845642 0.682841 0.130369
Si Si3 0.399288 0.767841 0.263268
Si Si4 0.957435 0.104729 0.834912
Si Si5 0.543056 0.423651 0.161067
Si Si6 0.299512 0.819210 0.983069
O O1 0.859165 0.700386 0.312144
O O2 0.722961 0.802939 0.560585
O O3 0.000000 0.748741 0.500000
O O4 0.949124 0.859073 0.304612
O O5 0.715121 0.623006 0.131014
O O6 0.826136 0.772818 0.062040
O O7 0.000000 0.642990 0.000000
O O8 0.445577 0.675568 0.295292
O O9 0.332953 0.761173 0.117268
O O10 0.546433 0.828257 0.189445
O O11 0.987689 0.013853 0.752210
O O12 0.000000 0.106421 0.000000
O O13 0.723324 0.403151 0.079866
O O14 0.500000 0.423489 0.000000
#
# Coordination Sequence:
#
# PCOD8048160 Si02
#       6
#     4   4   4   4   4   4
#     4  12  22  36  62  91 123 160 204 249 293 358
#     4  11  19  38  62  90 117 159 213 244 286 367
#     4  10  20  36  61  86 120 163 201 247 292 355
#     4  10  22  39  65  90 123 156 200 253 308 352
#     4  11  21  40  63  89 120 159 196 250 307 358
#     4  10  17  37  61  86 115 158 212 238 287 362
#
# _framework density 19.507407000000001
#
# number of rings (size 3 to 8) (size 9 to 14) (size 15 to 20)
#    0.000    1.333    8.333    0.000    0.000    2.667 
#    6.000    0.000    0.000    0.000    0.000    0.000 
#    0.000    0.000    0.000    0.000    0.000    0.000 
#
# Total GULP energy -148661.384645 kJ/mol
# GULP energy per Si atom -12388.448720 kJ/mol
# Density = 1.946301 g / cm^3
# Si number density = 19.507407 Si / 1000 Ang^3
#
#
#
# Elastic Constant Matrix: (Units=GPa)
#
#
# Indices 1 2 3 4 5 6 
#
# 1 128.8240 46.8429 56.6932 0.0000 -12.3034 0.0000
# 2 46.8429 93.0672 33.4377 0.0000 -10.2190 0.0000
# 3 56.6932 33.4377 98.9195 0.0000 -24.2155 0.0000
# 4 0.0000 0.0000 0.0000 15.2407 0.0000 -4.6773
# 5 -12.3034 -10.2190 -24.2155 0.0000 45.9564 0.0000
# 6 0.0000 0.0000 0.0000 -4.6773 0.0000 -8.2577
#
#
#
# Elastic Compliance Matrix: (Units=1/GPa)
#
#
# Indices 1 2 3 4 5 6 
#
# 1 0.011516 -0.003915 -0.005437 0.000000 -0.000652 0.000000
# 2 -0.003915 0.013576 -0.002139 0.000000 0.000844 0.000000
# 3 -0.005437 -0.002139 0.015471 0.000000 0.006221 0.000000
# 4 0.000000 0.000000 0.000000 0.055897 0.000000 -0.031661
# 5 -0.000652 0.000844 0.006221 0.000000 0.025051 0.000000
# 6 0.000000 0.000000 0.000000 -0.031661 0.000000 -0.103166
#
#
# Mechanical properties :
#
#
# Convention : Reuss Voigt Hill
#
# Bulk Modulus (GPa) = 56.87313 66.08425 61.47869
# Shear Modulus (GPa) = 105.96109 22.84369 64.40239
#
# Velocity S-wave (km/s) = 7.37810 3.42574 5.75204
# Velocity P-wave (km/s) = 10.08958 7.04256 8.70050
#
# Compressibility (1/GPa) = 0.01758300
#
# Stress axis : x y z
#
# Youngs Moduli (GPa) = 86.83369 73.65682 64.63701
#
# Poissons Ratio (x) = 0.28835 0.35140
# Poissons Ratio (y) = 0.33993 0.13826
# Poissons Ratio (z) = 0.47208 0.15756
#
# Static dielectric constant tensor:
#      x y z
#    x 4.355400 0.000000 -0.496570 
#    y 0.000000 3.564970 0.000000 
#    z -0.496570 0.000000 3.961940 
# 
# 
# High freq. dielectric constant tensor:
#      x y z
#    x 1.781230 0.000000 0.001650 
#    y 0.000000 1.722800 0.000000 
#    z 0.001650 0.000000 1.747220 
# 
# From -- ./inp_files/15679.got.cif
#   From: 2010.03.12/outbox.cif.g09.slc.cpg/sg5_8_cif.got.tgz:15679.got - 2010.03.31 09:47:26.
