data_PCOD8048501
_publ_section_title
;
Structure prediction by ZEFSAII (Michael W. Deem and Ramdas Pophale) SiO2 
 PCOD8048501
Probable space group: C 2
;
_chemical_formula_sum "Si O2"
_cell_formula_units_Z 32
_cell_length_a 20.425859
_cell_length_b 11.991229
_cell_length_c 19.622716
_cell_angle_alpha 90.000000
_cell_angle_beta 159.806859
_cell_angle_gamma 90.000000
_cell_volume 1659.037209
_symmetry_space_group_name_H-M "C 2"
_symmetry_group_IT_number 5
_symmetry_cell_setting 'monoclinic'
loop_
_space_group_symop_operation_xyz
x,y,z
-x,y,-z
1/2+x,1/2+y,z
1/2-x,1/2+y,-z
loop_
_atom_site_type_symbol
_atom_site_label
_atom_site_fract_x
_atom_site_fract_y
_atom_site_fract_z
Si Si1 0.645081 0.125000 0.245170
Si Si2 0.672541 0.984876 0.019884
Si Si3 0.493191 0.505452 0.420365
Si Si4 0.069220 0.757247 0.302840
Si Si5 0.252536 0.609495 0.962398
Si Si6 0.182614 0.239290 0.711993
Si Si7 0.474881 0.799116 0.747891
Si Si8 0.240867 0.877830 0.083150
O O1 0.662939 0.185635 0.334658
O O2 0.670955 0.206690 0.205700
O O3 0.793767 0.023150 0.396623
O O4 0.436464 0.069925 0.035323
O O5 0.529402 0.889264 0.857918
O O6 0.858041 0.933284 0.238847
O O7 0.756536 0.051376 0.039144
O O8 0.500000 0.444455 0.500000
O O9 0.399793 0.628560 0.333496
O O10 0.247005 0.803567 0.519511
O O11 0.936554 0.686234 0.225016
O O12 0.940850 0.852792 0.142425
O O13 0.445812 0.681196 0.146364
O O14 0.246566 0.513008 0.898299
O O15 0.281449 0.320256 0.864428
O O16 0.000000 0.302411 0.500000
O O17 0.570662 0.829091 0.768767
#
# Coordination Sequence:
#
# PCOD8048501 Si02
#       8
#     4   4   4   4   4   4   4   4
#     4   9  18  30  49  76 104 131 168 210 257 312
#     4  10  19  31  51  75 103 138 170 213 262 304
#     4   9  18  30  47  73 103 131 162 208 260 307
#     4  10  19  32  52  75 103 139 170 210 260 306
#     4   9  20  34  49  72 108 139 172 213 257 312
#     4   9  17  31  51  75 104 132 163 212 264 309
#     4  10  20  34  50  74 106 138 177 214 255 313
#     4  10  20  33  51  77 106 137 171 214 264 311
#
# _framework density 19.288295000000002
#
# number of rings (size 3 to 8) (size 9 to 14) (size 15 to 20)
#    0.000    2.750    0.000    4.500    0.000   10.500 
#    0.000    0.000    0.000    0.750    0.000    7.000 
#    0.000    0.000    0.000    0.000    0.000    0.000 
#
# Total GULP energy -198265.491107 kJ/mol
# GULP energy per Si atom -12391.593194 kJ/mol
# Density = 1.924439 g / cm^3
# Si number density = 19.288295 Si / 1000 Ang^3
#
#
#
# Elastic Constant Matrix: (Units=GPa)
#
#
# Indices 1 2 3 4 5 6 
#
# 1 58.7027 20.9663 22.6325 0.0073 -2.5726 0.0100
# 2 20.9663 60.5114 20.7696 0.0368 -5.6414 0.0429
# 3 22.6325 20.7696 130.1271 -0.0123 -14.2886 0.0221
# 4 0.0073 0.0368 -0.0123 25.1267 0.0052 -4.0787
# 5 -2.5726 -5.6414 -14.2886 0.0052 25.0735 0.0070
# 6 0.0100 0.0429 0.0221 -4.0787 0.0070 21.9892
#
#
#
# Elastic Compliance Matrix: (Units=1/GPa)
#
#
# Indices 1 2 3 4 5 6 
#
# 1 0.020217 -0.006182 -0.002618 0.000003 -0.000809 0.000006
# 2 -0.006182 0.019522 -0.001737 -0.000035 0.002768 -0.000041
# 3 -0.002618 -0.001737 0.008902 0.000006 0.004414 -0.000005
# 4 0.000003 -0.000035 0.000006 0.041034 -0.000015 0.007611
# 5 -0.000809 0.002768 0.004414 -0.000015 0.042938 -0.000026
# 6 0.000006 -0.000041 -0.000005 0.007611 -0.000026 0.046889
#
#
# Mechanical properties :
#
#
# Convention : Reuss Voigt Hill
#
# Bulk Modulus (GPa) = 36.27474 42.00868 39.14171
# Shear Modulus (GPa) = 23.83632 26.76939 25.30286
#
# Velocity S-wave (km/s) = 3.51920 3.72944 3.62584
# Velocity P-wave (km/s) = 5.94646 6.35386 6.15354
#
# Compressibility (1/GPa) = 0.02756739
#
# Stress axis : x y z
#
# Youngs Moduli (GPa) = 49.46363 51.22455 112.33371
#
# Poissons Ratio (x) = 0.31665 0.29413
# Poissons Ratio (y) = 0.30576 0.19510
# Poissons Ratio (z) = 0.12952 0.08897
#
# Static dielectric constant tensor:
#      x y z
#    x 3.397830 0.000010 0.028910 
#    y 0.000010 3.501020 -0.000040 
#    z 0.028910 -0.000040 3.749960 
# 
# 
# High freq. dielectric constant tensor:
#      x y z
#    x 1.725860 0.000000 0.006670 
#    y 0.000000 1.711440 0.000000 
#    z 0.006670 0.000000 1.768650 
# 
# From -- ./inp_files/67137.got.cif
#   From: 2010.03.12/outbox.cif.g09.slc.cpg/sg5_34_cif.got.tgz:67137.got - 2010.03.31 09:47:26.
