data_PCOD8048443
_publ_section_title
;
Structure prediction by ZEFSAII (Michael W. Deem and Ramdas Pophale) SiO2 
 PCOD8048443
Probable space group: C 2
;
_chemical_formula_sum "Si O2"
_cell_formula_units_Z 32
_cell_length_a 9.227926
_cell_length_b 14.279965
_cell_length_c 11.501852
_cell_angle_alpha 90.000000
_cell_angle_beta 93.868266
_cell_angle_gamma 90.000000
_cell_volume 1512.197381
_symmetry_space_group_name_H-M "C 2"
_symmetry_group_IT_number 5
_symmetry_cell_setting 'monoclinic'
loop_
_space_group_symop_operation_xyz
x,y,z
-x,y,-z
1/2+x,1/2+y,z
1/2-x,1/2+y,-z
loop_
_atom_site_type_symbol
_atom_site_label
_atom_site_fract_x
_atom_site_fract_y
_atom_site_fract_z
Si Si1 0.668519 0.568870 0.484899
Si Si2 0.541117 0.257262 0.193012
Si Si3 0.375125 0.232889 0.401457
Si Si4 0.773873 0.933716 0.312824
Si Si5 0.208941 0.750028 0.985359
Si Si6 0.645974 0.930813 0.066914
Si Si7 0.157290 0.063795 0.051008
Si Si8 0.906338 0.951634 0.730575
O O1 0.500000 0.599507 0.500000
O O2 0.759736 0.657905 0.444348
O O3 0.753376 0.518378 0.596522
O O4 0.667395 0.487370 0.390056
O O5 0.460482 0.195690 0.288680
O O6 0.419177 0.297140 0.097758
O O7 0.626795 0.341513 0.260361
O O8 0.660120 0.211500 0.111932
O O9 0.500000 0.254319 0.500000
O O10 0.292249 0.330845 0.371946
O O11 0.645016 0.926175 0.208878
O O12 0.921221 0.964656 0.257689
O O13 0.330386 0.830458 0.995263
O O14 0.260976 0.660139 0.917870
O O15 0.500000 0.970926 0.000000
O O16 0.771840 0.003587 0.046224
O O17 0.165883 0.006180 0.168693
O O18 0.000000 0.092831 0.000000
#
# Coordination Sequence:
#
# PCOD8048443 Si02
#       8
#     4   4   4   4   4   4   4   4
#     4  10  23  43  68  98 128 173 230 281 334 404
#     4  10  20  39  67  93 126 175 225 273 333 400
#     4  11  22  42  71  98 132 173 227 281 337 403
#     4  10  21  44  70  93 129 180 227 268 336 415
#     4  11  22  39  63  96 133 171 224 277 332 405
#     4  12  25  43  64 101 141 174 220 290 338 399
#     4  12  23  40  66  95 131 180 222 270 347 415
#     4  10  18  38  71  89 119 175 227 267 321 409
#
# _framework density 21.161256999999999
#
# number of rings (size 3 to 8) (size 9 to 14) (size 15 to 20)
#    0.000    1.250    5.000    3.000    1.750    1.000 
#    2.250    0.625    0.000    0.000    0.000    0.000 
#    0.000    0.000    0.000    0.000    0.000    0.000 
#
# Total GULP energy -198219.658949 kJ/mol
# GULP energy per Si atom -12388.728684 kJ/mol
# Density = 2.111309 g / cm^3
# Si number density = 21.161257 Si / 1000 Ang^3
#
#
#
# Elastic Constant Matrix: (Units=GPa)
#
#
# Indices 1 2 3 4 5 6 
#
# 1 71.1803 46.3451 59.2297 0.0000 1.8055 0.0000
# 2 46.3451 118.4245 40.5004 0.0000 -7.0880 0.0000
# 3 59.2297 40.5004 135.0430 0.0000 6.8815 0.0000
# 4 0.0000 0.0000 0.0000 15.1741 0.0000 -20.4576
# 5 1.8055 -7.0880 6.8815 0.0000 30.9949 0.0000
# 6 0.0000 0.0000 0.0000 -20.4576 0.0000 20.2023
#
#
#
# Elastic Compliance Matrix: (Units=1/GPa)
#
#
# Indices 1 2 3 4 5 6 
#
# 1 0.026693 -0.007275 -0.009469 0.000000 -0.001116 0.000000
# 2 -0.007275 0.011640 -0.000463 0.000000 0.003188 0.000000
# 3 -0.009469 -0.000463 0.011808 0.000000 -0.002176 0.000000
# 4 0.000000 0.000000 0.000000 -0.180442 0.000000 -0.182721
# 5 -0.001116 0.003188 -0.002176 0.000000 0.033541 0.000000
# 6 0.000000 0.000000 0.000000 -0.182721 0.000000 -0.135531
#
#
# Mechanical properties :
#
#
# Convention : Reuss Voigt Hill
#
# Bulk Modulus (GPa) = 63.58029 68.53312 66.05670
# Shear Modulus (GPa) = -25.95570 25.17911 -0.38830
#
# Velocity S-wave (km/s) = -3.50604 3.45319 -0.42883
# Velocity P-wave (km/s) = 3.70420 6.95383 5.57122
#
# Compressibility (1/GPa) = 0.01572814
#
# Stress axis : x y z
#
# Youngs Moduli (GPa) = 37.46349 85.90892 84.69047
#
# Poissons Ratio (x) = 0.62496 0.80191
# Poissons Ratio (y) = 0.27253 0.03920
# Poissons Ratio (z) = 0.35473 0.03976
#
# Static dielectric constant tensor:
#      x y z
#    x 3.678830 0.000000 -0.172850 
#    y 0.000000 3.650540 0.000000 
#    z -0.172850 0.000000 4.171480 
# 
# 
# High freq. dielectric constant tensor:
#      x y z
#    x 1.802690 0.000000 -0.004380 
#    y 0.000000 1.820860 0.000000 
#    z -0.004380 0.000000 1.846390 
# 
# From -- ./inp_files/36400.got.cif
#   From: 2010.03.12/outbox.cif.g09.slc.cpg/sg5_19_cif.got.tgz:36400.got - 2010.03.31 09:47:26.
