data_PCOD8048570
_publ_section_title
;
Structure prediction by ZEFSAII (Michael W. Deem and Ramdas Pophale) SiO2 
 PCOD8048570
Probable space group: C 2
;
_chemical_formula_sum "Si O2"
_cell_formula_units_Z 32
_cell_length_a 25.326128
_cell_length_b 9.986932
_cell_length_c 8.481179
_cell_angle_alpha 90.000000
_cell_angle_beta 128.091214
_cell_angle_gamma 90.000000
_cell_volume 1688.294492
_symmetry_space_group_name_H-M "C 2"
_symmetry_group_IT_number 5
_symmetry_cell_setting 'monoclinic'
loop_
_space_group_symop_operation_xyz
x,y,z
-x,y,-z
1/2+x,1/2+y,z
1/2-x,1/2+y,-z
loop_
_atom_site_type_symbol
_atom_site_label
_atom_site_fract_x
_atom_site_fract_y
_atom_site_fract_z
Si Si1 0.555342 0.169590 0.989808
Si Si2 0.837056 0.640937 0.045202
Si Si3 0.630706 0.500285 0.518094
Si Si4 0.489706 0.405626 0.297780
Si Si5 0.781005 0.224342 0.382093
Si Si6 0.651201 0.455474 0.901985
Si Si7 0.326190 0.240651 0.567037
Si Si8 0.793640 0.505710 0.278359
O O1 0.598327 0.086022 0.938325
O O2 0.509744 0.276116 0.812736
O O3 0.500000 0.091790 0.000000
O O4 0.611862 0.241548 0.198917
O O5 0.848487 0.794211 0.119794
O O6 0.829013 0.543973 0.179466
O O7 0.770059 0.637002 0.818098
O O8 0.550468 0.499084 0.352820
O O9 0.658317 0.623231 0.464236
O O10 0.653027 0.528652 0.738218
O O11 0.664284 0.359796 0.536819
O O12 0.500000 0.362216 0.500000
O O13 0.420165 0.487785 0.146206
O O14 0.743150 0.270934 0.469837
O O15 0.812635 0.352917 0.352781
O O16 0.712348 0.512365 0.118086
O O17 0.320456 0.100342 0.465553
#
# Coordination Sequence:
#
# PCOD8048570 Si02
#       8
#     4   4   4   4   4   4   4   4
#     4  10  19  34  55  90 119 141 194 258 294 338
#     4   9  18  33  55  81 114 153 199 238 288 348
#     4  11  18  34  59  86 115 151 196 246 292 342
#     4   9  19  33  57  89 114 150 197 251 292 337
#     4  10  22  34  52  88 124 152 195 242 295 359
#     4   9  18  33  56  85 112 146 203 244 282 343
#     4  11  22  35  57  89 120 157 194 247 305 345
#     4  11  20  37  57  85 123 160 192 246 301 355
#
# _framework density 18.954039000000002
#
# number of rings (size 3 to 8) (size 9 to 14) (size 15 to 20)
#    0.000    2.000    3.750    1.500    0.000    0.000 
#    0.000    0.000    0.000    4.500    3.250    0.000 
#    0.000    0.000    0.000    0.000    0.000    0.000 
#
# Total GULP energy -198282.365784 kJ/mol
# GULP energy per Si atom -12392.647862 kJ/mol
# Density = 1.891090 g / cm^3
# Si number density = 18.954039 Si / 1000 Ang^3
#
#
#
# Elastic Constant Matrix: (Units=GPa)
#
#
# Indices 1 2 3 4 5 6 
#
# 1 149.9821 44.7687 28.5161 0.0000 11.5322 0.0000
# 2 44.7687 63.0497 23.7427 0.0000 12.0874 0.0000
# 3 28.5161 23.7427 67.8065 0.0000 9.5458 0.0000
# 4 0.0000 0.0000 0.0000 16.1591 0.0000 6.9803
# 5 11.5322 12.0874 9.5458 0.0000 29.6787 0.0000
# 6 0.0000 0.0000 0.0000 6.9803 0.0000 20.7477
#
#
#
# Elastic Compliance Matrix: (Units=1/GPa)
#
#
# Indices 1 2 3 4 5 6 
#
# 1 0.008640 -0.005390 -0.001658 0.000000 -0.000629 0.000000
# 2 -0.005390 0.022580 -0.004860 0.000000 -0.005539 0.000000
# 3 -0.001658 -0.004860 0.017573 0.000000 -0.003029 0.000000
# 4 0.000000 0.000000 0.000000 0.072408 0.000000 -0.024361
# 5 -0.000629 -0.005539 -0.003029 0.000000 0.037169 0.000000
# 6 0.000000 0.000000 0.000000 -0.024361 0.000000 0.056394
#
#
# Mechanical properties :
#
#
# Convention : Reuss Voigt Hill
#
# Bulk Modulus (GPa) = 40.03596 52.76592 46.40094
# Shear Modulus (GPa) = 20.25077 25.57112 22.91095
#
# Velocity S-wave (km/s) = 3.27221 3.67701 3.48050
# Velocity P-wave (km/s) = 5.95357 6.77691 6.37854
#
# Compressibility (1/GPa) = 0.02497754
#
# Stress axis : x y z
#
# Youngs Moduli (GPa) = 115.74263 44.28774 56.90527
#
# Poissons Ratio (x) = 0.23871 0.09433
# Poissons Ratio (y) = 0.62385 0.27655
# Poissons Ratio (z) = 0.19186 0.21523
#
# Static dielectric constant tensor:
#      x y z
#    x 3.896560 0.000000 0.050140 
#    y 0.000000 3.030160 0.000000 
#    z 0.050140 0.000000 3.482800 
# 
# 
# High freq. dielectric constant tensor:
#      x y z
#    x 1.758690 0.000000 -0.001210 
#    y 0.000000 1.681700 0.000000 
#    z -0.001210 0.000000 1.733110 
# 
# From -- ./inp_files/30886.got.cif
#   From: 2010.03.12/outbox.cif.g09.slc.cpg/sg5_16_cif.got.tgz:30886.got - 2010.03.31 09:47:26.
