data_PCOD8048322
_publ_section_title
;
Structure prediction by ZEFSAII (Michael W. Deem and Ramdas Pophale) SiO2 
 PCOD8048322
Probable space group: C 2
;
_chemical_formula_sum "Si O2"
_cell_formula_units_Z 28
_cell_length_a 16.902760
_cell_length_b 9.229615
_cell_length_c 28.242701
_cell_angle_alpha 90.000000
_cell_angle_beta 159.207669
_cell_angle_gamma 90.000000
_cell_volume 1564.060568
_symmetry_space_group_name_H-M "C 2"
_symmetry_group_IT_number 5
_symmetry_cell_setting 'monoclinic'
loop_
_space_group_symop_operation_xyz
x,y,z
-x,y,-z
1/2+x,1/2+y,z
1/2-x,1/2+y,-z
loop_
_atom_site_type_symbol
_atom_site_label
_atom_site_fract_x
_atom_site_fract_y
_atom_site_fract_z
Si Si1 0.481736 0.328640 0.680936
Si Si2 0.994944 0.250105 0.552864
Si Si3 0.791452 0.915095 0.098811
Si Si4 0.099634 0.920243 0.182651
Si Si5 0.004391 0.685096 0.057586
Si Si6 0.375679 0.734569 0.845075
Si Si7 0.143730 0.002412 0.694771
O O1 0.563960 0.413877 0.772927
O O2 0.680012 0.217138 0.775517
O O3 0.441241 0.440591 0.614220
O O4 0.251796 0.251208 0.563821
O O5 0.148531 0.368583 0.665017
O O6 0.075967 0.086423 0.609367
O O7 0.000000 0.277696 0.500000
O O8 0.951901 0.882911 0.145082
O O9 0.606275 0.787301 0.998069
O O10 0.693504 0.076234 0.038938
O O11 0.985801 0.836131 0.075263
O O12 0.097465 0.089639 0.169819
O O13 0.234177 0.610077 0.200515
O O14 0.000000 0.722091 0.000000
O O15 0.302579 0.866868 0.768740
#
# Coordination Sequence:
#
# PCOD8048322 Si02
#       7
#     4   4   4   4   4   4   4
#     4  10  20  36  65  79 112 159 191 233 281 357
#     4  11  22  39  60  86 115 153 198 237 287 338
#     4  11  18  38  60  85 114 157 184 237 294 344
#     4  11  23  35  58  89 120 145 192 245 285 337
#     4  10  18  35  58  83 114 147 192 231 285 343
#     4   9  21  37  59  83 116 149 190 233 290 347
#     4   8  20  37  61  78 111 157 191 230 284 342
#
# _framework density 17.902118999999999
#
# number of rings (size 3 to 8) (size 9 to 14) (size 15 to 20)
#    0.857    1.143    2.857    1.286    2.000    1.143 
#    0.000    0.714    6.286    0.000    0.000    0.000 
#    0.000    0.000    0.000    0.000    0.000    0.000 
#
# Total GULP energy -173451.324778 kJ/mol
# GULP energy per Si atom -12389.380341 kJ/mol
# Density = 1.786137 g / cm^3
# Si number density = 17.902119 Si / 1000 Ang^3
#
#
#
# Elastic Constant Matrix: (Units=GPa)
#
#
# Indices 1 2 3 4 5 6 
#
# 1 72.1075 19.7115 21.8235 0.0037 5.1337 -0.0008
# 2 19.7115 99.8032 28.1603 0.0051 -11.2310 0.0002
# 3 21.8235 28.1603 73.9453 0.0441 4.7666 -0.0159
# 4 0.0037 0.0051 0.0441 16.5544 -0.0084 -1.0576
# 5 5.1337 -11.2310 4.7666 -0.0084 35.1058 0.0033
# 6 -0.0008 0.0002 -0.0159 -1.0576 0.0033 24.9215
#
#
#
# Elastic Compliance Matrix: (Units=1/GPa)
#
#
# Indices 1 2 3 4 5 6 
#
# 1 0.015792 -0.002401 -0.003580 0.000005 -0.002591 -0.000001
# 2 -0.002401 0.012243 -0.004266 0.000010 0.004847 -0.000003
# 3 -0.003580 -0.004266 0.016403 -0.000043 -0.003069 0.000009
# 4 0.000005 0.000010 -0.000043 0.060571 0.000023 0.002570
# 5 -0.002591 0.004847 -0.003069 0.000023 0.030832 -0.000005
# 6 -0.000001 -0.000003 0.000009 0.002570 -0.000005 0.040235
#
#
# Mechanical properties :
#
#
# Convention : Reuss Voigt Hill
#
# Bulk Modulus (GPa) = 41.76289 42.80518 42.28404
# Shear Modulus (GPa) = 24.44381 27.06039 25.75210
#
# Velocity S-wave (km/s) = 3.69916 3.89212 3.79686
# Velocity P-wave (km/s) = 6.45168 6.64535 6.54923
#
# Compressibility (1/GPa) = 0.02394470
#
# Stress axis : x y z
#
# Youngs Moduli (GPa) = 63.32213 81.67848 60.96612
#
# Poissons Ratio (x) = 0.19608 0.21823
# Poissons Ratio (y) = 0.15201 0.26011
# Poissons Ratio (z) = 0.22666 0.34848
#
# Static dielectric constant tensor:
#      x y z
#    x 3.232440 0.000010 0.027760 
#    y 0.000010 3.215120 -0.000010 
#    z 0.027760 -0.000010 3.327090 
# 
# 
# High freq. dielectric constant tensor:
#      x y z
#    x 1.689280 0.000000 0.003120 
#    y 0.000000 1.681060 0.000000 
#    z 0.003120 0.000000 1.687860 
# 
# From -- ./inp_files/72094.got.cif
#   From: 2010.03.12/outbox.cif.g09.slc.cpg/sg5_37_cif.got.tgz:72094.got - 2010.03.31 09:47:26.
