data_PCOD8048017
_publ_section_title
;
Structure prediction by ZEFSAII (Michael W. Deem and Ramdas Pophale) SiO2 
 PCOD8048017
Probable space group: P 21
;
_chemical_formula_sum "Si O2"
_cell_formula_units_Z 16
_cell_length_a 6.508039
_cell_length_b 8.956926
_cell_length_c 11.831070
_cell_angle_alpha 90.000000
_cell_angle_beta 90.051586
_cell_angle_gamma 90.000000
_cell_volume 689.656734
_symmetry_space_group_name_H-M "P 21"
_symmetry_group_IT_number 4
_symmetry_cell_setting 'monoclinic'
loop_
_space_group_symop_operation_xyz
x,y,z
-x,1/2+y,-z
loop_
_atom_site_type_symbol
_atom_site_label
_atom_site_fract_x
_atom_site_fract_y
_atom_site_fract_z
Si Si1 0.680304 0.482920 0.018682
Si Si2 0.175722 0.335818 0.738185
Si Si3 0.319874 0.482203 0.518653
Si Si4 0.176138 0.835773 0.761660
Si Si5 0.426022 0.208443 0.363942
Si Si6 0.899504 0.082436 0.682940
Si Si7 0.573976 0.208939 0.864085
Si Si8 0.900160 0.582643 0.817468
O O1 0.783413 0.451832 0.138285
O O2 0.473541 0.571069 0.051888
O O3 0.664740 0.335853 0.943660
O O4 0.812956 0.598740 0.944257
O O5 0.215039 0.451533 0.637784
O O6 0.378278 0.294164 0.808962
O O7 0.101942 0.180847 0.687188
O O8 0.983656 0.412345 0.803653
O O9 0.335505 0.334734 0.444095
O O10 0.526795 0.569738 0.552729
O O11 0.188827 0.598476 0.443671
O O12 0.378067 0.793951 0.690583
O O13 0.102723 0.680950 0.813041
O O14 0.983384 0.912153 0.696468
O O15 0.273129 0.139051 0.270768
O O16 0.726833 0.138583 0.771449
#
# Coordination Sequence:
#
# PCOD8048017 Si02
#       8
#     2   2   2   2   2   2   2   2
#     4  12  28  46  82 102 154 198 240 310 384 436
#     4  12  28  50  74 110 151 195 254 309 368 453
#     4  12  28  46  82 102 154 198 240 310 384 436
#     4  12  28  50  74 110 151 195 254 309 368 453
#     4  12  28  52  72 116 148 196 252 312 370 452
#     4  12  28  50  74 110 151 195 254 309 368 453
#     4  12  28  52  72 116 148 196 252 312 370 452
#     4  12  28  50  74 110 151 195 254 309 368 453
#
# _framework density 23.199946000000001
#
# number of rings (size 3 to 8) (size 9 to 14) (size 15 to 20)
#    0.000    0.000    5.000    3.000   14.000    0.000 
#    0.000    0.000    0.000    0.000    0.000    0.000 
#    0.000    0.000    0.000    0.000    0.000    0.000 
#
# Total GULP energy -198249.686987 kJ/mol
# GULP energy per Si atom -12390.605437 kJ/mol
# Density = 2.314714 g / cm^3
# Si number density = 23.199946 Si / 1000 Ang^3
#
#
#
# Elastic Constant Matrix: (Units=GPa)
#
#
# Indices 1 2 3 4 5 6 
#
# 1 80.9408 16.8057 16.3414 0.0000 4.6559 0.0000
# 2 16.8057 76.6068 9.3243 0.0000 0.7463 0.0000
# 3 16.3414 9.3243 64.4408 0.0000 -3.4241 0.0000
# 4 0.0000 0.0000 0.0000 52.8636 0.0000 -0.2627
# 5 4.6559 0.7463 -3.4241 0.0000 7.2478 0.0000
# 6 0.0000 0.0000 0.0000 -0.2627 0.0000 50.8733
#
#
#
# Elastic Compliance Matrix: (Units=1/GPa)
#
#
# Indices 1 2 3 4 5 6 
#
# 1 0.014274 -0.002562 -0.003818 0.000000 -0.010709 0.000000
# 2 -0.002562 0.013786 -0.001367 0.000000 -0.000420 0.000000
# 3 -0.003818 -0.001367 0.017255 0.000000 0.010745 0.000000
# 4 0.000000 0.000000 0.000000 0.018917 0.000000 0.000098
# 5 -0.010709 -0.000420 0.010745 0.000000 0.149973 0.000000
# 6 0.000000 0.000000 0.000000 0.000098 0.000000 0.019657
#
#
# Mechanical properties :
#
#
# Convention : Reuss Voigt Hill
#
# Bulk Modulus (GPa) = 33.53460 34.10346 33.81903
# Shear Modulus (GPa) = 19.28292 34.16474 26.72383
#
# Velocity S-wave (km/s) = 2.88612 3.84164 3.39764
# Velocity P-wave (km/s) = 5.05887 5.86594 5.47729
#
# Compressibility (1/GPa) = 0.02981995
#
# Stress axis : x y z
#
# Youngs Moduli (GPa) = 70.05986 72.53589 57.95398
#
# Poissons Ratio (x) = 0.18585 0.22126
# Poissons Ratio (y) = 0.17951 0.07924
# Poissons Ratio (z) = 0.26748 0.09918
#
# Static dielectric constant tensor:
#      x y z
#    x 4.121600 0.000000 -0.019800 
#    y 0.000000 4.511370 0.000000 
#    z -0.019800 0.000000 4.330020 
# 
# 
# High freq. dielectric constant tensor:
#      x y z
#    x 1.919670 0.000000 -0.000710 
#    y 0.000000 1.938700 0.000000 
#    z -0.000710 0.000000 1.925930 
# 
# From -- ./inp_files/2571.got.cif
#   From: 2010.03.12/outbox.cif.g09.slc.cpg/sg4_2_cif.got.tgz:2571.got - 2010.03.31 09:31:35.
