data_PCOD8048781
_publ_section_title
;
Structure prediction by ZEFSAII (Michael W. Deem and Ramdas Pophale) SiO2 
 PCOD8048781
Probable space group: C 2
;
_chemical_formula_sum "Si O2"
_cell_formula_units_Z 20
_cell_length_a 12.684079
_cell_length_b 14.705942
_cell_length_c 9.952164
_cell_angle_alpha 90.000000
_cell_angle_beta 35.994727
_cell_angle_gamma 90.000000
_cell_volume 1091.020671
_symmetry_space_group_name_H-M "C 2"
_symmetry_group_IT_number 5
_symmetry_cell_setting 'monoclinic'
loop_
_space_group_symop_operation_xyz
x,y,z
-x,y,-z
1/2+x,1/2+y,z
1/2-x,1/2+y,-z
loop_
_atom_site_type_symbol
_atom_site_label
_atom_site_fract_x
_atom_site_fract_y
_atom_site_fract_z
Si Si1 0.000000 0.943550 0.500000
Si Si2 0.464820 0.088081 0.192607
Si Si3 0.357587 0.574165 0.874589
Si Si4 0.350626 0.892483 0.267216
Si Si5 0.347594 0.703651 0.379103
Si Si6 0.000000 0.098358 0.000000
O O1 0.153985 0.881811 0.405052
O O2 0.096805 0.001188 0.284777
O O3 0.335478 0.170686 0.363971
O O4 0.371199 0.990272 0.319617
O O5 0.500000 0.095549 0.000000
O O6 0.648204 0.098090 0.086015
O O7 0.478325 0.663988 0.720961
O O8 0.405726 0.538976 0.977837
O O9 0.363315 0.812856 0.364710
O O10 0.500000 0.879697 0.000000
O O11 0.351149 0.664543 0.222436
#
# Coordination Sequence:
#
# PCOD8048781 Si02
#       6
#     2   4   4   4   4   2
#     4  12  20  36  70  90 122 166 222 262 298 376
#     4  11  21  37  67  90 122 173 216 251 320 375
#     4  10  19  38  58  90 126 164 203 260 314 367
#     4  11  20  36  62  99 117 162 220 261 303 379
#     4  10  21  38  58  94 130 157 210 262 312 370
#     4   8  20  34  56  88 124 162 190 258 316 354
#
# _framework density 18.331458000000001
#
# number of rings (size 3 to 8) (size 9 to 14) (size 15 to 20)
#    1.200    0.400    7.000    0.000    0.000    4.000 
#    0.000    0.000    8.800    9.600    0.000    0.000 
#    0.000    0.000    0.000    0.000    0.000    0.000 
#
# Total GULP energy -123907.437480 kJ/mol
# GULP energy per Si atom -12390.743748 kJ/mol
# Density = 1.828973 g / cm^3
# Si number density = 18.331458 Si / 1000 Ang^3
#
#
#
# Elastic Constant Matrix: (Units=GPa)
#
#
# Indices 1 2 3 4 5 6 
#
# 1 88.9445 8.0169 22.8552 0.0002 -19.7052 -0.0002
# 2 8.0169 80.6866 29.6185 0.0013 -3.0397 -0.0006
# 3 22.8552 29.6185 82.7105 0.0013 -21.3820 -0.0004
# 4 0.0002 0.0013 0.0013 19.7121 -0.0004 -0.7843
# 5 -19.7052 -3.0397 -21.3820 -0.0004 46.1167 0.0001
# 6 -0.0002 -0.0006 -0.0004 -0.7843 0.0001 17.7969
#
#
#
# Elastic Compliance Matrix: (Units=1/GPa)
#
#
# Indices 1 2 3 4 5 6 
#
# 1 0.012835 -0.000259 -0.002319 0.000000 0.004392 0.000000
# 2 -0.000259 0.014382 -0.005524 -0.000001 -0.001724 0.000000
# 3 -0.002319 -0.005524 0.016315 -0.000001 0.006209 0.000000
# 4 0.000000 -0.000001 -0.000001 0.050819 0.000000 0.002239
# 5 0.004392 -0.001724 0.006209 0.000000 0.026326 0.000000
# 6 0.000000 0.000000 0.000000 0.002239 0.000000 0.056288
#
#
# Mechanical properties :
#
#
# Convention : Reuss Voigt Hill
#
# Bulk Modulus (GPa) = 36.59184 41.48034 39.03609
# Shear Modulus (GPa) = 24.71836 29.51523 27.11679
#
# Velocity S-wave (km/s) = 3.67606 4.01694 3.85027
# Velocity P-wave (km/s) = 6.16623 6.64767 6.41147
#
# Compressibility (1/GPa) = 0.02732850
#
# Stress axis : x y z
#
# Youngs Moduli (GPa) = 77.91105 69.52984 61.29484
#
# Poissons Ratio (x) = 0.01799 0.14212
# Poissons Ratio (y) = 0.02016 0.33862
# Poissons Ratio (z) = 0.18064 0.38412
#
# Static dielectric constant tensor:
#      x y z
#    x 3.389840 0.000000 -0.151380 
#    y 0.000000 3.191640 0.000000 
#    z -0.151380 0.000000 3.483760 
# 
# 
# High freq. dielectric constant tensor:
#      x y z
#    x 1.700340 0.000000 -0.012480 
#    y 0.000000 1.682200 0.000000 
#    z -0.012480 0.000000 1.719630 
# 
# From -- ./inp_files/42633.got.cif
#   From: 2010.03.12/outbox.cif.g09.slc.cpg/sg5_22_cif.got.tgz:42633.got - 2010.03.31 09:47:26.
