data_PCOD8048300
_publ_section_title
;
Structure prediction by ZEFSAII (Michael W. Deem and Ramdas Pophale) SiO2 
 PCOD8048300
Probable space group: C 2
;
_chemical_formula_sum "Si O2"
_cell_formula_units_Z 28
_cell_length_a 14.355059
_cell_length_b 7.792595
_cell_length_c 22.585345
_cell_angle_alpha 90.000000
_cell_angle_beta 29.571027
_cell_angle_gamma 90.000000
_cell_volume 1246.817361
_symmetry_space_group_name_H-M "C 2"
_symmetry_group_IT_number 5
_symmetry_cell_setting 'monoclinic'
loop_
_space_group_symop_operation_xyz
x,y,z
-x,y,-z
1/2+x,1/2+y,z
1/2-x,1/2+y,-z
loop_
_atom_site_type_symbol
_atom_site_label
_atom_site_fract_x
_atom_site_fract_y
_atom_site_fract_z
Si Si1 0.721089 0.195460 0.771885
Si Si2 0.500000 0.269507 0.000000
Si Si3 0.864886 0.758925 0.368982
Si Si4 0.294612 0.970186 0.319524
Si Si5 0.500000 0.190389 0.500000
Si Si6 0.470141 0.977938 0.402364
Si Si7 0.771642 0.483792 0.934171
Si Si8 0.098504 0.838578 0.137804
O O1 0.627813 0.149604 0.887062
O O2 0.567126 0.274479 0.813312
O O3 0.884796 0.330130 0.695654
O O4 0.788154 0.022280 0.700396
O O5 0.629103 0.386311 0.970538
O O6 0.754675 0.633952 0.384230
O O7 0.732750 0.886163 0.479107
O O8 0.974143 0.627679 0.351509
O O9 0.006144 0.885463 0.252885
O O10 0.514611 0.916636 0.194256
O O11 0.184747 0.807480 0.406155
O O12 0.535362 0.064411 0.426470
O O13 0.758787 0.683502 0.926254
O O14 0.715524 0.478478 0.035904
#
# Coordination Sequence:
#
# PCOD8048300 Si02
#       8
#     4   2   4   4   2   4   4   4
#     4   9  19  36  59  83 115 152 194 243 290 342
#     4  10  18  34  62  88 112 156 196 236 296 348
#     4  10  22  39  58  84 118 152 195 247 293 345
#     4  10  21  40  59  87 120 155 197 245 288 347
#     4  12  24  38  60  86 116 160 202 240 294 350
#     4  12  23  39  59  86 115 155 199 243 296 351
#     4   9  19  35  58  84 116 152 194 240 290 346
#     4   9  19  36  56  84 116 151 190 237 288 343
#
# _framework density 22.457177000000001
#
# number of rings (size 3 to 8) (size 9 to 14) (size 15 to 20)
#    0.000    2.286    0.000    5.143    0.000    3.429 
#    0.000    7.143    0.000    3.429    0.000    0.000 
#    0.000    0.000    0.000    0.000    0.000    0.000 
#
# Total GULP energy -173443.966467 kJ/mol
# GULP energy per Si atom -12388.854748 kJ/mol
# Density = 2.240606 g / cm^3
# Si number density = 22.457177 Si / 1000 Ang^3
#
#
#
# Elastic Constant Matrix: (Units=GPa)
#
#
# Indices 1 2 3 4 5 6 
#
# 1 78.0069 10.2195 28.5213 -0.0001 20.7891 0.0000
# 2 10.2195 32.7704 19.0849 -0.0002 -1.9504 0.0000
# 3 28.5213 19.0849 104.3871 -0.0028 20.6425 0.0003
# 4 -0.0001 -0.0002 -0.0028 23.9692 0.0006 5.0236
# 5 20.7891 -1.9504 20.6425 0.0006 37.1266 0.0001
# 6 0.0000 0.0000 0.0003 5.0236 0.0001 34.6201
#
#
#
# Elastic Compliance Matrix: (Units=1/GPa)
#
#
# Indices 1 2 3 4 5 6 
#
# 1 0.016337 -0.004406 -0.002026 0.000000 -0.008253 0.000000
# 2 -0.004406 0.036537 -0.007127 -0.000001 0.008349 0.000000
# 3 -0.002026 -0.007127 0.012680 0.000002 -0.006290 0.000000
# 4 0.000000 -0.000001 0.000002 0.043029 -0.000002 -0.006244
# 5 -0.008253 0.008349 -0.006290 -0.000002 0.035492 0.000000
# 6 0.000000 0.000000 0.000000 -0.006244 0.000000 0.029791
#
#
# Mechanical properties :
#
#
# Convention : Reuss Voigt Hill
#
# Bulk Modulus (GPa) = 26.01759 36.75731 31.38745
# Shear Modulus (GPa) = 23.38679 29.63245 26.50962
#
# Velocity S-wave (km/s) = 3.23057 3.63645 3.43950
# Velocity P-wave (km/s) = 5.05232 5.83395 5.45715
#
# Compressibility (1/GPa) = 0.03843554
#
# Stress axis : x y z
#
# Youngs Moduli (GPa) = 61.21166 27.36952 78.86275
#
# Poissons Ratio (x) = 0.12058 0.15979
# Poissons Ratio (y) = 0.26969 0.56208
# Poissons Ratio (z) = 0.12402 0.19507
#
# Static dielectric constant tensor:
#      x y z
#    x 4.225450 0.000000 0.617720 
#    y 0.000000 4.069270 0.000000 
#    z 0.617720 0.000000 4.612060 
# 
# 
# High freq. dielectric constant tensor:
#      x y z
#    x 1.877410 0.000000 0.021690 
#    y 0.000000 1.858540 0.000000 
#    z 0.021690 0.000000 1.902770 
# 
# From -- ./inp_files/68643.got.cif
#   From: 2010.03.12/outbox.cif.g09.slc.cpg/sg5_35_cif.got.tgz:68643.got - 2010.03.31 09:47:26.
