data_PCOD8048487
_publ_section_title
;
Structure prediction by ZEFSAII (Michael W. Deem and Ramdas Pophale) SiO2 
 PCOD8048487
Probable space group: C 2
;
_chemical_formula_sum "Si O2"
_cell_formula_units_Z 22
_cell_length_a 21.560914
_cell_length_b 8.823684
_cell_length_c 7.621232
_cell_angle_alpha 90.000000
_cell_angle_beta 44.730532
_cell_angle_gamma 90.000000
_cell_volume 1020.410995
_symmetry_space_group_name_H-M "C 2"
_symmetry_group_IT_number 5
_symmetry_cell_setting 'monoclinic'
loop_
_space_group_symop_operation_xyz
x,y,z
-x,y,-z
1/2+x,1/2+y,z
1/2-x,1/2+y,-z
loop_
_atom_site_type_symbol
_atom_site_label
_atom_site_fract_x
_atom_site_fract_y
_atom_site_fract_z
Si Si1 0.672871 0.583110 0.003179
Si Si2 0.000000 0.952339 0.000000
Si Si3 0.000000 0.452838 0.000000
Si Si4 0.550762 0.214764 0.138681
Si Si5 0.000000 0.932288 0.500000
Si Si6 0.368528 0.690841 0.305465
Si Si7 0.239063 0.758023 0.869883
O O1 0.579837 0.536685 0.276729
O O2 0.714294 0.711364 0.043432
O O3 0.660448 0.649729 0.833828
O O4 0.738103 0.439954 0.865862
O O5 0.071631 0.840768 0.946532
O O6 0.939100 0.066819 0.238331
O O7 0.086368 0.355348 0.787543
O O8 0.985760 0.556288 0.856852
O O9 0.475430 0.309009 0.396673
O O10 0.640347 0.189199 0.066782
O O11 0.287217 0.692283 0.601098
#
# Coordination Sequence:
#
# PCOD8048487 Si02
#       7
#     4   2   2   4   2   4   4
#     4  11  26  45  67 102 129 181 220 270 331 395
#     4  10  18  44  66  88 126 174 228 250 324 398
#     4  10  26  40  64 102 126 170 226 264 330 388
#     4  10  22  42  66  96 128 174 218 270 325 387
#     4  10  20  46  68  94 132 174 226 258 324 404
#     4  11  24  44  67  98 132 175 220 275 331 388
#     4  11  26  43  68  97 138 171 219 276 334 387
#
# _framework density 21.559937999999999
#
# number of rings (size 3 to 8) (size 9 to 14) (size 15 to 20)
#    0.000    1.455    3.636    1.091    7.636    2.909 
#    6.545    0.000    0.000    0.000    0.000    0.000 
#    0.000    0.000    0.000    0.000    0.000    0.000 
#
# Total GULP energy -136282.217770 kJ/mol
# GULP energy per Si atom -12389.292525 kJ/mol
# Density = 2.151087 g / cm^3
# Si number density = 21.559938 Si / 1000 Ang^3
#
#
#
# Elastic Constant Matrix: (Units=GPa)
#
#
# Indices 1 2 3 4 5 6 
#
# 1 109.1276 52.0145 31.3474 0.0000 -7.0899 0.0000
# 2 52.0145 132.3812 25.5818 0.0000 -6.9864 0.0000
# 3 31.3474 25.5818 93.2187 0.0000 3.1548 0.0000
# 4 0.0000 0.0000 0.0000 23.3533 0.0000 3.9952
# 5 -7.0899 -6.9864 3.1548 0.0000 20.8822 0.0000
# 6 0.0000 0.0000 0.0000 3.9952 0.0000 42.9808
#
#
#
# Elastic Compliance Matrix: (Units=1/GPa)
#
#
# Indices 1 2 3 4 5 6 
#
# 1 0.012181 -0.004014 -0.003105 0.000000 0.003262 0.000000
# 2 -0.004014 0.009493 -0.001324 0.000000 0.002013 0.000000
# 3 -0.003105 -0.001324 0.012248 0.000000 -0.003347 0.000000
# 4 0.000000 0.000000 0.000000 0.043512 0.000000 -0.004045
# 5 0.003262 0.002013 -0.003347 0.000000 0.050174 0.000000
# 6 0.000000 0.000000 0.000000 -0.004045 0.000000 0.023642
#
#
# Mechanical properties :
#
#
# Convention : Reuss Voigt Hill
#
# Bulk Modulus (GPa) = 58.69529 61.40165 60.04847
# Shear Modulus (GPa) = 28.76636 32.49550 30.63093
#
# Velocity S-wave (km/s) = 3.65670 3.88650 3.77335
# Velocity P-wave (km/s) = 6.71654 6.97719 6.84811
#
# Compressibility (1/GPa) = 0.01703714
#
# Stress axis : x y z
#
# Youngs Moduli (GPa) = 82.09830 105.34054 81.64541
#
# Poissons Ratio (x) = 0.42281 0.25350
# Poissons Ratio (y) = 0.32952 0.10806
# Poissons Ratio (z) = 0.25491 0.13942
#
# Static dielectric constant tensor:
#      x y z
#    x 4.284770 0.000000 0.223110 
#    y 0.000000 4.030820 0.000000 
#    z 0.223110 0.000000 3.798600 
# 
# 
# High freq. dielectric constant tensor:
#      x y z
#    x 1.852000 0.000000 0.005860 
#    y 0.000000 1.857780 0.000000 
#    z 0.005860 0.000000 1.833030 
# 
# From -- ./inp_files/22684.got.cif
#   From: 2010.03.12/outbox.cif.g09.slc.cpg/sg5_12_cif.got.tgz:22684.got - 2010.03.31 09:47:26.
