data_PCOD8048178
_publ_section_title
;
Structure prediction by ZEFSAII (Michael W. Deem and Ramdas Pophale) SiO2 
 PCOD8048178
Probable space group: C 2
;
_chemical_formula_sum "Si O2"
_cell_formula_units_Z 30
_cell_length_a 5.264260
_cell_length_b 30.638526
_cell_length_c 10.696931
_cell_angle_alpha 90.000000
_cell_angle_beta 112.959433
_cell_angle_gamma 90.000000
_cell_volume 1588.623088
_symmetry_space_group_name_H-M "C 2"
_symmetry_group_IT_number 5
_symmetry_cell_setting 'monoclinic'
loop_
_space_group_symop_operation_xyz
x,y,z
-x,y,-z
1/2+x,1/2+y,z
1/2-x,1/2+y,-z
loop_
_atom_site_type_symbol
_atom_site_label
_atom_site_fract_x
_atom_site_fract_y
_atom_site_fract_z
Si Si1 0.500000 0.977700 0.500000
Si Si2 0.140247 0.640857 0.657045
Si Si3 0.147903 0.506150 0.157340
Si Si4 0.856921 0.831761 0.339663
Si Si5 0.773538 0.930820 0.350860
Si Si6 0.642222 0.785276 0.661575
Si Si7 0.277084 0.540837 0.718527
Si Si8 0.643072 0.685943 0.661840
O O1 0.509220 0.945374 0.381522
O O2 0.745648 0.011430 0.585872
O O3 0.192736 0.589941 0.675429
O O4 0.431675 0.666338 0.723540
O O5 0.000000 0.653050 0.500000
O O6 0.928083 0.658287 0.722011
O O7 0.289840 0.461419 0.232905
O O8 0.400497 0.539684 0.181204
O O9 0.926678 0.524576 0.212079
O O10 0.000000 0.495613 0.000000
O O11 0.776862 0.881907 0.300199
O O12 0.573488 0.804351 0.278707
O O13 0.000000 0.826552 0.500000
O O14 0.074805 0.813615 0.279730
O O15 0.000000 0.940619 0.500000
O O16 0.500000 0.788579 0.500000
O O17 0.713996 0.735744 0.710206
O O18 0.500000 0.682775 0.500000
#
# Coordination Sequence:
#
# PCOD8048178 Si02
#       8
#     2   4   4   4   4   4   4   4
#     4  10  20  32  52  78 104 136 178 230 272 300
#     4  10  18  29  47  75 100 135 176 218 257 308
#     4  11  24  39  55  76 110 148 179 219 270 323
#     4   9  18  25  44  65  96 130 175 213 249 306
#     4  10  20  33  53  77 106 137 185 224 262 308
#     4   9  16  28  39  64  98 141 167 197 258 322
#     4  11  21  36  55  76 107 137 183 224 269 310
#     4   9  17  27  43  64 104 139 170 205 261 323
#
# _framework density 18.884277000000001
#
# number of rings (size 3 to 8) (size 9 to 14) (size 15 to 20)
#    0.000    2.133    2.000    2.000    4.667    3.200 
#    0.000    0.000    0.000    0.000    0.000    0.000 
#    0.000   21.333    0.000    0.000    0.000    0.000 
#
# Total GULP energy -185847.442035 kJ/mol
# GULP energy per Si atom -12389.829469 kJ/mol
# Density = 1.884130 g / cm^3
# Si number density = 18.884277 Si / 1000 Ang^3
#
#
#
# Elastic Constant Matrix: (Units=GPa)
#
#
# Indices 1 2 3 4 5 6 
#
# 1 150.6259 66.6231 15.1168 0.0000 10.5839 0.0000
# 2 66.6231 130.6826 10.4563 0.0000 3.4986 0.0000
# 3 15.1168 10.4563 34.9065 0.0000 6.9189 0.0000
# 4 0.0000 0.0000 0.0000 5.0752 0.0000 1.1964
# 5 10.5839 3.4986 6.9189 0.0000 12.9310 0.0000
# 6 0.0000 0.0000 0.0000 1.1964 0.0000 28.9777
#
#
#
# Elastic Compliance Matrix: (Units=1/GPa)
#
#
# Indices 1 2 3 4 5 6 
#
# 1 0.009113 -0.004376 -0.001557 0.000000 -0.005442 0.000000
# 2 -0.004376 0.009952 -0.001412 0.000000 0.001644 0.000000
# 3 -0.001557 -0.001412 0.032907 0.000000 -0.015951 0.000000
# 4 0.000000 0.000000 0.000000 0.198973 0.000000 -0.008215
# 5 -0.005442 0.001644 -0.015951 0.000000 0.089878 0.000000
# 6 0.000000 0.000000 0.000000 -0.008215 0.000000 0.034848
#
#
# Mechanical properties :
#
#
# Convention : Reuss Voigt Hill
#
# Bulk Modulus (GPa) = 26.82256 55.62304 41.22280
# Shear Modulus (GPa) = 12.41347 24.33137 18.37242
#
# Velocity S-wave (km/s) = 2.56665 3.59339 3.12251
# Velocity P-wave (km/s) = 4.79772 6.83631 5.90565
#
# Compressibility (1/GPa) = 0.03728205
#
# Stress axis : x y z
#
# Youngs Moduli (GPa) = 109.73369 100.48432 30.38872
#
# Poissons Ratio (x) = 0.43968 0.04732
# Poissons Ratio (y) = 0.48015 0.04291
# Poissons Ratio (z) = 0.17087 0.14190
#
# Static dielectric constant tensor:
#      x y z
#    x 4.117200 0.000000 0.065460 
#    y 0.000000 3.481800 0.000000 
#    z 0.065460 0.000000 2.862140 
# 
# 
# High freq. dielectric constant tensor:
#      x y z
#    x 1.752210 0.000000 0.011990 
#    y 0.000000 1.744030 0.000000 
#    z 0.011990 0.000000 1.652970 
# 
# From -- ./inp_files/34351.got.cif
#   From: 2010.03.12/outbox.cif.g09.slc.cpg/sg5_18_cif.got.tgz:34351.got - 2010.03.31 09:47:26.
