data_PCOD8048062
_publ_section_title
;
Structure prediction by ZEFSAII (Michael W. Deem and Ramdas Pophale) SiO2 
 PCOD8048062
Probable space group: C 2
;
_chemical_formula_sum "Si O2"
_cell_formula_units_Z 24
_cell_length_a 12.095229
_cell_length_b 13.241558
_cell_length_c 8.866170
_cell_angle_alpha 90.000000
_cell_angle_beta 71.722489
_cell_angle_gamma 90.000000
_cell_volume 1348.361852
_symmetry_space_group_name_H-M "C 2"
_symmetry_group_IT_number 5
_symmetry_cell_setting 'monoclinic'
loop_
_space_group_symop_operation_xyz
x,y,z
-x,y,-z
1/2+x,1/2+y,z
1/2-x,1/2+y,-z
loop_
_atom_site_type_symbol
_atom_site_label
_atom_site_fract_x
_atom_site_fract_y
_atom_site_fract_z
Si Si1 0.000000 0.291291 0.000000
Si Si2 0.900543 0.416490 0.797736
Si Si3 0.379570 0.273219 0.465641
Si Si4 0.849569 0.187379 0.319216
Si Si5 0.000000 0.275488 0.500000
Si Si6 0.925940 0.562172 0.383749
Si Si7 0.276283 0.467092 0.355094
O O1 0.071129 0.226001 0.850894
O O2 0.902361 0.359139 0.956240
O O3 0.938239 0.344529 0.647010
O O4 0.774367 0.452504 0.794264
O O5 0.993603 0.508404 0.775374
O O6 0.500000 0.297839 0.500000
O O7 0.277740 0.241483 0.629545
O O8 0.388087 0.175290 0.348999
O O9 0.349850 0.370625 0.377155
O O10 0.903565 0.207823 0.460278
O O11 0.852580 0.066933 0.303454
O O12 0.820079 0.487826 0.473545
O O13 0.000000 0.583918 0.500000
#
# Coordination Sequence:
#
# PCOD8048062 Si02
#       7
#     2   4   4   4   2   4   4
#     4  10  22  36  56  78 110 146 192 222 262 330
#     4  10  16  34  57  78 102 146 190 229 260 308
#     4  10  19  32  54  87 111 137 178 233 276 321
#     4  10  21  35  56  84 110 143 182 230 274 321
#     4  10  16  32  58  80 100 136 204 228 256 308
#     4   8  15  29  53  78 103 133 181 232 260 300
#     4  10  17  31  53  79 112 141 172 226 285 316
#
# _framework density 17.799377
#
# number of rings (size 3 to 8) (size 9 to 14) (size 15 to 20)
#    0.000    2.333    4.167    2.000    1.167    0.000 
#    0.000    3.333    0.000    1.000    0.000    0.000 
#    0.000    0.000    0.000    0.000    0.000    0.000 
#
# Total GULP energy -148662.441134 kJ/mol
# GULP energy per Si atom -12388.536761 kJ/mol
# Density = 1.775887 g / cm^3
# Si number density = 17.799377 Si / 1000 Ang^3
#
#
#
# Elastic Constant Matrix: (Units=GPa)
#
#
# Indices 1 2 3 4 5 6 
#
# 1 102.5243 54.9080 29.8215 0.0000 3.0526 0.0000
# 2 54.9080 139.6582 35.1369 0.0000 8.6580 0.0000
# 3 29.8215 35.1369 56.2401 0.0000 4.0934 0.0000
# 4 0.0000 0.0000 0.0000 12.8383 0.0000 -2.2402
# 5 3.0526 8.6580 4.0934 0.0000 21.4191 0.0000
# 6 0.0000 0.0000 0.0000 -2.2402 0.0000 40.3132
#
#
#
# Elastic Compliance Matrix: (Units=1/GPa)
#
#
# Indices 1 2 3 4 5 6 
#
# 1 0.013248 -0.004116 -0.004500 0.000000 0.000636 0.000000
# 2 -0.004116 0.009904 -0.003809 0.000000 -0.002689 0.000000
# 3 -0.004500 -0.003809 0.022704 0.000000 -0.002158 0.000000
# 4 0.000000 0.000000 0.000000 0.078655 0.000000 0.004371
# 5 0.000636 -0.002689 -0.002158 0.000000 0.048096 0.000000
# 6 0.000000 0.000000 0.000000 0.004371 0.000000 0.025049
#
#
# Mechanical properties :
#
#
# Convention : Reuss Voigt Hill
#
# Bulk Modulus (GPa) = 47.60572 59.79503 53.70038
# Shear Modulus (GPa) = 21.78593 26.81787 24.30190
#
# Velocity S-wave (km/s) = 3.50233 3.88580 3.69904
# Velocity P-wave (km/s) = 6.56954 7.33481 6.96270
#
# Compressibility (1/GPa) = 0.02100588
#
# Stress axis : x y z
#
# Youngs Moduli (GPa) = 75.48314 100.97320 44.04553
#
# Poissons Ratio (x) = 0.41560 0.19819
# Poissons Ratio (y) = 0.31068 0.16778
# Poissons Ratio (z) = 0.33964 0.38463
#
# Static dielectric constant tensor:
#      x y z
#    x 3.785160 0.000000 0.154660 
#    y 0.000000 3.634330 0.000000 
#    z 0.154660 0.000000 2.886900 
# 
# 
# High freq. dielectric constant tensor:
#      x y z
#    x 1.690620 0.000000 0.002380 
#    y 0.000000 1.707810 0.000000 
#    z 0.002380 0.000000 1.634800 
# 
# From -- ./inp_files/19310.got.cif
#   From: 2010.03.12/outbox.cif.g09.slc.cpg/sg5_10_cif.got.tgz:19310.got - 2010.03.31 09:47:26.
