data_PCOD8048303
_publ_section_title
;
Structure prediction by ZEFSAII (Michael W. Deem and Ramdas Pophale) SiO2 
 PCOD8048303
Probable space group: C 2
;
_chemical_formula_sum "Si O2"
_cell_formula_units_Z 20
_cell_length_a 27.903738
_cell_length_b 4.985994
_cell_length_c 7.900428
_cell_angle_alpha 90.000000
_cell_angle_beta 106.445820
_cell_angle_gamma 90.000000
_cell_volume 1054.200354
_symmetry_space_group_name_H-M "C 2"
_symmetry_group_IT_number 5
_symmetry_cell_setting 'monoclinic'
loop_
_space_group_symop_operation_xyz
x,y,z
-x,y,-z
1/2+x,1/2+y,z
1/2-x,1/2+y,-z
loop_
_atom_site_type_symbol
_atom_site_label
_atom_site_fract_x
_atom_site_fract_y
_atom_site_fract_z
Si Si1 0.123682 0.895820 0.764160
Si Si2 0.717805 0.162153 0.967795
Si Si3 0.043950 0.913538 0.411730
Si Si4 0.456050 0.910757 0.823839
Si Si5 0.623682 0.928425 0.983175
O O1 0.180493 0.785150 0.785309
O O2 0.095959 0.958748 0.561922
O O3 0.095060 0.662110 0.845035
O O4 0.126338 0.162106 0.876340
O O5 0.750008 0.912173 0.927619
O O6 0.680491 0.039113 0.075638
O O7 0.051004 0.662150 0.300998
O O8 0.000000 0.865964 0.500000
O O9 0.030407 0.162151 0.280406
O O10 0.404042 0.865541 0.870023
O O11 0.500000 0.958331 0.000000
#
# Coordination Sequence:
#
# PCOD8048303 Si02
#       5
#     4   4   4   4   4
#     4  10  20  36  60  88 117 150 203 237 293 343
#     4  10  18  34  62  92 110 150 202 250 282 344
#     4  12  24  39  60  87 125 159 196 239 293 351
#     4  12  24  39  60  87 125 159 196 239 293 351
#     4  10  20  36  60  88 117 150 203 237 293 343
#
# _framework density 18.971724999999999
#
# number of rings (size 3 to 8) (size 9 to 14) (size 15 to 20)
#    1.200    0.000    2.000    6.000    0.000    0.000 
#    0.000    0.000    0.000    4.800    0.000    0.000 
#    0.000    0.000    0.000    0.000    0.000    0.000 
#
# Total GULP energy -123889.685964 kJ/mol
# GULP energy per Si atom -12388.968596 kJ/mol
# Density = 1.892854 g / cm^3
# Si number density = 18.971725 Si / 1000 Ang^3
#
#
#
# Elastic Constant Matrix: (Units=GPa)
#
#
# Indices 1 2 3 4 5 6 
#
# 1 120.0965 35.9270 50.1922 0.0000 6.3079 0.0000
# 2 35.9270 137.3655 37.0296 0.0000 -0.2257 0.0000
# 3 50.1922 37.0296 83.2426 0.0000 1.0804 0.0000
# 4 0.0000 0.0000 0.0000 37.2135 0.0000 -3.1788
# 5 6.3079 -0.2257 1.0804 0.0000 20.2686 0.0000
# 6 0.0000 0.0000 0.0000 -3.1788 0.0000 21.3355
#
#
#
# Elastic Compliance Matrix: (Units=1/GPa)
#
#
# Indices 1 2 3 4 5 6 
#
# 1 0.011537 -0.001317 -0.006328 0.000000 -0.003268 0.000000
# 2 -0.001317 0.008424 -0.002962 0.000000 0.000662 0.000000
# 3 -0.006328 -0.002962 0.017133 0.000000 0.001023 0.000000
# 4 0.000000 0.000000 0.000000 0.027218 0.000000 0.004055
# 5 -0.003268 0.000662 0.001023 0.000000 0.050307 0.000000
# 6 0.000000 0.000000 0.000000 0.004055 0.000000 0.047474
#
#
# Mechanical properties :
#
#
# Convention : Reuss Voigt Hill
#
# Bulk Modulus (GPa) = 62.97208 65.22247 64.09727
# Shear Modulus (GPa) = 26.51102 30.26722 28.38912
#
# Velocity S-wave (km/s) = 3.74223 3.99856 3.87252
# Velocity P-wave (km/s) = 7.20674 7.46803 7.33854
#
# Compressibility (1/GPa) = 0.01588005
#
# Stress axis : x y z
#
# Youngs Moduli (GPa) = 86.67795 118.71177 58.36714
#
# Poissons Ratio (x) = 0.15633 0.36935
# Poissons Ratio (y) = 0.11415 0.17287
# Poissons Ratio (z) = 0.54851 0.35160
#
# Static dielectric constant tensor:
#      x y z
#    x 3.636180 0.000000 0.067520 
#    y 0.000000 3.745360 0.000000 
#    z 0.067520 0.000000 3.299180 
# 
# 
# High freq. dielectric constant tensor:
#      x y z
#    x 1.740410 0.000000 0.009210 
#    y 0.000000 1.770220 0.000000 
#    z 0.009210 0.000000 1.694440 
# 
# From -- ./inp_files/10632.got.cif
#   From: 2010.03.12/outbox.cif.g09.slc.cpg/sg5_6_cif.got.tgz:10632.got - 2010.03.31 09:47:26.
