data_PCOD8048047
_publ_section_title
;
Structure prediction by ZEFSAII (Michael W. Deem and Ramdas Pophale) SiO2 
 PCOD8048047
Probable space group: C 2
;
_chemical_formula_sum "Si O2"
_cell_formula_units_Z 28
_cell_length_a 9.238645
_cell_length_b 16.063270
_cell_length_c 14.194736
_cell_angle_alpha 90.000000
_cell_angle_beta 39.603661
_cell_angle_gamma 90.000000
_cell_volume 1342.862371
_symmetry_space_group_name_H-M "C 2"
_symmetry_group_IT_number 5
_symmetry_cell_setting 'monoclinic'
loop_
_space_group_symop_operation_xyz
x,y,z
-x,y,-z
1/2+x,1/2+y,z
1/2-x,1/2+y,-z
loop_
_atom_site_type_symbol
_atom_site_label
_atom_site_fract_x
_atom_site_fract_y
_atom_site_fract_z
Si Si1 0.099600 0.060510 0.774452
Si Si2 0.780674 0.583132 0.170764
Si Si3 0.728706 0.037699 0.627380
Si Si4 0.500000 0.177177 0.500000
Si Si5 0.553150 0.928312 0.363374
Si Si6 0.664228 0.749074 0.333449
Si Si7 0.500000 0.659493 0.000000
Si Si8 0.514794 0.210476 0.291518
O O1 0.285405 0.119032 0.631164
O O2 0.957577 0.105087 0.928067
O O3 0.916651 0.035168 0.787251
O O4 0.217447 0.981279 0.765141
O O5 0.850332 0.525494 0.224544
O O6 0.685936 0.673696 0.249722
O O7 0.000000 0.600203 0.000000
O O8 0.594473 0.118029 0.656722
O O9 0.000000 0.047966 0.500000
O O10 0.653209 0.961642 0.598259
O O11 0.466191 0.236899 0.425050
O O12 0.500000 0.933437 0.500000
O O13 0.589862 0.832124 0.315460
O O14 0.500000 0.720322 0.500000
O O15 0.897934 0.769606 0.272862
O O16 0.721432 0.714677 0.868410
#
# Coordination Sequence:
#
# PCOD8048047 Si02
#       8
#     4   4   4   2   4   4   2   4
#     4  11  19  35  61  87 116 152 204 245 294 353
#     4  11  23  38  61  90 124 159 203 248 299 356
#     4  11  20  36  65  93 122 153 207 256 304 356
#     4  10  16  28  60  90 110 146 206 248 294 338
#     4  11  21  38  64  91 119 159 201 250 310 357
#     4  10  22  39  61  84 123 158 205 245 307 358
#     4  10  20  32  62  88 122 150 210 244 292 352
#     4  10  18  34  56  93 118 158 196 253 293 353
#
# _framework density 20.850981999999998
#
# number of rings (size 3 to 8) (size 9 to 14) (size 15 to 20)
#    0.000    1.429    3.571    6.000    0.000    0.000 
#    1.286    0.000   34.571    0.000    0.000    0.000 
#    0.000    0.000    0.000    0.000    0.000    0.000 
#
# Total GULP energy -173466.247269 kJ/mol
# GULP energy per Si atom -12390.446234 kJ/mol
# Density = 2.080352 g / cm^3
# Si number density = 20.850982 Si / 1000 Ang^3
#
#
#
# Elastic Constant Matrix: (Units=GPa)
#
#
# Indices 1 2 3 4 5 6 
#
# 1 124.0652 22.7302 35.1592 -0.0080 -4.1525 0.0019
# 2 22.7302 53.8185 19.3068 -0.0184 -7.8623 0.0065
# 3 35.1592 19.3068 126.2435 -0.0398 2.6346 0.0120
# 4 -0.0080 -0.0184 -0.0398 11.9000 0.0114 -1.6590
# 5 -4.1525 -7.8623 2.6346 0.0114 36.6725 -0.0042
# 6 0.0019 0.0065 0.0120 -1.6590 -0.0042 27.3905
#
#
#
# Elastic Compliance Matrix: (Units=1/GPa)
#
#
# Indices 1 2 3 4 5 6 
#
# 1 0.009239 -0.003064 -0.002116 -0.000006 0.000541 0.000001
# 2 -0.003064 0.021424 -0.002515 0.000018 0.004427 -0.000002
# 3 -0.002116 -0.002515 0.008925 0.000026 -0.001420 -0.000002
# 4 -0.000006 0.000018 0.000026 0.084749 -0.000024 0.005133
# 5 0.000541 0.004427 -0.001420 -0.000024 0.028381 0.000002
# 6 0.000001 -0.000002 -0.000002 0.005133 0.000002 0.036820
#
#
# Mechanical properties :
#
#
# Convention : Reuss Voigt Hill
#
# Bulk Modulus (GPa) = 41.32662 50.94660 46.13661
# Shear Modulus (GPa) = 23.47469 30.32133 26.89801
#
# Velocity S-wave (km/s) = 3.35898 3.81752 3.59557
# Velocity P-wave (km/s) = 5.90819 6.62707 6.27793
#
# Compressibility (1/GPa) = 0.02419748
#
# Stress axis : x y z
#
# Youngs Moduli (GPa) = 108.23201 46.67605 112.04696
#
# Poissons Ratio (x) = 0.14302 0.23708
# Poissons Ratio (y) = 0.33164 0.28185
# Poissons Ratio (z) = 0.22901 0.11741
#
# Static dielectric constant tensor:
#      x y z
#    x 4.384420 0.000000 0.038250 
#    y 0.000000 3.417800 0.000020 
#    z 0.038250 0.000020 3.899970 
# 
# 
# High freq. dielectric constant tensor:
#      x y z
#    x 1.840690 0.000000 -0.000590 
#    y 0.000000 1.759920 0.000000 
#    z -0.000590 0.000000 1.820060 
# 
# From -- ./inp_files/51354.got.cif
#   From: 2010.03.12/outbox.cif.g09.slc.cpg/sg5_26_cif.got.tgz:51354.got - 2010.03.31 09:47:26.
