data_PCOD8048479
_publ_section_title
;
Structure prediction by ZEFSAII (Michael W. Deem and Ramdas Pophale) SiO2 
 PCOD8048479
Probable space group: C 2
;
_chemical_formula_sum "Si O2"
_cell_formula_units_Z 32
_cell_length_a 19.254130
_cell_length_b 10.860948
_cell_length_c 9.334163
_cell_angle_alpha 90.000000
_cell_angle_beta 127.884693
_cell_angle_gamma 90.000000
_cell_volume 1540.567022
_symmetry_space_group_name_H-M "C 2"
_symmetry_group_IT_number 5
_symmetry_cell_setting 'monoclinic'
loop_
_space_group_symop_operation_xyz
x,y,z
-x,y,-z
1/2+x,1/2+y,z
1/2-x,1/2+y,-z
loop_
_atom_site_type_symbol
_atom_site_label
_atom_site_fract_x
_atom_site_fract_y
_atom_site_fract_z
Si Si1 0.016119 0.479090 0.367632
Si Si2 0.325313 0.580628 0.536284
Si Si3 0.514251 0.745448 0.184130
Si Si4 0.252340 0.736702 0.209157
Si Si5 0.283144 0.003865 0.332658
Si Si6 0.144378 0.660615 0.806872
Si Si7 0.585158 0.639765 0.710351
Si Si8 0.397686 0.402990 0.399629
O O1 0.996324 0.383908 0.215943
O O2 0.117656 0.518049 0.480767
O O3 0.000000 0.410567 0.500000
O O4 0.951317 0.598218 0.286216
O O5 0.392816 0.693395 0.645435
O O6 0.252839 0.631259 0.332421
O O7 0.281518 0.562999 0.633873
O O8 0.371662 0.456584 0.526631
O O9 0.439768 0.657027 0.156225
O O10 0.500000 0.742158 0.000000
O O11 0.346209 0.744729 0.247490
O O12 0.241297 0.869390 0.265207
O O13 0.174703 0.705889 0.000462
O O14 0.284893 0.068335 0.177595
O O15 0.145464 0.773135 0.693703
O O16 0.500000 0.645476 0.500000
O O17 0.633660 0.508192 0.752414
O O18 0.500000 0.383772 0.500000
#
# Coordination Sequence:
#
# PCOD8048479 Si02
#       8
#     4   4   4   4   4   4   4   4
#     4  10  22  47  69  92 134 183 223 269 340 409
#     4  11  25  43  67  98 134 180 216 286 348 398
#     4  12  23  38  68 101 128 170 230 279 337 403
#     4  11  24  43  67 101 134 172 233 279 334 396
#     4  11  24  44  69  95 142 178 222 277 349 402
#     4  11  26  41  71 104 128 178 233 279 328 412
#     4  10  18  41  67  89 127 175 215 265 328 403
#     4  10  20  41  72  89 131 175 223 266 341 405
#
# _framework density 20.771571000000002
#
# number of rings (size 3 to 8) (size 9 to 14) (size 15 to 20)
#    0.000    1.250    5.000    3.000    7.000    1.000 
#    0.000    0.000    0.000    0.000    0.000    0.000 
#    0.000    0.000    0.000    0.000    0.000    0.000 
#
# Total GULP energy -198233.441448 kJ/mol
# GULP energy per Si atom -12389.590090 kJ/mol
# Density = 2.072429 g / cm^3
# Si number density = 20.771571 Si / 1000 Ang^3
#
#
#
# Elastic Constant Matrix: (Units=GPa)
#
#
# Indices 1 2 3 4 5 6 
#
# 1 98.8445 28.8980 23.8198 0.0000 -17.2838 0.0000
# 2 28.8980 99.3290 32.5520 0.0000 -3.8408 0.0000
# 3 23.8198 32.5520 92.1590 0.0000 -14.4278 0.0000
# 4 0.0000 0.0000 0.0000 23.0825 0.0000 -5.1795
# 5 -17.2838 -3.8408 -14.4278 0.0000 29.0343 0.0000
# 6 0.0000 0.0000 0.0000 -5.1795 0.0000 26.9572
#
#
#
# Elastic Compliance Matrix: (Units=1/GPa)
#
#
# Indices 1 2 3 4 5 6 
#
# 1 0.012385 -0.002980 -0.001145 0.000000 0.006409 0.000000
# 2 -0.002980 0.012110 -0.003832 0.000000 -0.002076 0.000000
# 3 -0.001145 -0.003832 0.013353 0.000000 0.005447 0.000000
# 4 0.000000 0.000000 0.000000 0.045275 0.000000 0.008699
# 5 0.006409 -0.002076 0.005447 0.000000 0.040690 0.000000
# 6 0.000000 0.000000 0.000000 0.008699 0.000000 0.038767
#
#
# Mechanical properties :
#
#
# Convention : Reuss Voigt Hill
#
# Bulk Modulus (GPa) = 45.59277 51.20803 48.40040
# Shear Modulus (GPa) = 26.90982 29.48563 28.19773
#
# Velocity S-wave (km/s) = 3.60323 3.77174 3.68844
# Velocity P-wave (km/s) = 6.26963 6.60867 6.44138
#
# Compressibility (1/GPa) = 0.02193330
#
# Stress axis : x y z
#
# Youngs Moduli (GPa) = 80.74410 82.57504 74.88879
#
# Poissons Ratio (x) = 0.24608 0.08575
# Poissons Ratio (y) = 0.24062 0.28700
# Poissons Ratio (z) = 0.09245 0.31646
#
# Static dielectric constant tensor:
#      x y z
#    x 3.819130 0.000000 -0.058890 
#    y 0.000000 4.038740 0.000000 
#    z -0.058890 0.000000 3.551730 
# 
# 
# High freq. dielectric constant tensor:
#      x y z
#    x 1.811920 0.000000 -0.004410 
#    y 0.000000 1.818880 0.000000 
#    z -0.004410 0.000000 1.793340 
# 
# From -- ./inp_files/29632.got.cif
#   From: 2010.03.12/outbox.cif.g09.slc.cpg/sg5_15_cif.got.tgz:29632.got - 2010.03.31 09:47:26.
