data_PCOD8048796
_publ_section_title
;
Structure prediction by ZEFSAII (Michael W. Deem and Ramdas Pophale) SiO2 
 PCOD8048796
Probable space group: C 2
;
_chemical_formula_sum "Si O2"
_cell_formula_units_Z 24
_cell_length_a 21.150863
_cell_length_b 8.548638
_cell_length_c 9.272881
_cell_angle_alpha 90.000000
_cell_angle_beta 44.221727
_cell_angle_gamma 90.000000
_cell_volume 1169.350306
_symmetry_space_group_name_H-M "C 2"
_symmetry_group_IT_number 5
_symmetry_cell_setting 'monoclinic'
loop_
_space_group_symop_operation_xyz
x,y,z
-x,y,-z
1/2+x,1/2+y,z
1/2-x,1/2+y,-z
loop_
_atom_site_type_symbol
_atom_site_label
_atom_site_fract_x
_atom_site_fract_y
_atom_site_fract_z
Si Si1 0.908720 0.642370 0.342880
Si Si2 0.566795 0.513166 0.023570
Si Si3 0.237385 0.978733 0.126976
Si Si4 0.750186 0.620517 0.803944
Si Si5 0.945442 0.948453 0.453326
Si Si6 0.394331 0.150710 0.037251
O O1 0.836527 0.561446 0.568379
O O2 0.914452 0.822158 0.384428
O O3 0.871171 0.623865 0.242591
O O4 0.010870 0.571549 0.172707
O O5 0.512195 0.566085 0.257617
O O6 0.500000 0.539835 0.000000
O O7 0.658192 0.615451 0.858255
O O8 0.597971 0.335245 0.996739
O O9 0.239285 0.794815 0.154513
O O10 0.141889 0.042386 0.345593
O O11 0.316682 0.075811 0.069728
O O12 0.241926 0.999685 0.948476
O O13 0.000000 0.872607 0.500000
#
# Coordination Sequence:
#
# PCOD8048796 Si02
#       6
#     4   4   4   4   4   4
#     4   9  21  37  63  88 117 161 198 242 302 362
#     4  11  21  41  65  89 119 162 204 245 300 364
#     4  11  24  39  62  89 124 158 202 252 296 355
#     4  11  24  40  60  93 121 158 205 247 301 354
#     4  10  19  38  62  87 120 160 201 242 298 360
#     4  10  20  41  63  89 119 154 206 245 299 361
#
# _framework density 20.524218000000001
#
# number of rings (size 3 to 8) (size 9 to 14) (size 15 to 20)
#    0.000    1.667    5.000    1.000    9.333    0.000 
#    3.000    5.000    0.000    0.000    0.000    0.000 
#    0.000    0.000    0.000    0.000    0.000    0.000 
#
# Total GULP energy -148697.916717 kJ/mol
# GULP energy per Si atom -12391.493060 kJ/mol
# Density = 2.047750 g / cm^3
# Si number density = 20.524218 Si / 1000 Ang^3
#
#
#
# Elastic Constant Matrix: (Units=GPa)
#
#
# Indices 1 2 3 4 5 6 
#
# 1 136.2062 21.2021 64.6883 0.0000 -6.3366 0.0000
# 2 21.2021 32.6597 25.9891 0.0000 -3.2419 0.0000
# 3 64.6883 25.9891 198.1077 0.0000 -12.3089 0.0000
# 4 0.0000 0.0000 0.0000 24.4714 0.0000 -3.5317
# 5 -6.3366 -3.2419 -12.3089 0.0000 35.0228 0.0000
# 6 0.0000 0.0000 0.0000 -3.5317 0.0000 26.7623
#
#
#
# Elastic Compliance Matrix: (Units=1/GPa)
#
#
# Indices 1 2 3 4 5 6 
#
# 1 0.009134 -0.003947 -0.002438 0.000000 0.000430 0.000000
# 2 -0.003947 0.035984 -0.003342 0.000000 0.001442 0.000000
# 3 -0.002438 -0.003342 0.006375 0.000000 0.001490 0.000000
# 4 0.000000 0.000000 0.000000 0.041657 0.000000 0.005497
# 5 0.000430 0.001442 0.001490 0.000000 0.029288 0.000000
# 6 0.000000 0.000000 0.000000 0.005497 0.000000 0.038092
#
#
# Mechanical properties :
#
#
# Convention : Reuss Voigt Hill
#
# Bulk Modulus (GPa) = 31.21252 65.63695 48.42474
# Shear Modulus (GPa) = 26.22426 34.25757 30.24092
#
# Velocity S-wave (km/s) = 3.57840 4.08993 3.84269
# Velocity P-wave (km/s) = 5.68454 7.37245 6.58282
#
# Compressibility (1/GPa) = 0.03203842
#
# Stress axis : x y z
#
# Youngs Moduli (GPa) = 109.47965 27.79034 156.86552
#
# Poissons Ratio (x) = 0.10969 0.38245
# Poissons Ratio (y) = 0.43211 0.52428
# Poissons Ratio (z) = 0.26692 0.09288
#
# Static dielectric constant tensor:
#      x y z
#    x 3.841170 0.000000 -0.232360 
#    y 0.000000 3.194090 0.000000 
#    z -0.232360 0.000000 4.508040 
# 
# 
# High freq. dielectric constant tensor:
#      x y z
#    x 1.817110 0.000000 -0.004940 
#    y 0.000000 1.740780 0.000000 
#    z -0.004940 0.000000 1.833150 
# 
# From -- ./inp_files/28872.got.cif
#   From: 2010.03.12/outbox.cif.g09.slc.cpg/sg5_15_cif.got.tgz:28872.got - 2010.03.31 09:47:26.
