data_PCOD8048444
_publ_section_title
;
Structure prediction by ZEFSAII (Michael W. Deem and Ramdas Pophale) SiO2 
 PCOD8048444
Probable space group: C 2
;
_chemical_formula_sum "Si O2"
_cell_formula_units_Z 24
_cell_length_a 9.656071
_cell_length_b 18.275465
_cell_length_c 9.402352
_cell_angle_alpha 90.000000
_cell_angle_beta 44.831901
_cell_angle_gamma 90.000000
_cell_volume 1169.802326
_symmetry_space_group_name_H-M "C 2"
_symmetry_group_IT_number 5
_symmetry_cell_setting 'monoclinic'
loop_
_space_group_symop_operation_xyz
x,y,z
-x,y,-z
1/2+x,1/2+y,z
1/2-x,1/2+y,-z
loop_
_atom_site_type_symbol
_atom_site_label
_atom_site_fract_x
_atom_site_fract_y
_atom_site_fract_z
Si Si1 0.992717 0.545970 0.846587
Si Si2 0.589279 0.463188 0.090340
Si Si3 0.324660 0.439701 0.520867
Si Si4 0.064116 0.685694 0.614312
Si Si5 0.774154 0.805309 0.909124
Si Si6 0.861688 0.295469 0.315122
O O1 0.151498 0.481559 0.727706
O O2 0.065693 0.607317 0.685556
O O3 0.777445 0.516025 0.962401
O O4 0.000000 0.578241 0.000000
O O5 0.415022 0.487743 0.325302
O O6 0.633754 0.380652 0.105144
O O7 0.500000 0.467645 0.000000
O O8 0.500000 0.419752 0.500000
O O9 0.225349 0.364665 0.534316
O O10 0.280531 0.721642 0.447058
O O11 0.000000 0.674904 0.500000
O O12 0.926057 0.738582 0.808556
O O13 0.707100 0.810846 0.795645
O O14 0.595826 0.788129 0.146781
#
# Coordination Sequence:
#
# PCOD8048444 Si02
#       6
#     4   4   4   4   4   4
#     4  12  26  45  68  97 135 178 218 270 332 397
#     4  12  26  41  68 104 133 167 220 284 328 380
#     4  12  21  41  73  97 123 171 230 266 323 395
#     4  10  23  41  63  97 135 171 216 273 325 386
#     4  10  19  39  67  95 126 170 220 263 322 388
#     4  10  18  38  71  95 122 173 222 262 316 395
#
# _framework density 20.516286999999998
#
# number of rings (size 3 to 8) (size 9 to 14) (size 15 to 20)
#    0.000    1.000    6.667    0.500    2.333    2.000 
#    3.000    0.000    0.000    0.000    0.000    0.000 
#    0.000    0.000    0.000    0.000    0.000    0.000 
#
# Total GULP energy -148761.079744 kJ/mol
# GULP energy per Si atom -12396.756645 kJ/mol
# Density = 2.046959 g / cm^3
# Si number density = 20.516287 Si / 1000 Ang^3
#
#
#
# Elastic Constant Matrix: (Units=GPa)
#
#
# Indices 1 2 3 4 5 6 
#
# 1 65.0749 20.4437 40.1418 0.0000 -1.1759 0.0000
# 2 20.4437 97.5839 36.3482 0.0000 -0.2672 0.0000
# 3 40.1418 36.3482 138.9378 0.0000 -13.7721 0.0000
# 4 0.0000 0.0000 0.0000 45.5429 0.0000 4.5571
# 5 -1.1759 -0.2672 -13.7721 0.0000 30.2105 0.0000
# 6 0.0000 0.0000 0.0000 4.5571 0.0000 18.8685
#
#
#
# Elastic Compliance Matrix: (Units=1/GPa)
#
#
# Indices 1 2 3 4 5 6 
#
# 1 0.019175 -0.002103 -0.005151 0.000000 -0.001620 0.000000
# 2 -0.002103 0.011635 -0.002549 0.000000 -0.001141 0.000000
# 3 -0.005151 -0.002549 0.009772 0.000000 0.004232 0.000000
# 4 0.000000 0.000000 0.000000 0.022501 0.000000 -0.005434
# 5 -0.001620 -0.001141 0.004232 0.000000 0.034957 0.000000
# 6 0.000000 0.000000 0.000000 -0.005434 0.000000 0.054311
#
#
# Mechanical properties :
#
#
# Convention : Reuss Voigt Hill
#
# Bulk Modulus (GPa) = 47.67329 55.05154 51.36242
# Shear Modulus (GPa) = 27.94091 32.56858 30.25475
#
# Velocity S-wave (km/s) = 3.69438 3.98860 3.84431
# Velocity P-wave (km/s) = 6.44090 6.93565 6.69285
#
# Compressibility (1/GPa) = 0.02097610
#
# Stress axis : x y z
#
# Youngs Moduli (GPa) = 52.14988 85.95030 102.33386
#
# Poissons Ratio (x) = 0.18077 0.52707
# Poissons Ratio (y) = 0.10968 0.26087
# Poissons Ratio (z) = 0.26860 0.21911
#
# Static dielectric constant tensor:
#      x y z
#    x 3.443230 0.000000 -0.241750 
#    y 0.000000 3.550750 0.000000 
#    z -0.241750 0.000000 4.332700 
# 
# 
# High freq. dielectric constant tensor:
#      x y z
#    x 1.771680 0.000000 -0.018010 
#    y 0.000000 1.792170 0.000000 
#    z -0.018010 0.000000 1.829410 
# 
# From -- ./inp_files/16727.got.cif
#   From: 2010.03.12/outbox.cif.g09.slc.cpg/sg5_9_cif.got.tgz:16727.got - 2010.03.31 09:47:26.
