data_PCOD8048925
_publ_section_title
;
Structure prediction by ZEFSAII (Michael W. Deem and Ramdas Pophale) SiO2 
 PCOD8048925
Probable space group: C 2
;
_chemical_formula_sum "Si O2"
_cell_formula_units_Z 30
_cell_length_a 10.859047
_cell_length_b 8.894546
_cell_length_c 27.457975
_cell_angle_alpha 90.000000
_cell_angle_beta 34.706853
_cell_angle_gamma 90.000000
_cell_volume 1510.026520
_symmetry_space_group_name_H-M "C 2"
_symmetry_group_IT_number 5
_symmetry_cell_setting 'monoclinic'
loop_
_space_group_symop_operation_xyz
x,y,z
-x,y,-z
1/2+x,1/2+y,z
1/2-x,1/2+y,-z
loop_
_atom_site_type_symbol
_atom_site_label
_atom_site_fract_x
_atom_site_fract_y
_atom_site_fract_z
Si Si1 0.541477 0.587200 0.542076
Si Si2 0.916936 0.618391 0.271916
Si Si3 0.324354 0.260857 0.520469
Si Si4 0.423288 0.866126 0.713399
Si Si5 0.039756 0.883936 0.180816
Si Si6 0.776587 0.663368 0.143324
Si Si7 0.500000 0.394834 0.000000
Si Si8 0.613238 0.097195 0.108733
O O1 0.500000 0.644195 0.500000
O O2 0.557337 0.407684 0.538873
O O3 0.759296 0.656280 0.495644
O O4 0.341109 0.634474 0.641068
O O5 0.003912 0.524839 0.288572
O O6 0.981643 0.538708 0.199359
O O7 0.024357 0.786684 0.236364
O O8 0.500000 0.181301 0.500000
O O9 0.108311 0.307453 0.618322
O O10 0.205794 0.906487 0.756175
O O11 0.389576 0.737439 0.764860
O O12 0.161521 0.777241 0.101053
O O13 0.154815 0.043239 0.148907
O O14 0.877154 0.794925 0.078750
O O15 0.966651 0.573918 0.108854
O O16 0.329769 0.503575 0.028463
#
# Coordination Sequence:
#
# PCOD8048925 Si02
#       8
#     4   4   4   4   4   4   2   4
#     4  11  22  41  61  92 128 169 212 259 316 371
#     4  10  19  45  63  81 127 167 202 250 311 371
#     4  11  23  40  63  93 130 167 206 273 316 367
#     4  11  20  43  64  85 127 162 210 255 309 373
#     4   9  22  39  64  87 120 161 214 248 299 368
#     4  11  23  41  63  96 120 162 213 252 304 376
#     4  12  24  38  64  94 130 158 200 252 322 366
#     4   9  23  42  62  88 126 164 198 257 309 369
#
# _framework density 19.8672
#
# number of rings (size 3 to 8) (size 9 to 14) (size 15 to 20)
#    0.800    0.800    5.333    0.000    0.000    6.400 
#    4.800    0.000    0.000    0.000    0.000    0.000 
#    0.000    0.000    0.000    0.000    0.000    0.000 
#
# Total GULP energy -185878.425550 kJ/mol
# GULP energy per Si atom -12391.895037 kJ/mol
# Density = 1.982198 g / cm^3
# Si number density = 19.867200 Si / 1000 Ang^3
#
#
#
# Elastic Constant Matrix: (Units=GPa)
#
#
# Indices 1 2 3 4 5 6 
#
# 1 123.7583 42.3534 12.6310 -0.0001 -20.9176 0.0000
# 2 42.3534 69.5382 30.1337 -0.0005 -15.2658 -0.0001
# 3 12.6310 30.1337 52.0372 -0.0013 -20.8972 -0.0005
# 4 -0.0001 -0.0005 -0.0013 22.4453 0.0001 -9.6460
# 5 -20.9176 -15.2658 -20.8972 0.0001 24.1764 0.0001
# 6 0.0000 -0.0001 -0.0005 -9.6460 0.0001 36.6113
#
#
#
# Elastic Compliance Matrix: (Units=1/GPa)
#
#
# Indices 1 2 3 4 5 6 
#
# 1 0.011757 -0.007280 0.005516 0.000000 0.010343 0.000000
# 2 -0.007280 0.023943 -0.013105 0.000000 -0.002508 0.000000
# 3 0.005516 -0.013105 0.036852 0.000002 0.028351 0.000001
# 4 0.000000 0.000000 0.000002 0.050241 0.000002 0.013237
# 5 0.010343 -0.002508 0.028351 0.000002 0.073233 0.000001
# 6 0.000000 0.000000 0.000001 0.013237 0.000001 0.030802
#
#
# Mechanical properties :
#
#
# Convention : Reuss Voigt Hill
#
# Bulk Modulus (GPa) = 23.35749 46.17445 34.76597
# Shear Modulus (GPa) = 18.46113 27.32764 22.89439
#
# Velocity S-wave (km/s) = 3.05163 3.71282 3.39834
# Velocity P-wave (km/s) = 4.91924 6.45539 5.73894
#
# Compressibility (1/GPa) = 0.04281282
#
# Stress axis : x y z
#
# Youngs Moduli (GPa) = 85.05577 41.76554 27.13529
#
# Poissons Ratio (x) = 0.30407 -0.14967
# Poissons Ratio (y) = 0.61924 0.35561
# Poissons Ratio (z) = -0.46913 0.54734
#
# Static dielectric constant tensor:
#      x y z
#    x 3.664160 0.000000 -0.089300 
#    y 0.000000 3.580020 0.000000 
#    z -0.089300 0.000000 3.573670 
# 
# 
# High freq. dielectric constant tensor:
#      x y z
#    x 1.774300 0.000000 -0.007190 
#    y 0.000000 1.762050 0.000000 
#    z -0.007190 0.000000 1.773410 
# 
# From -- ./inp_files/71702.got.cif
#   From: 2010.03.12/outbox.cif.g09.slc.cpg/sg5_36_cif.got.tgz:71702.got - 2010.03.31 09:47:26.
