data_PCOD8048060
_publ_section_title
;
Structure prediction by ZEFSAII (Michael W. Deem and Ramdas Pophale) SiO2 
 PCOD8048060
Probable space group: C 2
;
_chemical_formula_sum "Si O2"
_cell_formula_units_Z 26
_cell_length_a 14.624792
_cell_length_b 20.576623
_cell_length_c 5.294991
_cell_angle_alpha 90.000000
_cell_angle_beta 59.787756
_cell_angle_gamma 90.000000
_cell_volume 1376.977511
_symmetry_space_group_name_H-M "C 2"
_symmetry_group_IT_number 5
_symmetry_cell_setting 'monoclinic'
loop_
_space_group_symop_operation_xyz
x,y,z
-x,y,-z
1/2+x,1/2+y,z
1/2-x,1/2+y,-z
loop_
_atom_site_type_symbol
_atom_site_label
_atom_site_fract_x
_atom_site_fract_y
_atom_site_fract_z
Si Si1 0.823066 0.741200 0.763986
Si Si2 0.378883 0.389306 0.663242
Si Si3 0.000000 0.107259 0.500000
Si Si4 0.372989 0.457517 0.170408
Si Si5 0.379752 0.162603 0.183966
Si Si6 0.687159 0.584941 0.544678
Si Si7 0.103133 0.201434 0.962814
O O1 0.870074 0.812123 0.676460
O O2 0.865780 0.698390 0.472539
O O3 0.694708 0.748451 0.937495
O O4 0.856625 0.710785 0.984119
O O5 0.500000 0.408785 0.500000
O O6 0.328718 0.418837 0.477430
O O7 0.328369 0.420017 0.986708
O O8 0.907252 0.061350 0.514388
O O9 0.935832 0.151975 0.776389
O O10 0.315328 0.528396 0.241571
O O11 0.500000 0.463756 0.000000
O O12 0.304428 0.098121 0.268559
O O13 0.500000 0.137676 0.000000
O O14 0.653026 0.656925 0.675505
O O15 0.000000 0.240845 0.000000
#
# Coordination Sequence:
#
# PCOD8048060 Si02
#       7
#     4   4   2   4   4   4   4
#     4  11  21  38  56  82 113 149 187 227 275 332
#     4  10  21  34  52  77 109 147 181 220 269 324
#     4  10  16  32  52  80 110 138 176 224 286 336
#     4  10  21  34  52  78 110 141 179 225 275 329
#     4  11  22  36  58  84 112 149 185 227 279 332
#     4  10  21  32  54  83 112 143 180 229 286 329
#     4   9  19  32  53  84 110 141 178 234 284 331
#
# _framework density 18.881934000000001
#
# number of rings (size 3 to 8) (size 9 to 14) (size 15 to 20)
#    0.000    1.846    1.538    3.692    5.385    1.231 
#    0.000    0.000    0.000    0.923    0.000    0.000 
#    0.000    0.000    0.000    0.000    0.000    0.000 
#
# Total GULP energy -161071.744047 kJ/mol
# GULP energy per Si atom -12390.134157 kJ/mol
# Density = 1.883896 g / cm^3
# Si number density = 18.881934 Si / 1000 Ang^3
#
#
#
# Elastic Constant Matrix: (Units=GPa)
#
#
# Indices 1 2 3 4 5 6 
#
# 1 86.7806 17.5594 43.6234 0.0000 -7.5502 0.0000
# 2 17.5594 62.5786 23.0227 0.0000 1.4519 0.0000
# 3 43.6234 23.0227 87.8182 0.0000 5.1946 0.0000
# 4 0.0000 0.0000 0.0000 33.0515 0.0000 -1.1793
# 5 -7.5502 1.4519 5.1946 0.0000 33.2183 0.0000
# 6 0.0000 0.0000 0.0000 -1.1793 0.0000 19.8260
#
#
#
# Elastic Compliance Matrix: (Units=1/GPa)
#
#
# Indices 1 2 3 4 5 6 
#
# 1 0.016307 -0.001774 -0.007933 0.000000 0.005024 0.000000
# 2 -0.001774 0.017879 -0.003771 0.000000 -0.000595 0.000000
# 3 -0.007933 -0.003771 0.016566 0.000000 -0.004229 0.000000
# 4 0.000000 0.000000 0.000000 0.030320 0.000000 0.001804
# 5 0.005024 -0.000595 -0.004229 0.000000 0.031933 0.000000
# 6 0.000000 0.000000 0.000000 0.001804 0.000000 0.050546
#
#
# Mechanical properties :
#
#
# Convention : Reuss Voigt Hill
#
# Bulk Modulus (GPa) = 42.02112 45.06538 43.54325
# Shear Modulus (GPa) = 25.19671 27.41729 26.30700
#
# Velocity S-wave (km/s) = 3.65695 3.81470 3.73666
# Velocity P-wave (km/s) = 6.33515 6.58189 6.45970
#
# Compressibility (1/GPa) = 0.02379756
#
# Stress axis : x y z
#
# Youngs Moduli (GPa) = 61.32336 55.93239 60.36326
#
# Poissons Ratio (x) = 0.09922 0.47884
# Poissons Ratio (y) = 0.10878 0.22762
# Poissons Ratio (z) = 0.48645 0.21091
#
# Static dielectric constant tensor:
#      x y z
#    x 3.883700 0.000000 0.085390 
#    y 0.000000 3.128210 0.000000 
#    z 0.085390 0.000000 3.651650 
# 
# 
# High freq. dielectric constant tensor:
#      x y z
#    x 1.724660 0.000000 0.015980 
#    y 0.000000 1.699960 0.000000 
#    z 0.015980 0.000000 1.745140 
# 
# From -- ./inp_files/7162.got.cif
#   From: 2010.03.12/outbox.cif.g09.slc.cpg/sg5_4_cif.got.tgz:7162.got - 2010.03.31 09:47:26.
