data_PCOD8048413
_publ_section_title
;
Structure prediction by ZEFSAII (Michael W. Deem and Ramdas Pophale) SiO2 
 PCOD8048413
Probable space group: C 2
;
_chemical_formula_sum "Si O2"
_cell_formula_units_Z 30
_cell_length_a 13.925810
_cell_length_b 9.696544
_cell_length_c 11.302591
_cell_angle_alpha 90.000000
_cell_angle_beta 97.206872
_cell_angle_gamma 90.000000
_cell_volume 1514.156454
_symmetry_space_group_name_H-M "C 2"
_symmetry_group_IT_number 5
_symmetry_cell_setting 'monoclinic'
loop_
_space_group_symop_operation_xyz
x,y,z
-x,y,-z
1/2+x,1/2+y,z
1/2-x,1/2+y,-z
loop_
_atom_site_type_symbol
_atom_site_label
_atom_site_fract_x
_atom_site_fract_y
_atom_site_fract_z
Si Si1 0.784389 0.501330 0.565917
Si Si2 0.667276 0.463748 0.780157
Si Si3 0.994792 0.760317 0.758702
Si Si4 0.500000 0.159732 0.000000
Si Si5 0.294032 0.305739 0.636266
Si Si6 0.857248 0.431305 0.955394
Si Si7 0.532511 0.944475 0.270798
Si Si8 0.138421 0.265180 0.807010
O O1 0.710428 0.466482 0.657143
O O2 0.749197 0.437214 0.437496
O O3 0.788630 0.667361 0.555248
O O4 0.886799 0.430608 0.615034
O O5 0.595662 0.336082 0.759368
O O6 0.747830 0.448473 0.894641
O O7 0.610458 0.604130 0.802280
O O8 0.967020 0.761534 0.891926
O O9 0.907536 0.835371 0.676520
O O10 0.005943 0.600417 0.725538
O O11 0.405147 0.067765 0.021880
O O12 0.240313 0.285283 0.753955
O O13 0.925434 0.401994 0.852035
O O14 0.856336 0.313933 0.055789
O O15 0.443523 0.843218 0.282023
#
# Coordination Sequence:
#
# PCOD8048413 Si02
#       8
#     4   4   4   2   4   4   4   4
#     4   9  21  43  58  84 113 157 194 244 282 340
#     4  10  24  36  59  87 119 148 193 243 294 327
#     4  10  21  39  58  87 113 161 185 234 286 349
#     4  10  18  38  62  80 122 160 184 226 284 360
#     4  10  23  39  62  82 119 152 199 238 287 340
#     4  10  19  37  60  83 116 156 185 232 280 357
#     4   9  19  39  64  79 115 156 200 221 290 352
#     4  11  20  37  59  89 114 150 193 240 288 342
#
# _framework density 19.813012000000001
#
# number of rings (size 3 to 8) (size 9 to 14) (size 15 to 20)
#    0.000    2.133    2.667    2.400    3.733    3.200 
#    2.400    6.667    0.000    0.000    0.000    0.000 
#    0.000    0.000    0.000    0.000    0.000    0.000 
#
# Total GULP energy -185901.539054 kJ/mol
# GULP energy per Si atom -12393.435937 kJ/mol
# Density = 1.976792 g / cm^3
# Si number density = 19.813012 Si / 1000 Ang^3
#
#
#
# Elastic Constant Matrix: (Units=GPa)
#
#
# Indices 1 2 3 4 5 6 
#
# 1 119.6423 53.2195 22.3474 0.0000 23.5307 0.0000
# 2 53.2195 80.4256 30.6500 0.0000 7.8323 0.0000
# 3 22.3474 30.6500 63.2395 0.0000 18.5062 0.0000
# 4 0.0000 0.0000 0.0000 31.8630 0.0000 -1.2210
# 5 23.5307 7.8323 18.5062 0.0000 26.4412 0.0000
# 6 0.0000 0.0000 0.0000 -1.2210 0.0000 32.5402
#
#
#
# Elastic Compliance Matrix: (Units=1/GPa)
#
#
# Indices 1 2 3 4 5 6 
#
# 1 0.014412 -0.009528 0.003084 0.000000 -0.012162 0.000000
# 2 -0.009528 0.021564 -0.009679 0.000000 0.008866 0.000000
# 3 0.003084 -0.009679 0.024369 0.000000 -0.016934 0.000000
# 4 0.000000 0.000000 0.000000 0.031430 0.000000 0.001179
# 5 -0.012162 0.008866 -0.016934 0.000000 0.057869 0.000000
# 6 0.000000 0.000000 0.000000 0.001179 0.000000 0.030776
#
#
# Mechanical properties :
#
#
# Convention : Reuss Voigt Hill
#
# Bulk Modulus (GPa) = 35.58687 52.86014 44.22350
# Shear Modulus (GPa) = 22.51930 28.64158 25.58044
#
# Velocity S-wave (km/s) = 3.37499 3.80622 3.59708
# Velocity P-wave (km/s) = 5.76089 6.78630 6.29451
#
# Compressibility (1/GPa) = 0.02810025
#
# Stress axis : x y z
#
# Youngs Moduli (GPa) = 69.38463 46.37399 41.03494
#
# Poissons Ratio (x) = 0.44185 -0.12655
# Poissons Ratio (y) = 0.66109 0.39717
# Poissons Ratio (z) = -0.21397 0.44884
#
# Static dielectric constant tensor:
#      x y z
#    x 3.652400 0.000000 0.180400 
#    y 0.000000 3.523850 0.000000 
#    z 0.180400 0.000000 3.517070 
# 
# 
# High freq. dielectric constant tensor:
#      x y z
#    x 1.776130 0.000000 0.015910 
#    y 0.000000 1.756680 0.000000 
#    z 0.015910 0.000000 1.767330 
# 
# From -- ./inp_files/41749.got.cif
#   From: 2010.03.12/outbox.cif.g09.slc.cpg/sg5_21_cif.got.tgz:41749.got - 2010.03.31 09:47:26.
