data_PCOD8048589
_publ_section_title
;
Structure prediction by ZEFSAII (Michael W. Deem and Ramdas Pophale) SiO2 
 PCOD8048589
Probable space group: C 2
;
_chemical_formula_sum "Si O2"
_cell_formula_units_Z 32
_cell_length_a 22.926243
_cell_length_b 9.251051
_cell_length_c 9.130619
_cell_angle_alpha 90.000000
_cell_angle_beta 123.525438
_cell_angle_gamma 90.000000
_cell_volume 1614.370055
_symmetry_space_group_name_H-M "C 2"
_symmetry_group_IT_number 5
_symmetry_cell_setting 'monoclinic'
loop_
_space_group_symop_operation_xyz
x,y,z
-x,y,-z
1/2+x,1/2+y,z
1/2-x,1/2+y,-z
loop_
_atom_site_type_symbol
_atom_site_label
_atom_site_fract_x
_atom_site_fract_y
_atom_site_fract_z
Si Si1 0.772004 0.046410 0.724758
Si Si2 0.265654 0.737457 0.209749
Si Si3 0.159749 0.047204 0.480116
Si Si4 0.130581 0.758994 0.848443
Si Si5 0.511323 0.559996 0.344635
Si Si6 0.637287 0.605110 0.886328
Si Si7 0.859312 0.725376 0.466004
Si Si8 0.493332 0.258782 0.817267
O O1 0.827380 0.015090 0.672964
O O2 0.709217 0.141951 0.574187
O O3 0.738783 0.902832 0.747532
O O4 0.815923 0.134704 0.906402
O O5 0.275079 0.639483 0.367492
O O6 0.332773 0.703456 0.201986
O O7 0.196768 0.692317 0.025161
O O8 0.086638 0.134400 0.415244
O O9 0.156074 0.895061 0.555939
O O10 0.125793 0.687061 0.682355
O O11 0.063699 0.698053 0.842474
O O12 0.135284 0.933456 0.847154
O O13 0.500000 0.515796 0.500000
O O14 0.443842 0.655610 0.203128
O O15 0.514673 0.423149 0.242617
O O16 0.924195 0.677217 0.659520
O O17 0.500000 0.243012 0.000000
#
# Coordination Sequence:
#
# PCOD8048589 Si02
#       8
#     4   4   4   4   4   4   4   4
#     4  11  25  35  58  92 123 151 195 245 298 359
#     4  11  21  38  61  86 122 158 192 236 296 360
#     4  11  22  37  61  88 120 156 192 247 302 338
#     4  10  20  36  60  85 114 152 200 240 288 347
#     4  10  19  34  58  85 114 152 197 244 285 342
#     4  10  19  37  58  85 114 151 198 239 282 345
#     4  11  21  39  59  85 118 154 196 245 291 353
#     4  10  21  32  57  88 115 146 194 254 298 334
#
# _framework density 19.821973
#
# number of rings (size 3 to 8) (size 9 to 14) (size 15 to 20)
#    0.000    1.500    3.750    3.375   12.250    0.000 
#    0.000    0.000    5.500    0.000    0.000    0.000 
#    0.000    0.000    0.000    0.000    0.000    0.000 
#
# Total GULP energy -198300.511213 kJ/mol
# GULP energy per Si atom -12393.781951 kJ/mol
# Density = 1.977686 g / cm^3
# Si number density = 19.821973 Si / 1000 Ang^3
#
#
#
# Elastic Constant Matrix: (Units=GPa)
#
#
# Indices 1 2 3 4 5 6 
#
# 1 143.2190 27.3085 65.3641 0.0000 7.0373 0.0000
# 2 27.3085 31.9242 28.4587 0.0000 10.2461 0.0000
# 3 65.3641 28.4587 149.8089 0.0000 15.6854 0.0000
# 4 0.0000 0.0000 0.0000 24.7641 0.0000 4.4291
# 5 7.0373 10.2461 15.6854 0.0000 42.6500 0.0000
# 6 0.0000 0.0000 0.0000 4.4291 0.0000 19.8107
#
#
#
# Elastic Compliance Matrix: (Units=1/GPa)
#
#
# Indices 1 2 3 4 5 6 
#
# 1 0.009438 -0.005558 -0.003161 0.000000 0.000940 0.000000
# 2 -0.005558 0.042908 -0.004933 0.000000 -0.007577 0.000000
# 3 -0.003161 -0.004933 0.009166 0.000000 -0.001664 0.000000
# 4 0.000000 0.000000 0.000000 0.042063 0.000000 -0.009404
# 5 0.000940 -0.007577 -0.001664 0.000000 0.025724 0.000000
# 6 0.000000 0.000000 0.000000 -0.009404 0.000000 0.052580
#
#
# Mechanical properties :
#
#
# Convention : Reuss Voigt Hill
#
# Bulk Modulus (GPa) = 29.23225 63.02386 46.12805
# Shear Modulus (GPa) = 22.66708 31.03303 26.85006
#
# Velocity S-wave (km/s) = 3.38529 3.96104 3.68443
# Velocity P-wave (km/s) = 5.48267 7.26524 6.43597
#
# Compressibility (1/GPa) = 0.03420879
#
# Stress axis : x y z
#
# Youngs Moduli (GPa) = 105.94989 23.30594 109.10398
#
# Poissons Ratio (x) = 0.12953 0.34485
# Poissons Ratio (y) = 0.58886 0.53817
# Poissons Ratio (z) = 0.33488 0.11496
#
# Static dielectric constant tensor:
#      x y z
#    x 3.903080 0.000000 0.324180 
#    y 0.000000 3.019280 0.000000 
#    z 0.324180 0.000000 4.042710 
# 
# 
# High freq. dielectric constant tensor:
#      x y z
#    x 1.788110 0.000000 0.006210 
#    y 0.000000 1.704730 0.000000 
#    z 0.006210 0.000000 1.797530 
# 
# From -- ./inp_files/29625.got.cif
#   From: 2010.03.12/outbox.cif.g09.slc.cpg/sg5_15_cif.got.tgz:29625.got - 2010.03.31 09:47:26.
