data_PCOD8048161
_publ_section_title
;
Structure prediction by ZEFSAII (Michael W. Deem and Ramdas Pophale) SiO2 
 PCOD8048161
Probable space group: C 2
;
_chemical_formula_sum "Si O2"
_cell_formula_units_Z 26
_cell_length_a 15.490303
_cell_length_b 16.698922
_cell_length_c 9.293480
_cell_angle_alpha 90.000000
_cell_angle_beta 143.274741
_cell_angle_gamma 90.000000
_cell_volume 1437.514805
_symmetry_space_group_name_H-M "C 2"
_symmetry_group_IT_number 5
_symmetry_cell_setting 'monoclinic'
loop_
_space_group_symop_operation_xyz
x,y,z
-x,y,-z
1/2+x,1/2+y,z
1/2-x,1/2+y,-z
loop_
_atom_site_type_symbol
_atom_site_label
_atom_site_fract_x
_atom_site_fract_y
_atom_site_fract_z
Si Si1 0.585740 0.449260 0.828726
Si Si2 0.269014 0.094405 0.151806
Si Si3 0.076884 0.776530 0.951025
Si Si4 0.500000 0.031634 0.000000
Si Si5 0.955872 0.627105 0.657011
Si Si6 0.697333 0.496130 0.682516
Si Si7 0.342315 0.674324 0.256188
O O1 0.656147 0.442541 0.764809
O O2 0.417434 0.476212 0.596477
O O3 0.677109 0.513148 0.043465
O O4 0.596432 0.364438 0.916892
O O5 0.309158 0.121202 0.367574
O O6 0.414881 0.081515 0.253226
O O7 0.177763 0.162484 0.943695
O O8 0.234420 0.738023 0.181273
O O9 0.000000 0.781324 0.000000
O O10 0.987567 0.721551 0.719491
O O11 0.441048 0.087293 0.792886
O O12 0.362582 0.976513 0.858315
O O13 0.684221 0.589317 0.703622
O O14 0.500000 0.707703 0.500000
#
# Coordination Sequence:
#
# PCOD8048161 Si02
#       7
#     4   4   4   2   4   4   4
#     4  10  20  37  56  85 122 150 196 241 300 358
#     4   9  18  34  57  86 112 150 202 234 280 349
#     4  11  22  37  57  85 118 158 195 242 306 347
#     4  12  18  36  64  88 112 156 208 248 278 350
#     4  10  19  34  61  84 115 149 201 243 281 346
#     4  10  19  36  63  85 113 160 199 238 294 353
#     4  10  17  37  62  84 112 156 206 237 285 361
#
# _framework density 18.086770999999999
#
# number of rings (size 3 to 8) (size 9 to 14) (size 15 to 20)
#    0.000    1.846    8.462    0.000    0.000    6.154 
#    2.769    1.538    0.000    0.000    0.000    0.000 
#    0.000    0.000    0.000    0.000    0.000    0.000 
#
# Total GULP energy -161138.522668 kJ/mol
# GULP energy per Si atom -12395.270974 kJ/mol
# Density = 1.804561 g / cm^3
# Si number density = 18.086771 Si / 1000 Ang^3
#
#
#
# Elastic Constant Matrix: (Units=GPa)
#
#
# Indices 1 2 3 4 5 6 
#
# 1 97.9972 53.4024 64.8556 0.0000 9.5475 0.0000
# 2 53.4024 110.2109 61.5027 0.0000 6.6055 0.0000
# 3 64.8556 61.5027 144.6675 0.0000 3.2063 0.0000
# 4 0.0000 0.0000 0.0000 8.3698 0.0000 12.0536
# 5 9.5475 6.6055 3.2063 0.0000 32.2968 0.0000
# 6 0.0000 0.0000 0.0000 12.0536 0.0000 13.2560
#
#
#
# Elastic Compliance Matrix: (Units=1/GPa)
#
#
# Indices 1 2 3 4 5 6 
#
# 1 0.016761 -0.004937 -0.005340 0.000000 -0.003415 0.000000
# 2 -0.004937 0.013472 -0.003493 0.000000 -0.000949 0.000000
# 3 -0.005340 -0.003493 0.010764 0.000000 0.001224 0.000000
# 4 0.000000 0.000000 0.000000 -0.386017 0.000000 0.351004
# 5 -0.003415 -0.000949 0.001224 0.000000 0.032045 0.000000
# 6 0.000000 0.000000 0.000000 0.351004 0.000000 -0.243729
#
#
# Mechanical properties :
#
#
# Convention : Reuss Voigt Hill
#
# Bulk Modulus (GPa) = 74.30627 79.15521 76.73074
# Shear Modulus (GPa) = -9.52965 22.32551 6.39793
#
# Velocity S-wave (km/s) = -2.29789 3.51715 1.88283
# Velocity P-wave (km/s) = 5.84226 7.76872 6.87332
#
# Compressibility (1/GPa) = 0.01345781
#
# Stress axis : x y z
#
# Youngs Moduli (GPa) = 59.66094 74.22844 92.90235
#
# Poissons Ratio (x) = 0.36649 0.49606
# Poissons Ratio (y) = 0.29456 0.32450
# Poissons Ratio (z) = 0.31856 0.25927
#
# Static dielectric constant tensor:
#      x y z
#    x 3.453040 0.000000 0.190550 
#    y 0.000000 3.066360 0.000000 
#    z 0.190550 0.000000 3.993860 
# 
# 
# High freq. dielectric constant tensor:
#      x y z
#    x 1.687170 0.000000 0.002590 
#    y 0.000000 1.669100 0.000000 
#    z 0.002590 0.000000 1.714090 
# 
# From -- ./inp_files/24766.got.cif
#   From: 2010.03.12/outbox.cif.g09.slc.cpg/sg5_13_cif.got.tgz:24766.got - 2010.03.31 09:47:26.
