data_PCOD8048224
_publ_section_title
;
Structure prediction by ZEFSAII (Michael W. Deem and Ramdas Pophale) SiO2 
 PCOD8048224
Probable space group: C 2
;
_chemical_formula_sum "Si O2"
_cell_formula_units_Z 30
_cell_length_a 21.375471
_cell_length_b 16.445734
_cell_length_c 8.677313
_cell_angle_alpha 90.000000
_cell_angle_beta 32.448312
_cell_angle_gamma 90.000000
_cell_volume 1636.647474
_symmetry_space_group_name_H-M "C 2"
_symmetry_group_IT_number 5
_symmetry_cell_setting 'monoclinic'
loop_
_space_group_symop_operation_xyz
x,y,z
-x,y,-z
1/2+x,1/2+y,z
1/2-x,1/2+y,-z
loop_
_atom_site_type_symbol
_atom_site_label
_atom_site_fract_x
_atom_site_fract_y
_atom_site_fract_z
Si Si1 0.705402 0.000000 0.288775
Si Si2 0.366341 0.231720 0.804531
Si Si3 0.375903 0.054658 0.843485
Si Si4 0.694999 0.183019 0.401458
Si Si5 0.879734 0.282841 0.187917
Si Si6 0.808880 0.846840 0.187367
Si Si7 0.530911 0.946392 0.107426
Si Si8 0.000000 0.770053 0.000000
O O1 0.807032 0.943563 0.150266
O O2 0.587474 0.947359 0.549191
O O3 0.720973 0.017555 0.072967
O O4 0.695978 0.085401 0.398324
O O5 0.500000 0.254998 0.500000
O O6 0.350255 0.148564 0.935664
O O7 0.303569 0.221790 0.771020
O O8 0.305772 0.301354 0.030026
O O9 0.500000 0.053315 0.500000
O O10 0.376045 0.006666 0.004567
O O11 0.812386 0.212460 0.239405
O O12 0.580928 0.212016 0.729671
O O13 0.805121 0.320640 0.481749
O O14 0.912575 0.357180 0.006417
O O15 0.000000 0.243891 0.000000
O O16 0.924935 0.827963 0.044002
O O17 0.500000 0.976486 0.000000
#
# Coordination Sequence:
#
# PCOD8048224 Si02
#       8
#     4   4   4   4   4   4   4   2
#     4  10  20  36  56  87 113 147 194 237 284 336
#     4  10  19  37  56  85 117 149 192 235 289 343
#     4   8  18  32  53  83 112 142 186 239 284 332
#     4  10  22  37  61  85 115 153 190 243 285 344
#     4  10  21  39  54  85 119 151 192 232 289 352
#     4  11  21  36  58  86 115 152 189 239 287 347
#     4  10  18  32  56  82 117 138 184 239 284 326
#     4  10  22  36  60  86 114 148 198 230 302 334
#
# _framework density 18.330154
#
# number of rings (size 3 to 8) (size 9 to 14) (size 15 to 20)
#    0.000    2.133    4.000    0.800    2.800    1.067 
#    1.200    0.667    0.000    3.200    0.000    0.000 
#    0.000    0.000    0.000    0.000    0.000    0.000 
#
# Total GULP energy -185931.966932 kJ/mol
# GULP energy per Si atom -12395.464462 kJ/mol
# Density = 1.828843 g / cm^3
# Si number density = 18.330154 Si / 1000 Ang^3
#
#
#
# Elastic Constant Matrix: (Units=GPa)
#
#
# Indices 1 2 3 4 5 6 
#
# 1 107.7904 63.3955 29.8339 0.0000 -6.6508 0.0000
# 2 63.3955 123.6333 44.0448 0.0000 -1.6090 0.0000
# 3 29.8339 44.0448 54.3619 0.0000 -6.7068 0.0000
# 4 0.0000 0.0000 0.0000 23.5173 0.0000 0.1654
# 5 -6.6508 -1.6090 -6.7068 0.0000 26.5192 0.0000
# 6 0.0000 0.0000 0.0000 0.1654 0.0000 28.5824
#
#
#
# Elastic Compliance Matrix: (Units=1/GPa)
#
#
# Indices 1 2 3 4 5 6 
#
# 1 0.013686 -0.006213 -0.002168 0.000000 0.002507 0.000000
# 2 -0.006213 0.014265 -0.008499 0.000000 -0.002842 0.000000
# 3 -0.002168 -0.008499 0.027188 0.000000 0.005817 0.000000
# 4 0.000000 0.000000 0.000000 0.042524 0.000000 -0.000246
# 5 0.002507 -0.002842 0.005817 0.000000 0.039636 0.000000
# 6 0.000000 0.000000 0.000000 -0.000246 0.000000 0.034988
#
#
# Mechanical properties :
#
#
# Convention : Reuss Voigt Hill
#
# Bulk Modulus (GPa) = 46.77150 62.25933 54.51541
# Shear Modulus (GPa) = 23.45523 25.62453 24.53988
#
# Velocity S-wave (km/s) = 3.58103 3.74297 3.66289
# Velocity P-wave (km/s) = 6.53222 7.26078 6.90612
#
# Compressibility (1/GPa) = 0.02138054
#
# Stress axis : x y z
#
# Youngs Moduli (GPa) = 73.06757 70.10239 36.78054
#
# Poissons Ratio (x) = 0.43553 0.07974
# Poissons Ratio (y) = 0.45396 0.31258
# Poissons Ratio (z) = 0.15840 0.59577
#
# Static dielectric constant tensor:
#      x y z
#    x 3.641310 0.000000 0.086990 
#    y 0.000000 3.387840 0.000000 
#    z 0.086990 0.000000 3.163090 
# 
# 
# High freq. dielectric constant tensor:
#      x y z
#    x 1.719650 0.000000 0.012770 
#    y 0.000000 1.707070 0.000000 
#    z 0.012770 0.000000 1.679960 
# 
# From -- ./inp_files/21007.got.cif
#   From: 2010.03.12/outbox.cif.g09.slc.cpg/sg5_11_cif.got.tgz:21007.got - 2010.03.31 09:47:26.
