data_PCOD8048247
_publ_section_title
;
Structure prediction by ZEFSAII (Michael W. Deem and Ramdas Pophale) SiO2 
 PCOD8048247
Probable space group: C 2
;
_chemical_formula_sum "Si O2"
_cell_formula_units_Z 26
_cell_length_a 13.295086
_cell_length_b 18.169992
_cell_length_c 11.399082
_cell_angle_alpha 90.000000
_cell_angle_beta 151.219754
_cell_angle_gamma 90.000000
_cell_volume 1325.770424
_symmetry_space_group_name_H-M "C 2"
_symmetry_group_IT_number 5
_symmetry_cell_setting 'monoclinic'
loop_
_space_group_symop_operation_xyz
x,y,z
-x,y,-z
1/2+x,1/2+y,z
1/2-x,1/2+y,-z
loop_
_atom_site_type_symbol
_atom_site_label
_atom_site_fract_x
_atom_site_fract_y
_atom_site_fract_z
Si Si1 0.205399 0.331930 0.611893
Si Si2 0.961289 0.489016 0.593415
Si Si3 0.827909 0.047071 0.517134
Si Si4 0.789319 0.944003 0.099029
Si Si5 0.000000 0.499522 0.000000
Si Si6 0.169715 0.807791 0.010801
Si Si7 0.467781 0.692725 0.332078
O O1 0.134923 0.408371 0.485842
O O2 0.167636 0.332709 0.716579
O O3 0.105828 0.263733 0.439971
O O4 0.447042 0.319386 0.836752
O O5 0.791520 0.541764 0.480908
O O6 0.000000 0.513951 0.500000
O O7 0.183597 0.491350 0.886476
O O8 0.964576 0.121016 0.670103
O O9 0.654426 0.050615 0.235702
O O10 0.981412 0.978360 0.646687
O O11 0.803389 0.857990 0.077077
O O12 0.644108 0.947864 0.065716
O O13 0.231297 0.720840 0.054796
O O14 0.500000 0.670519 0.500000
#
# Coordination Sequence:
#
# PCOD8048247 Si02
#       7
#     4   4   4   4   2   4   4
#     4  10  18  33  57  91 118 146 190 252 310 353
#     4  11  20  35  60  94 121 154 205 249 302 365
#     4  11  24  38  60  87 125 165 203 247 306 359
#     4  11  20  36  59  86 120 159 205 247 295 362
#     4  10  24  38  56  84 122 166 210 246 290 358
#     4  10  19  31  60  88 116 149 189 247 309 351
#     4  10  20  36  55  86 124 150 194 252 305 361
#
# _framework density 19.611239000000001
#
# number of rings (size 3 to 8) (size 9 to 14) (size 15 to 20)
#    0.000    1.538    4.615    1.846    0.000    5.538 
#    0.000    0.000    0.000    3.692    0.000    0.000 
#    0.000    0.000    0.000    0.000    0.000    0.000 
#
# Total GULP energy -161116.932693 kJ/mol
# GULP energy per Si atom -12393.610207 kJ/mol
# Density = 1.956660 g / cm^3
# Si number density = 19.611239 Si / 1000 Ang^3
#
#
#
# Elastic Constant Matrix: (Units=GPa)
#
#
# Indices 1 2 3 4 5 6 
#
# 1 120.5725 42.4633 29.8866 0.0000 -4.4171 0.0000
# 2 42.4633 104.9674 23.5681 0.0000 2.6085 0.0000
# 3 29.8866 23.5681 77.2723 0.0000 6.3825 0.0000
# 4 0.0000 0.0000 0.0000 25.9002 0.0000 4.9515
# 5 -4.4171 2.6085 6.3825 0.0000 22.1188 0.0000
# 6 0.0000 0.0000 0.0000 4.9515 0.0000 24.5248
#
#
#
# Elastic Compliance Matrix: (Units=1/GPa)
#
#
# Indices 1 2 3 4 5 6 
#
# 1 0.010493 -0.003602 -0.003245 0.000000 0.003457 0.000000
# 2 -0.003602 0.011466 -0.001980 0.000000 -0.001500 0.000000
# 3 -0.003245 -0.001980 0.015197 0.000000 -0.004800 0.000000
# 4 0.000000 0.000000 0.000000 0.040160 0.000000 -0.008108
# 5 0.003457 -0.001500 -0.004800 0.000000 0.047463 0.000000
# 6 0.000000 0.000000 0.000000 -0.008108 0.000000 0.042412
#
#
# Mechanical properties :
#
#
# Convention : Reuss Voigt Hill
#
# Bulk Modulus (GPa) = 51.27950 54.96090 53.12020
# Shear Modulus (GPa) = 26.13066 28.30171 27.21619
#
# Velocity S-wave (km/s) = 3.65421 3.80299 3.72934
# Velocity P-wave (km/s) = 6.63394 6.88256 6.75939
#
# Compressibility (1/GPa) = 0.01950097
#
# Stress axis : x y z
#
# Youngs Moduli (GPa) = 95.29721 87.21560 65.80337
#
# Poissons Ratio (x) = 0.31417 0.21356
# Poissons Ratio (y) = 0.34328 0.13029
# Poissons Ratio (z) = 0.30928 0.17268
#
# Static dielectric constant tensor:
#      x y z
#    x 3.647880 0.000000 0.245490 
#    y 0.000000 3.344310 0.000000 
#    z 0.245490 0.000000 3.840310 
# 
# 
# High freq. dielectric constant tensor:
#      x y z
#    x 1.762080 0.000000 0.033230 
#    y 0.000000 1.737150 0.000000 
#    z 0.033230 0.000000 1.768680 
# 
# From -- ./inp_files/43268.got.cif
#   From: 2010.03.12/outbox.cif.g09.slc.cpg/sg5_22_cif.got.tgz:43268.got - 2010.03.31 09:47:26.
