data_PCOD8048753
_publ_section_title
;
Structure prediction by ZEFSAII (Michael W. Deem and Ramdas Pophale) SiO2 
 PCOD8048753
Probable space group: C 2
;
_chemical_formula_sum "Si O2"
_cell_formula_units_Z 22
_cell_length_a 14.057173
_cell_length_b 5.150183
_cell_length_c 16.564224
_cell_angle_alpha 90.000000
_cell_angle_beta 132.057533
_cell_angle_gamma 90.000000
_cell_volume 890.373340
_symmetry_space_group_name_H-M "C 2"
_symmetry_group_IT_number 5
_symmetry_cell_setting 'monoclinic'
loop_
_space_group_symop_operation_xyz
x,y,z
-x,y,-z
1/2+x,1/2+y,z
1/2-x,1/2+y,-z
loop_
_atom_site_type_symbol
_atom_site_label
_atom_site_fract_x
_atom_site_fract_y
_atom_site_fract_z
Si Si1 0.333328 0.724290 0.037354
Si Si2 0.450868 0.294634 0.600129
Si Si3 0.794275 0.785378 0.359638
Si Si4 0.000000 0.987629 0.000000
Si Si5 0.462029 0.793404 0.271191
Si Si6 0.206723 0.785245 0.230222
O O1 0.397552 0.670438 0.987190
O O2 0.441871 0.795913 0.163845
O O3 0.261094 0.466881 0.028379
O O4 0.324570 0.297605 0.472314
O O5 0.574464 0.294184 0.613992
O O6 0.451630 0.548274 0.656083
O O7 0.453492 0.042708 0.658143
O O8 0.717062 0.523239 0.298240
O O9 0.705033 0.024705 0.282156
O O10 0.074053 0.803508 0.105405
O O11 0.323964 0.792096 0.234552
#
# Coordination Sequence:
#
# PCOD8048753 Si02
#       6
#     4   4   4   2   4   4
#     4  12  27  46  70 101 144 190 239 294 347 422
#     4   9  17  32  61  93 129 172 219 281 348 400
#     4   9  18  33  57  95 132 168 225 281 334 414
#     4  12  28  46  72 102 146 194 234 290 362 408
#     4  10  19  37  62  93 134 173 223 285 340 409
#     4  10  21  36  60  93 137 176 224 280 337 409
#
# _framework density 24.708735999999998
#
# number of rings (size 3 to 8) (size 9 to 14) (size 15 to 20)
#    0.000    1.818    1.818    2.182    5.091    7.273 
#    0.000    0.000    0.000    4.364    0.000    0.000 
#    0.000    0.000    0.000    0.000    0.000    0.000 
#
# Total GULP energy -136458.907856 kJ/mol
# GULP energy per Si atom -12405.355260 kJ/mol
# Density = 2.465250 g / cm^3
# Si number density = 24.708736 Si / 1000 Ang^3
#
#
#
# Elastic Constant Matrix: (Units=GPa)
#
#
# Indices 1 2 3 4 5 6 
#
# 1 61.0326 13.5839 16.9515 0.0000 2.8026 0.0000
# 2 13.5839 200.8562 79.0410 -0.0002 -4.8039 0.0002
# 3 16.9515 79.0410 204.9106 0.0000 -14.6540 0.0000
# 4 0.0000 -0.0002 0.0000 46.8356 0.0000 -4.3394
# 5 2.8026 -4.8039 -14.6540 0.0000 29.1480 0.0000
# 6 0.0000 0.0002 0.0000 -4.3394 0.0000 -5.3918
#
#
#
# Elastic Compliance Matrix: (Units=1/GPa)
#
#
# Indices 1 2 3 4 5 6 
#
# 1 0.017014 -0.000692 -0.001313 0.000000 -0.002410 0.000000
# 2 -0.000692 0.005899 -0.002224 0.000000 -0.000079 0.000000
# 3 -0.001313 -0.002224 0.006047 0.000000 0.002800 0.000000
# 4 0.000000 0.000000 0.000000 0.019870 0.000000 -0.015991
# 5 -0.002410 -0.000079 0.002800 0.000000 0.035934 0.000000
# 6 0.000000 0.000000 0.000000 -0.015991 0.000000 -0.172598
#
#
# Mechanical properties :
#
#
# Convention : Reuss Voigt Hill
#
# Bulk Modulus (GPa) = 48.77434 76.21690 62.49562
# Shear Modulus (GPa) = -68.92375 37.93322 -15.49526
#
# Velocity S-wave (km/s) = -5.28725 3.92243 -2.50695
# Velocity P-wave (km/s) = 4.18220 7.17127 4.11924
#
# Compressibility (1/GPa) = 0.02050258
#
# Stress axis : x y z
#
# Youngs Moduli (GPa) = 58.77519 169.52997 165.37639
#
# Poissons Ratio (x) = 0.11724 0.21715
# Poissons Ratio (y) = 0.04065 0.36776
# Poissons Ratio (z) = 0.07718 0.37700
#
# Static dielectric constant tensor:
#      x y z
#    x 4.031620 0.000000 -0.063500 
#    y 0.000000 4.564320 0.000000 
#    z -0.063500 0.000000 4.557360 
# 
# 
# High freq. dielectric constant tensor:
#      x y z
#    x 1.970370 0.000000 -0.002610 
#    y 0.000000 1.988360 0.000000 
#    z -0.002610 0.000000 1.996620 
# 
# From -- ./inp_files/41156.got.cif
#   From: 2010.03.12/outbox.cif.g09.slc.cpg/sg5_21_cif.got.tgz:41156.got - 2010.03.31 09:47:26.
