data_PCOD8048886
_publ_section_title
;
Structure prediction by ZEFSAII (Michael W. Deem and Ramdas Pophale) SiO2 
 PCOD8048886
Probable space group: C 2
;
_chemical_formula_sum "Si O2"
_cell_formula_units_Z 30
_cell_length_a 11.010841
_cell_length_b 16.253185
_cell_length_c 15.896455
_cell_angle_alpha 90.000000
_cell_angle_beta 29.388249
_cell_angle_gamma 90.000000
_cell_volume 1396.038818
_symmetry_space_group_name_H-M "C 2"
_symmetry_group_IT_number 5
_symmetry_cell_setting 'monoclinic'
loop_
_space_group_symop_operation_xyz
x,y,z
-x,y,-z
1/2+x,1/2+y,z
1/2-x,1/2+y,-z
loop_
_atom_site_type_symbol
_atom_site_label
_atom_site_fract_x
_atom_site_fract_y
_atom_site_fract_z
Si Si1 0.716495 0.699940 0.810779
Si Si2 0.111147 0.530748 0.321992
Si Si3 0.000000 0.145542 0.500000
Si Si4 0.479919 0.442019 0.213469
Si Si5 0.737439 0.906685 0.114895
Si Si6 0.027882 0.752141 0.765107
Si Si7 0.565852 0.582740 0.642756
Si Si8 0.071686 0.236783 0.165294
O O1 0.689252 0.601441 0.818933
O O2 0.677335 0.738728 0.741806
O O3 0.972552 0.723848 0.702196
O O4 0.500000 0.735327 0.000000
O O5 0.223308 0.477835 0.330633
O O6 0.073840 0.472509 0.263557
O O7 0.854039 0.576702 0.496358
O O8 0.766609 0.204568 0.653272
O O9 0.971904 0.087525 0.434842
O O10 0.420822 0.348767 0.273585
O O11 0.558477 0.498346 0.246090
O O12 0.709544 0.442793 0.009823
O O13 0.584098 0.822143 0.207983
O O14 0.000000 0.889181 0.000000
O O15 0.811836 0.727590 0.960627
O O16 0.440891 0.661926 0.761558
#
# Coordination Sequence:
#
# PCOD8048886 Si02
#       8
#     4   4   2   4   4   4   4   4
#     4  10  19  40  68  96 129 166 220 275 328 390
#     4  11  21  39  65 100 129 167 226 271 325 394
#     4  12  28  44  62  96 140 182 220 280 342 388
#     4  10  22  41  68  96 127 174 231 272 325 395
#     4   9  21  40  69  99 131 173 226 277 328 394
#     4  10  24  44  69  97 133 178 224 275 334 400
#     4  12  26  39  64  97 134 176 220 276 333 393
#     4  10  23  41  70 101 130 177 226 273 335 399
#
# _framework density 21.489373000000001
#
# number of rings (size 3 to 8) (size 9 to 14) (size 15 to 20)
#    0.000    1.600    2.667    1.600    9.333    0.000 
#    2.400    0.000    5.867    0.000    0.000    0.000 
#    0.000    0.000    0.000    0.000    0.000    0.000 
#
# Total GULP energy -185947.309845 kJ/mol
# GULP energy per Si atom -12396.487323 kJ/mol
# Density = 2.144046 g / cm^3
# Si number density = 21.489373 Si / 1000 Ang^3
#
#
#
# Elastic Constant Matrix: (Units=GPa)
#
#
# Indices 1 2 3 4 5 6 
#
# 1 104.6635 58.6590 27.8696 0.0105 11.0789 -0.0015
# 2 58.6590 152.4172 44.6461 0.1040 13.9823 -0.0646
# 3 27.8696 44.6461 63.8339 0.0741 3.1785 -0.0842
# 4 0.0105 0.1040 0.0741 29.7180 -0.0561 -0.4164
# 5 11.0789 13.9823 3.1785 -0.0561 34.2725 0.0449
# 6 -0.0015 -0.0646 -0.0842 -0.4164 0.0449 43.8796
#
#
#
# Elastic Compliance Matrix: (Units=1/GPa)
#
#
# Indices 1 2 3 4 5 6 
#
# 1 0.012693 -0.003882 -0.002714 0.000011 -0.002268 -0.000008
# 2 -0.003882 0.009724 -0.004994 -0.000024 -0.002249 0.000007
# 3 -0.002714 -0.004994 0.020292 -0.000030 0.001033 0.000030
# 4 0.000011 -0.000024 -0.000030 0.033654 0.000064 0.000319
# 5 -0.002268 -0.002249 0.001033 0.000064 0.030733 -0.000032
# 6 -0.000008 0.000007 0.000030 0.000319 -0.000032 0.022793
#
#
# Mechanical properties :
#
#
# Convention : Reuss Voigt Hill
#
# Bulk Modulus (GPa) = 51.20526 64.80710 58.00618
# Shear Modulus (GPa) = 31.33249 34.22335 32.77792
#
# Velocity S-wave (km/s) = 3.82258 3.99503 3.90976
# Velocity P-wave (km/s) = 6.58504 7.17660 6.88717
#
# Compressibility (1/GPa) = 0.01952924
#
# Stress axis : x y z
#
# Youngs Moduli (GPa) = 78.78535 102.83550 49.28020
#
# Poissons Ratio (x) = 0.39921 0.13372
# Poissons Ratio (y) = 0.30585 0.24612
# Poissons Ratio (z) = 0.21379 0.51360
#
# Static dielectric constant tensor:
#      x y z
#    x 4.085310 -0.000100 0.202210 
#    y -0.000100 3.954940 0.000030 
#    z 0.202210 0.000030 3.778570 
# 
# 
# High freq. dielectric constant tensor:
#      x y z
#    x 1.841090 0.000000 0.016170 
#    y 0.000000 1.846830 0.000010 
#    z 0.016170 0.000010 1.831030 
# 
# From -- ./inp_files/44906.got.cif
#   From: 2010.03.12/outbox.cif.g09.slc.cpg/sg5_23_cif.got.tgz:44906.got - 2010.03.31 09:47:26.
