data_PCOD8048647
_publ_section_title
;
Structure prediction by ZEFSAII (Michael W. Deem and Ramdas Pophale) SiO2 
 PCOD8048647
Probable space group: C 2
;
_chemical_formula_sum "Si O2"
_cell_formula_units_Z 32
_cell_length_a 15.877861
_cell_length_b 12.176099
_cell_length_c 14.078770
_cell_angle_alpha 90.000000
_cell_angle_beta 36.812521
_cell_angle_gamma 90.000000
_cell_volume 1630.931229
_symmetry_space_group_name_H-M "C 2"
_symmetry_group_IT_number 5
_symmetry_cell_setting 'monoclinic'
loop_
_space_group_symop_operation_xyz
x,y,z
-x,y,-z
1/2+x,1/2+y,z
1/2-x,1/2+y,-z
loop_
_atom_site_type_symbol
_atom_site_label
_atom_site_fract_x
_atom_site_fract_y
_atom_site_fract_z
Si Si1 0.861850 0.622490 0.186140
Si Si2 0.986196 0.426266 0.717514
Si Si3 0.424045 0.165423 0.712866
Si Si4 0.912819 0.388132 0.173817
Si Si5 0.262702 0.810816 0.801300
Si Si6 0.279011 0.183615 0.654406
Si Si7 0.487274 0.293534 0.831145
Si Si8 0.724921 0.448225 0.648023
O O1 0.816033 0.498968 0.255119
O O2 0.738805 0.685848 0.239083
O O3 0.906035 0.694485 0.237624
O O4 0.000000 0.605516 0.000000
O O5 0.978974 0.402277 0.836290
O O6 0.145993 0.425785 0.538577
O O7 0.912657 0.542791 0.764467
O O8 0.900560 0.330672 0.739909
O O9 0.299380 0.179379 0.749732
O O10 0.572187 0.189063 0.530968
O O11 0.402031 0.256189 0.815001
O O12 0.810271 0.289243 0.291923
O O13 0.000000 0.362837 0.000000
O O14 0.260313 0.896382 0.717849
O O15 0.120214 0.826320 0.989426
O O16 0.197379 0.076834 0.690024
O O17 0.584903 0.399793 0.725624
#
# Coordination Sequence:
#
# PCOD8048647 Si02
#       8
#     4   4   4   4   4   4   4   4
#     4   8  17  35  55  81 113 152 185 231 290 344
#     4  11  21  38  63  87 114 155 201 240 288 353
#     4  10  20  39  61  82 112 164 198 230 291 364
#     4  11  23  38  57  85 124 159 190 236 298 356
#     4  10  20  35  63  93 112 146 203 248 285 338
#     4  10  22  38  58  83 120 156 196 239 293 347
#     4  10  19  35  62  86 115 149 197 239 291 346
#     4  10  20  38  62  89 117 150 196 250 293 340
#
# _framework density 19.620691999999998
#
# number of rings (size 3 to 8) (size 9 to 14) (size 15 to 20)
#    0.000    2.000    2.500    2.250    1.750    1.000 
#    0.000    1.250   11.000    0.000    0.000    0.000 
#    0.000    0.000    0.000    0.000    0.000    0.000 
#
# Total GULP energy -198380.604541 kJ/mol
# GULP energy per Si atom -12398.787784 kJ/mol
# Density = 1.957603 g / cm^3
# Si number density = 19.620692 Si / 1000 Ang^3
#
#
#
# Elastic Constant Matrix: (Units=GPa)
#
#
# Indices 1 2 3 4 5 6 
#
# 1 96.6603 38.0973 12.2679 0.0000 10.8098 0.0000
# 2 38.0973 133.1222 22.2559 0.0000 -9.6716 0.0000
# 3 12.2679 22.2559 38.2815 0.0000 8.5914 0.0000
# 4 0.0000 0.0000 0.0000 17.2061 0.0000 -2.1502
# 5 10.8098 -9.6716 8.5914 0.0000 28.5250 0.0000
# 6 0.0000 0.0000 0.0000 -2.1502 0.0000 30.6152
#
#
#
# Elastic Compliance Matrix: (Units=1/GPa)
#
#
# Indices 1 2 3 4 5 6 
#
# 1 0.012642 -0.003993 -0.000376 0.000000 -0.006031 0.000000
# 2 -0.003993 0.010182 -0.006172 0.000000 0.006824 0.000000
# 3 -0.000376 -0.006172 0.032463 0.000000 -0.011727 0.000000
# 4 0.000000 0.000000 0.000000 0.058634 0.000000 0.004118
# 5 -0.006031 0.006824 -0.011727 0.000000 0.043189 0.000000
# 6 0.000000 0.000000 0.000000 0.004118 0.000000 0.032953
#
#
# Mechanical properties :
#
#
# Convention : Reuss Voigt Hill
#
# Bulk Modulus (GPa) = 29.23559 45.92290 37.57924
# Shear Modulus (GPa) = 22.46737 28.29876 25.38307
#
# Velocity S-wave (km/s) = 3.38758 3.80187 3.60069
# Velocity P-wave (km/s) = 5.49852 6.53670 6.03996
#
# Compressibility (1/GPa) = 0.03420489
#
# Stress axis : x y z
#
# Youngs Moduli (GPa) = 79.10411 98.21006 30.80451
#
# Poissons Ratio (x) = 0.39216 0.01159
# Poissons Ratio (y) = 0.31587 0.19011
# Poissons Ratio (z) = 0.02975 0.60612
#
# Static dielectric constant tensor:
#      x y z
#    x 3.643300 0.000000 0.199650 
#    y 0.000000 3.780600 0.000000 
#    z 0.199650 0.000000 3.317090 
# 
# 
# High freq. dielectric constant tensor:
#      x y z
#    x 1.761060 0.000000 0.021780 
#    y 0.000000 1.766460 0.000000 
#    z 0.021780 0.000000 1.743500 
# 
# From -- ./inp_files/54583.got.cif
#   From: 2010.03.12/outbox.cif.g09.slc.cpg/sg5_28_cif.got.tgz:54583.got - 2010.03.31 09:47:26.
