data_PCOD8048913
_publ_section_title
;
Structure prediction by ZEFSAII (Michael W. Deem and Ramdas Pophale) SiO2 
 PCOD8048913
Probable space group: C 2
;
_chemical_formula_sum "Si O2"
_cell_formula_units_Z 32
_cell_length_a 22.057632
_cell_length_b 9.376980
_cell_length_c 13.934287
_cell_angle_alpha 90.000000
_cell_angle_beta 31.416973
_cell_angle_gamma 90.000000
_cell_volume 1502.322174
_symmetry_space_group_name_H-M "C 2"
_symmetry_group_IT_number 5
_symmetry_cell_setting 'monoclinic'
loop_
_space_group_symop_operation_xyz
x,y,z
-x,y,-z
1/2+x,1/2+y,z
1/2-x,1/2+y,-z
loop_
_atom_site_type_symbol
_atom_site_label
_atom_site_fract_x
_atom_site_fract_y
_atom_site_fract_z
Si Si1 0.631641 0.473610 0.566678
Si Si2 0.038036 0.656781 0.696110
Si Si3 0.864446 0.254753 0.901824
Si Si4 0.399143 0.971791 0.215539
Si Si5 0.522294 0.672121 0.856422
Si Si6 0.224166 0.555424 0.955163
Si Si7 0.610883 0.649780 0.417314
Si Si8 0.551632 0.934419 0.529059
O O1 0.574623 0.319014 0.634269
O O2 0.767674 0.476361 0.355604
O O3 0.601700 0.540636 0.711469
O O4 0.572341 0.577098 0.569242
O O5 0.083344 0.602885 0.736664
O O6 0.098954 0.563763 0.529312
O O7 0.901392 0.629901 0.869440
O O8 0.802538 0.124015 0.932204
O O9 0.906069 0.190426 0.948699
O O10 0.962956 0.326949 0.703294
O O11 0.774922 0.384588 0.037999
O O12 0.409135 0.819569 0.254273
O O13 0.500000 0.983717 0.000000
O O14 0.500000 0.646516 0.000000
O O15 0.275797 0.577370 0.779917
O O16 0.500000 0.632947 0.500000
O O17 0.650801 0.817328 0.372016
O O18 0.500000 0.999375 0.500000
#
# Coordination Sequence:
#
# PCOD8048913 Si02
#       8
#     4   4   4   4   4   4   4   4
#     4  12  25  42  69 100 133 178 234 295 334 412
#     4  11  25  42  64 100 135 171 227 289 339 410
#     4  11  22  43  68  98 140 180 222 286 345 411
#     4  11  23  47  70  92 131 182 234 282 346 408
#     4  11  24  46  69  95 141 191 230 275 348 417
#     4  11  23  40  69 102 132 181 224 285 350 411
#     4  11  21  40  66  96 131 179 229 274 352 419
#     4  10  19  42  65  93 134 175 217 270 354 406
#
# _framework density 21.300357999999999
#
# number of rings (size 3 to 8) (size 9 to 14) (size 15 to 20)
#    0.000    1.000    6.250    1.500    5.250    1.000 
#    2.250    5.000    0.000    0.000    0.000    0.000 
#    0.000    0.000    0.000    0.000    0.000    0.000 
#
# Total GULP energy -198284.729719 kJ/mol
# GULP energy per Si atom -12392.795607 kJ/mol
# Density = 2.125188 g / cm^3
# Si number density = 21.300358 Si / 1000 Ang^3
#
#
#
# Elastic Constant Matrix: (Units=GPa)
#
#
# Indices 1 2 3 4 5 6 
#
# 1 120.2104 46.0127 33.7209 0.0000 12.9066 0.0000
# 2 46.0127 125.9247 31.2258 -0.0001 8.3964 0.0001
# 3 33.7209 31.2258 71.8603 0.0000 7.8591 0.0000
# 4 0.0000 -0.0001 0.0000 27.6825 0.0000 -5.4975
# 5 12.9066 8.3964 7.8591 0.0000 31.8992 0.0000
# 6 0.0000 0.0001 0.0000 -5.4975 0.0000 26.9379
#
#
#
# Elastic Compliance Matrix: (Units=1/GPa)
#
#
# Indices 1 2 3 4 5 6 
#
# 1 0.010679 -0.002860 -0.003471 0.000000 -0.002712 0.000000
# 2 -0.002860 0.009730 -0.002808 0.000000 -0.000712 0.000000
# 3 -0.003471 -0.002808 0.016988 0.000000 -0.002042 0.000000
# 4 0.000000 0.000000 0.000000 0.037650 0.000000 0.007684
# 5 -0.002712 -0.000712 -0.002042 0.000000 0.033137 0.000000
# 6 0.000000 0.000000 0.000000 0.007684 0.000000 0.038690
#
#
# Mechanical properties :
#
#
# Convention : Reuss Voigt Hill
#
# Bulk Modulus (GPa) = 52.30767 59.99047 56.14907
# Shear Modulus (GPa) = 29.15009 31.10634 30.12821
#
# Velocity S-wave (km/s) = 3.70337 3.82562 3.76499
# Velocity P-wave (km/s) = 6.54959 6.90934 6.73187
#
# Compressibility (1/GPa) = 0.01911765
#
# Stress axis : x y z
#
# Youngs Moduli (GPa) = 93.64537 102.77303 58.86377
#
# Poissons Ratio (x) = 0.29396 0.20434
# Poissons Ratio (y) = 0.26785 0.16529
# Poissons Ratio (z) = 0.32509 0.28859
#
# Static dielectric constant tensor:
#      x y z
#    x 3.937690 0.000000 0.258220 
#    y 0.000000 4.112830 0.000000 
#    z 0.258220 0.000000 4.016960 
# 
# 
# High freq. dielectric constant tensor:
#      x y z
#    x 1.839840 0.000000 0.014020 
#    y 0.000000 1.842830 0.000000 
#    z 0.014020 0.000000 1.827330 
# 
# From -- ./inp_files/57695.got.cif
#   From: 2010.03.12/outbox.cif.g09.slc.cpg/sg5_29_cif.got.tgz:57695.got - 2010.03.31 09:47:26.
