data_PCOD8048965
_publ_section_title
;
Structure prediction by ZEFSAII (Michael W. Deem and Ramdas Pophale) SiO2 
 PCOD8048965
Probable space group: C 2
;
_chemical_formula_sum "Si O2"
_cell_formula_units_Z 32
_cell_length_a 12.034415
_cell_length_b 12.577561
_cell_length_c 11.901526
_cell_angle_alpha 90.000000
_cell_angle_beta 63.904916
_cell_angle_gamma 90.000000
_cell_volume 1617.826673
_symmetry_space_group_name_H-M "C 2"
_symmetry_group_IT_number 5
_symmetry_cell_setting 'monoclinic'
loop_
_space_group_symop_operation_xyz
x,y,z
-x,y,-z
1/2+x,1/2+y,z
1/2-x,1/2+y,-z
loop_
_atom_site_type_symbol
_atom_site_label
_atom_site_fract_x
_atom_site_fract_y
_atom_site_fract_z
Si Si1 0.699699 0.329800 0.652105
Si Si2 0.122351 0.364988 0.216475
Si Si3 0.809038 0.936973 0.854173
Si Si4 0.309398 0.080017 0.915459
Si Si5 0.520563 0.260086 0.115519
Si Si6 0.140494 0.267914 0.965859
Si Si7 0.580012 0.743704 0.575051
Si Si8 0.027827 0.005806 0.616443
O O1 0.787085 0.354550 0.718271
O O2 0.598225 0.250769 0.749983
O O3 0.778490 0.275975 0.516438
O O4 0.629605 0.430678 0.629297
O O5 0.128934 0.490908 0.190455
O O6 0.983000 0.326778 0.310038
O O7 0.163031 0.297067 0.088465
O O8 0.684797 0.871513 0.872570
O O9 0.886084 0.845349 0.878876
O O10 0.888376 0.990934 0.722603
O O11 0.775951 0.032170 0.950638
O O12 0.424371 0.142366 0.917247
O O13 0.219291 0.164381 0.892645
O O14 0.500000 0.302928 0.000000
O O15 0.000000 0.243427 0.000000
O O16 0.500000 0.745569 0.500000
O O17 0.576786 0.623720 0.623397
O O18 0.000000 0.980945 0.500000
#
# Coordination Sequence:
#
# PCOD8048965 Si02
#       8
#     4   4   4   4   4   4   4   4
#     4  10  21  39  60  81 108 147 187 223 272 330
#     4  10  21  38  56  80 113 147 183 223 269 331
#     4   9  20  37  52  78 113 145 182 223 274 334
#     4  10  20  33  55  83 111 140 180 231 274 320
#     4  10  20  35  57  82 110 145 182 223 273 329
#     4  10  21  35  54  83 114 145 182 229 278 323
#     4   9  20  38  58  81 111 147 187 225 270 330
#     4  10  21  37  59  82 108 146 186 229 276 323
#
# _framework density 19.779622
#
# number of rings (size 3 to 8) (size 9 to 14) (size 15 to 20)
#    0.000    2.250    0.000    3.000    0.000    9.500 
#    0.000    2.500    0.000    3.000    0.000    0.000 
#    0.000    0.000    0.000    0.000    0.000    0.000 
#
# Total GULP energy -198218.999446 kJ/mol
# GULP energy per Si atom -12388.687465 kJ/mol
# Density = 1.973460 g / cm^3
# Si number density = 19.779622 Si / 1000 Ang^3
#
#
#
# Elastic Constant Matrix: (Units=GPa)
#
#
# Indices 1 2 3 4 5 6 
#
# 1 71.3491 28.7654 37.4508 0.0000 -15.8937 0.0000
# 2 28.7654 104.8359 51.4892 0.0000 -19.3259 0.0000
# 3 37.4508 51.4892 118.7191 0.0000 -31.7150 0.0000
# 4 0.0000 0.0000 0.0000 32.3948 0.0000 -5.1582
# 5 -15.8937 -19.3259 -31.7150 0.0000 42.6092 0.0000
# 6 0.0000 0.0000 0.0000 -5.1582 0.0000 -2.6801
#
#
#
# Elastic Compliance Matrix: (Units=1/GPa)
#
#
# Indices 1 2 3 4 5 6 
#
# 1 0.017581 -0.002491 -0.003764 0.000000 0.002626 0.000000
# 2 -0.002491 0.012609 -0.004248 0.000000 0.001628 0.000000
# 3 -0.003764 -0.004248 0.013185 0.000000 0.006483 0.000000
# 4 0.000000 0.000000 0.000000 0.023628 0.000000 -0.045475
# 5 0.002626 0.001628 0.006483 0.000000 0.030013 0.000000
# 6 0.000000 0.000000 0.000000 -0.045475 0.000000 -0.285598
#
#
# Mechanical properties :
#
#
# Convention : Reuss Voigt Hill
#
# Bulk Modulus (GPa) = 44.70565 58.92388 51.81477
# Shear Modulus (GPa) = -31.22630 26.27802 -2.47414
#
# Velocity S-wave (km/s) = -3.97761 3.64887 -1.11963
# Velocity P-wave (km/s) = 1.24730 6.89980 4.95797
#
# Compressibility (1/GPa) = 0.02236853
#
# Stress axis : x y z
#
# Youngs Moduli (GPa) = 56.88075 79.31133 75.84498
#
# Poissons Ratio (x) = 0.19757 0.28548
# Poissons Ratio (y) = 0.14170 0.32217
# Poissons Ratio (z) = 0.21410 0.33689
#
# Static dielectric constant tensor:
#      x y z
#    x 3.808690 0.000000 -0.486560 
#    y 0.000000 3.822930 0.000000 
#    z -0.486560 0.000000 3.907110 
# 
# 
# High freq. dielectric constant tensor:
#      x y z
#    x 1.766790 0.000000 -0.022220 
#    y 0.000000 1.776740 0.000000 
#    z -0.022220 0.000000 1.771070 
# 
# From -- ./inp_files/39391.got.cif
#   From: 2010.03.12/outbox.cif.g09.slc.cpg/sg5_20_cif.got.tgz:39391.got - 2010.03.31 09:47:26.
