data_PCOD8048058
_publ_section_title
;
Structure prediction by ZEFSAII (Michael W. Deem and Ramdas Pophale) SiO2 
 PCOD8048058
Probable space group: C 2
;
_chemical_formula_sum "Si O2"
_cell_formula_units_Z 28
_cell_length_a 7.617570
_cell_length_b 32.935291
_cell_length_c 5.349439
_cell_angle_alpha 90.000000
_cell_angle_beta 123.178208
_cell_angle_gamma 90.000000
_cell_volume 1123.304231
_symmetry_space_group_name_H-M "C 2"
_symmetry_group_IT_number 5
_symmetry_cell_setting 'monoclinic'
loop_
_space_group_symop_operation_xyz
x,y,z
-x,y,-z
1/2+x,1/2+y,z
1/2-x,1/2+y,-z
loop_
_atom_site_type_symbol
_atom_site_label
_atom_site_fract_x
_atom_site_fract_y
_atom_site_fract_z
Si Si1 0.249379 0.609090 0.159204
Si Si2 0.134529 0.321002 0.354563
Si Si3 0.881280 0.988681 0.649465
Si Si4 0.250139 0.734708 0.560474
Si Si5 0.266222 0.072494 0.350375
Si Si6 0.778059 0.201782 0.085217
Si Si7 0.133685 0.409961 0.354610
O O1 0.347096 0.597424 0.509085
O O2 0.312015 0.653855 0.120477
O O3 0.340818 0.579723 0.007189
O O4 0.000000 0.603125 0.000000
O O5 0.294926 0.283203 0.479373
O O6 0.246122 0.365447 0.440138
O O7 0.000000 0.317194 0.500000
O O8 0.000000 0.316930 0.000000
O O9 0.796813 0.946026 0.485516
O O10 0.000000 0.006200 0.500000
O O11 0.716477 0.024435 0.580272
O O12 0.000000 0.979868 0.000000
O O13 0.149905 0.714570 0.234487
O O14 0.498813 0.724661 0.750292
O O15 0.149847 0.715862 0.736582
O O16 0.500000 0.090162 0.500000
O O17 0.000000 0.414226 0.500000
O O18 0.000000 0.415351 0.000000
#
# Coordination Sequence:
#
# PCOD8048058 Si02
#       7
#     4   4   4   4   4   4   4
#     4  10  21  38  57  80 110 156 206 246 285 350
#     4  10  16  31  54  84 112 140 199 242 292 329
#     4  12  25  43  62  93 130 159 192 258 333 366
#     4  10  17  30  49  81 112 149 174 247 292 338
#     4  10  22  42  63  81 113 162 209 250 289 369
#     4  10  18  30  49  78 112 147 181 234 302 334
#     4  10  22  38  66  95 116 163 209 253 287 386
#
# _framework density 24.926462999999998
#
# number of rings (size 3 to 8) (size 9 to 14) (size 15 to 20)
#    0.000    1.714    2.857    3.000    0.000    1.714 
#   15.429    0.000    0.000    2.571    0.000    0.000 
#    0.000    0.000    0.000    0.000    0.000    0.000 
#
# Total GULP energy -173512.210769 kJ/mol
# GULP energy per Si atom -12393.729341 kJ/mol
# Density = 2.486973 g / cm^3
# Si number density = 24.926463 Si / 1000 Ang^3
#
#
#
# Elastic Constant Matrix: (Units=GPa)
#
#
# Indices 1 2 3 4 5 6 
#
# 1 87.8778 30.1358 51.2325 0.0000 -49.3590 0.0000
# 2 30.1358 207.5702 55.8889 0.0000 -29.7833 0.0000
# 3 51.2325 55.8889 196.8918 0.0000 -63.6163 0.0000
# 4 0.0000 0.0000 0.0000 77.3179 0.0000 7.2931
# 5 -49.3590 -29.7833 -63.6163 0.0000 41.6591 0.0000
# 6 0.0000 0.0000 0.0000 7.2931 0.0000 29.7140
#
#
#
# Elastic Compliance Matrix: (Units=1/GPa)
#
#
# Indices 1 2 3 4 5 6 
#
# 1 0.042526 0.000605 0.010230 0.000000 0.066439 0.000000
# 2 0.000605 0.005408 -0.000418 0.000000 0.003945 0.000000
# 3 0.010230 -0.000418 0.012545 0.000000 0.030979 0.000000
# 4 0.000000 0.000000 0.000000 0.013240 0.000000 -0.003250
# 5 0.066439 0.003945 0.030979 0.000000 0.152851 0.000000
# 6 0.000000 0.000000 0.000000 -0.003250 0.000000 0.034452
#
#
# Mechanical properties :
#
#
# Convention : Reuss Voigt Hill
#
# Bulk Modulus (GPa) = 12.29832 85.20602 48.75217
# Shear Modulus (GPa) = 18.70606 53.41038 36.05822
#
# Velocity S-wave (km/s) = 2.74241 4.63397 3.80752
# Velocity P-wave (km/s) = 3.86940 7.93024 6.23943
#
# Compressibility (1/GPa) = 0.08131192
#
# Stress axis : x y z
#
# Youngs Moduli (GPa) = 23.51518 184.89695 79.71245
#
# Poissons Ratio (x) = -0.11180 -0.81543
# Poissons Ratio (y) = -0.01422 0.03332
# Poissons Ratio (z) = -0.24055 0.07728
#
# Static dielectric constant tensor:
#      x y z
#    x 4.502020 0.000000 -0.599650 
#    y 0.000000 4.680630 0.000000 
#    z -0.599650 0.000000 4.673590 
# 
# 
# High freq. dielectric constant tensor:
#      x y z
#    x 1.998660 0.000000 -0.034420 
#    y 0.000000 1.998290 0.000000 
#    z -0.034420 0.000000 2.020160 
# 
# From -- ./inp_files/3990.got.cif
#   From: 2010.03.12/outbox.cif.g09.slc.cpg/sg5_2_cif.got.tgz:3990.got - 2010.03.31 09:47:26.
