data_PCOD8048115
_publ_section_title
;
Structure prediction by ZEFSAII (Michael W. Deem and Ramdas Pophale) SiO2 
 PCOD8048115
Probable space group: C 2
;
_chemical_formula_sum "Si O2"
_cell_formula_units_Z 32
_cell_length_a 27.121041
_cell_length_b 9.093163
_cell_length_c 21.181726
_cell_angle_alpha 90.000000
_cell_angle_beta 162.093504
_cell_angle_gamma 90.000000
_cell_volume 1606.118788
_symmetry_space_group_name_H-M "C 2"
_symmetry_group_IT_number 5
_symmetry_cell_setting 'monoclinic'
loop_
_space_group_symop_operation_xyz
x,y,z
-x,y,-z
1/2+x,1/2+y,z
1/2-x,1/2+y,-z
loop_
_atom_site_type_symbol
_atom_site_label
_atom_site_fract_x
_atom_site_fract_y
_atom_site_fract_z
Si Si1 0.360479 0.427390 0.434852
Si Si2 0.186915 0.379267 0.349825
Si Si3 0.736183 0.216361 0.437829
Si Si4 0.300270 0.478291 0.120064
Si Si5 0.395134 0.752814 0.432487
Si Si6 0.651952 0.943042 0.071351
Si Si7 0.946958 0.280679 0.254590
Si Si8 0.553970 0.249992 0.997387
O O1 0.251142 0.363970 0.357351
O O2 0.543139 0.378873 0.672213
O O3 0.354664 0.605593 0.423887
O O4 0.292143 0.366129 0.284401
O O5 0.274320 0.264329 0.502080
O O6 0.217254 0.542073 0.413323
O O7 0.997881 0.334583 0.122012
O O8 0.584263 0.298836 0.219754
O O9 0.904043 0.265045 0.611467
O O10 0.353315 0.627502 0.150404
O O11 0.216495 0.511045 0.084881
O O12 0.180832 0.394319 0.928424
O O13 0.500000 0.710724 0.500000
O O14 0.490674 0.847547 0.601613
O O15 0.230928 0.825708 0.205354
O O16 0.577261 0.074974 0.021547
O O17 0.500000 0.298125 0.000000
#
# Coordination Sequence:
#
# PCOD8048115 Si02
#       8
#     4   4   4   4   4   4   4   4
#     4  10  18  33  53  86 112 140 194 242 275 324
#     4  11  21  35  60  83 116 153 181 234 290 331
#     4  11  21  38  56  88 120 146 190 236 281 344
#     4  11  22  35  61  81 117 153 182 234 293 331
#     4  10  18  33  58  86 115 141 188 245 289 322
#     4  10  18  32  55  87 108 142 193 238 282 329
#     4  11  21  40  54  87 121 147 187 240 279 344
#     4  10  17  31  57  83 111 146 184 242 290 315
#
# _framework density 19.923805999999999
#
# number of rings (size 3 to 8) (size 9 to 14) (size 15 to 20)
#    0.000    1.500    5.000    6.000    0.000    3.000 
#    0.000    0.000    0.000    4.500    0.000    0.000 
#    0.000    0.000    0.000    0.000    0.000    0.000 
#
# Total GULP energy -198235.437659 kJ/mol
# GULP energy per Si atom -12389.714854 kJ/mol
# Density = 1.987846 g / cm^3
# Si number density = 19.923806 Si / 1000 Ang^3
#
#
#
# Elastic Constant Matrix: (Units=GPa)
#
#
# Indices 1 2 3 4 5 6 
#
# 1 108.7398 13.4839 42.9303 -0.0012 -4.2835 -0.0011
# 2 13.4839 25.1506 30.2098 -0.0009 -5.9929 -0.0009
# 3 42.9303 30.2098 180.8075 -0.0017 -7.6683 -0.0019
# 4 -0.0012 -0.0009 -0.0017 23.9089 -0.0008 -3.6642
# 5 -4.2835 -5.9929 -7.6683 -0.0008 41.1852 -0.0009
# 6 -0.0011 -0.0009 -0.0019 -3.6642 -0.0009 15.5437
#
#
#
# Elastic Compliance Matrix: (Units=1/GPa)
#
#
# Indices 1 2 3 4 5 6 
#
# 1 0.010358 -0.003192 -0.001915 0.000000 0.000256 0.000000
# 2 -0.003192 0.052109 -0.007702 0.000002 0.005816 0.000003
# 3 -0.001915 -0.007702 0.007274 0.000000 0.000034 0.000000
# 4 0.000000 0.000002 0.000000 0.043393 0.000001 0.010229
# 5 0.000256 0.005816 0.000034 0.000001 0.025160 0.000002
# 6 0.000000 0.000003 0.000000 0.010229 0.000002 0.066746
#
#
# Mechanical properties :
#
#
# Convention : Reuss Voigt Hill
#
# Bulk Modulus (GPa) = 22.66392 54.21621 38.44007
# Shear Modulus (GPa) = 20.37775 31.33248 25.85512
#
# Velocity S-wave (km/s) = 3.20157 3.96992 3.60627
# Velocity P-wave (km/s) = 5.00667 6.94871 6.05604
#
# Compressibility (1/GPa) = 0.04412299
#
# Stress axis : x y z
#
# Youngs Moduli (GPa) = 96.54107 19.19061 137.47913
#
# Poissons Ratio (x) = 0.06125 0.26331
# Poissons Ratio (y) = 0.30813 1.05886
# Poissons Ratio (z) = 0.18490 0.14781
#
# Static dielectric constant tensor:
#      x y z
#    x 3.657080 0.000000 -0.121580 
#    y 0.000000 2.878660 0.000000 
#    z -0.121580 0.000000 4.680820 
# 
# 
# High freq. dielectric constant tensor:
#      x y z
#    x 1.788640 0.000000 -0.001990 
#    y 0.000000 1.685790 0.000000 
#    z -0.001990 0.000000 1.818680 
# 
# From -- ./inp_files/30876.got.cif
#   From: 2010.03.12/outbox.cif.g09.slc.cpg/sg5_16_cif.got.tgz:30876.got - 2010.03.31 09:47:26.
