data_PCOD8048336
_publ_section_title
;
Structure prediction by ZEFSAII (Michael W. Deem and Ramdas Pophale) SiO2 
 PCOD8048336
Probable space group: C 2
;
_chemical_formula_sum "Si O2"
_cell_formula_units_Z 26
_cell_length_a 16.118376
_cell_length_b 8.020418
_cell_length_c 9.034406
_cell_angle_alpha 90.000000
_cell_angle_beta 96.942622
_cell_angle_gamma 90.000000
_cell_volume 1159.369254
_symmetry_space_group_name_H-M "C 2"
_symmetry_group_IT_number 5
_symmetry_cell_setting 'monoclinic'
loop_
_space_group_symop_operation_xyz
x,y,z
-x,y,-z
1/2+x,1/2+y,z
1/2-x,1/2+y,-z
loop_
_atom_site_type_symbol
_atom_site_label
_atom_site_fract_x
_atom_site_fract_y
_atom_site_fract_z
Si Si1 0.823209 0.667800 0.867663
Si Si2 0.000000 0.191775 0.000000
Si Si3 0.946877 0.438130 0.735950
Si Si4 0.875245 0.536639 0.175131
Si Si5 0.362205 0.655756 0.168161
Si Si6 0.730044 0.458053 0.331010
Si Si7 0.142481 0.218943 0.505788
O O1 0.871671 0.563906 0.753704
O O2 0.730925 0.582129 0.867819
O O3 0.816900 0.858999 0.811564
O O4 0.870165 0.663152 0.035733
O O5 0.046119 0.307749 0.129074
O O6 0.931342 0.075039 0.071787
O O7 0.926273 0.339399 0.581024
O O8 0.032257 0.544867 0.732836
O O9 0.859158 0.348748 0.115183
O O10 0.803354 0.578073 0.280530
O O11 0.393567 0.648866 0.345984
O O12 0.771759 0.319281 0.445830
O O13 0.662042 0.565516 0.402162
#
# Coordination Sequence:
#
# PCOD8048336 Si02
#       7
#     4   2   4   4   4   4   4
#     4  10  18  35  62  94 123 164 208 266 308 374
#     4  10  20  36  58 100 112 168 210 262 310 372
#     4  11  19  36  69  90 129 161 220 263 311 382
#     4   9  19  35  59  94 120 164 214 258 307 372
#     4   9  20  35  57  91 126 152 213 258 313 369
#     4  10  23  38  63  94 130 168 217 256 326 379
#     4  10  21  38  60  96 126 171 208 263 319 387
#
# _framework density 22.425985000000001
#
# number of rings (size 3 to 8) (size 9 to 14) (size 15 to 20)
#    0.000    2.462    3.077    1.846    2.154    5.538 
#    0.000    0.000    3.385   12.923    0.000    0.000 
#    0.000    0.000    0.000    0.000    0.000    0.000 
#
# Total GULP energy -161106.519246 kJ/mol
# GULP energy per Si atom -12392.809173 kJ/mol
# Density = 2.237494 g / cm^3
# Si number density = 22.425985 Si / 1000 Ang^3
#
#
#
# Elastic Constant Matrix: (Units=GPa)
#
#
# Indices 1 2 3 4 5 6 
#
# 1 144.7723 33.5146 59.3195 0.0000 -14.0590 0.0000
# 2 33.5146 46.5985 34.8324 0.0000 -2.1919 0.0000
# 3 59.3195 34.8324 129.3606 0.0000 -8.8244 0.0000
# 4 0.0000 0.0000 0.0000 36.1544 0.0000 4.7916
# 5 -14.0590 -2.1919 -8.8244 0.0000 43.6008 0.0000
# 6 0.0000 0.0000 0.0000 4.7916 0.0000 28.5348
#
#
#
# Elastic Compliance Matrix: (Units=1/GPa)
#
#
# Indices 1 2 3 4 5 6 
#
# 1 0.009352 -0.004418 -0.002949 0.000000 0.002197 0.000000
# 2 -0.004418 0.028956 -0.005849 0.000000 -0.001153 0.000000
# 3 -0.002949 -0.005849 0.010721 0.000000 0.000925 0.000000
# 4 0.000000 0.000000 0.000000 0.028289 0.000000 -0.004750
# 5 0.002197 -0.001153 0.000925 0.000000 0.023773 0.000000
# 6 0.000000 0.000000 0.000000 -0.004750 0.000000 0.035843
#
#
# Mechanical properties :
#
#
# Convention : Reuss Voigt Hill
#
# Bulk Modulus (GPa) = 44.25727 64.00715 54.13221
# Shear Modulus (GPa) = 29.25729 34.52899 31.89314
#
# Velocity S-wave (km/s) = 3.61586 3.92814 3.77523
# Velocity P-wave (km/s) = 6.10002 7.01265 6.57219
#
# Compressibility (1/GPa) = 0.02259516
#
# Stress axis : x y z
#
# Youngs Moduli (GPa) = 106.93107 34.53523 93.27799
#
# Poissons Ratio (x) = 0.15259 0.27506
# Poissons Ratio (y) = 0.47247 0.54562
# Poissons Ratio (z) = 0.31532 0.20201
#
# Static dielectric constant tensor:
#      x y z
#    x 4.480300 0.000000 -0.221090 
#    y 0.000000 3.435880 0.000000 
#    z -0.221090 0.000000 4.247920 
# 
# 
# High freq. dielectric constant tensor:
#      x y z
#    x 1.892310 0.000000 -0.008140 
#    y 0.000000 1.821710 0.000000 
#    z -0.008140 0.000000 1.891320 
# 
# From -- ./inp_files/26532.got.cif
#   From: 2010.03.12/outbox.cif.g09.slc.cpg/sg5_14_cif.got.tgz:26532.got - 2010.03.31 09:47:26.
