data_PCOD8048416
_publ_section_title
;
Structure prediction by ZEFSAII (Michael W. Deem and Ramdas Pophale) SiO2 
 PCOD8048416
Probable space group: C 2
;
_chemical_formula_sum "Si O2"
_cell_formula_units_Z 32
_cell_length_a 10.894799
_cell_length_b 16.834410
_cell_length_c 15.607955
_cell_angle_alpha 90.000000
_cell_angle_beta 146.480821
_cell_angle_gamma 90.000000
_cell_volume 1580.782723
_symmetry_space_group_name_H-M "C 2"
_symmetry_group_IT_number 5
_symmetry_cell_setting 'monoclinic'
loop_
_space_group_symop_operation_xyz
x,y,z
-x,y,-z
1/2+x,1/2+y,z
1/2-x,1/2+y,-z
loop_
_atom_site_type_symbol
_atom_site_label
_atom_site_fract_x
_atom_site_fract_y
_atom_site_fract_z
Si Si1 0.323897 0.136000 0.821575
Si Si2 0.506388 0.297992 0.900800
Si Si3 0.508237 0.568241 0.759492
Si Si4 0.255929 0.938683 0.334619
Si Si5 0.023905 0.323295 0.911878
Si Si6 0.254421 0.558861 0.826434
Si Si7 0.075997 0.502971 0.894113
Si Si8 0.290776 0.189279 0.317085
O O1 0.352183 0.220931 0.791240
O O2 0.371453 0.062598 0.787508
O O3 0.077951 0.117292 0.715118
O O4 0.500000 0.140967 0.000000
O O5 0.401173 0.366851 0.782456
O O6 0.500000 0.318080 0.000000
O O7 0.754198 0.287102 0.005193
O O8 0.345520 0.492364 0.645892
O O9 0.401584 0.633023 0.758740
O O10 0.721639 0.529257 0.928603
O O11 0.500000 0.907015 0.500000
O O12 0.255638 0.999843 0.257839
O O13 0.999189 0.414683 0.871869
O O14 0.809723 0.276695 0.751639
O O15 0.000000 0.313465 0.000000
O O16 0.128518 0.509862 0.825362
O O17 0.142618 0.643991 0.733533
O O18 0.500000 0.579674 0.000000
O O19 0.500000 0.195889 0.500000
#
# Coordination Sequence:
#
# PCOD8048416 Si02
#       8
#     4   4   4   4   4   4   4   4
#     4   9  20  34  61  89 124 161 207 266 331 376
#     4  11  22  41  67  97 127 174 224 280 327 395
#     4  10  18  38  62  91 125 166 212 265 326 391
#     4  11  22  37  64  95 129 166 220 274 335 392
#     4  12  24  39  67 102 138 170 230 281 331 400
#     4  11  19  36  67  94 121 165 224 272 317 392
#     4  11  20  36  65  96 124 161 221 276 320 383
#     4  11  24  40  65  96 133 173 221 278 342 392
#
# _framework density 20.243136
#
# number of rings (size 3 to 8) (size 9 to 14) (size 15 to 20)
#    0.000    1.250    3.750    6.375    1.750    0.000 
#    0.000    3.750    5.500    0.000    0.000    0.000 
#    0.000    0.000    0.000    0.000    0.000    0.000 
#
# Total GULP energy -198215.490040 kJ/mol
# GULP energy per Si atom -12388.468128 kJ/mol
# Density = 2.019706 g / cm^3
# Si number density = 20.243136 Si / 1000 Ang^3
#
#
#
# Elastic Constant Matrix: (Units=GPa)
#
#
# Indices 1 2 3 4 5 6 
#
# 1 95.1127 29.9253 11.2591 -0.0010 -4.6690 -0.0011
# 2 29.9253 139.7277 26.2595 0.0011 -2.9882 0.0007
# 3 11.2591 26.2595 79.9360 -0.0034 -5.5272 -0.0030
# 4 -0.0010 0.0011 -0.0034 10.6465 -0.0028 7.7479
# 5 -4.6690 -2.9882 -5.5272 -0.0028 9.9518 -0.0022
# 6 -0.0011 0.0007 -0.0030 7.7479 -0.0022 41.0123
#
#
#
# Elastic Compliance Matrix: (Units=1/GPa)
#
#
# Indices 1 2 3 4 5 6 
#
# 1 0.011510 -0.002263 -0.000573 0.000002 0.004402 0.000000
# 2 -0.002263 0.008081 -0.002331 -0.000002 0.000070 0.000000
# 3 -0.000573 -0.002331 0.013820 0.000006 0.006707 0.000000
# 4 0.000002 -0.000002 0.000006 0.108900 0.000030 -0.020573
# 5 0.004402 0.000070 0.006707 0.000030 0.106296 0.000001
# 6 0.000000 0.000000 0.000000 -0.020573 0.000001 0.028269
#
#
# Mechanical properties :
#
#
# Convention : Reuss Voigt Hill
#
# Bulk Modulus (GPa) = 43.33497 49.96269 46.64883
# Shear Modulus (GPa) = 16.95469 28.81094 22.88282
#
# Velocity S-wave (km/s) = 2.89719 3.77668 3.36579
# Velocity P-wave (km/s) = 5.71361 6.61458 6.18053
#
# Compressibility (1/GPa) = 0.02307605
#
# Stress axis : x y z
#
# Youngs Moduli (GPa) = 86.88202 123.74615 72.35742
#
# Poissons Ratio (x) = 0.28006 0.04149
# Poissons Ratio (y) = 0.19663 0.16867
# Poissons Ratio (z) = 0.04981 0.28846
#
# Static dielectric constant tensor:
#      x y z
#    x 4.699240 0.000000 0.106630 
#    y 0.000000 4.183990 0.000000 
#    z 0.106630 0.000000 2.946940 
# 
# 
# High freq. dielectric constant tensor:
#      x y z
#    x 1.798020 0.000000 0.005640 
#    y 0.000000 1.808910 0.000000 
#    z 0.005640 0.000000 1.746270 
# 
# From -- ./inp_files/53484.got.cif
#   From: 2010.03.12/outbox.cif.g09.slc.cpg/sg5_27_cif.got.tgz:53484.got - 2010.03.31 09:47:26.
