data_PCOD8048085
_publ_section_title
;
Structure prediction by ZEFSAII (Michael W. Deem and Ramdas Pophale) SiO2 
 PCOD8048085
Probable space group: C 2
;
_chemical_formula_sum "Si O2"
_cell_formula_units_Z 22
_cell_length_a 14.340970
_cell_length_b 13.545940
_cell_length_c 7.628399
_cell_angle_alpha 90.000000
_cell_angle_beta 126.167812
_cell_angle_gamma 90.000000
_cell_volume 1196.331982
_symmetry_space_group_name_H-M "C 2"
_symmetry_group_IT_number 5
_symmetry_cell_setting 'monoclinic'
loop_
_space_group_symop_operation_xyz
x,y,z
-x,y,-z
1/2+x,1/2+y,z
1/2-x,1/2+y,-z
loop_
_atom_site_type_symbol
_atom_site_label
_atom_site_fract_x
_atom_site_fract_y
_atom_site_fract_z
Si Si1 0.325960 0.905190 0.084342
Si Si2 0.369190 0.106408 0.320223
Si Si3 0.803289 0.588917 0.625239
Si Si4 0.000000 0.465621 0.000000
Si Si5 0.629893 0.502344 0.669637
Si Si6 0.230036 0.196174 0.862882
O O1 0.417935 0.897669 0.028174
O O2 0.328146 0.803133 0.192923
O O3 0.361704 0.992599 0.253905
O O4 0.197914 0.923833 0.865205
O O5 0.500000 0.137952 0.500000
O O6 0.293979 0.121689 0.413740
O O7 0.320623 0.180606 0.120593
O O8 0.697683 0.514260 0.558819
O O9 0.796127 0.683343 0.749303
O O10 0.925496 0.534879 0.789063
O O11 0.500000 0.464503 0.500000
O O12 0.632137 0.610038 0.768791
#
# Coordination Sequence:
#
# PCOD8048085 Si02
#       6
#     4   4   4   2   4   4
#     4  10  20  36  60  89 116 149 200 245 283 346
#     4  11  19  36  64  81 113 161 194 235 298 341
#     4   9  18  36  58  80 115 153 190 231 295 337
#     4  10  16  38  60  86 114 152 192 250 282 338
#     4   8  18  38  56  73 124 155 180 238 293 337
#     4   9  21  37  52  87 120 143 194 244 281 343
#
# _framework density 18.389544000000001
#
# number of rings (size 3 to 8) (size 9 to 14) (size 15 to 20)
#    1.091    1.455    3.636    0.000    0.000    1.455 
#    9.818    2.727    4.000    0.000    0.000    0.000 
#    0.000    0.000    0.000    0.000    0.000    0.000 
#
# Total GULP energy -136309.059456 kJ/mol
# GULP energy per Si atom -12391.732678 kJ/mol
# Density = 1.834769 g / cm^3
# Si number density = 18.389544 Si / 1000 Ang^3
#
#
#
# Elastic Constant Matrix: (Units=GPa)
#
#
# Indices 1 2 3 4 5 6 
#
# 1 97.5020 22.2881 44.0316 0.0000 -10.1643 0.0000
# 2 22.2881 74.4309 -2.5883 0.0000 -7.1234 0.0000
# 3 44.0316 -2.5883 71.9608 0.0000 -1.8794 0.0000
# 4 0.0000 0.0000 0.0000 10.2199 0.0000 -3.0314
# 5 -10.1643 -7.1234 -1.8794 0.0000 45.9463 0.0000
# 6 0.0000 0.0000 0.0000 -3.0314 0.0000 20.8683
#
#
#
# Elastic Compliance Matrix: (Units=1/GPa)
#
#
# Indices 1 2 3 4 5 6 
#
# 1 0.016155 -0.004956 -0.010001 0.000000 0.002396 0.000000
# 2 -0.004956 0.015180 0.003615 0.000000 0.001405 0.000000
# 3 -0.010001 0.003615 0.020124 0.000000 -0.000829 0.000000
# 4 0.000000 0.000000 0.000000 0.102254 0.000000 0.014854
# 5 0.002396 0.001405 -0.000829 0.000000 0.022479 0.000000
# 6 0.000000 0.000000 0.000000 0.014854 0.000000 0.050077
#
#
# Mechanical properties :
#
#
# Convention : Reuss Voigt Hill
#
# Bulk Modulus (GPa) = 34.75162 41.26183 38.00672
# Shear Modulus (GPa) = 19.33906 27.41772 23.37839
#
# Velocity S-wave (km/s) = 3.24641 3.86546 3.56938
# Velocity P-wave (km/s) = 5.74376 6.51220 6.14001
#
# Compressibility (1/GPa) = 0.02877564
#
# Stress axis : x y z
#
# Youngs Moduli (GPa) = 61.89927 65.87811 49.69148
#
# Poissons Ratio (x) = 0.32650 0.49696
# Poissons Ratio (y) = 0.30678 -0.17965
# Poissons Ratio (z) = 0.61904 -0.23816
#
# Static dielectric constant tensor:
#      x y z
#    x 3.271950 0.000000 -0.083120 
#    y 0.000000 2.994730 0.000000 
#    z -0.083120 0.000000 3.252990 
# 
# 
# High freq. dielectric constant tensor:
#      x y z
#    x 1.707270 0.000000 -0.003070 
#    y 0.000000 1.681610 0.000000 
#    z -0.003070 0.000000 1.709380 
# 
# From -- ./inp_files/24254.got.cif
#   From: 2010.03.12/outbox.cif.g09.slc.cpg/sg5_13_cif.got.tgz:24254.got - 2010.03.31 09:47:26.
