data_PCOD8048953
_publ_section_title
;
Structure prediction by ZEFSAII (Michael W. Deem and Ramdas Pophale) SiO2 
 PCOD8048953
Probable space group: C 2
;
_chemical_formula_sum "Si O2"
_cell_formula_units_Z 28
_cell_length_a 19.543012
_cell_length_b 17.274929
_cell_length_c 15.046137
_cell_angle_alpha 90.000000
_cell_angle_beta 161.124425
_cell_angle_gamma 90.000000
_cell_volume 1643.334462
_symmetry_space_group_name_H-M "C 2"
_symmetry_group_IT_number 5
_symmetry_cell_setting 'monoclinic'
loop_
_space_group_symop_operation_xyz
x,y,z
-x,y,-z
1/2+x,1/2+y,z
1/2-x,1/2+y,-z
loop_
_atom_site_type_symbol
_atom_site_label
_atom_site_fract_x
_atom_site_fract_y
_atom_site_fract_z
Si Si1 0.099310 0.563820 0.986818
Si Si2 0.324294 0.563820 0.436786
Si Si3 0.470804 0.478006 0.159504
Si Si4 0.312631 0.681005 0.125262
Si Si5 0.593408 0.978006 0.404708
Si Si6 0.879447 0.355775 0.258893
Si Si7 0.887775 0.598207 0.275548
O O1 0.263463 0.533408 0.263462
O O2 0.183116 0.641826 0.045404
O O3 0.880470 0.589424 0.760941
O O4 0.062528 0.495275 0.870373
O O5 0.446839 0.495274 0.638993
O O6 0.458542 0.641825 0.596254
O O7 0.661972 0.474520 0.323947
O O8 0.347521 0.397004 0.008604
O O9 0.309194 0.545887 0.933954
O O10 0.334682 0.770756 0.169363
O O11 0.191442 0.668595 0.882885
O O12 0.525359 0.897004 0.364277
O O13 0.559680 0.045888 0.434921
O O14 0.000000 0.354982 0.500000
O O15 0.000000 0.634069 0.500000
#
# Coordination Sequence:
#
# PCOD8048953 Si02
#       7
#     4   4   4   4   4   4   4
#     4   9  17  31  52  73  92 121 160 197 231 268
#     4   9  17  31  52  73  92 121 160 197 231 268
#     4   9  18  32  50  72  96 122 156 195 231 272
#     4  10  20  33  47  69 100 125 152 192 233 278
#     4   9  18  32  50  72  96 122 156 195 231 272
#     4  11  22  32  45  70 100 126 153 187 233 287
#     4   9  18  33  52  71  90 119 161 199 230 271
#
# _framework density 17.038527999999999
#
# number of rings (size 3 to 8) (size 9 to 14) (size 15 to 20)
#    0.000    2.571    0.000    3.857    0.000    3.429 
#    0.000    1.429    0.000    0.000    0.000    0.000 
#    0.000    0.000    0.000    0.000    0.000    0.000 
#
# Total GULP energy -173557.722434 kJ/mol
# GULP energy per Si atom -12396.980174 kJ/mol
# Density = 1.699975 g / cm^3
# Si number density = 17.038528 Si / 1000 Ang^3
#
#
#
# Elastic Constant Matrix: (Units=GPa)
#
#
# Indices 1 2 3 4 5 6 
#
# 1 115.4550 57.0957 72.5253 -0.0001 -2.8804 0.0001
# 2 57.0957 122.1225 61.2806 0.0000 -6.3734 0.0000
# 3 72.5253 61.2806 128.0919 -0.0003 -16.3667 0.0000
# 4 -0.0001 0.0000 -0.0003 17.2754 -0.0001 -0.3168
# 5 -2.8804 -6.3734 -16.3667 -0.0001 42.9414 0.0001
# 6 0.0001 0.0000 0.0000 -0.3168 0.0001 17.0674
#
#
#
# Elastic Compliance Matrix: (Units=1/GPa)
#
#
# Indices 1 2 3 4 5 6 
#
# 1 0.014686 -0.003510 -0.006913 0.000000 -0.002171 0.000000
# 2 -0.003510 0.011620 -0.003555 0.000000 0.000134 0.000000
# 3 -0.006913 -0.003555 0.013975 0.000000 0.004335 0.000000
# 4 0.000000 0.000000 0.000000 0.057906 0.000000 0.001075
# 5 -0.002171 0.000134 0.004335 0.000000 0.024814 0.000000
# 6 0.000000 0.000000 0.000000 0.001075 0.000000 0.058611
#
#
# Mechanical properties :
#
#
# Convention : Reuss Voigt Hill
#
# Bulk Modulus (GPa) = 81.13099 83.05249 82.09174
# Shear Modulus (GPa) = 23.39980 27.10803 25.25391
#
# Velocity S-wave (km/s) = 3.70989 3.99304 3.85407
# Velocity P-wave (km/s) = 8.12838 8.37311 8.25165
#
# Compressibility (1/GPa) = 0.01232575
#
# Stress axis : x y z
#
# Youngs Moduli (GPa) = 68.09342 86.05569 71.55382
#
# Poissons Ratio (x) = 0.30209 0.49465
# Poissons Ratio (y) = 0.23903 0.25434
# Poissons Ratio (z) = 0.47073 0.30589
#
# Static dielectric constant tensor:
#      x y z
#    x 3.432150 0.000000 -0.058140 
#    y 0.000000 2.827670 0.000000 
#    z -0.058140 0.000000 3.470330 
# 
# 
# High freq. dielectric constant tensor:
#      x y z
#    x 1.673090 0.000000 -0.000180 
#    y 0.000000 1.617750 0.000000 
#    z -0.000180 0.000000 1.673210 
# 
# From -- ./inp_files/57249.got.cif
#   From: 2010.03.12/outbox.cif.g09.slc.cpg/sg5_29_cif.got.tgz:57249.got - 2010.03.31 09:47:26.
