data_PCOD8048693
_publ_section_title
;
Structure prediction by ZEFSAII (Michael W. Deem and Ramdas Pophale) SiO2 
 PCOD8048693
Probable space group: C 2
;
_chemical_formula_sum "Si O2"
_cell_formula_units_Z 22
_cell_length_a 17.759893
_cell_length_b 5.105516
_cell_length_c 12.206816
_cell_angle_alpha 90.000000
_cell_angle_beta 64.219309
_cell_angle_gamma 90.000000
_cell_volume 996.665471
_symmetry_space_group_name_H-M "C 2"
_symmetry_group_IT_number 5
_symmetry_cell_setting 'monoclinic'
loop_
_space_group_symop_operation_xyz
x,y,z
-x,y,-z
1/2+x,1/2+y,z
1/2-x,1/2+y,-z
loop_
_atom_site_type_symbol
_atom_site_label
_atom_site_fract_x
_atom_site_fract_y
_atom_site_fract_z
Si Si1 0.500000 0.717981 0.000000
Si Si2 0.713840 0.194218 0.363895
Si Si3 0.384251 0.925951 0.252806
Si Si4 0.681656 0.997271 0.156216
Si Si5 0.853447 0.936415 0.393075
Si Si6 0.639294 0.495540 0.057489
O O1 0.444603 0.906175 0.110936
O O2 0.558180 0.529580 0.034738
O O3 0.788089 0.385154 0.272369
O O4 0.666113 0.055150 0.294223
O O5 0.647271 0.361390 0.477961
O O6 0.755837 0.972131 0.416421
O O7 0.404411 0.702847 0.332989
O O8 0.397913 0.210040 0.294921
O O9 0.632079 0.211547 0.116642
O O10 0.644560 0.714622 0.149479
O O11 0.780353 0.014385 0.071608
#
# Coordination Sequence:
#
# PCOD8048693 Si02
#       6
#     2   4   4   4   4   4
#     4  12  24  44  64  86 132 162 200 240 316 376
#     4  10  19  36  62  88 121 152 202 259 287 347
#     4  10  22  34  57  94 113 160 197 251 286 363
#     4  10  22  37  59  87 120 149 208 247 304 333
#     4  10  20  34  59  94 118 150 212 248 293 336
#     4  10  23  38  57  87 118 161 193 252 293 370
#
# _framework density 22.073606000000002
#
# number of rings (size 3 to 8) (size 9 to 14) (size 15 to 20)
#    1.091    0.727    3.636    0.000    2.545    5.818 
#    0.000    0.000    0.000    6.545    0.000    0.000 
#    0.000    0.000    0.000    0.000    0.000    0.000 
#
# Total GULP energy -136378.269453 kJ/mol
# GULP energy per Si atom -12398.024496 kJ/mol
# Density = 2.202337 g / cm^3
# Si number density = 22.073606 Si / 1000 Ang^3
#
#
#
# Elastic Constant Matrix: (Units=GPa)
#
#
# Indices 1 2 3 4 5 6 
#
# 1 59.1129 -14.2099 4.5984 -0.0009 6.9523 0.0009
# 2 -14.2099 75.0448 -0.0313 -0.0017 -8.4379 0.0039
# 3 4.5984 -0.0313 111.8287 -0.0012 -2.0891 0.0004
# 4 -0.0009 -0.0017 -0.0012 20.0383 -0.0003 0.8613
# 5 6.9523 -8.4379 -2.0891 -0.0003 28.4640 0.0005
# 6 0.0009 0.0039 0.0004 0.8613 0.0005 10.1170
#
#
#
# Elastic Compliance Matrix: (Units=1/GPa)
#
#
# Indices 1 2 3 4 5 6 
#
# 1 0.018130 0.003029 -0.000812 0.000001 -0.003590 -0.000003
# 2 0.003029 0.014292 -0.000055 0.000002 0.003493 -0.000006
# 3 -0.000812 -0.000055 0.008991 0.000001 0.000842 0.000000
# 4 0.000001 0.000002 0.000001 0.050088 0.000001 -0.004264
# 5 -0.003590 0.003493 0.000842 0.000001 0.037106 -0.000003
# 6 -0.000003 -0.000006 0.000000 -0.004264 -0.000003 0.099206
#
#
# Mechanical properties :
#
#
# Convention : Reuss Voigt Hill
#
# Bulk Modulus (GPa) = 21.86405 25.18899 23.52652
# Shear Modulus (GPa) = 20.94372 28.76581 24.85476
#
# Velocity S-wave (km/s) = 3.08362 3.61387 3.35922
# Velocity P-wave (km/s) = 4.75446 5.37118 5.07220
#
# Compressibility (1/GPa) = 0.04573718
#
# Stress axis : x y z
#
# Youngs Moduli (GPa) = 55.15639 69.97108 111.21821
#
# Poissons Ratio (x) = -0.21194 0.09028
# Poissons Ratio (y) = -0.16707 0.00615
# Poissons Ratio (z) = 0.04477 0.00387
#
# Static dielectric constant tensor:
#      x y z
#    x 3.479500 0.000000 0.015240 
#    y 0.000000 3.908440 0.000000 
#    z 0.015240 0.000000 3.841350 
# 
# 
# High freq. dielectric constant tensor:
#      x y z
#    x 1.812530 0.000000 0.003370 
#    y 0.000000 1.874610 0.000000 
#    z 0.003370 0.000000 1.868750 
# 
# From -- ./inp_files/43713.got.cif
#   From: 2010.03.12/outbox.cif.g09.slc.cpg/sg5_22_cif.got.tgz:43713.got - 2010.03.31 09:47:26.
