data_PCOD8048974
_publ_section_title
;
Structure prediction by ZEFSAII (Michael W. Deem and Ramdas Pophale) SiO2 
 PCOD8048974
Probable space group: C 2
;
_chemical_formula_sum "Si O2"
_cell_formula_units_Z 32
_cell_length_a 5.014345
_cell_length_b 29.121160
_cell_length_c 12.017115
_cell_angle_alpha 90.000000
_cell_angle_beta 111.839534
_cell_angle_gamma 90.000000
_cell_volume 1628.839908
_symmetry_space_group_name_H-M "C 2"
_symmetry_group_IT_number 5
_symmetry_cell_setting 'monoclinic'
loop_
_space_group_symop_operation_xyz
x,y,z
-x,y,-z
1/2+x,1/2+y,z
1/2-x,1/2+y,-z
loop_
_atom_site_type_symbol
_atom_site_label
_atom_site_fract_x
_atom_site_fract_y
_atom_site_fract_z
Si Si1 0.335392 0.344340 0.863184
Si Si2 0.191378 0.099182 0.128931
Si Si3 0.817355 0.188154 0.754247
Si Si4 0.793189 0.157571 0.373574
Si Si5 0.700117 0.568475 0.742476
Si Si6 0.902792 0.971916 0.365561
Si Si7 0.602923 0.911609 0.638995
Si Si8 0.660672 0.783251 0.132056
O O1 0.274058 0.377531 0.748603
O O2 0.526301 0.302241 0.849392
O O3 0.024322 0.325216 0.847950
O O4 0.500000 0.365858 0.000000
O O5 0.172493 0.154752 0.136268
O O6 0.511419 0.083199 0.148173
O O7 0.081860 0.076111 0.226338
O O8 0.000000 0.080781 0.000000
O O9 0.526645 0.173673 0.644234
O O10 0.800479 0.241776 0.777275
O O11 0.102736 0.179988 0.726189
O O12 0.814050 0.102005 0.367469
O O13 0.000000 0.176460 0.500000
O O14 0.729215 0.515191 0.717866
O O15 0.674372 0.930512 0.339022
O O16 0.000000 0.990140 0.500000
O O17 0.182853 0.953834 0.345869
O O18 0.500000 0.891374 0.500000
O O19 0.500000 0.762752 0.000000
#
# Coordination Sequence:
#
# PCOD8048974 Si02
#       8
#     4   4   4   4   4   4   4   4
#     4  10  21  38  59  82 109 139 176 224 276 327
#     4  10  20  34  51  75 110 143 175 217 263 309
#     4  10  20  34  54  77 103 141 181 216 258 309
#     4  10  20  34  51  75 110 143 175 217 263 309
#     4  10  20  34  54  77 103 141 181 216 258 309
#     4  10  20  36  58  80 104 137 181 223 258 315
#     4  10  21  38  59  82 109 139 176 224 276 327
#     4  10  20  36  58  80 104 137 181 223 258 315
#
# _framework density 19.645883999999999
#
# number of rings (size 3 to 8) (size 9 to 14) (size 15 to 20)
#    0.000    2.000    0.000    3.750    0.000    0.000 
#    0.000   15.000    0.000    0.000    0.000    0.000 
#    0.000    0.000    0.000    0.000    0.000    0.000 
#
# Total GULP energy -198313.497169 kJ/mol
# GULP energy per Si atom -12394.593573 kJ/mol
# Density = 1.960117 g / cm^3
# Si number density = 19.645884 Si / 1000 Ang^3
#
#
#
# Elastic Constant Matrix: (Units=GPa)
#
#
# Indices 1 2 3 4 5 6 
#
# 1 77.0469 2.1623 5.7325 0.0000 6.3122 0.0000
# 2 2.1623 72.6951 40.3644 0.0000 3.1781 0.0000
# 3 5.7325 40.3644 87.4023 0.0000 13.2930 0.0000
# 4 0.0000 0.0000 0.0000 12.7562 0.0000 0.7769
# 5 6.3122 3.1781 13.2930 0.0000 21.3102 0.0000
# 6 0.0000 0.0000 0.0000 0.7769 0.0000 16.3658
#
#
#
# Elastic Compliance Matrix: (Units=1/GPa)
#
#
# Indices 1 2 3 4 5 6 
#
# 1 0.013310 -0.000087 -0.000260 0.000000 -0.003767 0.000000
# 2 -0.000087 0.018658 -0.009050 0.000000 0.002889 0.000000
# 3 -0.000260 -0.009050 0.017037 0.000000 -0.009201 0.000000
# 4 0.000000 0.000000 0.000000 0.078621 0.000000 -0.003732
# 5 -0.003767 0.002889 -0.009201 0.000000 0.053350 0.000000
# 6 0.000000 0.000000 0.000000 -0.003732 0.000000 0.061280
#
#
# Mechanical properties :
#
#
# Convention : Reuss Voigt Hill
#
# Bulk Modulus (GPa) = 33.10092 37.07364 35.08728
# Shear Modulus (GPa) = 18.44205 22.67877 20.56041
#
# Velocity S-wave (km/s) = 3.06718 3.40130 3.23855
# Velocity P-wave (km/s) = 5.42484 5.85978 5.64650
#
# Compressibility (1/GPa) = 0.03021064
#
# Stress axis : x y z
#
# Youngs Moduli (GPa) = 75.13418 53.59773 58.69481
#
# Poissons Ratio (x) = 0.00466 0.01525
# Poissons Ratio (y) = 0.00653 0.53119
# Poissons Ratio (z) = 0.01952 0.48506
#
# Static dielectric constant tensor:
#      x y z
#    x 3.723150 0.000000 0.025060 
#    y 0.000000 3.227750 0.000000 
#    z 0.025060 0.000000 3.523360 
# 
# 
# High freq. dielectric constant tensor:
#      x y z
#    x 1.789210 0.000000 0.005020 
#    y 0.000000 1.741500 0.000000 
#    z 0.005020 0.000000 1.752630 
# 
# From -- ./inp_files/34229.got.cif
#   From: 2010.03.12/outbox.cif.g09.slc.cpg/sg5_18_cif.got.tgz:34229.got - 2010.03.31 09:47:26.
