data_PCOD8048539
_publ_section_title
;
Structure prediction by ZEFSAII (Michael W. Deem and Ramdas Pophale) SiO2 
 PCOD8048539
Probable space group: C 2
;
_chemical_formula_sum "Si O2"
_cell_formula_units_Z 28
_cell_length_a 21.636228
_cell_length_b 12.941169
_cell_length_c 22.955914
_cell_angle_alpha 90.000000
_cell_angle_beta 12.618336
_cell_angle_gamma 90.000000
_cell_volume 1404.147474
_symmetry_space_group_name_H-M "C 2"
_symmetry_group_IT_number 5
_symmetry_cell_setting 'monoclinic'
loop_
_space_group_symop_operation_xyz
x,y,z
-x,y,-z
1/2+x,1/2+y,z
1/2-x,1/2+y,-z
loop_
_atom_site_type_symbol
_atom_site_label
_atom_site_fract_x
_atom_site_fract_y
_atom_site_fract_z
Si Si1 0.999456 0.940120 0.223823
Si Si2 0.594874 0.845463 0.239131
Si Si3 0.824852 0.248651 0.715279
Si Si4 0.460989 0.677063 0.269483
Si Si5 0.611625 0.917924 0.962895
Si Si6 0.598453 0.533121 0.472712
Si Si7 0.859320 0.770538 0.815787
O O1 0.115752 0.876094 0.170928
O O2 0.702735 0.897206 0.475504
O O3 0.954744 0.055913 0.288115
O O4 0.207152 0.926167 0.977421
O O5 0.714839 0.824224 0.193484
O O6 0.560924 0.737786 0.235225
O O7 0.000000 0.300924 0.500000
O O8 0.035504 0.154445 0.539335
O O9 0.500000 0.211145 0.000000
O O10 0.161435 0.721343 0.521739
O O11 0.689910 0.686326 0.008107
O O12 0.664906 0.802646 0.939185
O O13 0.500000 0.907312 0.000000
O O14 0.919479 0.970031 0.684053
O O15 0.421720 0.993701 0.178725
O O16 0.500000 0.498223 0.500000
#
# Coordination Sequence:
#
# PCOD8048539 Si02
#       7
#     4   4   4   4   4   4   4
#     4  10  21  39  58  82 114 151 194 244 287 333
#     4  10  22  38  59  88 113 151 198 232 293 352
#     4  11  21  36  56  84 120 154 190 237 291 350
#     4  10  21  39  58  83 114 149 193 243 286 334
#     4  10  19  33  53  79 115 146 182 230 283 341
#     4   9  18  31  47  78 113 148 179 215 279 347
#     4  10  21  36  57  86 110 149 197 229 290 351
#
# _framework density 19.940926000000001
#
# number of rings (size 3 to 8) (size 9 to 14) (size 15 to 20)
#    0.000    2.000    0.000    4.714    2.000    0.000 
#    5.143    0.000    0.000    8.571    0.000    0.000 
#    0.000    0.000    0.000    0.000    0.000    0.000 
#
# Total GULP energy -173470.065539 kJ/mol
# GULP energy per Si atom -12390.718967 kJ/mol
# Density = 1.989554 g / cm^3
# Si number density = 19.940926 Si / 1000 Ang^3
#
#
#
# Elastic Constant Matrix: (Units=GPa)
#
#
# Indices 1 2 3 4 5 6 
#
# 1 56.7393 23.7238 28.5148 0.1464 7.1405 -0.1554
# 2 23.7238 75.1518 11.2212 0.9238 2.2115 -0.6817
# 3 28.5148 11.2212 111.7202 -0.2587 2.0987 0.1685
# 4 0.1464 0.9238 -0.2587 23.1695 0.2898 0.5263
# 5 7.1405 2.2115 2.0987 0.2898 20.4921 -0.2511
# 6 -0.1554 -0.6817 0.1685 0.5263 -0.2511 18.0353
#
#
#
# Elastic Compliance Matrix: (Units=1/GPa)
#
#
# Indices 1 2 3 4 5 6 
#
# 1 0.023927 -0.006554 -0.005315 0.000142 -0.007089 -0.000095
# 2 -0.006554 0.015352 0.000117 -0.000590 0.000630 0.000549
# 3 -0.005315 0.000117 0.010282 0.000137 0.000783 -0.000131
# 4 0.000142 -0.000590 0.000137 0.043221 -0.000627 -0.001292
# 5 -0.007089 0.000630 0.000783 -0.000627 0.051139 0.000686
# 6 -0.000095 0.000549 -0.000131 -0.001292 0.000686 0.055515
#
#
# Mechanical properties :
#
#
# Convention : Reuss Voigt Hill
#
# Bulk Modulus (GPa) = 38.37843 41.17011 39.77427
# Shear Modulus (GPa) = 21.58657 24.34949 22.96803
#
# Velocity S-wave (km/s) = 3.29375 3.49819 3.39750
# Velocity P-wave (km/s) = 5.80972 6.08336 5.94811
#
# Compressibility (1/GPa) = 0.02605630
#
# Stress axis : x y z
#
# Youngs Moduli (GPa) = 41.79304 65.14012 97.26087
#
# Poissons Ratio (x) = 0.42691 0.51696
# Poissons Ratio (y) = 0.27390 -0.01136
# Poissons Ratio (z) = 0.22214 -0.00761
#
# Static dielectric constant tensor:
#      x y z
#    x 3.418330 0.001220 0.108730 
#    y 0.001220 3.321890 0.001160 
#    z 0.108730 0.001160 4.108960 
# 
# 
# High freq. dielectric constant tensor:
#      x y z
#    x 1.756810 -0.000060 0.007840 
#    y -0.000060 1.748920 0.000180 
#    z 0.007840 0.000180 1.805760 
# 
# From -- ./inp_files/11342.got.cif
#   From: 2010.03.12/outbox.cif.g09.slc.cpg/sg5_6_cif.got.tgz:11342.got - 2010.03.31 09:47:26.
