data_PCOD8048556
_publ_section_title
;
Structure prediction by ZEFSAII (Michael W. Deem and Ramdas Pophale) SiO2 
 PCOD8048556
Probable space group: C 2
;
_chemical_formula_sum "Si O2"
_cell_formula_units_Z 26
_cell_length_a 9.150630
_cell_length_b 24.371949
_cell_length_c 10.154229
_cell_angle_alpha 90.000000
_cell_angle_beta 39.181057
_cell_angle_gamma 90.000000
_cell_volume 1430.702416
_symmetry_space_group_name_H-M "C 2"
_symmetry_group_IT_number 5
_symmetry_cell_setting 'monoclinic'
loop_
_space_group_symop_operation_xyz
x,y,z
-x,y,-z
1/2+x,1/2+y,z
1/2-x,1/2+y,-z
loop_
_atom_site_type_symbol
_atom_site_label
_atom_site_fract_x
_atom_site_fract_y
_atom_site_fract_z
Si Si1 0.485438 0.298570 0.166390
Si Si2 0.229817 0.898196 0.915978
Si Si3 0.283320 0.589091 0.553200
Si Si4 0.563309 0.178821 0.108548
Si Si5 0.065890 0.505735 0.101806
Si Si6 0.937585 0.096064 0.892087
Si Si7 0.500000 0.842303 0.500000
O O1 0.568183 0.240325 0.167203
O O2 0.218727 0.306288 0.397174
O O3 0.500000 0.295468 0.000000
O O4 0.653989 0.351157 0.078101
O O5 0.420531 0.877994 0.679211
O O6 0.351601 0.948538 0.899379
O O7 0.000000 0.918357 0.000000
O O8 0.500000 0.592862 0.500000
O O9 0.342446 0.592200 0.357136
O O10 0.121901 0.641450 0.688400
O O11 0.151086 0.531532 0.668202
O O12 0.500000 0.179708 0.000000
O O13 0.818749 0.155128 0.953952
O O14 0.270712 0.548842 0.958795
O O15 0.000000 0.493582 0.000000
O O16 0.000000 0.086779 0.000000
#
# Coordination Sequence:
#
# PCOD8048556 Si02
#       7
#     4   4   4   4   4   4   2
#     4   8  17  31  53  82 110 139 185 227 277 321
#     4   9  19  35  54  79 111 142 184 231 278 322
#     4  11  20  36  58  83 110 144 188 227 277 331
#     4  10  19  33  58  85 110 143 188 231 273 334
#     4  11  22  37  56  80 109 145 192 229 274 336
#     4  11  23  38  55  82 116 146 181 231 283 330
#     4   8  16  32  52  82 106 140 186 230 266 338
#
# _framework density 18.172889999999999
#
# number of rings (size 3 to 8) (size 9 to 14) (size 15 to 20)
#    0.000    2.462    3.077    1.385    1.077    7.385 
#    0.000    0.769    0.000    1.846    0.000    0.000 
#    0.000    0.000    0.000    0.000    0.000    0.000 
#
# Total GULP energy -161099.424306 kJ/mol
# GULP energy per Si atom -12392.263408 kJ/mol
# Density = 1.813153 g / cm^3
# Si number density = 18.172890 Si / 1000 Ang^3
#
#
#
# Elastic Constant Matrix: (Units=GPa)
#
#
# Indices 1 2 3 4 5 6 
#
# 1 65.5210 43.7335 35.2445 0.0000 3.7132 0.0000
# 2 43.7335 155.8349 51.5875 0.0000 -12.5329 0.0000
# 3 35.2445 51.5875 137.9937 0.0000 -7.2667 0.0000
# 4 0.0000 0.0000 0.0000 14.6234 0.0000 -8.4908
# 5 3.7132 -12.5329 -7.2667 0.0000 26.3313 0.0000
# 6 0.0000 0.0000 0.0000 -8.4908 0.0000 29.6364
#
#
#
# Elastic Compliance Matrix: (Units=1/GPa)
#
#
# Indices 1 2 3 4 5 6 
#
# 1 0.021145 -0.005200 -0.003799 0.000000 -0.006505 0.000000
# 2 -0.005200 0.008807 -0.001730 0.000000 0.004448 0.000000
# 3 -0.003799 -0.001730 0.008979 0.000000 0.002190 0.000000
# 4 0.000000 0.000000 0.000000 0.082029 0.000000 0.023501
# 5 -0.006505 0.004448 0.002190 0.000000 0.041616 0.000000
# 6 0.000000 0.000000 0.000000 0.023501 0.000000 0.040475
#
#
# Mechanical properties :
#
#
# Convention : Reuss Voigt Hill
#
# Bulk Modulus (GPa) = 57.23109 68.94227 63.08668
# Shear Modulus (GPa) = 21.70757 29.37049 25.53903
#
# Velocity S-wave (km/s) = 3.45991 4.02452 3.75285
# Velocity P-wave (km/s) = 6.89364 7.72107 7.31906
#
# Compressibility (1/GPa) = 0.01747302
#
# Stress axis : x y z
#
# Youngs Moduli (GPa) = 47.29177 113.55015 111.36853
#
# Poissons Ratio (x) = 0.59042 0.42313
# Poissons Ratio (y) = 0.24590 0.19267
# Poissons Ratio (z) = 0.17968 0.19645
#
# Static dielectric constant tensor:
#      x y z
#    x 3.108360 0.000000 -0.273820 
#    y 0.000000 3.953870 0.000000 
#    z -0.273820 0.000000 3.568550 
# 
# 
# High freq. dielectric constant tensor:
#      x y z
#    x 1.671480 0.000000 -0.016170 
#    y 0.000000 1.713530 0.000000 
#    z -0.016170 0.000000 1.713280 
# 
# From -- ./inp_files/3615.got.cif
#   From: 2010.03.12/outbox.cif.g09.slc.cpg/sg5_2_cif.got.tgz:3615.got - 2010.03.31 09:47:26.
