data_PCOD8048989
_publ_section_title
;
Structure prediction by ZEFSAII (Michael W. Deem and Ramdas Pophale) SiO2 
 PCOD8048989
Probable space group: C 2
;
_chemical_formula_sum "Si O2"
_cell_formula_units_Z 22
_cell_length_a 16.021261
_cell_length_b 15.022359
_cell_length_c 8.201542
_cell_angle_alpha 90.000000
_cell_angle_beta 141.548683
_cell_angle_gamma 90.000000
_cell_volume 1227.483314
_symmetry_space_group_name_H-M "C 2"
_symmetry_group_IT_number 5
_symmetry_cell_setting 'monoclinic'
loop_
_space_group_symop_operation_xyz
x,y,z
-x,y,-z
1/2+x,1/2+y,z
1/2-x,1/2+y,-z
loop_
_atom_site_type_symbol
_atom_site_label
_atom_site_fract_x
_atom_site_fract_y
_atom_site_fract_z
Si Si1 0.755550 0.523240 0.725129
Si Si2 0.500000 0.456407 0.500000
Si Si3 0.191219 0.854554 0.013066
Si Si4 0.439419 0.927557 0.236275
Si Si5 0.709626 0.881924 0.503943
Si Si6 0.655913 0.213849 0.202698
O O1 0.614234 0.520159 0.602195
O O2 0.755968 0.447162 0.589357
O O3 0.772427 0.619050 0.668851
O O4 0.878015 0.509772 0.039965
O O5 0.557453 0.391870 0.727095
O O6 0.318167 0.858108 0.084478
O O7 0.220207 0.915000 0.219619
O O8 0.171454 0.752288 0.041316
O O9 0.500000 0.963201 0.500000
O O10 0.549502 0.878000 0.292813
O O11 0.768481 0.782469 0.556993
O O12 0.500000 0.204937 0.000000
#
# Coordination Sequence:
#
# PCOD8048989 Si02
#       6
#     4   2   4   4   4   4
#     4  11  21  34  59  80 109 146 181 223 267 324
#     4  10  20  36  56  78 110 148 178 216 280 314
#     4   8  19  34  57  78 109 145 173 223 266 322
#     4   9  17  35  56  79 107 145 176 216 274 317
#     4   9  19  34  59  75 112 142 178 222 268 316
#     4  10  20  34  55  83 108 141 184 224 266 318
#
# _framework density 17.922851000000001
#
# number of rings (size 3 to 8) (size 9 to 14) (size 15 to 20)
#    1.091    1.455    0.000    2.727    0.000    1.455 
#    1.636    0.000   28.000    0.000    0.000    0.000 
#    0.000    0.000    0.000    0.000    0.000    0.000 
#
# Total GULP energy -136286.410435 kJ/mol
# GULP energy per Si atom -12389.673676 kJ/mol
# Density = 1.788206 g / cm^3
# Si number density = 17.922851 Si / 1000 Ang^3
#
#
#
# Elastic Constant Matrix: (Units=GPa)
#
#
# Indices 1 2 3 4 5 6 
#
# 1 95.6903 51.5838 35.1784 0.0000 12.6457 0.0000
# 2 51.5838 130.8653 43.2150 0.0000 5.5719 0.0000
# 3 35.1784 43.2150 98.1583 0.0000 10.3883 0.0000
# 4 0.0000 0.0000 0.0000 22.3079 0.0000 -2.1366
# 5 12.6457 5.5719 10.3883 0.0000 28.2637 0.0000
# 6 0.0000 0.0000 0.0000 -2.1366 0.0000 24.5430
#
#
#
# Elastic Compliance Matrix: (Units=1/GPa)
#
#
# Indices 1 2 3 4 5 6 
#
# 1 0.014554 -0.004656 -0.002678 0.000000 -0.004609 0.000000
# 2 -0.004656 0.010434 -0.003046 0.000000 0.001146 0.000000
# 3 -0.002678 -0.003046 0.012796 0.000000 -0.002904 0.000000
# 4 0.000000 0.000000 0.000000 0.045204 0.000000 0.003935
# 5 -0.004609 0.001146 -0.002904 0.000000 0.038285 0.000000
# 6 0.000000 0.000000 0.000000 0.003935 0.000000 0.041087
#
#
# Mechanical properties :
#
#
# Convention : Reuss Voigt Hill
#
# Bulk Modulus (GPa) = 58.74474 64.96313 61.85394
# Shear Modulus (GPa) = 26.48360 28.00536 27.24448
#
# Velocity S-wave (km/s) = 3.84818 3.95720 3.90307
# Velocity P-wave (km/s) = 7.25206 7.56333 7.40933
#
# Compressibility (1/GPa) = 0.01702280
#
# Stress axis : x y z
#
# Youngs Moduli (GPa) = 68.70894 95.84109 78.14979
#
# Poissons Ratio (x) = 0.44626 0.20930
# Poissons Ratio (y) = 0.31992 0.23806
# Poissons Ratio (z) = 0.18402 0.29195
#
# Static dielectric constant tensor:
#      x y z
#    x 3.405470 0.000000 0.076700 
#    y 0.000000 2.955960 0.000000 
#    z 0.076700 0.000000 3.389080 
# 
# 
# High freq. dielectric constant tensor:
#      x y z
#    x 1.707100 0.000000 0.013000 
#    y 0.000000 1.653530 0.000000 
#    z 0.013000 0.000000 1.695720 
# 
# From -- ./inp_files/27491.got.cif
#   From: 2010.03.12/outbox.cif.g09.slc.cpg/sg5_14_cif.got.tgz:27491.got - 2010.03.31 09:47:26.
