data_PCOD8048009
_publ_section_title
;
Structure prediction by ZEFSAII (Michael W. Deem and Ramdas Pophale) SiO2 
 PCOD8048009
Probable space group: P 21
;
_chemical_formula_sum "Si O2"
_cell_formula_units_Z 14
_cell_length_a 8.993154
_cell_length_b 4.904159
_cell_length_c 15.666696
_cell_angle_alpha 90.000000
_cell_angle_beta 44.167710
_cell_angle_gamma 90.000000
_cell_volume 481.435156
_symmetry_space_group_name_H-M "P 21"
_symmetry_group_IT_number 4
_symmetry_cell_setting 'monoclinic'
loop_
_space_group_symop_operation_xyz
x,y,z
-x,1/2+y,-z
loop_
_atom_site_type_symbol
_atom_site_label
_atom_site_fract_x
_atom_site_fract_y
_atom_site_fract_z
Si Si1 0.429387 0.743510 0.977382
Si Si2 0.990958 0.960002 0.809967
Si Si3 0.871926 0.063782 0.678129
Si Si4 0.547810 0.649056 0.422937
Si Si5 0.929095 0.092702 0.073987
Si Si6 0.471230 0.975293 0.229643
Si Si7 0.235034 0.325869 0.446773
O O1 0.540117 0.716014 0.838056
O O2 0.551973 0.550543 0.995875
O O3 0.180223 0.652183 0.070562
O O4 0.212368 0.123224 0.711119
O O5 0.019226 0.674912 0.849116
O O6 0.888881 0.892987 0.758916
O O7 0.646818 0.218879 0.763954
O O8 0.906415 0.881806 0.579789
O O9 0.077156 0.267827 0.591116
O O10 0.505772 0.450791 0.521512
O O11 0.388569 0.574603 0.410713
O O12 0.715338 0.910381 0.151814
O O13 0.101549 0.882355 0.963816
O O14 0.376296 0.068125 0.359626
#
# Coordination Sequence:
#
# PCOD8048009 Si02
#       7
#     2   2   2   2   2   2   2
#     4  12  28  49  78 118 160 213 273 342 413 497
#     4  12  27  53  85 122 166 220 284 346 416 514
#     4  12  27  51  81 123 163 227 279 347 416 505
#     4  12  30  51  82 118 163 215 277 342 415 495
#     4  12  30  53  85 123 169 222 281 349 431 507
#     4  12  27  50  80 117 164 220 273 348 424 499
#     4  12  27  47  81 117 167 215 279 340 421 499
#
# _framework density 29.079720999999999
#
# number of rings (size 3 to 8) (size 9 to 14) (size 15 to 20)
#    0.000    0.000    7.143    0.857    8.000    3.429 
#    2.571    0.000    0.000    0.000    0.000    0.000 
#    0.000    0.000    0.000    0.000    0.000    0.000 
#
# Total GULP energy -173618.219477 kJ/mol
# GULP energy per Si atom -12401.301391 kJ/mol
# Density = 2.901353 g / cm^3
# Si number density = 29.079721 Si / 1000 Ang^3
#
#
#
# Elastic Constant Matrix: (Units=GPa)
#
#
# Indices 1 2 3 4 5 6 
#
# 1 143.3643 13.3449 57.9311 0.0000 15.8004 0.0000
# 2 13.3449 77.6734 30.1335 0.0000 4.4980 0.0000
# 3 57.9311 30.1335 128.7790 0.0000 6.9342 0.0000
# 4 0.0000 0.0000 0.0000 25.7113 0.0000 14.1441
# 5 15.8004 4.4980 6.9342 0.0000 66.5031 0.0000
# 6 0.0000 0.0000 0.0000 14.1441 0.0000 40.6419
#
#
#
# Elastic Compliance Matrix: (Units=1/GPa)
#
#
# Indices 1 2 3 4 5 6 
#
# 1 0.008706 0.000094 -0.003848 0.000000 -0.001674 0.000000
# 2 0.000094 0.014186 -0.003328 0.000000 -0.000635 0.000000
# 3 -0.003848 -0.003328 0.010271 0.000000 0.000068 0.000000
# 4 0.000000 0.000000 0.000000 0.048103 0.000000 -0.016741
# 5 -0.001674 -0.000635 0.000068 0.000000 0.015470 0.000000
# 6 0.000000 0.000000 0.000000 -0.016741 0.000000 0.030431
#
#
# Mechanical properties :
#
#
# Convention : Reuss Voigt Hill
#
# Bulk Modulus (GPa) = 52.63225 61.40396 57.01811
# Shear Modulus (GPa) = 33.86061 43.13172 38.49616
#
# Velocity S-wave (km/s) = 3.41604 3.85544 3.64237
# Velocity P-wave (km/s) = 5.80497 6.40163 6.11059
#
# Compressibility (1/GPa) = 0.01899976
#
# Stress axis : x y z
#
# Youngs Moduli (GPa) = 114.86409 70.49225 97.35834
#
# Poissons Ratio (x) = -0.00663 0.37466
# Poissons Ratio (y) = -0.01081 0.32397
# Poissons Ratio (z) = 0.44203 0.23457
#
# Static dielectric constant tensor:
#      x y z
#    x 5.484450 0.000000 -0.003720 
#    y 0.000000 4.764910 0.000000 
#    z -0.003720 0.000000 5.657520 
# 
# 
# High freq. dielectric constant tensor:
#      x y z
#    x 2.204790 0.000000 0.003040 
#    y 0.000000 2.164810 0.000000 
#    z 0.003040 0.000000 2.196250 
# 
# From -- ./inp_files/13577.got.cif
#   From: 2010.03.12/outbox.cif.g09.slc.cpg/sg4_7_cif.got.tgz:13577.got - 2010.03.31 09:31:35.
