data_PCOD8048710
_publ_section_title
;
Structure prediction by ZEFSAII (Michael W. Deem and Ramdas Pophale) SiO2 
 PCOD8048710
Probable space group: C 2
;
_chemical_formula_sum "Si O2"
_cell_formula_units_Z 30
_cell_length_a 16.814486
_cell_length_b 14.347879
_cell_length_c 7.704649
_cell_angle_alpha 90.000000
_cell_angle_beta 134.338253
_cell_angle_gamma 90.000000
_cell_volume 1329.436584
_symmetry_space_group_name_H-M "C 2"
_symmetry_group_IT_number 5
_symmetry_cell_setting 'monoclinic'
loop_
_space_group_symop_operation_xyz
x,y,z
-x,y,-z
1/2+x,1/2+y,z
1/2-x,1/2+y,-z
loop_
_atom_site_type_symbol
_atom_site_label
_atom_site_fract_x
_atom_site_fract_y
_atom_site_fract_z
Si Si1 0.117683 0.875000 0.630962
Si Si2 0.382176 0.460036 0.747776
Si Si3 0.001083 0.398793 0.300193
Si Si4 0.687668 0.754914 0.964963
Si Si5 0.728654 0.810650 0.636766
Si Si6 0.238086 0.614046 0.402155
Si Si7 0.129103 0.071339 0.738340
Si Si8 0.500000 0.038414 0.000000
O O1 0.107208 0.926889 0.433003
O O2 0.000000 0.827506 0.500000
O O3 0.143262 0.960874 0.807443
O O4 0.210145 0.794160 0.765011
O O5 0.337820 0.374239 0.793386
O O6 0.298557 0.548082 0.635226
O O7 0.500000 0.493566 0.000000
O O8 0.923931 0.308903 0.155000
O O9 0.000000 0.432582 0.500000
O O10 0.122977 0.371235 0.419430
O O11 0.961546 0.479401 0.110158
O O12 0.718142 0.774844 0.814129
O O13 0.666795 0.642889 0.950966
O O14 0.739261 0.722860 0.521733
O O15 0.288463 0.590871 0.292987
O O16 0.105293 0.601529 0.207694
O O17 0.000000 0.094254 0.500000
#
# Coordination Sequence:
#
# PCOD8048710 Si02
#       8
#     4   4   4   4   4   4   4   2
#     4  10  21  38  60  90 122 164 215 258 326 390
#     4  11  22  40  61  87 126 172 210 260 316 384
#     4  10  21  38  67  97 128 165 219 270 326 386
#     4  10  19  36  65  91 120 164 211 269 326 377
#     4  10  21  40  61  90 128 167 213 261 327 386
#     4  10  22  39  63  94 124 177 211 261 340 382
#     4   9  18  37  64  93 121 164 217 265 318 390
#     4  12  22  42  70  92 140 172 212 276 330 404
#
# _framework density 22.565949
#
# number of rings (size 3 to 8) (size 9 to 14) (size 15 to 20)
#    0.000    1.867    1.333    4.400    0.933    0.000 
#    1.200    5.333    5.867    0.800    0.000    0.000 
#    0.000    0.000    0.000    0.000    0.000    0.000 
#
# Total GULP energy -185925.457848 kJ/mol
# GULP energy per Si atom -12395.030523 kJ/mol
# Density = 2.251459 g / cm^3
# Si number density = 22.565949 Si / 1000 Ang^3
#
#
#
# Elastic Constant Matrix: (Units=GPa)
#
#
# Indices 1 2 3 4 5 6 
#
# 1 67.1051 24.3579 20.8176 0.0000 25.7377 0.0000
# 2 24.3579 98.4909 40.9944 0.0000 10.1449 0.0000
# 3 20.8176 40.9944 107.1785 0.0000 25.7139 0.0000
# 4 0.0000 0.0000 0.0000 20.8823 0.0000 -3.0326
# 5 25.7377 10.1449 25.7139 0.0000 33.8421 0.0000
# 6 0.0000 0.0000 0.0000 -3.0326 0.0000 3.7156
#
#
#
# Elastic Compliance Matrix: (Units=1/GPa)
#
#
# Indices 1 2 3 4 5 6 
#
# 1 0.022544 -0.004400 0.001347 0.000000 -0.016849 0.000000
# 2 -0.004400 0.012935 -0.004849 0.000000 0.003154 0.000000
# 3 0.001347 -0.004849 0.013233 0.000000 -0.009625 0.000000
# 4 0.000000 0.000000 0.000000 0.054327 0.000000 0.044340
# 5 -0.016849 0.003154 -0.009625 0.000000 0.048731 0.000000
# 6 0.000000 0.000000 0.000000 0.044340 0.000000 0.305326
#
#
# Mechanical properties :
#
#
# Convention : Reuss Voigt Hill
#
# Bulk Modulus (GPa) = 30.38998 49.45715 39.92357
# Shear Modulus (GPa) = 10.33334 24.12830 17.23082
#
# Velocity S-wave (km/s) = 2.14222 3.27346 2.76629
# Velocity P-wave (km/s) = 4.42891 6.02094 5.28521
#
# Compressibility (1/GPa) = 0.03290558
#
# Stress axis : x y z
#
# Youngs Moduli (GPa) = 44.35794 77.30901 75.57034
#
# Poissons Ratio (x) = 0.34019 -0.10178
# Poissons Ratio (y) = 0.19519 0.36647
# Poissons Ratio (z) = -0.05974 0.37491
#
# Static dielectric constant tensor:
#      x y z
#    x 4.088740 0.000000 0.223110 
#    y 0.000000 4.601330 0.000000 
#    z 0.223110 0.000000 3.905200 
# 
# 
# High freq. dielectric constant tensor:
#      x y z
#    x 1.893660 0.000000 0.018800 
#    y 0.000000 1.887480 0.000000 
#    z 0.018800 0.000000 1.868730 
# 
# From -- ./inp_files/27753.got.cif
#   From: 2010.03.12/outbox.cif.g09.slc.cpg/sg5_14_cif.got.tgz:27753.got - 2010.03.31 09:47:26.
