data_PCOD8048823
_publ_section_title
;
Structure prediction by ZEFSAII (Michael W. Deem and Ramdas Pophale) SiO2 
 PCOD8048823
Probable space group: C 2
;
_chemical_formula_sum "Si O2"
_cell_formula_units_Z 16
_cell_length_a 7.612758
_cell_length_b 13.129866
_cell_length_c 9.167678
_cell_angle_alpha 90.000000
_cell_angle_beta 91.244276
_cell_angle_gamma 90.000000
_cell_volume 916.134527
_symmetry_space_group_name_H-M "C 2"
_symmetry_group_IT_number 5
_symmetry_cell_setting 'monoclinic'
loop_
_space_group_symop_operation_xyz
x,y,z
-x,y,-z
1/2+x,1/2+y,z
1/2-x,1/2+y,-z
loop_
_atom_site_type_symbol
_atom_site_label
_atom_site_fract_x
_atom_site_fract_y
_atom_site_fract_z
Si Si1 0.167730 0.539890 0.820316
Si Si2 0.712942 0.115214 0.136305
Si Si3 0.103471 0.313664 0.854520
Si Si4 0.473975 0.642863 0.670417
O O1 0.167684 0.419579 0.788289
O O2 0.289110 0.590181 0.700410
O O3 0.975053 0.588573 0.799677
O O4 0.244049 0.559440 0.983081
O O5 0.731062 0.237899 0.111822
O O6 0.866499 0.079092 0.250437
O O7 0.973997 0.257711 0.736387
O O8 0.000000 0.338545 0.000000
O O9 0.500000 0.647074 0.500000
#
# Coordination Sequence:
#
# PCOD8048823 Si02
#       4
#     4   4   4   4
#     4  11  19  39  62  84 114 150 196 240 282 326
#     4   9  20  37  58  89 107 147 197 237 276 328
#     4  10  19  39  59  89 111 147 202 233 284 330
#     4  10  22  42  53  85 130 147 182 237 284 354
#
# _framework density 17.464683000000001
#
# number of rings (size 3 to 8) (size 9 to 14) (size 15 to 20)
#    1.500    0.500    5.000    0.750    0.000    1.000 
#   18.000    0.000    0.000    0.000    0.000    0.000 
#    0.000    0.000    0.000    0.000    0.000    0.000 
#
# Total GULP energy -99144.125525 kJ/mol
# GULP energy per Si atom -12393.015691 kJ/mol
# Density = 1.742493 g / cm^3
# Si number density = 17.464683 Si / 1000 Ang^3
#
#
#
# Elastic Constant Matrix: (Units=GPa)
#
#
# Indices 1 2 3 4 5 6 
#
# 1 79.7986 42.0266 36.3200 0.0000 -13.3780 0.0000
# 2 42.0266 139.7361 24.1008 0.0000 -14.3123 0.0000
# 3 36.3200 24.1008 100.2807 0.0000 -20.1402 0.0000
# 4 0.0000 0.0000 0.0000 5.1382 0.0000 -3.0876
# 5 -13.3780 -14.3123 -20.1402 0.0000 25.3733 0.0000
# 6 0.0000 0.0000 0.0000 -3.0876 0.0000 31.1546
#
#
#
# Elastic Compliance Matrix: (Units=1/GPa)
#
#
# Indices 1 2 3 4 5 6 
#
# 1 0.017333 -0.004088 -0.004667 0.000000 0.003129 0.000000
# 2 -0.004088 0.008672 -0.000064 0.000000 0.002685 0.000000
# 3 -0.004667 -0.000064 0.013296 0.000000 0.008057 0.000000
# 4 0.000000 0.000000 0.000000 0.206943 0.000000 0.020509
# 5 0.003129 0.002685 0.008057 0.000000 0.048971 0.000000
# 6 0.000000 0.000000 0.000000 0.020509 0.000000 0.034131
#
#
# Mechanical properties :
#
#
# Convention : Reuss Voigt Hill
#
# Bulk Modulus (GPa) = 46.16217 58.30113 52.23165
# Shear Modulus (GPa) = 14.11616 26.82442 20.47029
#
# Velocity S-wave (km/s) = 2.84609 3.92334 3.42730
# Velocity P-wave (km/s) = 6.10651 7.34699 6.75528
#
# Compressibility (1/GPa) = 0.02166276
#
# Stress axis : x y z
#
# Youngs Moduli (GPa) = 57.69345 115.31537 75.21139
#
# Poissons Ratio (x) = 0.47137 0.35101
# Poissons Ratio (y) = 0.23583 0.00484
# Poissons Ratio (z) = 0.26925 0.00742
#
# Static dielectric constant tensor:
#      x y z
#    x 3.196640 0.000000 0.008330 
#    y 0.000000 3.188410 0.000000 
#    z 0.008330 0.000000 2.973470 
# 
# 
# High freq. dielectric constant tensor:
#      x y z
#    x 1.670130 0.000000 -0.004920 
#    y 0.000000 1.667850 0.000000 
#    z -0.004920 0.000000 1.658040 
# 
# From -- ./inp_files/13755.got.cif
#   From: 2010.03.12/outbox.cif.g09.slc.cpg/sg5_7_cif.got.tgz:13755.got - 2010.03.31 09:47:26.
