data_PCOD8048792
_publ_section_title
;
Structure prediction by ZEFSAII (Michael W. Deem and Ramdas Pophale) SiO2 
 PCOD8048792
Probable space group: C 2
;
_chemical_formula_sum "Si O2"
_cell_formula_units_Z 32
_cell_length_a 8.361143
_cell_length_b 14.147913
_cell_length_c 13.540394
_cell_angle_alpha 90.000000
_cell_angle_beta 119.326873
_cell_angle_gamma 90.000000
_cell_volume 1396.451791
_symmetry_space_group_name_H-M "C 2"
_symmetry_group_IT_number 5
_symmetry_cell_setting 'monoclinic'
loop_
_space_group_symop_operation_xyz
x,y,z
-x,y,-z
1/2+x,1/2+y,z
1/2-x,1/2+y,-z
loop_
_atom_site_type_symbol
_atom_site_label
_atom_site_fract_x
_atom_site_fract_y
_atom_site_fract_z
Si Si1 0.159447 0.497260 0.478825
Si Si2 0.072461 0.116518 0.320546
Si Si3 0.413132 0.321268 0.569631
Si Si4 0.037719 0.877137 0.116961
Si Si5 0.546031 0.054914 0.228931
Si Si6 0.822976 0.932555 0.223397
Si Si7 0.232057 0.234332 0.694100
Si Si8 0.642093 0.590215 0.123179
O O1 0.251764 0.587243 0.561114
O O2 0.304013 0.414452 0.500700
O O3 0.067309 0.532164 0.350555
O O4 0.000000 0.454834 0.500000
O O5 0.125814 0.144109 0.223555
O O6 0.981578 0.208674 0.347678
O O7 0.942272 0.025960 0.277137
O O8 0.500000 0.268448 0.500000
O O9 0.595578 0.349672 0.684601
O O10 0.278640 0.253339 0.592603
O O11 0.846569 0.890046 0.119869
O O12 0.199300 0.824472 0.224100
O O13 0.116976 0.979788 0.126745
O O14 0.000000 0.827598 0.000000
O O15 0.667880 0.142858 0.234086
O O16 0.346276 0.094311 0.141219
O O17 0.612842 0.962467 0.185515
O O18 0.500000 0.634089 0.000000
#
# Coordination Sequence:
#
# PCOD8048792 Si02
#       8
#     4   4   4   4   4   4   4   4
#     4  11  21  37  65  93 126 175 213 256 306 393
#     4   9  19  38  58  90 128 160 206 254 315 378
#     4  10  19  38  61  92 131 166 203 253 322 382
#     4   9  19  40  63  87 123 164 210 267 322 375
#     4  11  21  38  61  96 126 163 215 262 324 375
#     4   8  17  34  62  87 119 160 209 257 303 380
#     4  10  23  37  60  94 131 163 203 263 328 383
#     4  10  21  40  65  89 122 167 219 265 308 383
#
# _framework density 22.915217999999999
#
# number of rings (size 3 to 8) (size 9 to 14) (size 15 to 20)
#    0.000    2.250    2.500    0.750    0.000    1.500 
#    2.250   11.875    0.000    0.000    0.000    0.000 
#    0.000    0.000    0.000    0.000    0.000    0.000 
#
# Total GULP energy -198246.504936 kJ/mol
# GULP energy per Si atom -12390.406559 kJ/mol
# Density = 2.286306 g / cm^3
# Si number density = 22.915218 Si / 1000 Ang^3
#
#
#
# Elastic Constant Matrix: (Units=GPa)
#
#
# Indices 1 2 3 4 5 6 
#
# 1 131.4275 17.7360 45.2011 0.0000 -14.2256 0.0000
# 2 17.7360 35.8803 12.2948 0.0000 -9.6552 0.0000
# 3 45.2011 12.2948 99.6370 0.0000 -15.2030 0.0000
# 4 0.0000 0.0000 0.0000 11.9051 0.0000 -5.4213
# 5 -14.2256 -9.6552 -15.2030 0.0000 38.3491 0.0000
# 6 0.0000 0.0000 0.0000 -5.4213 0.0000 43.0204
#
#
#
# Elastic Compliance Matrix: (Units=1/GPa)
#
#
# Indices 1 2 3 4 5 6 
#
# 1 0.009433 -0.003052 -0.003711 0.000000 0.001260 0.000000
# 2 -0.003052 0.031584 -0.001567 0.000000 0.006198 0.000000
# 3 -0.003711 -0.001567 0.012393 0.000000 0.003142 0.000000
# 4 0.000000 0.000000 0.000000 0.089111 0.000000 0.011230
# 5 0.001260 0.006198 0.003142 0.000000 0.029350 0.000000
# 6 0.000000 0.000000 0.000000 0.011230 0.000000 0.024660
#
#
# Mechanical properties :
#
#
# Convention : Reuss Voigt Hill
#
# Bulk Modulus (GPa) = 27.21073 46.37875 36.79474
# Shear Modulus (GPa) = 22.17880 31.43577 26.80728
#
# Velocity S-wave (km/s) = 3.11443 3.70784 3.42401
# Velocity P-wave (km/s) = 4.98329 6.21401 5.63237
#
# Compressibility (1/GPa) = 0.03675021
#
# Stress axis : x y z
#
# Youngs Moduli (GPa) = 106.00864 31.66142 80.69393
#
# Poissons Ratio (x) = 0.09665 0.29942
# Poissons Ratio (y) = 0.32359 0.12643
# Poissons Ratio (z) = 0.39335 0.04961
#
# Static dielectric constant tensor:
#      x y z
#    x 4.568310 0.000000 -0.185750 
#    y 0.000000 3.929900 0.000000 
#    z -0.185750 0.000000 4.301690 
# 
# 
# High freq. dielectric constant tensor:
#      x y z
#    x 1.911800 0.000000 -0.013820 
#    y 0.000000 1.881510 0.000000 
#    z -0.013820 0.000000 1.885370 
# 
# From -- ./inp_files/50939.got.cif
#   From: 2010.03.12/outbox.cif.g09.slc.cpg/sg5_26_cif.got.tgz:50939.got - 2010.03.31 09:47:26.
