data_PCOD8048344
_publ_section_title
;
Structure prediction by ZEFSAII (Michael W. Deem and Ramdas Pophale) SiO2 
 PCOD8048344
Probable space group: C 2
;
_chemical_formula_sum "Si O2"
_cell_formula_units_Z 26
_cell_length_a 9.088818
_cell_length_b 16.297821
_cell_length_c 9.565245
_cell_angle_alpha 90.000000
_cell_angle_beta 86.674954
_cell_angle_gamma 90.000000
_cell_volume 1414.494696
_symmetry_space_group_name_H-M "C 2"
_symmetry_group_IT_number 5
_symmetry_cell_setting 'monoclinic'
loop_
_space_group_symop_operation_xyz
x,y,z
-x,y,-z
1/2+x,1/2+y,z
1/2-x,1/2+y,-z
loop_
_atom_site_type_symbol
_atom_site_label
_atom_site_fract_x
_atom_site_fract_y
_atom_site_fract_z
Si Si1 0.500000 0.093370 0.000000
Si Si2 0.498613 0.515533 0.839145
Si Si3 0.975865 0.188602 0.214879
Si Si4 0.674114 0.964062 0.850190
Si Si5 0.500008 0.851590 0.341406
Si Si6 0.242111 0.214036 0.011619
Si Si7 0.736835 0.384031 0.872706
O O1 0.364724 0.149248 0.956441
O O2 0.441935 0.039630 0.135412
O O3 0.563348 0.593323 0.746025
O O4 0.336550 0.492516 0.795288
O O5 0.599576 0.435185 0.820560
O O6 0.500000 0.546315 0.000000
O O7 0.973558 0.252574 0.343531
O O8 0.140837 0.180749 0.142930
O O9 0.861937 0.230872 0.114555
O O10 0.626215 0.898313 0.737764
O O11 0.675952 0.930362 0.009016
O O12 0.500000 0.883162 0.500000
O O13 0.656552 0.870252 0.263340
O O14 0.319672 0.298188 0.058946
#
# Coordination Sequence:
#
# PCOD8048344 Si02
#       7
#     2   4   4   4   4   4   4
#     4  12  20  30  56  92 114 140 180 234 286 328
#     4  10  19  33  59  91 113 137 184 236 285 334
#     4  10  18  36  52  77 115 145 182 223 276 328
#     4  11  20  36  56  85 114 145 183 234 283 329
#     4  11  23  38  57  78 111 156 194 228 276 332
#     4  10  19  30  53  86 114 140 175 228 279 331
#     4  10  20  36  59  85 111 145 183 231 282 335
#
# _framework density 18.381122999999999
#
# number of rings (size 3 to 8) (size 9 to 14) (size 15 to 20)
#    0.000    1.538    6.154    0.923    3.231    0.000 
#    0.000    2.308    0.000    0.000    0.000    0.000 
#    0.000    0.000    0.000    0.000    0.000    0.000 
#
# Total GULP energy -161119.311310 kJ/mol
# GULP energy per Si atom -12393.793178 kJ/mol
# Density = 1.833929 g / cm^3
# Si number density = 18.381123 Si / 1000 Ang^3
#
#
#
# Elastic Constant Matrix: (Units=GPa)
#
#
# Indices 1 2 3 4 5 6 
#
# 1 100.8009 61.0438 30.6736 0.0000 7.9339 0.0000
# 2 61.0438 142.2844 30.7447 0.0000 1.5865 0.0000
# 3 30.6736 30.7447 71.6855 0.0000 -1.4751 0.0000
# 4 0.0000 0.0000 0.0000 13.6242 0.0000 2.1972
# 5 7.9339 1.5865 -1.4751 0.0000 8.8809 0.0000
# 6 0.0000 0.0000 0.0000 2.1972 0.0000 35.0530
#
#
#
# Elastic Compliance Matrix: (Units=1/GPa)
#
#
# Indices 1 2 3 4 5 6 
#
# 1 0.015845 -0.005638 -0.004648 0.000000 -0.013920 0.000000
# 2 -0.005638 0.009786 -0.001723 0.000000 0.003003 0.000000
# 3 -0.004648 -0.001723 0.016827 0.000000 0.007255 0.000000
# 4 0.000000 0.000000 0.000000 0.074148 0.000000 -0.004648
# 5 -0.013920 0.003003 0.007255 0.000000 0.125705 0.000000
# 6 0.000000 0.000000 0.000000 -0.004648 0.000000 0.028820
#
#
# Mechanical properties :
#
#
# Convention : Reuss Voigt Hill
#
# Bulk Modulus (GPa) = 54.23150 62.18834 58.20992
# Shear Modulus (GPa) = 16.59497 24.33220 20.46358
#
# Velocity S-wave (km/s) = 3.00797 3.64230 3.34023
# Velocity P-wave (km/s) = 6.45227 7.18294 6.82739
#
# Compressibility (1/GPa) = 0.01843947
#
# Stress axis : x y z
#
# Youngs Moduli (GPa) = 63.11063 102.18740 59.42884
#
# Poissons Ratio (x) = 0.57617 0.27624
# Poissons Ratio (y) = 0.35584 0.10237
# Poissons Ratio (z) = 0.29335 0.17603
#
# Static dielectric constant tensor:
#      x y z
#    x 3.350060 0.000000 0.004420 
#    y 0.000000 3.735800 0.000000 
#    z 0.004420 0.000000 2.769390 
# 
# 
# High freq. dielectric constant tensor:
#      x y z
#    x 1.715980 0.000000 0.003680 
#    y 0.000000 1.739300 0.000000 
#    z 0.003680 0.000000 1.639370 
# 
# From -- ./inp_files/16123.got.cif
#   From: 2010.03.12/outbox.cif.g09.slc.cpg/sg5_9_cif.got.tgz:16123.got - 2010.03.31 09:47:26.
