data_PCOD8048706
_publ_section_title
;
Structure prediction by ZEFSAII (Michael W. Deem and Ramdas Pophale) SiO2 
 PCOD8048706
Probable space group: C 2
;
_chemical_formula_sum "Si O2"
_cell_formula_units_Z 28
_cell_length_a 31.597249
_cell_length_b 7.689490
_cell_length_c 9.482824
_cell_angle_alpha 90.000000
_cell_angle_beta 145.087519
_cell_angle_gamma 90.000000
_cell_volume 1318.641835
_symmetry_space_group_name_H-M "C 2"
_symmetry_group_IT_number 5
_symmetry_cell_setting 'monoclinic'
loop_
_space_group_symop_operation_xyz
x,y,z
-x,y,-z
1/2+x,1/2+y,z
1/2-x,1/2+y,-z
loop_
_atom_site_type_symbol
_atom_site_label
_atom_site_fract_x
_atom_site_fract_y
_atom_site_fract_z
Si Si1 0.314006 0.549340 0.769712
Si Si2 0.574539 0.777280 0.422829
Si Si3 0.690532 0.668062 0.958604
Si Si4 0.539210 0.107227 0.465734
Si Si5 0.520089 0.474561 0.719397
Si Si6 0.199739 0.259988 0.545745
Si Si7 0.307474 0.259949 0.078687
O O1 0.241653 0.429022 0.598213
O O2 0.310433 0.619204 0.602992
O O3 0.312450 0.705066 0.881629
O O4 0.392581 0.456352 0.012356
O O5 0.629771 0.774165 0.707085
O O6 0.517556 0.615775 0.278453
O O7 0.618418 0.790023 0.393825
O O8 0.530572 0.958387 0.323085
O O9 0.675041 0.462330 0.893934
O O10 0.772004 0.726182 0.134725
O O11 0.500000 0.043253 0.500000
O O12 0.508652 0.285096 0.316319
O O13 0.622330 0.139792 0.741676
O O14 0.500000 0.516793 0.500000
O O15 0.250502 0.182565 0.808014
#
# Coordination Sequence:
#
# PCOD8048706 Si02
#       7
#     4   4   4   4   4   4   4
#     4  11  23  43  65  92 133 177 219 273 321 398
#     4  11  22  41  66 101 129 171 215 277 331 396
#     4  10  19  36  64  92 127 167 215 268 330 378
#     4  11  21  35  66 103 128 162 218 275 331 387
#     4  11  21  43  69  99 134 168 218 276 333 393
#     4  10  24  42  62  94 134 173 224 261 335 390
#     4  10  19  37  60  97 129 160 217 273 315 399
#
# _framework density 21.233971
#
# number of rings (size 3 to 8) (size 9 to 14) (size 15 to 20)
#    0.000    1.429    2.857    5.571    0.000    4.000 
#    5.143    0.000    0.000    0.000    0.000    0.000 
#    0.000    0.000    0.000    0.000    0.000    0.000 
#
# Total GULP energy -173509.888074 kJ/mol
# GULP energy per Si atom -12393.563434 kJ/mol
# Density = 2.118564 g / cm^3
# Si number density = 21.233971 Si / 1000 Ang^3
#
#
#
# Elastic Constant Matrix: (Units=GPa)
#
#
# Indices 1 2 3 4 5 6 
#
# 1 144.1883 64.9095 23.8543 0.0000 11.6121 0.0000
# 2 64.9095 110.1563 22.5541 0.0000 -1.8525 0.0000
# 3 23.8543 22.5541 46.2122 0.0000 -0.9206 0.0000
# 4 0.0000 0.0000 0.0000 13.1845 0.0000 9.1195
# 5 11.6121 -1.8525 -0.9206 0.0000 30.8399 0.0000
# 6 0.0000 0.0000 0.0000 9.1195 0.0000 42.2833
#
#
#
# Elastic Compliance Matrix: (Units=1/GPa)
#
#
# Indices 1 2 3 4 5 6 
#
# 1 0.010214 -0.005548 -0.002650 0.000000 -0.004258 0.000000
# 2 -0.005548 0.013106 -0.003477 0.000000 0.002772 0.000000
# 3 -0.002650 -0.003477 0.024735 0.000000 0.001527 0.000000
# 4 0.000000 0.000000 0.000000 0.089145 0.000000 -0.019226
# 5 -0.004258 0.002772 0.001527 0.000000 0.034241 0.000000
# 6 0.000000 0.000000 0.000000 -0.019226 0.000000 0.027797
#
#
# Mechanical properties :
#
#
# Convention : Reuss Voigt Hill
#
# Bulk Modulus (GPa) = 40.47793 58.13254 49.30524
# Shear Modulus (GPa) = 21.66174 29.87745 25.76959
#
# Velocity S-wave (km/s) = 3.19744 3.75515 3.48746
# Velocity P-wave (km/s) = 5.72151 6.79986 6.28386
#
# Compressibility (1/GPa) = 0.02470482
#
# Stress axis : x y z
#
# Youngs Moduli (GPa) = 97.90374 76.30317 40.42924
#
# Poissons Ratio (x) = 0.42331 0.10712
# Poissons Ratio (y) = 0.54315 0.14059
# Poissons Ratio (z) = 0.25941 0.26533
#
# Static dielectric constant tensor:
#      x y z
#    x 4.212050 0.000000 0.176260 
#    y 0.000000 3.706730 0.000000 
#    z 0.176260 0.000000 3.769870 
# 
# 
# High freq. dielectric constant tensor:
#      x y z
#    x 1.852080 0.000000 0.020640 
#    y 0.000000 1.822430 0.000000 
#    z 0.020640 0.000000 1.805360 
# 
# From -- ./inp_files/32531.got.cif
#   From: 2010.03.12/outbox.cif.g09.slc.cpg/sg5_17_cif.got.tgz:32531.got - 2010.03.31 09:47:26.
