data_PCOD8048802
_publ_section_title
;
Structure prediction by ZEFSAII (Michael W. Deem and Ramdas Pophale) SiO2 
 PCOD8048802
Probable space group: C 2
;
_chemical_formula_sum "Si O2"
_cell_formula_units_Z 28
_cell_length_a 20.879292
_cell_length_b 8.846081
_cell_length_c 23.350518
_cell_angle_alpha 90.000000
_cell_angle_beta 19.453439
_cell_angle_gamma 90.000000
_cell_volume 1436.350843
_symmetry_space_group_name_H-M "C 2"
_symmetry_group_IT_number 5
_symmetry_cell_setting 'monoclinic'
loop_
_space_group_symop_operation_xyz
x,y,z
-x,y,-z
1/2+x,1/2+y,z
1/2-x,1/2+y,-z
loop_
_atom_site_type_symbol
_atom_site_label
_atom_site_fract_x
_atom_site_fract_y
_atom_site_fract_z
Si Si1 0.160754 0.621220 0.654311
Si Si2 0.227202 0.557498 0.186718
Si Si3 0.379585 0.557497 0.360839
Si Si4 0.960319 0.298934 0.205782
Si Si5 0.119688 0.781323 0.181018
Si Si6 0.850829 0.075600 0.205164
Si Si7 0.864901 0.388209 0.526963
O O1 0.243730 0.636988 0.520617
O O2 0.150306 0.451623 0.685357
O O3 0.303085 0.711761 0.577237
O O4 0.952129 0.697523 0.817219
O O5 0.109746 0.673643 0.245647
O O6 0.280783 0.634255 0.202321
O O7 0.088686 0.415153 0.320273
O O8 0.428117 0.509146 0.985793
O O9 0.491999 0.693353 0.234671
O O10 0.510203 0.438119 0.284993
O O11 0.263466 0.470372 0.411133
O O12 0.839618 0.216812 0.257664
O O13 0.166506 0.339952 0.008042
O O14 0.700526 0.949260 0.355268
#
# Coordination Sequence:
#
# PCOD8048802 Si02
#       7
#     4   4   4   4   4   4   4
#     4  11  21  35  55  83 121 145 191 233 289 353
#     4  10  19  38  63  83 112 149 200 235 286 341
#     4  10  20  34  53  83 117 146 185 229 289 347
#     4  10  20  36  56  83 119 147 188 241 284 340
#     4  10  20  34  57  87 111 153 187 232 291 341
#     4   9  21  37  63  84 107 151 199 241 278 341
#     4  10  20  36  57  81 114 151 186 237 285 339
#
# _framework density 19.493845
#
# number of rings (size 3 to 8) (size 9 to 14) (size 15 to 20)
#    0.000    2.000    1.429    3.000    2.000    1.143 
#    2.571    0.000    6.286    1.714    0.000    0.000 
#    0.000    0.000    0.000    0.000    0.000    0.000 
#
# Total GULP energy -173480.653119 kJ/mol
# GULP energy per Si atom -12391.475223 kJ/mol
# Density = 1.944948 g / cm^3
# Si number density = 19.493845 Si / 1000 Ang^3
#
#
#
# Elastic Constant Matrix: (Units=GPa)
#
#
# Indices 1 2 3 4 5 6 
#
# 1 76.0895 34.8535 22.7542 -0.0070 5.6839 -0.0053
# 2 34.8535 106.2138 35.5117 0.0071 -1.4460 0.0117
# 3 22.7542 35.5117 78.5993 0.0174 5.8741 0.0251
# 4 -0.0070 0.0071 0.0174 23.5546 -0.0059 -9.9484
# 5 5.6839 -1.4460 5.8741 -0.0059 27.2146 -0.0116
# 6 -0.0053 0.0117 0.0251 -9.9484 -0.0116 10.4267
#
#
#
# Elastic Compliance Matrix: (Units=1/GPa)
#
#
# Indices 1 2 3 4 5 6 
#
# 1 0.016174 -0.004549 -0.002395 0.000023 -0.003103 0.000038
# 2 -0.004549 0.012447 -0.004500 -0.000004 0.002583 -0.000006
# 3 -0.002395 -0.004500 0.015683 -0.000046 -0.003124 -0.000081
# 4 0.000023 -0.000004 -0.000046 0.071111 0.000049 0.067849
# 5 -0.003103 0.002583 -0.003124 0.000049 0.038205 0.000092
# 6 0.000038 -0.000006 -0.000081 0.067849 0.000092 0.160644
#
#
# Mechanical properties :
#
#
# Convention : Reuss Voigt Hill
#
# Bulk Modulus (GPa) = 46.69381 49.68237 48.18809
# Shear Modulus (GPa) = 14.52261 23.42474 18.97368
#
# Velocity S-wave (km/s) = 2.73240 3.47024 3.12319
# Velocity P-wave (km/s) = 5.82750 6.44967 6.14646
#
# Compressibility (1/GPa) = 0.02141611
#
# Stress axis : x y z
#
# Youngs Moduli (GPa) = 61.82712 80.33854 63.76425
#
# Poissons Ratio (x) = 0.36545 0.15273
# Poissons Ratio (y) = 0.28124 0.28693
# Poissons Ratio (z) = 0.14809 0.36152
#
# Static dielectric constant tensor:
#      x y z
#    x 3.594770 0.000060 0.078820 
#    y 0.000060 3.558200 0.000060 
#    z 0.078820 0.000060 3.771810 
# 
# 
# High freq. dielectric constant tensor:
#      x y z
#    x 1.750120 0.000000 0.005230 
#    y 0.000000 1.733350 0.000000 
#    z 0.005230 0.000000 1.770750 
# 
# From -- ./inp_files/32467.got.cif
#   From: 2010.03.12/outbox.cif.g09.slc.cpg/sg5_17_cif.got.tgz:32467.got - 2010.03.31 09:47:26.
