data_PCOD8048034
_publ_section_title
;
Structure prediction by ZEFSAII (Michael W. Deem and Ramdas Pophale) SiO2 
 PCOD8048034
Probable space group: C 2
;
_chemical_formula_sum "Si O2"
_cell_formula_units_Z 24
_cell_length_a 16.900365
_cell_length_b 10.848804
_cell_length_c 8.276970
_cell_angle_alpha 90.000000
_cell_angle_beta 128.690934
_cell_angle_gamma 90.000000
_cell_volume 1184.509521
_symmetry_space_group_name_H-M "C 2"
_symmetry_group_IT_number 5
_symmetry_cell_setting 'monoclinic'
loop_
_space_group_symop_operation_xyz
x,y,z
-x,y,-z
1/2+x,1/2+y,z
1/2-x,1/2+y,-z
loop_
_atom_site_type_symbol
_atom_site_label
_atom_site_fract_x
_atom_site_fract_y
_atom_site_fract_z
Si Si1 0.117207 0.884170 0.612166
Si Si2 0.330267 0.654013 0.417721
Si Si3 0.500000 0.798421 0.500000
Si Si4 0.894211 0.532628 0.316068
Si Si5 0.000000 0.695095 0.000000
Si Si6 0.666170 0.240684 0.980384
Si Si7 0.335927 0.154821 0.543624
O O1 0.174861 0.838282 0.847378
O O2 0.133903 0.787565 0.489640
O O3 0.000000 0.903320 0.500000
O O4 0.167713 0.011731 0.627363
O O5 0.443617 0.712753 0.561247
O O6 0.275747 0.665390 0.520722
O O7 0.270219 0.736659 0.210479
O O8 0.417603 0.888903 0.307094
O O9 0.849676 0.600636 0.104302
O O10 0.825567 0.551248 0.389919
O O11 0.000000 0.602504 0.500000
O O12 0.078230 0.615575 0.212896
O O13 0.927958 0.777999 0.023040
#
# Coordination Sequence:
#
# PCOD8048034 Si02
#       7
#     4   4   2   4   2   4   4
#     4  11  21  41  60  82 127 155 188 248 301 343
#     4  11  25  36  60  87 120 151 199 243 298 340
#     4  10  22  38  52  84 120 156 182 240 296 344
#     4   9  18  36  63  75 118 152 193 236 294 333
#     4  10  14  32  56  90 108 136 206 236 262 344
#     4  10  20  36  61  89 108 158 202 239 282 355
#     4  10  20  36  61  89 108 158 202 239 282 355
#
# _framework density 20.261552999999999
#
# number of rings (size 3 to 8) (size 9 to 14) (size 15 to 20)
#    0.500    1.333    4.167    1.000    4.667    0.000 
#    0.000    0.000    0.000    4.000    0.000    0.000 
#    0.000    0.000    0.000    0.000    0.000    0.000 
#
# Total GULP energy -148675.298263 kJ/mol
# GULP energy per Si atom -12389.608189 kJ/mol
# Density = 2.021544 g / cm^3
# Si number density = 20.261553 Si / 1000 Ang^3
#
#
#
# Elastic Constant Matrix: (Units=GPa)
#
#
# Indices 1 2 3 4 5 6 
#
# 1 160.5226 50.1945 34.4726 0.0000 -7.1560 0.0000
# 2 50.1945 89.3768 14.9933 0.0000 -3.4163 0.0000
# 3 34.4726 14.9933 47.9890 0.0000 -12.7093 0.0000
# 4 0.0000 0.0000 0.0000 16.0566 0.0000 8.9176
# 5 -7.1560 -3.4163 -12.7093 0.0000 25.4340 0.0000
# 6 0.0000 0.0000 0.0000 8.9176 0.0000 31.1596
#
#
#
# Elastic Compliance Matrix: (Units=1/GPa)
#
#
# Indices 1 2 3 4 5 6 
#
# 1 0.008527 -0.003965 -0.005062 0.000000 -0.000663 0.000000
# 2 -0.003965 0.013653 -0.001414 0.000000 0.000012 0.000000
# 3 -0.005062 -0.001414 0.028224 0.000000 0.012489 0.000000
# 4 0.000000 0.000000 0.000000 0.074049 0.000000 -0.021192
# 5 -0.000663 0.000012 0.012489 0.000000 0.045373 0.000000
# 6 0.000000 0.000000 0.000000 -0.021192 0.000000 0.038158
#
#
# Mechanical properties :
#
#
# Convention : Reuss Voigt Hill
#
# Bulk Modulus (GPa) = 33.87415 55.24549 44.55982
# Shear Modulus (GPa) = 20.94612 27.74525 24.34568
#
# Velocity S-wave (km/s) = 3.21874 3.70449 3.47013
# Velocity P-wave (km/s) = 5.52888 6.75448 6.17218
#
# Compressibility (1/GPa) = 0.02952104
#
# Stress axis : x y z
#
# Youngs Moduli (GPa) = 117.27421 73.24374 35.43093
#
# Poissons Ratio (x) = 0.29041 0.17936
# Poissons Ratio (y) = 0.46499 0.05011
# Poissons Ratio (z) = 0.59366 0.10359
#
# Static dielectric constant tensor:
#      x y z
#    x 3.874360 0.000000 -0.081090 
#    y 0.000000 3.384410 0.000000 
#    z -0.081090 0.000000 3.465110 
# 
# 
# High freq. dielectric constant tensor:
#      x y z
#    x 1.808510 0.000000 -0.001150 
#    y 0.000000 1.766930 0.000000 
#    z -0.001150 0.000000 1.765400 
# 
# From -- ./inp_files/23472.got.cif
#   From: 2010.03.12/outbox.cif.g09.slc.cpg/sg5_12_cif.got.tgz:23472.got - 2010.03.31 09:47:26.
