data_PCOD8048198
_publ_section_title
;
Structure prediction by ZEFSAII (Michael W. Deem and Ramdas Pophale) SiO2 
 PCOD8048198
Probable space group: C 2
;
_chemical_formula_sum "Si O2"
_cell_formula_units_Z 26
_cell_length_a 27.763220
_cell_length_b 5.108082
_cell_length_c 12.668886
_cell_angle_alpha 90.000000
_cell_angle_beta 65.744040
_cell_angle_gamma 90.000000
_cell_volume 1638.050470
_symmetry_space_group_name_H-M "C 2"
_symmetry_group_IT_number 5
_symmetry_cell_setting 'monoclinic'
loop_
_space_group_symop_operation_xyz
x,y,z
-x,y,-z
1/2+x,1/2+y,z
1/2-x,1/2+y,-z
loop_
_atom_site_type_symbol
_atom_site_label
_atom_site_fract_x
_atom_site_fract_y
_atom_site_fract_z
Si Si1 0.500000 0.950680 0.500000
Si Si2 0.601861 0.702518 0.352426
Si Si3 0.900423 0.682793 0.518019
Si Si4 0.282452 0.776687 0.345871
Si Si5 0.306441 0.775943 0.872051
Si Si6 0.244458 0.276356 0.866673
Si Si7 0.180733 0.777332 0.575590
O O1 0.539287 0.768510 0.393928
O O2 0.464090 0.132275 0.454753
O O3 0.611463 0.418011 0.391317
O O4 0.626721 0.918796 0.410761
O O5 0.632379 0.726300 0.213649
O O6 0.877229 0.742264 0.423470
O O7 0.283051 0.732613 0.220578
O O8 0.222751 0.761688 0.442475
O O9 0.318084 0.554438 0.367485
O O10 0.308630 0.054456 0.348037
O O11 0.289172 0.061026 0.847873
O O12 0.270283 0.562662 0.845494
O O13 0.301018 0.750917 0.003153
#
# Coordination Sequence:
#
# PCOD8048198 Si02
#       7
#     2   4   4   4   4   4   4
#     4   8  22  30  50  74 102 112 168 196 262 274
#     4  10  18  31  49  71 100 121 154 198 249 289
#     4  10  19  32  48  71 101 122 155 200 245 291
#     4  10  19  30  43  68  97 127 163 189 217 291
#     4  10  19  31  50  70  96 136 158 192 247 274
#     4  10  20  32  46  71 101 129 168 193 221 293
#     4  10  19  29  46  66  94 133 157 184 241 274
#
# _framework density 15.872528000000001
#
# number of rings (size 3 to 8) (size 9 to 14) (size 15 to 20)
#    0.923    1.231    0.000    5.077    0.000    2.462 
#    0.000    0.000    0.000    0.000    0.000    1.077 
#    0.000    0.000    0.000    0.000    0.000    0.000 
#
# Total GULP energy -161131.190992 kJ/mol
# GULP energy per Si atom -12394.706999 kJ/mol
# Density = 1.583640 g / cm^3
# Si number density = 15.872528 Si / 1000 Ang^3
#
#
#
# Elastic Constant Matrix: (Units=GPa)
#
#
# Indices 1 2 3 4 5 6 
#
# 1 76.9596 1.8194 37.8723 0.0000 0.3959 0.0000
# 2 1.8194 69.5461 8.4815 0.0000 -1.9295 0.0000
# 3 37.8723 8.4815 92.2518 0.0000 -2.5035 0.0000
# 4 0.0000 0.0000 0.0000 17.7112 0.0000 2.4432
# 5 0.3959 -1.9295 -2.5035 0.0000 26.2045 0.0000
# 6 0.0000 0.0000 0.0000 2.4432 0.0000 17.9581
#
#
#
# Elastic Compliance Matrix: (Units=1/GPa)
#
#
# Indices 1 2 3 4 5 6 
#
# 1 0.016314 0.000373 -0.006755 0.000000 -0.000864 0.000000
# 2 0.000373 0.014574 -0.001468 0.000000 0.000927 0.000000
# 3 -0.006755 -0.001468 0.013784 0.000000 0.001311 0.000000
# 4 0.000000 0.000000 0.000000 0.057541 0.000000 -0.007828
# 5 -0.000864 0.000927 0.001311 0.000000 0.038368 0.000000
# 6 0.000000 0.000000 0.000000 -0.007828 0.000000 0.056750
#
#
# Mechanical properties :
#
#
# Convention : Reuss Voigt Hill
#
# Bulk Modulus (GPa) = 34.51678 37.23377 35.87527
# Shear Modulus (GPa) = 22.45301 25.08040 23.76671
#
# Velocity S-wave (km/s) = 3.76517 3.97938 3.87376
# Velocity P-wave (km/s) = 6.37930 6.68003 6.53140
#
# Compressibility (1/GPa) = 0.02897141
#
# Stress axis : x y z
#
# Youngs Moduli (GPa) = 61.29840 68.61571 72.55014
#
# Poissons Ratio (x) = -0.02560 0.49008
# Poissons Ratio (y) = -0.02287 0.10650
# Poissons Ratio (z) = 0.41407 0.10072
#
# Static dielectric constant tensor:
#      x y z
#    x 2.781980 0.000000 -0.040300 
#    y 0.000000 3.214770 0.000000 
#    z -0.040300 0.000000 2.875530 
# 
# 
# High freq. dielectric constant tensor:
#      x y z
#    x 1.580490 0.000000 0.002040 
#    y 0.000000 1.636540 0.000000 
#    z 0.002040 0.000000 1.582070 
# 
# From -- ./inp_files/45421.got.cif
#   From: 2010.03.12/outbox.cif.g09.slc.cpg/sg5_23_cif.got.tgz:45421.got - 2010.03.31 09:47:26.
