data_PCOD8048263
_publ_section_title
;
Structure prediction by ZEFSAII (Michael W. Deem and Ramdas Pophale) SiO2 
 PCOD8048263
Probable space group: C 2
;
_chemical_formula_sum "Si O2"
_cell_formula_units_Z 26
_cell_length_a 15.897991
_cell_length_b 12.832877
_cell_length_c 16.626769
_cell_angle_alpha 90.000000
_cell_angle_beta 24.339116
_cell_angle_gamma 90.000000
_cell_volume 1398.025843
_symmetry_space_group_name_H-M "C 2"
_symmetry_group_IT_number 5
_symmetry_cell_setting 'monoclinic'
loop_
_space_group_symop_operation_xyz
x,y,z
-x,y,-z
1/2+x,1/2+y,z
1/2-x,1/2+y,-z
loop_
_atom_site_type_symbol
_atom_site_label
_atom_site_fract_x
_atom_site_fract_y
_atom_site_fract_z
Si Si1 0.964592 0.228180 0.745003
Si Si2 0.289550 0.581906 0.139060
Si Si3 0.994755 0.406931 0.601127
Si Si4 0.605518 0.185688 0.160828
Si Si5 0.500000 0.215625 0.500000
Si Si6 0.746547 0.033817 0.508561
Si Si7 0.180185 0.828188 0.485106
O O1 0.987667 0.286979 0.638508
O O2 0.069711 0.115361 0.660962
O O3 0.084099 0.301995 0.702870
O O4 0.722882 0.222247 0.977838
O O5 0.294143 0.644431 0.051430
O O6 0.217202 0.462937 0.189105
O O7 0.120756 0.638943 0.338423
O O8 0.500000 0.586274 0.000000
O O9 0.180634 0.474593 0.481758
O O10 0.000000 0.405220 0.500000
O O11 0.449293 0.090833 0.281618
O O12 0.477880 0.278567 0.312942
O O13 0.641373 0.291499 0.428727
O O14 0.837358 0.952365 0.493371
#
# Coordination Sequence:
#
# PCOD8048263 Si02
#       7
#     4   4   4   4   2   4   4
#     4  10  20  37  55  77 115 148 175 232 276 330
#     4  10  19  31  54  83 110 137 177 238 283 315
#     4  10  21  37  56  87 111 142 192 228 277 333
#     4   9  19  33  54  83 106 142 189 219 276 340
#     4  10  18  34  54  82 112 134 188 238 270 328
#     4   9  20  37  56  78 110 152 185 226 275 333
#     4   9  19  34  55  81 106 145 182 228 276 327
#
# _framework density 18.597653999999999
#
# number of rings (size 3 to 8) (size 9 to 14) (size 15 to 20)
#    0.000    2.462    0.769    1.846    2.154    3.692 
#    6.923    0.000    0.000    0.000    0.000    0.000 
#    0.000    0.000    0.000    0.000    0.000    0.000 
#
# Total GULP energy -161052.782156 kJ/mol
# GULP energy per Si atom -12388.675550 kJ/mol
# Density = 1.855532 g / cm^3
# Si number density = 18.597654 Si / 1000 Ang^3
#
#
#
# Elastic Constant Matrix: (Units=GPa)
#
#
# Indices 1 2 3 4 5 6 
#
# 1 59.4015 26.9392 4.3318 0.0144 1.0350 -0.0093
# 2 26.9392 107.4380 23.9907 -0.0215 3.9450 -0.0145
# 3 4.3318 23.9907 65.0694 0.0061 -0.6162 -0.0062
# 4 0.0144 -0.0215 0.0061 17.2604 -0.0001 -1.4350
# 5 1.0350 3.9450 -0.6162 -0.0001 25.8374 0.0080
# 6 -0.0093 -0.0145 -0.0062 -1.4350 0.0080 41.8636
#
#
#
# Elastic Compliance Matrix: (Units=1/GPa)
#
#
# Indices 1 2 3 4 5 6 
#
# 1 0.019012 -0.004887 0.000536 -0.000022 -0.000003 0.000002
# 2 -0.004887 0.011469 -0.003919 0.000020 -0.001649 0.000003
# 3 0.000536 -0.003919 0.016787 -0.000011 0.000977 0.000001
# 4 -0.000022 0.000020 -0.000011 0.058102 -0.000003 0.001992
# 5 -0.000003 -0.001649 0.000977 -0.000003 0.038979 -0.000008
# 6 0.000002 0.000003 0.000001 0.001992 -0.000008 0.023955
#
#
# Mechanical properties :
#
#
# Convention : Reuss Voigt Hill
#
# Bulk Modulus (GPa) = 32.54340 38.04805 35.29572
# Shear Modulus (GPa) = 25.62996 28.76875 27.19935
#
# Velocity S-wave (km/s) = 3.71634 3.93733 3.82843
# Velocity P-wave (km/s) = 5.99596 6.41662 6.20986
#
# Compressibility (1/GPa) = 0.03072820
#
# Stress axis : x y z
#
# Youngs Moduli (GPa) = 52.59916 87.19489 59.57141
#
# Poissons Ratio (x) = 0.42609 -0.03193
# Poissons Ratio (y) = 0.25703 0.23344
# Poissons Ratio (z) = -0.02819 0.34169
#
# Static dielectric constant tensor:
#      x y z
#    x 3.392670 -0.000030 0.122870 
#    y -0.000030 3.660770 0.000050 
#    z 0.122870 0.000050 2.926280 
# 
# 
# High freq. dielectric constant tensor:
#      x y z
#    x 1.705500 0.000000 -0.012210 
#    y 0.000000 1.726600 0.000000 
#    z -0.012210 0.000000 1.706300 
# 
# From -- ./inp_files/8462.got.cif
#   From: 2010.03.12/outbox.cif.g09.slc.cpg/sg5_5_cif.got.tgz:8462.got - 2010.03.31 09:47:26.
