data_PCOD8048119
_publ_section_title
;
Structure prediction by ZEFSAII (Michael W. Deem and Ramdas Pophale) SiO2 
 PCOD8048119
Probable space group: C 2
;
_chemical_formula_sum "Si O2"
_cell_formula_units_Z 30
_cell_length_a 20.732036
_cell_length_b 9.074547
_cell_length_c 8.822472
_cell_angle_alpha 90.000000
_cell_angle_beta 114.943170
_cell_angle_gamma 90.000000
_cell_volume 1504.989664
_symmetry_space_group_name_H-M "C 2"
_symmetry_group_IT_number 5
_symmetry_cell_setting 'monoclinic'
loop_
_space_group_symop_operation_xyz
x,y,z
-x,y,-z
1/2+x,1/2+y,z
1/2-x,1/2+y,-z
loop_
_atom_site_type_symbol
_atom_site_label
_atom_site_fract_x
_atom_site_fract_y
_atom_site_fract_z
Si Si1 0.125435 0.781140 0.308585
Si Si2 0.392015 0.953618 0.045787
Si Si3 0.265000 0.886895 0.329361
Si Si4 0.841479 0.921248 0.351698
Si Si5 0.500000 0.154193 0.000000
Si Si6 0.309863 0.970177 0.675694
Si Si7 0.787858 0.639484 0.142006
Si Si8 0.845110 0.192882 0.175844
O O1 0.179460 0.879996 0.263223
O O2 0.112324 0.856300 0.461708
O O3 0.161365 0.622548 0.362835
O O4 0.052222 0.762727 0.143552
O O5 0.403427 0.810057 0.166184
O O6 0.333296 0.061812 0.056617
O O7 0.362559 0.901594 0.852803
O O8 0.463559 0.047208 0.089601
O O9 0.304008 0.857065 0.529215
O O10 0.290862 0.768734 0.236490
O O11 0.287277 0.049226 0.297169
O O12 0.768871 0.994808 0.337614
O O13 0.822930 0.796706 0.210326
O O14 0.881976 0.052773 0.297625
O O15 0.705507 0.645402 0.011948
#
# Coordination Sequence:
#
# PCOD8048119 Si02
#       8
#     4   4   4   4   2   4   4   4
#     4  10  20  35  59  91 119 168 198 254 287 367
#     4  10  21  36  61  85 120 164 199 252 294 373
#     4  10  20  32  56  90 123 148 195 251 315 357
#     4  11  19  32  57  95 130 151 193 257 317 363
#     4  10  22  42  60  86 120 170 224 238 290 376
#     4  10  17  32  53  87 125 149 192 246 313 354
#     4  11  19  34  57  94 122 157 188 251 325 365
#     4  11  19  33  54  93 126 150 191 253 319 358
#
# _framework density 19.933692000000001
#
# number of rings (size 3 to 8) (size 9 to 14) (size 15 to 20)
#    0.000    1.600    5.333    1.600    0.000    0.000 
#    0.000    0.667    0.000    3.200   13.867    0.000 
#    0.000    0.000    0.000    0.000    0.000    0.000 
#
# Total GULP energy -185882.291642 kJ/mol
# GULP energy per Si atom -12392.152776 kJ/mol
# Density = 1.988832 g / cm^3
# Si number density = 19.933692 Si / 1000 Ang^3
#
#
#
# Elastic Constant Matrix: (Units=GPa)
#
#
# Indices 1 2 3 4 5 6 
#
# 1 55.1199 24.4071 33.9137 0.0000 -1.1165 0.0000
# 2 24.4071 103.1541 49.9279 0.0000 -7.0782 0.0000
# 3 33.9137 49.9279 117.1540 0.0000 -5.6633 0.0000
# 4 0.0000 0.0000 0.0000 31.7579 0.0000 -3.2220
# 5 -1.1165 -7.0782 -5.6633 0.0000 25.8431 0.0000
# 6 0.0000 0.0000 0.0000 -3.2220 0.0000 27.3060
#
#
#
# Elastic Compliance Matrix: (Units=1/GPa)
#
#
# Indices 1 2 3 4 5 6 
#
# 1 0.022704 -0.002816 -0.005420 0.000000 -0.000978 0.000000
# 2 -0.002816 0.012691 -0.004479 0.000000 0.002373 0.000000
# 3 -0.005420 -0.004479 0.012071 0.000000 0.001184 0.000000
# 4 0.000000 0.000000 0.000000 0.031870 0.000000 0.003760
# 5 -0.000978 0.002373 0.001184 0.000000 0.039562 0.000000
# 6 0.000000 0.000000 0.000000 0.003760 0.000000 0.037066
#
#
# Mechanical properties :
#
#
# Convention : Reuss Voigt Hill
#
# Bulk Modulus (GPa) = 45.37791 54.65839 50.01815
# Shear Modulus (GPa) = 26.49186 28.12668 27.30927
#
# Velocity S-wave (km/s) = 3.64950 3.76042 3.70537
# Velocity P-wave (km/s) = 6.36964 6.80691 6.59190
#
# Compressibility (1/GPa) = 0.02203716
#
# Stress axis : x y z
#
# Youngs Moduli (GPa) = 44.04546 78.79534 82.84596
#
# Poissons Ratio (x) = 0.22188 0.44898
# Poissons Ratio (y) = 0.12403 0.37105
# Poissons Ratio (z) = 0.23870 0.35291
#
# Static dielectric constant tensor:
#      x y z
#    x 3.330980 0.000000 -0.294900 
#    y 0.000000 3.724730 0.000000 
#    z -0.294900 0.000000 3.698540 
# 
# 
# High freq. dielectric constant tensor:
#      x y z
#    x 1.732620 0.000000 -0.031500 
#    y 0.000000 1.779050 0.000000 
#    z -0.031500 0.000000 1.781700 
# 
# From -- ./inp_files/30691.got.cif
#   From: 2010.03.12/outbox.cif.g09.slc.cpg/sg5_16_cif.got.tgz:30691.got - 2010.03.31 09:47:26.
