data_PCOD8048432
_publ_section_title
;
Structure prediction by ZEFSAII (Michael W. Deem and Ramdas Pophale) SiO2 
 PCOD8048432
Probable space group: C 2
;
_chemical_formula_sum "Si O2"
_cell_formula_units_Z 18
_cell_length_a 10.107045
_cell_length_b 11.726902
_cell_length_c 17.618214
_cell_angle_alpha 90.000000
_cell_angle_beta 25.502697
_cell_angle_gamma 90.000000
_cell_volume 899.076369
_symmetry_space_group_name_H-M "C 2"
_symmetry_group_IT_number 5
_symmetry_cell_setting 'monoclinic'
loop_
_space_group_symop_operation_xyz
x,y,z
-x,y,-z
1/2+x,1/2+y,z
1/2-x,1/2+y,-z
loop_
_atom_site_type_symbol
_atom_site_label
_atom_site_fract_x
_atom_site_fract_y
_atom_site_fract_z
Si Si1 0.500000 0.973381 0.500000
Si Si2 0.178169 0.586135 0.134826
Si Si3 0.133676 0.529776 0.852587
Si Si4 0.960379 0.816171 0.735322
Si Si5 0.292660 0.111303 0.469377
O O1 0.197830 0.895081 0.658574
O O2 0.498749 0.056014 0.428243
O O3 0.125319 0.538686 0.077973
O O4 0.191316 0.725681 0.127562
O O5 0.898204 0.548965 0.336060
O O6 0.500000 0.537730 0.000000
O O7 0.205943 0.396504 0.828343
O O8 0.432111 0.599020 0.671102
O O9 0.000000 0.582891 0.000000
O O10 0.132057 0.746320 0.578422
#
# Coordination Sequence:
#
# PCOD8048432 Si02
#       5
#     2   4   4   4   4
#     4  10  18  38  66  90 120 164 212 248 310 368
#     4  10  22  41  64  92 130 166 207 260 314 370
#     4  11  22  39  72  92 123 170 211 256 315 370
#     4   9  21  40  65  87 129 168 198 258 318 368
#     4   9  22  40  62  91 128 165 205 258 312 373
#
# _framework density 20.020548000000002
#
# number of rings (size 3 to 8) (size 9 to 14) (size 15 to 20)
#    1.333    0.889    0.000    2.667    6.222    0.000 
#    8.000    0.000    9.778    0.000    0.000    0.000 
#    0.000    0.000    0.000    0.000    0.000    0.000 
#
# Total GULP energy -111513.403349 kJ/mol
# GULP energy per Si atom -12390.378150 kJ/mol
# Density = 1.997498 g / cm^3
# Si number density = 20.020548 Si / 1000 Ang^3
#
#
#
# Elastic Constant Matrix: (Units=GPa)
#
#
# Indices 1 2 3 4 5 6 
#
# 1 177.6979 44.1407 57.3959 0.0145 -9.8542 -0.0039
# 2 44.1407 73.8361 17.0332 -0.0428 -11.6934 0.0003
# 3 57.3959 17.0332 120.0906 -0.0038 4.3382 -0.0715
# 4 0.0145 -0.0428 -0.0038 32.3529 -0.0732 -2.0291
# 5 -9.8542 -11.6934 4.3382 -0.0732 36.4707 0.0121
# 6 -0.0039 0.0003 -0.0715 -2.0291 0.0121 30.1618
#
#
#
# Elastic Compliance Matrix: (Units=1/GPa)
#
#
# Indices 1 2 3 4 5 6 
#
# 1 0.007624 -0.003623 -0.003176 -0.000006 0.001276 -0.000007
# 2 -0.003623 0.016592 -0.000782 0.000033 0.004434 -0.000002
# 3 -0.003176 -0.000782 0.010039 -0.000002 -0.002303 0.000024
# 4 -0.000006 0.000033 -0.000002 0.031040 0.000071 0.002088
# 5 0.001276 0.004434 -0.002303 0.000071 0.029460 -0.000012
# 6 -0.000007 -0.000002 0.000024 0.002088 -0.000012 0.033295
#
#
# Mechanical properties :
#
#
# Convention : Reuss Voigt Hill
#
# Bulk Modulus (GPa) = 52.37478 67.64048 60.00763
# Shear Modulus (GPa) = 33.42757 36.66741 35.04749
#
# Velocity S-wave (km/s) = 4.09058 4.28423 4.18853
# Velocity P-wave (km/s) = 6.96619 7.63752 7.30957
#
# Compressibility (1/GPa) = 0.01909316
#
# Stress axis : x y z
#
# Youngs Moduli (GPa) = 131.16220 60.26979 99.61017
#
# Poissons Ratio (x) = 0.21836 0.31637
# Poissons Ratio (y) = 0.47521 0.07789
# Poissons Ratio (z) = 0.41658 0.04713
#
# Static dielectric constant tensor:
#      x y z
#    x 3.547500 0.000080 -0.023430 
#    y 0.000080 3.465390 0.000010 
#    z -0.023430 0.000010 3.609700 
# 
# 
# High freq. dielectric constant tensor:
#      x y z
#    x 1.774520 0.000000 -0.008970 
#    y 0.000000 1.760860 0.000010 
#    z -0.008970 0.000010 1.786790 
# 
# From -- ./inp_files/27374.got.cif
#   From: 2010.03.12/outbox.cif.g09.slc.cpg/sg5_14_cif.got.tgz:27374.got - 2010.03.31 09:47:26.
