data_PCOD8048735
_publ_section_title
;
Structure prediction by ZEFSAII (Michael W. Deem and Ramdas Pophale) SiO2 
 PCOD8048735
Probable space group: C 2
;
_chemical_formula_sum "Si O2"
_cell_formula_units_Z 30
_cell_length_a 17.519512
_cell_length_b 5.069216
_cell_length_c 19.462573
_cell_angle_alpha 90.000000
_cell_angle_beta 126.044524
_cell_angle_gamma 90.000000
_cell_volume 1397.575577
_symmetry_space_group_name_H-M "C 2"
_symmetry_group_IT_number 5
_symmetry_cell_setting 'monoclinic'
loop_
_space_group_symop_operation_xyz
x,y,z
-x,y,-z
1/2+x,1/2+y,z
1/2-x,1/2+y,-z
loop_
_atom_site_type_symbol
_atom_site_label
_atom_site_fract_x
_atom_site_fract_y
_atom_site_fract_z
Si Si1 0.351258 0.836590 0.188332
Si Si2 0.407802 0.368977 0.558191
Si Si3 0.904452 0.591381 0.352943
Si Si4 0.440001 0.336081 0.168617
Si Si5 0.647735 0.391779 0.317600
Si Si6 0.790962 0.939923 0.990618
Si Si7 0.500000 0.748850 0.500000
Si Si8 0.231243 0.870690 0.632537
O O1 0.350916 0.919921 0.267405
O O2 0.396605 0.546537 0.200947
O O3 0.241745 0.848485 0.103180
O O4 0.411872 0.043074 0.176221
O O5 0.372611 0.456579 0.613729
O O6 0.461207 0.594101 0.544549
O O7 0.316818 0.287187 0.465473
O O8 0.487482 0.145302 0.613488
O O9 0.846368 0.854140 0.346102
O O10 0.911623 0.422208 0.426973
O O11 0.552327 0.341296 0.225105
O O12 0.400586 0.396273 0.070356
O O13 0.690840 0.653909 0.307845
O O14 0.720901 0.154366 0.346148
O O15 0.732734 0.748450 0.012056
#
# Coordination Sequence:
#
# PCOD8048735 Si02
#       8
#     4   4   4   4   4   4   2   4
#     4  10  20  35  62  95 118 157 209 257 311 366
#     4  12  24  42  61  85 117 168 209 259 300 366
#     4  12  24  39  65  87 124 164 211 265 306 369
#     4  10  19  37  59  92 124 159 200 256 316 371
#     4  12  26  40  62  86 125 163 204 250 306 381
#     4   8  16  31  56  89 125 147 191 261 312 357
#     4  12  22  40  66  88 122 162 216 262 318 342
#     4  12  26  42  55  90 124 164 203 254 312 358
#
# _framework density 21.465741999999999
#
# number of rings (size 3 to 8) (size 9 to 14) (size 15 to 20)
#    0.000    1.067    4.000    3.200    1.867    0.000 
#    0.000    0.000    0.000    0.800    0.000    3.733 
#    0.000    0.000    0.000    0.000    0.000    0.000 
#
# Total GULP energy -185883.317380 kJ/mol
# GULP energy per Si atom -12392.221159 kJ/mol
# Density = 2.141689 g / cm^3
# Si number density = 21.465742 Si / 1000 Ang^3
#
#
#
# Elastic Constant Matrix: (Units=GPa)
#
#
# Indices 1 2 3 4 5 6 
#
# 1 65.7573 19.3557 29.3255 -0.0013 14.2442 0.0031
# 2 19.3557 79.4488 -4.6954 -0.0016 -0.9055 0.0055
# 3 29.3255 -4.6954 133.5743 -0.0006 13.6160 0.0007
# 4 -0.0013 -0.0016 -0.0006 24.7336 -0.0001 1.1489
# 5 14.2442 -0.9055 13.6160 -0.0001 26.0726 -0.0005
# 6 0.0031 0.0055 0.0007 1.1489 -0.0005 23.8391
#
#
#
# Elastic Compliance Matrix: (Units=1/GPa)
#
#
# Indices 1 2 3 4 5 6 
#
# 1 0.020473 -0.005315 -0.003721 0.000001 -0.009427 -0.000002
# 2 -0.005315 0.013994 0.001387 0.000001 0.002665 -0.000003
# 3 -0.003721 0.001387 0.008598 0.000000 -0.002409 0.000000
# 4 0.000001 0.000001 0.000000 0.040522 0.000000 -0.001953
# 5 -0.009427 0.002665 -0.002409 0.000000 0.044855 0.000002
# 6 -0.000002 -0.000003 0.000000 -0.001953 0.000002 0.042042
#
#
# Mechanical properties :
#
#
# Convention : Reuss Voigt Hill
#
# Bulk Modulus (GPa) = 36.01338 40.75023 38.38180
# Shear Modulus (GPa) = 25.63617 30.58203 28.10910
#
# Velocity S-wave (km/s) = 3.45959 3.77860 3.62261
# Velocity P-wave (km/s) = 5.72468 6.16945 5.95122
#
# Compressibility (1/GPa) = 0.02776746
#
# Stress axis : x y z
#
# Youngs Moduli (GPa) = 48.84430 71.45941 116.31066
#
# Poissons Ratio (x) = 0.37981 0.43276
# Poissons Ratio (y) = 0.25961 -0.16134
# Poissons Ratio (z) = 0.18174 -0.09912
#
# Static dielectric constant tensor:
#      x y z
#    x 3.547170 0.000000 0.340790 
#    y 0.000000 3.943060 0.000000 
#    z 0.340790 0.000000 4.370510 
# 
# 
# High freq. dielectric constant tensor:
#      x y z
#    x 1.791990 0.000000 0.022810 
#    y 0.000000 1.857670 0.000000 
#    z 0.022810 0.000000 1.856110 
# 
# From -- ./inp_files/65696.got.cif
#   From: 2010.03.12/outbox.cif.g09.slc.cpg/sg5_33_cif.got.tgz:65696.got - 2010.03.31 09:47:26.
