data_PCOD8048905
_publ_section_title
;
Structure prediction by ZEFSAII (Michael W. Deem and Ramdas Pophale) SiO2 
 PCOD8048905
Probable space group: C 2
;
_chemical_formula_sum "Si O2"
_cell_formula_units_Z 32
_cell_length_a 13.506747
_cell_length_b 11.365720
_cell_length_c 11.661026
_cell_angle_alpha 90.000000
_cell_angle_beta 118.806105
_cell_angle_gamma 90.000000
_cell_volume 1568.610655
_symmetry_space_group_name_H-M "C 2"
_symmetry_group_IT_number 5
_symmetry_cell_setting 'monoclinic'
loop_
_space_group_symop_operation_xyz
x,y,z
-x,y,-z
1/2+x,1/2+y,z
1/2-x,1/2+y,-z
loop_
_atom_site_type_symbol
_atom_site_label
_atom_site_fract_x
_atom_site_fract_y
_atom_site_fract_z
Si Si1 0.279858 0.843460 0.984424
Si Si2 0.880032 0.626901 0.494870
Si Si3 0.474733 0.808205 0.801508
Si Si4 0.211514 0.165253 0.203669
Si Si5 0.680564 0.234882 0.304959
Si Si6 0.385761 0.028962 0.885531
Si Si7 0.608021 0.863010 0.485782
Si Si8 0.374395 0.421162 0.903579
O O1 0.238899 0.745576 0.870657
O O2 0.306408 0.968485 0.937672
O O3 0.390861 0.796831 0.112895
O O4 0.178496 0.852407 0.018121
O O5 0.788892 0.683715 0.358439
O O6 0.884748 0.703921 0.613855
O O7 0.841568 0.493985 0.507436
O O8 0.000000 0.632958 0.500000
O O9 0.416949 0.704296 0.841822
O O10 0.433309 0.796069 0.649516
O O11 0.431680 0.931498 0.824908
O O12 0.210161 0.029390 0.166787
O O13 0.688420 0.123147 0.224560
O O14 0.806786 0.276635 0.402310
O O15 0.616318 0.339475 0.203526
O O16 0.500000 0.089865 0.000000
O O17 0.500000 0.886681 0.500000
O O18 0.500000 0.465726 0.000000
#
# Coordination Sequence:
#
# PCOD8048905 Si02
#       8
#     4   4   4   4   4   4   4   4
#     4  10  24  42  69  93 127 173 222 261 326 386
#     4  11  25  41  68  92 131 178 215 265 318 397
#     4  10  19  41  69  91 121 170 220 262 308 390
#     4  11  23  45  67  93 128 173 216 265 330 385
#     4  12  23  41  66  97 131 163 215 270 328 376
#     4   9  20  38  65  96 123 165 213 266 313 386
#     4  11  22  40  63  94 126 168 219 261 315 387
#     4  12  27  42  63  97 135 168 211 279 330 383
#
# _framework density 20.400217999999999
#
# number of rings (size 3 to 8) (size 9 to 14) (size 15 to 20)
#    0.000    1.250    3.750    3.000    5.250    0.000 
#    2.250    0.000    0.000    3.750    0.000    0.000 
#    0.000    0.000    0.000    0.000    0.000    0.000 
#
# Total GULP energy -198423.720659 kJ/mol
# GULP energy per Si atom -12401.482541 kJ/mol
# Density = 2.035379 g / cm^3
# Si number density = 20.400218 Si / 1000 Ang^3
#
#
#
# Elastic Constant Matrix: (Units=GPa)
#
#
# Indices 1 2 3 4 5 6 
#
# 1 87.5785 29.8453 35.7165 0.0000 -7.3257 0.0000
# 2 29.8453 96.2647 50.3942 0.0000 -9.9134 0.0000
# 3 35.7165 50.3942 135.0098 0.0000 -6.3328 0.0000
# 4 0.0000 0.0000 0.0000 47.9218 0.0000 6.7439
# 5 -7.3257 -9.9134 -6.3328 0.0000 29.7622 0.0000
# 6 0.0000 0.0000 0.0000 6.7439 0.0000 19.8775
#
#
#
# Elastic Compliance Matrix: (Units=1/GPa)
#
#
# Indices 1 2 3 4 5 6 
#
# 1 0.013506 -0.002694 -0.002478 0.000000 0.001900 0.000000
# 2 -0.002694 0.013779 -0.004289 0.000000 0.003014 0.000000
# 3 -0.002478 -0.004289 0.009664 0.000000 0.000018 0.000000
# 4 0.000000 0.000000 0.000000 0.021914 0.000000 -0.007435
# 5 0.001900 0.003014 0.000018 0.000000 0.035075 0.000000
# 6 0.000000 0.000000 0.000000 -0.007435 0.000000 0.052830
#
#
# Mechanical properties :
#
#
# Convention : Reuss Voigt Hill
#
# Bulk Modulus (GPa) = 55.47503 61.19609 58.33556
# Shear Modulus (GPa) = 29.12051 33.03876 31.07964
#
# Velocity S-wave (km/s) = 3.78227 4.02870 3.90743
# Velocity P-wave (km/s) = 6.80636 7.19051 7.00107
#
# Compressibility (1/GPa) = 0.01802613
#
# Stress axis : x y z
#
# Youngs Moduli (GPa) = 74.04069 72.57396 103.47423
#
# Poissons Ratio (x) = 0.19554 0.25643
# Poissons Ratio (y) = 0.19950 0.44381
# Poissons Ratio (z) = 0.18349 0.31127
#
# Static dielectric constant tensor:
#      x y z
#    x 3.408710 0.000000 -0.043440 
#    y 0.000000 3.718520 0.000000 
#    z -0.043440 0.000000 3.927830 
# 
# 
# High freq. dielectric constant tensor:
#      x y z
#    x 1.780890 0.000000 -0.004360 
#    y 0.000000 1.793740 0.000000 
#    z -0.004360 0.000000 1.816190 
# 
# From -- ./inp_files/39424.got.cif
#   From: 2010.03.12/outbox.cif.g09.slc.cpg/sg5_20_cif.got.tgz:39424.got - 2010.03.31 09:47:26.
