data_PCOD8048381
_publ_section_title
;
Structure prediction by ZEFSAII (Michael W. Deem and Ramdas Pophale) SiO2 
 PCOD8048381
Probable space group: C 2
;
_chemical_formula_sum "Si O2"
_cell_formula_units_Z 32
_cell_length_a 31.347199
_cell_length_b 11.659828
_cell_length_c 8.647168
_cell_angle_alpha 90.000000
_cell_angle_beta 29.346788
_cell_angle_gamma 90.000000
_cell_volume 1548.975481
_symmetry_space_group_name_H-M "C 2"
_symmetry_group_IT_number 5
_symmetry_cell_setting 'monoclinic'
loop_
_space_group_symop_operation_xyz
x,y,z
-x,y,-z
1/2+x,1/2+y,z
1/2-x,1/2+y,-z
loop_
_atom_site_type_symbol
_atom_site_label
_atom_site_fract_x
_atom_site_fract_y
_atom_site_fract_z
Si Si1 0.221310 0.683460 0.464644
Si Si2 0.565859 0.873345 0.172641
Si Si3 0.315028 0.646228 0.491798
Si Si4 0.535061 0.617357 0.189199
Si Si5 0.759136 0.404633 0.208335
Si Si6 0.363098 0.539990 0.859531
Si Si7 0.416418 0.011796 0.177661
Si Si8 0.277862 0.871712 0.796116
O O1 0.266580 0.682720 0.488151
O O2 0.195113 0.810920 0.489397
O O3 0.131818 0.613724 0.759901
O O4 0.286874 0.633115 0.127199
O O5 0.500000 0.934427 0.500000
O O6 0.547877 0.738372 0.234019
O O7 0.661342 0.906375 0.924442
O O8 0.550986 0.916997 0.046385
O O9 0.282219 0.529386 0.670969
O O10 0.296667 0.744993 0.673011
O O11 0.417967 0.625724 0.126957
O O12 0.432353 0.582217 0.507175
O O13 0.584857 0.524522 0.142414
O O14 0.786290 0.364516 0.952968
O O15 0.317565 0.419771 0.953633
O O16 0.352510 0.956079 0.503242
O O17 0.500000 0.063181 0.000000
#
# Coordination Sequence:
#
# PCOD8048381 Si02
#       8
#     4   4   4   4   4   4   4   4
#     4  10  21  41  67  89 130 175 220 266 336 404
#     4  12  20  38  65  99 127 166 228 280 331 390
#     4  11  23  41  69  99 127 176 231 268 336 406
#     4  10  18  36  67  98 124 168 222 276 330 387
#     4  12  24  41  68  94 133 176 217 280 331 403
#     4   9  19  37  65  93 129 166 210 275 335 386
#     4  11  23  42  64  96 133 174 216 282 333 399
#     4  11  25  41  64  98 136 172 221 274 340 401
#
# _framework density 20.658816000000002
#
# number of rings (size 3 to 8) (size 9 to 14) (size 15 to 20)
#    0.000    1.250    6.250    0.750    7.000    0.000 
#    0.000    1.875    2.750    0.000    0.000    0.000 
#    0.000    0.000    0.000    0.000    0.000    0.000 
#
# Total GULP energy -198330.019957 kJ/mol
# GULP energy per Si atom -12395.626247 kJ/mol
# Density = 2.061180 g / cm^3
# Si number density = 20.658816 Si / 1000 Ang^3
#
#
#
# Elastic Constant Matrix: (Units=GPa)
#
#
# Indices 1 2 3 4 5 6 
#
# 1 65.2443 16.4022 31.1663 0.0000 13.4676 0.0000
# 2 16.4022 92.7622 40.2381 0.0000 5.5589 0.0000
# 3 31.1663 40.2381 117.9160 0.0000 3.8813 0.0000
# 4 0.0000 0.0000 0.0000 24.5436 0.0000 3.6066
# 5 13.4676 5.5589 3.8813 0.0000 38.2530 0.0000
# 6 0.0000 0.0000 0.0000 3.6066 0.0000 24.0333
#
#
#
# Elastic Compliance Matrix: (Units=1/GPa)
#
#
# Indices 1 2 3 4 5 6 
#
# 1 0.018975 -0.001059 -0.004454 0.000000 -0.006075 0.000000
# 2 -0.001059 0.012788 -0.004049 0.000000 -0.001075 0.000000
# 3 -0.004454 -0.004049 0.011005 0.000000 0.001040 0.000000
# 4 0.000000 0.000000 0.000000 0.041662 0.000000 -0.006252
# 5 -0.006075 -0.001075 0.001040 0.000000 0.028331 0.000000
# 6 0.000000 0.000000 0.000000 -0.006252 0.000000 0.042547
#
#
# Mechanical properties :
#
#
# Convention : Reuss Voigt Hill
#
# Bulk Modulus (GPa) = 42.29236 50.17063 46.23150
# Shear Modulus (GPa) = 27.42532 29.90704 28.66618
#
# Velocity S-wave (km/s) = 3.64749 3.80895 3.72909
# Velocity P-wave (km/s) = 6.18508 6.60925 6.40068
#
# Compressibility (1/GPa) = 0.02364493
#
# Stress axis : x y z
#
# Youngs Moduli (GPa) = 52.70175 78.19773 90.86684
#
# Poissons Ratio (x) = 0.08282 0.40471
# Poissons Ratio (y) = 0.05582 0.36788
# Poissons Ratio (z) = 0.23472 0.31659
#
# Static dielectric constant tensor:
#      x y z
#    x 3.589490 0.000000 -0.035840 
#    y 0.000000 3.679990 0.000000 
#    z -0.035840 0.000000 4.058490 
# 
# 
# High freq. dielectric constant tensor:
#      x y z
#    x 1.798910 0.000000 0.009100 
#    y 0.000000 1.790280 0.000000 
#    z 0.009100 0.000000 1.811680 
# 
# From -- ./inp_files/32618.got.cif
#   From: 2010.03.12/outbox.cif.g09.slc.cpg/sg5_17_cif.got.tgz:32618.got - 2010.03.31 09:47:26.
