data_PCOD8048799
_publ_section_title
;
Structure prediction by ZEFSAII (Michael W. Deem and Ramdas Pophale) SiO2 
 PCOD8048799
Probable space group: C 2
;
_chemical_formula_sum "Si O2"
_cell_formula_units_Z 32
_cell_length_a 11.360410
_cell_length_b 13.181701
_cell_length_c 11.020634
_cell_angle_alpha 90.000000
_cell_angle_beta 107.885355
_cell_angle_gamma 90.000000
_cell_volume 1570.578903
_symmetry_space_group_name_H-M "C 2"
_symmetry_group_IT_number 5
_symmetry_cell_setting 'monoclinic'
loop_
_space_group_symop_operation_xyz
x,y,z
-x,y,-z
1/2+x,1/2+y,z
1/2-x,1/2+y,-z
loop_
_atom_site_type_symbol
_atom_site_label
_atom_site_fract_x
_atom_site_fract_y
_atom_site_fract_z
Si Si1 0.354889 0.788540 0.139924
Si Si2 0.182093 0.473601 0.032414
Si Si3 0.921573 0.066059 0.183098
Si Si4 0.134462 0.107376 0.566779
Si Si5 0.020435 0.562935 0.186462
Si Si6 0.062955 0.436331 0.642526
Si Si7 0.838246 0.971381 0.656872
Si Si8 0.665138 0.251482 0.277468
O O1 0.416078 0.680351 0.128317
O O2 0.442924 0.842813 0.266130
O O3 0.223145 0.775308 0.164143
O O4 0.340612 0.856403 0.013749
O O5 0.328739 0.496178 0.074810
O O6 0.122427 0.497860 0.144358
O O7 0.114842 0.548216 0.914829
O O8 0.868619 0.056130 0.302419
O O9 0.063254 0.027793 0.223506
O O10 0.162565 0.020288 0.476987
O O11 0.238224 0.194760 0.601547
O O12 0.000000 0.157657 0.500000
O O13 0.048877 0.681784 0.206230
O O14 0.019939 0.524817 0.325226
O O15 0.202006 0.478231 0.670134
O O16 0.000000 0.399215 0.500000
O O17 0.877601 0.852511 0.665013
#
# Coordination Sequence:
#
# PCOD8048799 Si02
#       8
#     4   4   4   4   4   4   4   4
#     4   9  20  37  63  92 113 162 213 248 307 365
#     4  10  20  37  66  88 118 158 216 254 289 379
#     4  10  20  39  62  88 125 158 203 259 316 355
#     4   9  18  36  61  87 125 166 203 243 304 371
#     4  10  20  38  64  88 120 163 207 248 303 364
#     4  10  21  37  62  90 125 159 207 250 298 368
#     4  10  22  36  59  94 124 158 204 259 298 366
#     4  10  19  38  62  89 119 161 210 243 315 364
#
# _framework density 20.374652000000001
#
# number of rings (size 3 to 8) (size 9 to 14) (size 15 to 20)
#    0.000    2.250    2.500    0.750    0.000    8.500 
#    0.000   10.625   41.250    0.000    0.000    0.000 
#    0.000    0.000    0.000    0.000    0.000    0.000 
#
# Total GULP energy -198289.949860 kJ/mol
# GULP energy per Si atom -12393.121866 kJ/mol
# Density = 2.032828 g / cm^3
# Si number density = 20.374652 Si / 1000 Ang^3
#
#
#
# Elastic Constant Matrix: (Units=GPa)
#
#
# Indices 1 2 3 4 5 6 
#
# 1 63.9499 48.8623 36.0624 0.0000 19.3518 0.0000
# 2 48.8623 153.2510 48.6680 0.0000 4.4465 0.0000
# 3 36.0624 48.6680 79.0591 0.0000 13.7916 0.0000
# 4 0.0000 0.0000 0.0000 34.1004 0.0000 1.9870
# 5 19.3518 4.4465 13.7916 0.0000 36.4849 0.0000
# 6 0.0000 0.0000 0.0000 1.9870 0.0000 35.4290
#
#
#
# Elastic Compliance Matrix: (Units=1/GPa)
#
#
# Indices 1 2 3 4 5 6 
#
# 1 0.027767 -0.006379 -0.006751 0.000000 -0.011399 0.000000
# 2 -0.006379 0.009608 -0.003630 0.000000 0.003585 0.000000
# 3 -0.006751 -0.003630 0.018480 0.000000 -0.002962 0.000000
# 4 0.000000 0.000000 0.000000 0.029421 0.000000 -0.001650
# 5 -0.011399 0.003585 -0.002962 0.000000 0.034137 0.000000
# 6 0.000000 0.000000 0.000000 -0.001650 0.000000 0.028318
#
#
# Mechanical properties :
#
#
# Convention : Reuss Voigt Hill
#
# Bulk Modulus (GPa) = 44.77209 62.60505 53.68857
# Shear Modulus (GPa) = 26.49766 32.04736 29.27251
#
# Velocity S-wave (km/s) = 3.61019 3.97029 3.79451
# Velocity P-wave (km/s) = 6.27694 7.19800 6.75319
#
# Compressibility (1/GPa) = 0.02233534
#
# Stress axis : x y z
#
# Youngs Moduli (GPa) = 36.01363 104.08152 54.11374
#
# Poissons Ratio (x) = 0.66390 0.36531
# Poissons Ratio (y) = 0.22972 0.19644
# Poissons Ratio (z) = 0.24312 0.37784
#
# Static dielectric constant tensor:
#      x y z
#    x 3.707150 0.000000 0.140450 
#    y 0.000000 3.817460 0.000000 
#    z 0.140450 0.000000 3.798100 
# 
# 
# High freq. dielectric constant tensor:
#      x y z
#    x 1.783960 0.000000 0.013470 
#    y 0.000000 1.788370 0.000000 
#    z 0.013470 0.000000 1.792260 
# 
# From -- ./inp_files/39448.got.cif
#   From: 2010.03.12/outbox.cif.g09.slc.cpg/sg5_20_cif.got.tgz:39448.got - 2010.03.31 09:47:26.
