data_PCOD8048074
_publ_section_title
;
Structure prediction by ZEFSAII (Michael W. Deem and Ramdas Pophale) SiO2 
 PCOD8048074
Probable space group: C 2
;
_chemical_formula_sum "Si O2"
_cell_formula_units_Z 24
_cell_length_a 15.545671
_cell_length_b 16.859162
_cell_length_c 9.384712
_cell_angle_alpha 90.000000
_cell_angle_beta 32.918645
_cell_angle_gamma 90.000000
_cell_volume 1336.669747
_symmetry_space_group_name_H-M "C 2"
_symmetry_group_IT_number 5
_symmetry_cell_setting 'monoclinic'
loop_
_space_group_symop_operation_xyz
x,y,z
-x,y,-z
1/2+x,1/2+y,z
1/2-x,1/2+y,-z
loop_
_atom_site_type_symbol
_atom_site_label
_atom_site_fract_x
_atom_site_fract_y
_atom_site_fract_z
Si Si1 0.000000 0.629850 0.500000
Si Si2 0.231435 0.749300 0.022553
Si Si3 0.272819 0.602946 0.299679
Si Si4 0.519111 0.373926 0.642029
Si Si5 0.500000 0.656284 0.500000
Si Si6 0.827893 0.282732 0.190438
Si Si7 0.460338 0.549302 0.284300
O O1 0.118533 0.682617 0.244190
O O2 0.101499 0.578196 0.472213
O O3 0.332232 0.785316 0.012633
O O4 0.120689 0.816662 0.103631
O O5 0.350470 0.712015 0.742551
O O6 0.284826 0.696653 0.313827
O O7 0.301118 0.556535 0.408873
O O8 0.399995 0.584793 0.002451
O O9 0.500000 0.380001 0.500000
O O10 0.692867 0.341114 0.438832
O O11 0.500106 0.458716 0.740073
O O12 0.443875 0.600152 0.449858
O O13 0.000000 0.312316 0.000000
#
# Coordination Sequence:
#
# PCOD8048074 Si02
#       7
#     2   4   4   4   2   4   4
#     4  10  16  37  65  84 102 162 206 232 270 369
#     4  10  19  35  60  87 114 157 199 236 291 353
#     4  10  19  37  62  82 112 160 205 224 294 356
#     4  10  20  36  59  84 121 157 190 237 306 347
#     4  12  20  35  63  94 118 146 204 254 284 331
#     4  10  16  34  62  82 105 159 208 227 269 372
#     4  11  21  36  58  91 120 153 190 249 297 346
#
# _framework density 17.955071
#
# number of rings (size 3 to 8) (size 9 to 14) (size 15 to 20)
#    0.000    1.667   10.000    0.000    0.000    0.000 
#    0.000   13.333    0.000    0.000    0.000    0.000 
#    0.000    0.000    0.000    0.000    0.000    0.000 
#
# Total GULP energy -148746.711809 kJ/mol
# GULP energy per Si atom -12395.559317 kJ/mol
# Density = 1.791420 g / cm^3
# Si number density = 17.955071 Si / 1000 Ang^3
#
#
#
# Elastic Constant Matrix: (Units=GPa)
#
#
# Indices 1 2 3 4 5 6 
#
# 1 147.8289 38.0802 47.1447 0.0004 -24.3454 -0.0004
# 2 38.0802 80.4374 31.1969 -0.0002 -2.2477 0.0001
# 3 47.1447 31.1969 86.6679 -0.0001 -3.5568 -0.0003
# 4 0.0004 -0.0002 -0.0001 3.4368 0.0000 -9.5600
# 5 -24.3454 -2.2477 -3.5568 0.0000 32.1246 0.0004
# 6 -0.0004 0.0001 -0.0003 -9.5600 0.0004 31.0088
#
#
#
# Elastic Compliance Matrix: (Units=1/GPa)
#
#
# Indices 1 2 3 4 5 6 
#
# 1 0.009956 -0.002940 -0.004075 -0.000009 0.006888 -0.000003
# 2 -0.002940 0.015324 -0.003982 0.000006 -0.001597 0.000002
# 3 -0.004075 -0.003982 0.015119 0.000006 -0.001693 0.000002
# 4 -0.000009 0.000006 0.000006 2.043321 -0.000010 0.629956
# 5 0.006888 -0.001597 -0.001693 -0.000010 0.036050 -0.000004
# 6 -0.000003 0.000002 0.000002 0.629956 -0.000004 0.226464
#
#
# Mechanical properties :
#
#
# Convention : Reuss Voigt Hill
#
# Bulk Modulus (GPa) = 54.33513 60.86421 57.59967
# Shear Modulus (GPa) = 2.10583 26.54820 14.32702
#
# Velocity S-wave (km/s) = 1.08415 3.84942 2.82784
# Velocity P-wave (km/s) = 5.64753 7.33001 6.54307
#
# Compressibility (1/GPa) = 0.01840430
#
# Stress axis : x y z
#
# Youngs Moduli (GPa) = 100.44359 65.25781 66.14363
#
# Poissons Ratio (x) = 0.19189 0.26950
# Poissons Ratio (y) = 0.29535 0.26338
# Poissons Ratio (z) = 0.40926 0.25985
#
# Static dielectric constant tensor:
#      x y z
#    x 3.851370 0.000000 -0.194640 
#    y 0.000000 3.290000 0.000000 
#    z -0.194640 0.000000 3.000370 
# 
# 
# High freq. dielectric constant tensor:
#      x y z
#    x 1.705280 0.000000 -0.014840 
#    y 0.000000 1.678930 0.000000 
#    z -0.014840 0.000000 1.674940 
# 
# From -- ./inp_files/24518.got.cif
#   From: 2010.03.12/outbox.cif.g09.slc.cpg/sg5_13_cif.got.tgz:24518.got - 2010.03.31 09:47:26.
