data_PCOD8048816
_publ_section_title
;
Structure prediction by ZEFSAII (Michael W. Deem and Ramdas Pophale) SiO2 
 PCOD8048816
Probable space group: C 2
;
_chemical_formula_sum "Si O2"
_cell_formula_units_Z 28
_cell_length_a 9.492079
_cell_length_b 13.670044
_cell_length_c 23.109578
_cell_angle_alpha 90.000000
_cell_angle_beta 153.336139
_cell_angle_gamma 90.000000
_cell_volume 1345.652674
_symmetry_space_group_name_H-M "C 2"
_symmetry_group_IT_number 5
_symmetry_cell_setting 'monoclinic'
loop_
_space_group_symop_operation_xyz
x,y,z
-x,y,-z
1/2+x,1/2+y,z
1/2-x,1/2+y,-z
loop_
_atom_site_type_symbol
_atom_site_label
_atom_site_fract_x
_atom_site_fract_y
_atom_site_fract_z
Si Si1 0.221292 0.661780 0.028521
Si Si2 0.803619 0.169103 0.577022
Si Si3 0.821714 0.730160 0.596306
Si Si4 0.653600 0.862664 0.348755
Si Si5 0.645887 0.059294 0.767151
Si Si6 0.090384 0.347890 0.189268
Si Si7 0.434234 0.065014 0.816281
O O1 0.533907 0.595962 0.144707
O O2 0.301830 0.777111 0.065599
O O3 0.000000 0.627829 0.000000
O O4 0.049792 0.645354 0.904485
O O5 0.500000 0.126983 0.500000
O O6 0.668964 0.213614 0.468634
O O7 0.966263 0.259458 0.670525
O O8 0.068647 0.086246 0.666002
O O9 0.500000 0.778256 0.500000
O O10 0.858008 0.625650 0.640460
O O11 0.090887 0.802024 0.718796
O O12 0.644316 0.856545 0.276871
O O13 0.000000 0.885655 0.500000
O O14 0.417919 0.950029 0.279829
O O15 0.653830 0.067079 0.839985
O O16 0.036099 0.456811 0.144110
#
# Coordination Sequence:
#
# PCOD8048816 Si02
#       7
#     4   4   4   4   4   4   4
#     4  11  25  45  65  90 128 165 219 276 318 365
#     4  11  22  37  65  97 134 167 209 257 325 380
#     4  11  20  38  61  97 133 166 199 273 319 375
#     4  10  19  38  67  97 125 172 212 250 315 398
#     4  10  23  40  66  91 127 169 221 258 312 385
#     4  10  23  42  65  92 128 167 218 256 318 389
#     4  11  24  43  66  95 122 178 217 261 315 387
#
# _framework density 20.807746000000002
#
# number of rings (size 3 to 8) (size 9 to 14) (size 15 to 20)
#    0.000    1.429    4.286    1.714    4.000    4.000 
#    2.571    2.857    0.000    0.000    0.000    0.000 
#    0.000    0.000    0.000    0.000    0.000    0.000 
#
# Total GULP energy -173576.182529 kJ/mol
# GULP energy per Si atom -12398.298752 kJ/mol
# Density = 2.076039 g / cm^3
# Si number density = 20.807746 Si / 1000 Ang^3
#
#
#
# Elastic Constant Matrix: (Units=GPa)
#
#
# Indices 1 2 3 4 5 6 
#
# 1 96.8530 28.2388 26.9585 -0.0014 17.2742 -0.0001
# 2 28.2388 118.0477 34.7945 -0.0017 11.2108 -0.0005
# 3 26.9585 34.7945 81.5433 -0.0081 3.7160 -0.0029
# 4 -0.0014 -0.0017 -0.0081 20.5672 -0.0020 0.8018
# 5 17.2742 11.2108 3.7160 -0.0020 36.4669 -0.0004
# 6 -0.0001 -0.0005 -0.0029 0.8018 -0.0004 22.9499
#
#
#
# Elastic Compliance Matrix: (Units=1/GPa)
#
#
# Indices 1 2 3 4 5 6 
#
# 1 0.012610 -0.001564 -0.003267 -0.000001 -0.005160 0.000000
# 2 -0.001564 0.010129 -0.003714 -0.000001 -0.001995 0.000000
# 3 -0.003267 -0.003714 0.014875 0.000005 0.001174 0.000002
# 4 -0.000001 -0.000001 0.000005 0.048687 0.000003 -0.001701
# 5 -0.005160 -0.001995 0.001174 0.000003 0.030360 0.000000
# 6 0.000000 0.000000 0.000002 -0.001701 0.000000 0.043633
#
#
# Mechanical properties :
#
#
# Convention : Reuss Voigt Hill
#
# Bulk Modulus (GPa) = 48.72060 52.93641 50.82851
# Shear Modulus (GPa) = 27.14057 29.76028 28.45042
#
# Velocity S-wave (km/s) = 3.61550 3.78597 3.70171
# Velocity P-wave (km/s) = 6.39488 6.67887 6.53842
#
# Compressibility (1/GPa) = 0.02052520
#
# Stress axis : x y z
#
# Youngs Moduli (GPa) = 79.29960 98.72195 67.22765
#
# Poissons Ratio (x) = 0.15437 0.21961
# Poissons Ratio (y) = 0.12400 0.24971
# Poissons Ratio (z) = 0.25905 0.36669
#
# Static dielectric constant tensor:
#      x y z
#    x 3.650910 0.000000 0.019460 
#    y 0.000000 4.068760 0.000000 
#    z 0.019460 0.000000 3.774400 
# 
# 
# High freq. dielectric constant tensor:
#      x y z
#    x 1.805550 0.000000 0.003450 
#    y 0.000000 1.811450 0.000000 
#    z 0.003450 0.000000 1.819610 
# 
# From -- ./inp_files/36318.got.cif
#   From: 2010.03.12/outbox.cif.g09.slc.cpg/sg5_19_cif.got.tgz:36318.got - 2010.03.31 09:47:26.
