data_PCOD8048807
_publ_section_title
;
Structure prediction by ZEFSAII (Michael W. Deem and Ramdas Pophale) SiO2 
 PCOD8048807
Probable space group: C 2
;
_chemical_formula_sum "Si O2"
_cell_formula_units_Z 26
_cell_length_a 21.670744
_cell_length_b 13.578720
_cell_length_c 8.153211
_cell_angle_alpha 90.000000
_cell_angle_beta 34.434358
_cell_angle_gamma 90.000000
_cell_volume 1356.639704
_symmetry_space_group_name_H-M "C 2"
_symmetry_group_IT_number 5
_symmetry_cell_setting 'monoclinic'
loop_
_space_group_symop_operation_xyz
x,y,z
-x,y,-z
1/2+x,1/2+y,z
1/2-x,1/2+y,-z
loop_
_atom_site_type_symbol
_atom_site_label
_atom_site_fract_x
_atom_site_fract_y
_atom_site_fract_z
Si Si1 0.066846 0.771200 0.011402
Si Si2 0.000000 0.094433 0.000000
Si Si3 0.108487 0.427679 0.870930
Si Si4 0.276685 0.042943 0.649080
Si Si5 0.550601 0.469487 0.213558
Si Si6 0.503977 0.073311 0.676127
Si Si7 0.796350 0.223462 0.370709
O O1 0.017863 0.665899 0.161818
O O2 0.040676 0.852437 0.206737
O O3 0.197956 0.759569 0.703960
O O4 0.000000 0.807922 0.000000
O O5 0.890965 0.161433 0.256486
O O6 0.003189 0.029711 0.160257
O O7 0.202611 0.486468 0.567819
O O8 0.149066 0.319519 0.830505
O O9 0.000000 0.422634 0.000000
O O10 0.083289 0.487237 0.093189
O O11 0.376721 0.031087 0.551769
O O12 0.254391 0.158158 0.663069
O O13 0.176776 0.994006 0.960366
O O14 0.500000 0.498981 0.500000
O O15 0.500000 0.107829 0.500000
#
# Coordination Sequence:
#
# PCOD8048807 Si02
#       7
#     4   2   4   4   4   4   4
#     4  12  21  40  65  93 124 164 215 257 317 374
#     4  10  24  42  66  92 126 172 214 250 324 374
#     4  10  19  38  64  87 120 162 209 251 307 382
#     4  10  21  40  62  86 122 166 206 262 306 373
#     4  11  24  42  64  95 132 162 210 263 318 380
#     4  11  23  40  59  93 128 165 213 261 313 370
#     4  11  20  38  68  91 116 165 215 257 309 382
#
# _framework density 19.165001
#
# number of rings (size 3 to 8) (size 9 to 14) (size 15 to 20)
#    0.000    1.231    6.154    0.923    0.000    1.231 
#    2.769    3.077    0.000    0.000    0.000    0.000 
#    0.000    0.000    0.000    0.000    0.000    0.000 
#
# Total GULP energy -161168.095602 kJ/mol
# GULP energy per Si atom -12397.545816 kJ/mol
# Density = 1.912138 g / cm^3
# Si number density = 19.165001 Si / 1000 Ang^3
#
#
#
# Elastic Constant Matrix: (Units=GPa)
#
#
# Indices 1 2 3 4 5 6 
#
# 1 73.5944 28.1144 50.3110 0.0000 7.3626 0.0000
# 2 28.1144 120.1181 40.1852 0.0000 1.0328 0.0000
# 3 50.3110 40.1852 125.5319 0.0000 -5.0582 0.0000
# 4 0.0000 0.0000 0.0000 30.2766 0.0000 -5.7708
# 5 7.3626 1.0328 -5.0582 0.0000 28.8949 0.0000
# 6 0.0000 0.0000 0.0000 -5.7708 0.0000 21.6244
#
#
#
# Elastic Compliance Matrix: (Units=1/GPa)
#
#
# Indices 1 2 3 4 5 6 
#
# 1 0.020326 -0.002116 -0.007729 0.000000 -0.006457 0.000000
# 2 -0.002116 0.009565 -0.002222 0.000000 -0.000192 0.000000
# 3 -0.007729 -0.002222 0.011942 0.000000 0.004139 0.000000
# 4 0.000000 0.000000 0.000000 0.034799 0.000000 0.009287
# 5 -0.006457 -0.000192 0.004139 0.000000 0.036985 0.000000
# 6 0.000000 0.000000 0.000000 0.009287 0.000000 0.048722
#
#
# Mechanical properties :
#
#
# Convention : Reuss Voigt Hill
#
# Bulk Modulus (GPa) = 56.49910 61.82951 59.16430
# Shear Modulus (GPa) = 25.99121 29.53479 27.76300
#
# Velocity S-wave (km/s) = 3.68663 3.92992 3.81022
# Velocity P-wave (km/s) = 6.90406 7.27489 7.09190
#
# Compressibility (1/GPa) = 0.01769940
#
# Stress axis : x y z
#
# Youngs Moduli (GPa) = 49.19774 104.54415 83.73979
#
# Poissons Ratio (x) = 0.22124 0.64723
# Poissons Ratio (y) = 0.10411 0.18604
# Poissons Ratio (z) = 0.38025 0.23226
#
# Static dielectric constant tensor:
#      x y z
#    x 3.236370 0.000000 -0.251340 
#    y 0.000000 3.655270 0.000000 
#    z -0.251340 0.000000 3.618320 
# 
# 
# High freq. dielectric constant tensor:
#      x y z
#    x 1.720300 0.000000 -0.024100 
#    y 0.000000 1.761980 0.000000 
#    z -0.024100 0.000000 1.748800 
# 
# From -- ./inp_files/20134.got.cif
#   From: 2010.03.12/outbox.cif.g09.slc.cpg/sg5_11_cif.got.tgz:20134.got - 2010.03.31 09:47:26.
