data_PCOD8048741
_publ_section_title
;
Structure prediction by ZEFSAII (Michael W. Deem and Ramdas Pophale) SiO2 
 PCOD8048741
Probable space group: C 2
;
_chemical_formula_sum "Si O2"
_cell_formula_units_Z 32
_cell_length_a 5.256885
_cell_length_b 24.791445
_cell_length_c 12.638304
_cell_angle_alpha 90.000000
_cell_angle_beta 75.273087
_cell_angle_gamma 90.000000
_cell_volume 1592.987087
_symmetry_space_group_name_H-M "C 2"
_symmetry_group_IT_number 5
_symmetry_cell_setting 'monoclinic'
loop_
_space_group_symop_operation_xyz
x,y,z
-x,y,-z
1/2+x,1/2+y,z
1/2-x,1/2+y,-z
loop_
_atom_site_type_symbol
_atom_site_label
_atom_site_fract_x
_atom_site_fract_y
_atom_site_fract_z
Si Si1 0.724007 0.864620 0.044299
Si Si2 0.966550 0.909741 0.384418
Si Si3 0.139352 0.695609 0.616589
Si Si4 0.865426 0.240109 0.372490
Si Si5 0.992866 0.360131 0.701504
Si Si6 0.719121 0.486265 0.049220
Si Si7 0.480204 0.072479 0.620332
Si Si8 0.442727 0.521001 0.703616
O O1 0.665913 0.862417 0.173590
O O2 0.500000 0.834005 0.000000
O O3 0.755900 0.924296 0.990567
O O4 0.000000 0.833615 0.000000
O O5 0.697011 0.886669 0.365376
O O6 0.000000 0.888861 0.500000
O O7 0.237842 0.891595 0.299867
O O8 0.941538 0.974217 0.382972
O O9 0.249461 0.725460 0.500152
O O10 0.371646 0.704112 0.678082
O O11 0.072149 0.633941 0.603569
O O12 0.869494 0.724697 0.684045
O O13 0.939451 0.301773 0.350477
O O14 0.630897 0.492599 0.178824
O O15 0.500000 0.515494 0.000000
O O16 0.000000 0.515230 0.000000
O O17 0.500000 0.048023 0.500000
O O18 0.678291 0.044070 0.680256
O O19 0.177145 0.065260 0.691505
#
# Coordination Sequence:
#
# PCOD8048741 Si02
#       8
#     4   4   4   4   4   4   4   4
#     4  10  20  37  60  84 115 157 206 261 296 345
#     4  12  25  38  52  86 136 179 195 238 301 374
#     4  10  21  38  62  88 121 159 205 264 304 354
#     4  10  21  36  61  90 117 159 208 251 306 365
#     4  12  24  39  63  91 126 169 214 248 306 380
#     4  10  19  37  61  82 115 156 205 263 296 344
#     4  12  23  40  63  90 129 169 210 258 305 376
#     4  12  25  39  60  91 125 170 218 248 303 378
#
# _framework density 20.088047
#
# number of rings (size 3 to 8) (size 9 to 14) (size 15 to 20)
#    0.000    1.000    1.250    8.250    7.000    0.000 
#    0.000    0.000    0.000    0.000    0.000   17.500 
#    0.000    0.000    0.000    0.000    0.000    0.000 
#
# Total GULP energy -198248.942287 kJ/mol
# GULP energy per Si atom -12390.558893 kJ/mol
# Density = 2.004233 g / cm^3
# Si number density = 20.088047 Si / 1000 Ang^3
#
#
#
# Elastic Constant Matrix: (Units=GPa)
#
#
# Indices 1 2 3 4 5 6 
#
# 1 198.0678 36.4015 22.6331 0.0000 -1.7996 0.0000
# 2 36.4015 83.1093 29.5463 0.0000 -0.3109 0.0000
# 3 22.6331 29.5463 79.4939 0.0000 0.5592 0.0000
# 4 0.0000 0.0000 0.0000 -121.9702 0.0000 -62.8793
# 5 -1.7996 -0.3109 0.5592 0.0000 32.5764 0.0000
# 6 0.0000 0.0000 0.0000 -62.8793 0.0000 0.4011
#
#
#
# Elastic Compliance Matrix: (Units=1/GPa)
#
#
# Indices 1 2 3 4 5 6 
#
# 1 0.005535 -0.002146 -0.000780 0.000000 0.000299 0.000000
# 2 -0.002146 0.014698 -0.004853 0.000000 0.000105 0.000000
# 3 -0.000780 -0.004853 0.014608 0.000000 -0.000340 0.000000
# 4 0.000000 0.000000 0.000000 -0.000100 0.000000 -0.015709
# 5 0.000299 0.000105 -0.000340 0.000000 0.030720 0.000000
# 6 0.000000 0.000000 0.000000 -0.015709 0.000000 0.030472
#
#
# Mechanical properties :
#
#
# Convention : Reuss Voigt Hill
#
# Bulk Modulus (GPa) = 51.85962 59.75920 55.80941
# Shear Modulus (GPa) = 42.40237 0.34081 21.37159
#
# Velocity S-wave (km/s) = 4.59936 0.41234 3.26528
# Velocity P-wave (km/s) = 7.35375 5.48087 6.48527
#
# Compressibility (1/GPa) = 0.01928283
#
# Stress axis : x y z
#
# Youngs Moduli (GPa) = 180.66766 68.03771 68.45645
#
# Poissons Ratio (x) = 0.14599 0.05343
# Poissons Ratio (y) = 0.38766 0.33220
# Poissons Ratio (z) = 0.14101 0.33016
#
# Static dielectric constant tensor:
#      x y z
#    x 7.604180 0.000000 0.082220 
#    y 0.000000 3.382000 0.000000 
#    z 0.082220 0.000000 3.441010 
# 
# 
# High freq. dielectric constant tensor:
#      x y z
#    x 1.834670 0.000000 -0.003060 
#    y 0.000000 1.749240 0.000000 
#    z -0.003060 0.000000 1.752690 
# 
# From -- ./inp_files/34298.got.cif
#   From: 2010.03.12/outbox.cif.g09.slc.cpg/sg5_18_cif.got.tgz:34298.got - 2010.03.31 09:47:26.
