data_PCOD8048409
_publ_section_title
;
Structure prediction by ZEFSAII (Michael W. Deem and Ramdas Pophale) SiO2 
 PCOD8048409
Probable space group: C 2
;
_chemical_formula_sum "Si O2"
_cell_formula_units_Z 26
_cell_length_a 19.060170
_cell_length_b 5.138790
_cell_length_c 12.305486
_cell_angle_alpha 90.000000
_cell_angle_beta 104.015234
_cell_angle_gamma 90.000000
_cell_volume 1169.396320
_symmetry_space_group_name_H-M "C 2"
_symmetry_group_IT_number 5
_symmetry_cell_setting 'monoclinic'
loop_
_space_group_symop_operation_xyz
x,y,z
-x,y,-z
1/2+x,1/2+y,z
1/2-x,1/2+y,-z
loop_
_atom_site_type_symbol
_atom_site_label
_atom_site_fract_x
_atom_site_fract_y
_atom_site_fract_z
Si Si1 0.266685 0.338640 0.571002
Si Si2 0.245571 0.158678 0.241522
Si Si3 0.617944 0.368569 0.811985
Si Si4 0.628082 0.385901 0.071013
Si Si5 0.968809 0.385731 0.216311
Si Si6 0.874568 0.527960 0.732648
Si Si7 0.500000 0.751163 0.000000
O O1 0.272576 0.576022 0.486824
O O2 0.222400 0.446407 0.660531
O O3 0.347840 0.260800 0.642968
O O4 0.304563 0.360729 0.217911
O O5 0.187329 0.312473 0.291558
O O6 0.205966 0.012528 0.127344
O O7 0.572282 0.623397 0.764239
O O8 0.573928 0.125068 0.748164
O O9 0.629397 0.330515 0.944210
O O10 0.614741 0.127533 0.138517
O O11 0.562239 0.575536 0.079079
O O12 0.051872 0.401741 0.286992
O O13 0.966120 0.421103 0.083919
#
# Coordination Sequence:
#
# PCOD8048409 Si02
#       7
#     4   4   4   4   4   4   2
#     4  11  24  44  73 104 124 162 226 302 350 390
#     4  11  25  41  66 102 135 173 225 277 330 401
#     4  11  27  38  61  96 146 186 208 263 330 394
#     4  10  22  35  62  93 143 180 230 260 317 379
#     4  11  23  40  60  93 134 182 225 264 319 383
#     4  11  22  41  70  98 128 176 233 279 313 399
#     4  10  18  38  56  92 130 188 228 266 290 380
#
# _framework density 22.233692999999999
#
# number of rings (size 3 to 8) (size 9 to 14) (size 15 to 20)
#    0.000    1.231    3.077    2.769   10.769    0.615 
#    0.000    0.000    0.000    0.923    8.000    0.000 
#    0.000    0.000    0.000    0.000    0.000    0.000 
#
# Total GULP energy -161143.407995 kJ/mol
# GULP energy per Si atom -12395.646769 kJ/mol
# Density = 2.218309 g / cm^3
# Si number density = 22.233693 Si / 1000 Ang^3
#
#
#
# Elastic Constant Matrix: (Units=GPa)
#
#
# Indices 1 2 3 4 5 6 
#
# 1 139.6969 62.2955 33.0444 0.0000 7.3494 0.0000
# 2 62.2955 144.5991 32.5529 0.0000 8.4367 0.0000
# 3 33.0444 32.5529 73.4650 0.0000 16.4464 0.0000
# 4 0.0000 0.0000 0.0000 29.7062 0.0000 5.8731
# 5 7.3494 8.4367 16.4464 0.0000 13.8566 0.0000
# 6 0.0000 0.0000 0.0000 5.8731 0.0000 47.2352
#
#
#
# Elastic Compliance Matrix: (Units=1/GPa)
#
#
# Indices 1 2 3 4 5 6 
#
# 1 0.009314 -0.003413 -0.002773 0.000000 0.000430 0.000000
# 2 -0.003413 0.008941 -0.002197 0.000000 -0.001026 0.000000
# 3 -0.002773 -0.002197 0.020705 0.000000 -0.021767 0.000000
# 4 0.000000 0.000000 0.000000 0.034511 0.000000 -0.004291
# 5 0.000430 -0.001026 -0.021767 0.000000 0.098399 0.000000
# 6 0.000000 0.000000 0.000000 -0.004291 0.000000 0.021704
#
#
# Mechanical properties :
#
#
# Convention : Reuss Voigt Hill
#
# Bulk Modulus (GPa) = 45.05754 68.17183 56.61469
# Shear Modulus (GPa) = 22.96329 33.48415 28.22372
#
# Velocity S-wave (km/s) = 3.21723 3.88494 3.56675
# Velocity P-wave (km/s) = 5.84039 7.13104 6.51774
#
# Compressibility (1/GPa) = 0.02219384
#
# Stress axis : x y z
#
# Youngs Moduli (GPa) = 107.36743 111.84981 48.29643
#
# Poissons Ratio (x) = 0.38178 0.13393
# Poissons Ratio (y) = 0.36648 0.10609
# Poissons Ratio (z) = 0.29773 0.24569
#
# Static dielectric constant tensor:
#      x y z
#    x 3.910860 0.000000 0.294530 
#    y 0.000000 4.202630 0.000000 
#    z 0.294530 0.000000 3.851070 
# 
# 
# High freq. dielectric constant tensor:
#      x y z
#    x 1.856850 0.000000 0.021950 
#    y 0.000000 1.894640 0.000000 
#    z 0.021950 0.000000 1.846360 
# 
# From -- ./inp_files/45326.got.cif
#   From: 2010.03.12/outbox.cif.g09.slc.cpg/sg5_23_cif.got.tgz:45326.got - 2010.03.31 09:47:26.
