data_PCOD8048398
_publ_section_title
;
Structure prediction by ZEFSAII (Michael W. Deem and Ramdas Pophale) SiO2 
 PCOD8048398
Probable space group: C 2
;
_chemical_formula_sum "Si O2"
_cell_formula_units_Z 30
_cell_length_a 19.424331
_cell_length_b 14.835626
_cell_length_c 13.747379
_cell_angle_alpha 90.000000
_cell_angle_beta 22.639331
_cell_angle_gamma 90.000000
_cell_volume 1524.938943
_symmetry_space_group_name_H-M "C 2"
_symmetry_group_IT_number 5
_symmetry_cell_setting 'monoclinic'
loop_
_space_group_symop_operation_xyz
x,y,z
-x,y,-z
1/2+x,1/2+y,z
1/2-x,1/2+y,-z
loop_
_atom_site_type_symbol
_atom_site_label
_atom_site_fract_x
_atom_site_fract_y
_atom_site_fract_z
Si Si1 0.021105 0.771950 0.822470
Si Si2 0.450010 0.198739 0.413313
Si Si3 0.279449 0.747020 0.119589
Si Si4 0.194237 0.527963 0.493765
Si Si5 0.676124 0.114807 0.836901
Si Si6 0.500000 0.423494 0.000000
Si Si7 0.860610 0.164077 0.422249
Si Si8 0.562928 0.932336 0.029724
O O1 0.051213 0.777102 0.667528
O O2 0.208652 0.741089 0.624251
O O3 0.859455 0.699670 0.046754
O O4 0.966850 0.864719 0.945382
O O5 0.618532 0.222033 0.258776
O O6 0.266816 0.207769 0.713727
O O7 0.448528 0.096785 0.370894
O O8 0.449285 0.701878 0.850750
O O9 0.317841 0.852522 0.081961
O O10 0.320822 0.482348 0.247653
O O11 0.319818 0.586829 0.398766
O O12 0.102462 0.451206 0.680562
O O13 0.856499 0.125697 0.537802
O O14 0.500000 0.104064 0.000000
O O15 0.691181 0.019800 0.872383
O O16 0.500000 0.911815 0.000000
#
# Coordination Sequence:
#
# PCOD8048398 Si02
#       8
#     4   4   4   4   4   2   4   4
#     4  10  19  37  67  86 129 158 201 258 318 362
#     4  10  24  46  56  83 136 180 193 254 324 377
#     4  11  25  39  63  92 125 169 219 247 311 384
#     4  11  22  38  64  90 127 158 206 264 320 360
#     4   9  15  35  59  92 123 153 185 260 317 351
#     4  12  22  32  64 110 112 154 222 270 300 376
#     4  10  18  37  63  94 120 161 204 254 317 371
#     4  11  21  37  64  99 121 156 213 269 305 361
#
# _framework density 19.672919
#
# number of rings (size 3 to 8) (size 9 to 14) (size 15 to 20)
#    0.000    1.600    7.333    1.600    5.600    0.000 
#    0.000    7.333    0.000    0.000    0.000    0.000 
#    0.000    0.000    0.000    0.000    0.000    0.000 
#
# Total GULP energy -185856.525364 kJ/mol
# GULP energy per Si atom -12390.435024 kJ/mol
# Density = 1.962814 g / cm^3
# Si number density = 19.672919 Si / 1000 Ang^3
#
#
#
# Elastic Constant Matrix: (Units=GPa)
#
#
# Indices 1 2 3 4 5 6 
#
# 1 63.6478 34.0285 48.4214 0.0017 16.6140 -0.0010
# 2 34.0285 94.0208 57.1588 0.0007 0.1160 -0.0004
# 3 48.4214 57.1588 140.4797 0.0003 30.5405 0.0002
# 4 0.0017 0.0007 0.0003 26.4884 -0.0023 21.6039
# 5 16.6140 0.1160 30.5405 -0.0023 28.2166 0.0012
# 6 -0.0010 -0.0004 0.0002 21.6039 0.0012 15.8896
#
#
#
# Elastic Compliance Matrix: (Units=1/GPa)
#
#
# Indices 1 2 3 4 5 6 
#
# 1 0.024832 -0.006934 -0.003355 0.000039 -0.010962 -0.000051
# 2 -0.006934 0.017625 -0.007393 -0.000017 0.012012 0.000022
# 3 -0.003355 -0.007393 0.014184 0.000012 -0.013347 -0.000015
# 4 0.000039 -0.000017 0.000012 -0.346631 -0.000084 0.471289
# 5 -0.010962 0.012012 -0.013347 -0.000084 0.056291 0.000110
# 6 -0.000051 0.000022 -0.000015 0.471289 0.000110 -0.577845
#
#
# Mechanical properties :
#
#
# Convention : Reuss Voigt Hill
#
# Bulk Modulus (GPa) = 46.99621 64.15173 55.57397
# Shear Modulus (GPa) = -6.50122 24.68822 9.09350
#
# Velocity S-wave (km/s) = -1.81984 3.54635 2.15230
# Velocity P-wave (km/s) = 4.41870 7.03198 5.87255
#
# Compressibility (1/GPa) = 0.02127831
#
# Stress axis : x y z
#
# Youngs Moduli (GPa) = 40.26985 56.73730 70.50037
#
# Poissons Ratio (x) = 0.39344 0.23651
# Poissons Ratio (y) = 0.27925 0.52118
# Poissons Ratio (z) = 0.13510 0.41943
#
# Static dielectric constant tensor:
#      x y z
#    x 3.584500 0.000000 0.761080 
#    y 0.000000 3.708920 0.000000 
#    z 0.761080 0.000000 4.049820 
# 
# 
# High freq. dielectric constant tensor:
#      x y z
#    x 1.736780 0.000000 0.045180 
#    y 0.000000 1.766920 0.000000 
#    z 0.045180 0.000000 1.770350 
# 
# From -- ./inp_files/57122.got.cif
#   From: 2010.03.12/outbox.cif.g09.slc.cpg/sg5_29_cif.got.tgz:57122.got - 2010.03.31 09:47:26.
