data_PCOD8048854
_publ_section_title
;
Structure prediction by ZEFSAII (Michael W. Deem and Ramdas Pophale) SiO2 
 PCOD8048854
Probable space group: C 2
;
_chemical_formula_sum "Si O2"
_cell_formula_units_Z 26
_cell_length_a 8.573824
_cell_length_b 20.629330
_cell_length_c 8.336269
_cell_angle_alpha 90.000000
_cell_angle_beta 129.300581
_cell_angle_gamma 90.000000
_cell_volume 1140.982795
_symmetry_space_group_name_H-M "C 2"
_symmetry_group_IT_number 5
_symmetry_cell_setting 'monoclinic'
loop_
_space_group_symop_operation_xyz
x,y,z
-x,y,-z
1/2+x,1/2+y,z
1/2-x,1/2+y,-z
loop_
_atom_site_type_symbol
_atom_site_label
_atom_site_fract_x
_atom_site_fract_y
_atom_site_fract_z
Si Si1 0.707848 0.788250 0.201784
Si Si2 0.130317 0.031581 0.942144
Si Si3 0.561147 0.405876 0.725760
Si Si4 0.000000 0.686061 0.500000
Si Si5 0.355126 0.609945 0.544354
Si Si6 0.551792 0.009197 0.219476
Si Si7 0.642818 0.875928 0.450595
O O1 0.780763 0.848118 0.137203
O O2 0.871150 0.731155 0.296881
O O3 0.675920 0.812528 0.363158
O O4 0.500000 0.759800 0.000000
O O5 0.011412 0.092116 0.788476
O O6 0.163761 0.973964 0.833959
O O7 0.352754 0.047269 0.160800
O O8 0.000000 0.002163 0.000000
O O9 0.500000 0.404269 0.500000
O O10 0.349756 0.395138 0.678424
O O11 0.834152 0.648945 0.503308
O O12 0.500000 0.643231 0.500000
O O13 0.257160 0.546048 0.399552
O O14 0.561315 0.936097 0.291653
O O15 0.500000 0.011994 0.000000
O O16 0.500000 0.855244 0.500000
#
# Coordination Sequence:
#
# PCOD8048854 Si02
#       7
#     4   4   4   2   4   4   4
#     4  11  24  47  71  95 133 184 234 288 350 416
#     4  12  23  38  67 107 144 175 222 284 357 430
#     4  10  19  39  65  96 139 179 214 275 356 420
#     4  12  28  50  74  94 136 192 254 292 340 400
#     4  12  27  48  71  99 142 190 238 293 348 414
#     4  12  23  40  68 104 144 181 220 281 363 432
#     4  11  21  37  71 108 143 176 218 283 362 425
#
# _framework density 22.787374
#
# number of rings (size 3 to 8) (size 9 to 14) (size 15 to 20)
#    0.000    0.615    5.385    5.538    1.077    2.462 
#    0.000    0.000    0.000    0.000    0.000    0.000 
#    0.000    0.000    0.000    0.000    0.000    0.000 
#
# Total GULP energy -161057.918910 kJ/mol
# GULP energy per Si atom -12389.070685 kJ/mol
# Density = 2.273551 g / cm^3
# Si number density = 22.787374 Si / 1000 Ang^3
#
#
#
# Elastic Constant Matrix: (Units=GPa)
#
#
# Indices 1 2 3 4 5 6 
#
# 1 133.6311 34.7128 2.2660 0.0000 23.8669 0.0000
# 2 34.7128 78.4301 16.0648 0.0000 6.4268 0.0000
# 3 2.2660 16.0648 65.1433 0.0000 33.9166 0.0000
# 4 0.0000 0.0000 0.0000 14.8194 0.0000 16.5930
# 5 23.8669 6.4268 33.9166 0.0000 46.5921 0.0000
# 6 0.0000 0.0000 0.0000 16.5930 0.0000 37.7435
#
#
#
# Elastic Compliance Matrix: (Units=1/GPa)
#
#
# Indices 1 2 3 4 5 6 
#
# 1 0.010137 -0.004865 0.005155 0.000000 -0.008275 0.000000
# 2 -0.004865 0.015786 -0.006260 0.000000 0.004871 0.000000
# 3 0.005155 -0.006260 0.028407 0.000000 -0.022456 0.000000
# 4 0.000000 0.000000 0.000000 0.132896 0.000000 -0.058424
# 5 -0.008275 0.004871 -0.022456 0.000000 0.041376 0.000000
# 6 0.000000 0.000000 0.000000 -0.058424 0.000000 0.052179
#
#
# Mechanical properties :
#
#
# Convention : Reuss Voigt Hill
#
# Bulk Modulus (GPa) = 23.58968 42.58796 33.08882
# Shear Modulus (GPa) = 16.29452 34.77505 25.53478
#
# Velocity S-wave (km/s) = 2.67698 3.91073 3.35112
# Velocity P-wave (km/s) = 4.46425 6.25472 5.43374
#
# Compressibility (1/GPa) = 0.04239143
#
# Stress axis : x y z
#
# Youngs Moduli (GPa) = 98.64461 63.34586 35.20279
#
# Poissons Ratio (x) = 0.30816 -0.18148
# Poissons Ratio (y) = 0.47987 0.22037
# Poissons Ratio (z) = -0.50853 0.39655
#
# Static dielectric constant tensor:
#      x y z
#    x 5.258780 0.000000 0.973580 
#    y 0.000000 3.743200 0.000000 
#    z 0.973580 0.000000 4.634860 
# 
# 
# High freq. dielectric constant tensor:
#      x y z
#    x 1.929220 0.000000 0.031950 
#    y 0.000000 1.861480 0.000000 
#    z 0.031950 0.000000 1.900220 
# 
# From -- ./inp_files/17053.got.cif
#   From: 2010.03.12/outbox.cif.g09.slc.cpg/sg5_9_cif.got.tgz:17053.got - 2010.03.31 09:47:26.
