data_PCOD8048967
_publ_section_title
;
Structure prediction by ZEFSAII (Michael W. Deem and Ramdas Pophale) SiO2 
 PCOD8048967
Probable space group: C 2
;
_chemical_formula_sum "Si O2"
_cell_formula_units_Z 30
_cell_length_a 13.383500
_cell_length_b 24.114983
_cell_length_c 5.108080
_cell_angle_alpha 90.000000
_cell_angle_beta 114.409227
_cell_angle_gamma 90.000000
_cell_volume 1501.240132
_symmetry_space_group_name_H-M "C 2"
_symmetry_group_IT_number 5
_symmetry_cell_setting 'monoclinic'
loop_
_space_group_symop_operation_xyz
x,y,z
-x,y,-z
1/2+x,1/2+y,z
1/2-x,1/2+y,-z
loop_
_atom_site_type_symbol
_atom_site_label
_atom_site_fract_x
_atom_site_fract_y
_atom_site_fract_z
Si Si1 0.909234 0.986490 0.734717
Si Si2 0.239919 0.116452 0.787228
Si Si3 0.745411 0.408851 0.704902
Si Si4 0.288218 0.048820 0.330211
Si Si5 0.875574 0.797059 0.390296
Si Si6 0.621985 0.939109 0.645244
Si Si7 0.625170 0.224845 0.109502
Si Si8 0.000000 0.081158 0.500000
O O1 0.860142 0.949726 0.444630
O O2 0.814189 0.006936 0.829837
O O3 0.972054 0.041768 0.711271
O O4 0.000000 0.951620 0.000000
O O5 0.278216 0.073052 0.609904
O O6 0.288159 0.175615 0.760751
O O7 0.107215 0.119610 0.672045
O O8 0.293253 0.096917 0.119270
O O9 0.705406 0.348098 0.740903
O O10 0.806849 0.406579 0.493316
O O11 0.827482 0.430632 0.013027
O O12 0.389097 0.005686 0.423947
O O13 0.852546 0.771163 0.648932
O O14 0.000000 0.818478 0.500000
O O15 0.852322 0.750459 0.149449
O O16 0.500000 0.914081 0.500000
O O17 0.500000 0.202336 0.000000
#
# Coordination Sequence:
#
# PCOD8048967 Si02
#       8
#     4   4   4   4   4   4   4   2
#     4  10  20  33  55  88 131 152 191 242 301 383
#     4  11  21  36  60  83 121 161 200 246 302 362
#     4  11  24  37  64  91 118 162 208 245 320 367
#     4  10  21  35  53  89 115 159 196 235 289 361
#     4  10  22  41  63  90 117 148 198 268 312 358
#     4  11  23  41  59  85 127 165 201 246 292 368
#     4  10  22  40  61  85 117 155 206 261 308 348
#     4  10  20  34  54  86 130 156 194 238 316 360
#
# _framework density 19.983478000000002
#
# number of rings (size 3 to 8) (size 9 to 14) (size 15 to 20)
#    0.000    1.600    1.333    4.400    2.800    2.667 
#    0.000    0.000    8.800    0.000    0.000    0.000 
#    0.000    0.000    0.000    0.000    0.000    0.000 
#
# Total GULP energy -185966.849769 kJ/mol
# GULP energy per Si atom -12397.789985 kJ/mol
# Density = 1.993799 g / cm^3
# Si number density = 19.983478 Si / 1000 Ang^3
#
#
#
# Elastic Constant Matrix: (Units=GPa)
#
#
# Indices 1 2 3 4 5 6 
#
# 1 80.7695 40.3904 33.6730 0.0000 10.5603 0.0000
# 2 40.3904 77.3908 16.2347 0.0000 17.9419 0.0000
# 3 33.6730 16.2347 104.0569 0.0000 5.7341 0.0000
# 4 0.0000 0.0000 0.0000 22.3864 0.0000 3.2999
# 5 10.5603 17.9419 5.7341 0.0000 34.6267 0.0000
# 6 0.0000 0.0000 0.0000 3.2999 0.0000 24.4742
#
#
#
# Elastic Compliance Matrix: (Units=1/GPa)
#
#
# Indices 1 2 3 4 5 6 
#
# 1 0.018739 -0.008697 -0.004683 0.000000 -0.000433 0.000000
# 2 -0.008697 0.019100 0.000236 0.000000 -0.007283 0.000000
# 3 -0.004683 0.000236 0.011118 0.000000 -0.000535 0.000000
# 4 0.000000 0.000000 0.000000 0.045576 0.000000 -0.006145
# 5 -0.000433 -0.007283 -0.000535 0.000000 0.032874 0.000000
# 6 0.000000 0.000000 0.000000 -0.006145 0.000000 0.041688
#
#
# Mechanical properties :
#
#
# Convention : Reuss Voigt Hill
#
# Bulk Modulus (GPa) = 44.11521 49.20151 46.65836
# Shear Modulus (GPa) = 24.63786 27.75874 26.19830
#
# Velocity S-wave (km/s) = 3.51509 3.73109 3.62470
# Velocity P-wave (km/s) = 6.21275 6.57540 6.39665
#
# Compressibility (1/GPa) = 0.02266792
#
# Stress axis : x y z
#
# Youngs Moduli (GPa) = 53.36402 52.35732 89.94158
#
# Poissons Ratio (x) = 0.45536 0.42122
# Poissons Ratio (y) = 0.46412 -0.02122
# Poissons Ratio (z) = 0.24992 -0.01235
#
# Static dielectric constant tensor:
#      x y z
#    x 3.857300 0.000000 0.058330 
#    y 0.000000 3.332520 0.000000 
#    z 0.058330 0.000000 3.635890 
# 
# 
# High freq. dielectric constant tensor:
#      x y z
#    x 1.783370 0.000000 -0.010270 
#    y 0.000000 1.752330 0.000000 
#    z -0.010270 0.000000 1.789270 
# 
# From -- ./inp_files/7591.got.cif
#   From: 2010.03.12/outbox.cif.g09.slc.cpg/sg5_4_cif.got.tgz:7591.got - 2010.03.31 09:47:26.
