data_PCOD8048784
_publ_section_title
;
Structure prediction by ZEFSAII (Michael W. Deem and Ramdas Pophale) SiO2 
 PCOD8048784
Probable space group: C 2
;
_chemical_formula_sum "Si O2"
_cell_formula_units_Z 28
_cell_length_a 8.827048
_cell_length_b 14.961900
_cell_length_c 19.216521
_cell_angle_alpha 90.000000
_cell_angle_beta 33.064723
_cell_angle_gamma 90.000000
_cell_volume 1384.650853
_symmetry_space_group_name_H-M "C 2"
_symmetry_group_IT_number 5
_symmetry_cell_setting 'monoclinic'
loop_
_space_group_symop_operation_xyz
x,y,z
-x,y,-z
1/2+x,1/2+y,z
1/2-x,1/2+y,-z
loop_
_atom_site_type_symbol
_atom_site_label
_atom_site_fract_x
_atom_site_fract_y
_atom_site_fract_z
Si Si1 0.230998 0.239660 0.357367
Si Si2 0.735350 0.802007 0.783410
Si Si3 0.702278 0.377536 0.774766
Si Si4 0.637891 0.222104 0.020254
Si Si5 0.258620 0.925265 0.347736
Si Si6 0.720689 0.474204 0.141884
Si Si7 0.821311 0.588397 0.224365
O O1 0.526854 0.233204 0.282880
O O2 0.196053 0.337648 0.338102
O O3 0.168013 0.169741 0.320244
O O4 0.000000 0.217576 0.500000
O O5 0.813398 0.845335 0.678278
O O6 0.702421 0.878967 0.853506
O O7 0.459996 0.742729 0.885018
O O8 0.507718 0.308981 0.890931
O O9 0.520308 0.464772 0.823464
O O10 0.970667 0.401363 0.713897
O O11 0.601624 0.134299 0.083920
O O12 0.500000 0.200081 0.000000
O O13 0.000000 0.942570 0.500000
O O14 0.364964 0.012357 0.265302
O O15 0.633388 0.546253 0.234662
O O16 0.000000 0.511608 0.000000
#
# Coordination Sequence:
#
# PCOD8048784 Si02
#       7
#     4   4   4   4   4   4   4
#     4  10  21  41  61  85 123 162 205 243 300 358
#     4  10  21  37  66  91 113 162 201 254 293 358
#     4  10  21  36  67  90 111 161 201 256 299 354
#     4  11  20  40  61  90 126 149 204 249 313 360
#     4  11  22  42  63  90 121 157 211 250 295 358
#     4  10  19  38  59  88 121 149 194 245 305 356
#     4  10  24  38  59  85 126 162 187 254 310 356
#
# _framework density 20.221703000000002
#
# number of rings (size 3 to 8) (size 9 to 14) (size 15 to 20)
#    0.000    1.714    2.857    1.714    0.000    0.000 
#    7.714    0.000    3.143    0.000    0.000    0.000 
#    0.000    0.000    0.000    0.000    0.000    0.000 
#
# Total GULP energy -173473.003611 kJ/mol
# GULP energy per Si atom -12390.928829 kJ/mol
# Density = 2.017568 g / cm^3
# Si number density = 20.221703 Si / 1000 Ang^3
#
#
#
# Elastic Constant Matrix: (Units=GPa)
#
#
# Indices 1 2 3 4 5 6 
#
# 1 124.2186 42.3700 54.1870 -0.0639 -1.4766 0.0050
# 2 42.3700 83.7358 49.2999 -0.1237 2.3590 0.0096
# 3 54.1870 49.2999 109.8793 -0.0557 9.6458 0.0048
# 4 -0.0639 -0.1237 -0.0557 8.9720 0.0704 6.8884
# 5 -1.4766 2.3590 9.6458 0.0704 31.9327 -0.0171
# 6 0.0050 0.0096 0.0048 6.8884 -0.0171 34.0305
#
#
#
# Elastic Compliance Matrix: (Units=1/GPa)
#
#
# Indices 1 2 3 4 5 6 
#
# 1 0.010968 -0.003151 -0.004171 -0.000009 0.002000 0.000003
# 2 -0.003151 0.017168 -0.006189 0.000207 0.000455 -0.000045
# 3 -0.004171 -0.006189 0.014290 0.000008 -0.004052 -0.000003
# 4 -0.000009 0.000207 0.000008 0.131974 -0.000324 -0.026714
# 5 0.002000 0.000455 -0.004052 -0.000324 0.032600 0.000082
# 6 0.000003 -0.000045 -0.000003 -0.026714 0.000082 0.034793
#
#
# Mechanical properties :
#
#
# Convention : Reuss Voigt Hill
#
# Bulk Modulus (GPa) = 64.91182 67.72750 66.31966
# Shear Modulus (GPa) = 18.25163 26.45216 22.35189
#
# Velocity S-wave (km/s) = 3.00755 3.62070 3.32827
# Velocity P-wave (km/s) = 6.65058 7.14454 6.90198
#
# Compressibility (1/GPa) = 0.01540551
#
# Stress axis : x y z
#
# Youngs Moduli (GPa) = 91.17285 58.24902 69.97752
#
# Poissons Ratio (x) = 0.18352 0.29187
# Poissons Ratio (y) = 0.28724 0.43308
# Poissons Ratio (z) = 0.38028 0.36049
#
# Static dielectric constant tensor:
#      x y z
#    x 3.976830 -0.000140 0.302800 
#    y -0.000140 3.729080 0.000010 
#    z 0.302800 0.000010 3.745570 
# 
# 
# High freq. dielectric constant tensor:
#      x y z
#    x 1.800190 0.000010 0.022340 
#    y 0.000010 1.783690 0.000000 
#    z 0.022340 0.000000 1.777320 
# 
# From -- ./inp_files/36200.got.cif
#   From: 2010.03.12/outbox.cif.g09.slc.cpg/sg5_19_cif.got.tgz:36200.got - 2010.03.31 09:47:26.
