data_PCOD8048360
_publ_section_title
;
Structure prediction by ZEFSAII (Michael W. Deem and Ramdas Pophale) SiO2 
 PCOD8048360
Probable space group: C 2
;
_chemical_formula_sum "Si O2"
_cell_formula_units_Z 32
_cell_length_a 10.844629
_cell_length_b 20.635632
_cell_length_c 8.788393
_cell_angle_alpha 90.000000
_cell_angle_beta 124.702427
_cell_angle_gamma 90.000000
_cell_volume 1616.877500
_symmetry_space_group_name_H-M "C 2"
_symmetry_group_IT_number 5
_symmetry_cell_setting 'monoclinic'
loop_
_space_group_symop_operation_xyz
x,y,z
-x,y,-z
1/2+x,1/2+y,z
1/2-x,1/2+y,-z
loop_
_atom_site_type_symbol
_atom_site_label
_atom_site_fract_x
_atom_site_fract_y
_atom_site_fract_z
Si Si1 0.621406 0.444590 0.706504
Si Si2 0.350446 0.840670 0.806915
Si Si3 0.382865 0.137364 0.041439
Si Si4 0.369426 0.903898 0.518877
Si Si5 0.431249 0.052487 0.620336
Si Si6 0.167073 0.090171 0.647572
Si Si7 0.586182 0.251691 0.706548
Si Si8 0.952295 0.866619 0.800741
O O1 0.500000 0.415581 0.500000
O O2 0.779997 0.409293 0.805654
O O3 0.646159 0.518825 0.696871
O O4 0.555081 0.428141 0.825735
O O5 0.385702 0.848070 0.654932
O O6 0.240576 0.781781 0.759481
O O7 0.500000 0.825369 0.000000
O O8 0.439326 0.071261 0.166343
O O9 0.365561 0.193392 0.151937
O O10 0.500000 0.161697 0.000000
O O11 0.230574 0.127834 0.839098
O O12 0.500000 0.886091 0.500000
O O13 0.215222 0.893921 0.320918
O O14 0.388160 0.976898 0.596863
O O15 0.500000 0.070545 0.500000
O O16 0.278684 0.090458 0.575643
O O17 0.000000 0.119169 0.500000
O O18 0.500000 0.222639 0.500000
O O19 0.479604 0.305229 0.710175
O O20 0.000000 0.843530 0.000000
#
# Coordination Sequence:
#
# PCOD8048360 Si02
#       8
#     4   4   4   4   4   4   4   4
#     4  10  18  36  60  85 127 167 202 244 314 390
#     4  11  22  36  61  93 120 162 204 258 320 364
#     4  10  23  41  66  93 120 171 220 256 308 382
#     4  11  22  36  57  97 134 154 196 268 322 370
#     4  10  21  38  62  94 133 168 210 251 318 384
#     4  10  20  38  65  93 127 165 210 267 318 370
#     4  11  22  45  67  80 119 168 221 257 300 385
#     4  11  22  37  60  91 122 166 208 252 316 381
#
# _framework density 19.791232999999998
#
# number of rings (size 3 to 8) (size 9 to 14) (size 15 to 20)
#    0.000    1.500    3.750    2.250    5.250    1.000 
#    0.000    4.375    0.000    0.000    0.000    0.000 
#    0.000    0.000    0.000    0.000    0.000    0.000 
#
# Total GULP energy -198247.966859 kJ/mol
# GULP energy per Si atom -12390.497929 kJ/mol
# Density = 1.974619 g / cm^3
# Si number density = 19.791233 Si / 1000 Ang^3
#
#
#
# Elastic Constant Matrix: (Units=GPa)
#
#
# Indices 1 2 3 4 5 6 
#
# 1 135.0870 39.9890 71.5725 0.0000 -1.2607 0.0000
# 2 39.9890 81.9710 56.0663 0.0000 1.7844 0.0000
# 3 71.5725 56.0663 152.6511 0.0000 6.2683 0.0000
# 4 0.0000 0.0000 0.0000 31.0998 0.0000 -8.7528
# 5 -1.2607 1.7844 6.2683 0.0000 39.7618 0.0000
# 6 0.0000 0.0000 0.0000 -8.7528 0.0000 15.8378
#
#
#
# Elastic Compliance Matrix: (Units=1/GPa)
#
#
# Indices 1 2 3 4 5 6 
#
# 1 0.010199 -0.002268 -0.003992 0.000000 0.001055 0.000000
# 2 -0.002268 0.016798 -0.005106 0.000000 -0.000021 0.000000
# 3 -0.003992 -0.005106 0.010361 0.000000 -0.001531 0.000000
# 4 0.000000 0.000000 0.000000 0.038077 0.000000 0.021043
# 5 0.001055 -0.000021 -0.001531 0.000000 0.025425 0.000000
# 6 0.000000 0.000000 0.000000 0.021043 0.000000 0.074770
#
#
# Mechanical properties :
#
#
# Convention : Reuss Voigt Hill
#
# Bulk Modulus (GPa) = 68.36819 78.32941 73.34880
# Shear Modulus (GPa) = 24.60176 30.81199 27.70687
#
# Velocity S-wave (km/s) = 3.52954 3.94997 3.74566
# Velocity P-wave (km/s) = 7.15750 7.77604 7.47317
#
# Compressibility (1/GPa) = 0.01462668
#
# Stress axis : x y z
#
# Youngs Moduli (GPa) = 98.04841 59.52969 96.51759
#
# Poissons Ratio (x) = 0.13500 0.38533
# Poissons Ratio (y) = 0.22236 0.49278
# Poissons Ratio (z) = 0.39144 0.30393
#
# Static dielectric constant tensor:
#      x y z
#    x 3.960830 0.000000 0.008770 
#    y 0.000000 3.354570 0.000000 
#    z 0.008770 0.000000 3.810600 
# 
# 
# High freq. dielectric constant tensor:
#      x y z
#    x 1.783380 0.000000 -0.003550 
#    y 0.000000 1.750880 0.000000 
#    z -0.003550 0.000000 1.772930 
# 
# From -- ./inp_files/21988.got.cif
#   From: 2010.03.12/outbox.cif.g09.slc.cpg/sg5_11_cif.got.tgz:21988.got - 2010.03.31 09:47:26.
