data_PCOD8048313
_publ_section_title
;
Structure prediction by ZEFSAII (Michael W. Deem and Ramdas Pophale) SiO2 
 PCOD8048313
Probable space group: C 2
;
_chemical_formula_sum "Si O2"
_cell_formula_units_Z 24
_cell_length_a 9.387030
_cell_length_b 17.159137
_cell_length_c 8.986130
_cell_angle_alpha 90.000000
_cell_angle_beta 66.972673
_cell_angle_gamma 90.000000
_cell_volume 1332.092691
_symmetry_space_group_name_H-M "C 2"
_symmetry_group_IT_number 5
_symmetry_cell_setting 'monoclinic'
loop_
_space_group_symop_operation_xyz
x,y,z
-x,y,-z
1/2+x,1/2+y,z
1/2-x,1/2+y,-z
loop_
_atom_site_type_symbol
_atom_site_label
_atom_site_fract_x
_atom_site_fract_y
_atom_site_fract_z
Si Si1 0.000000 0.272560 0.000000
Si Si2 0.934664 0.383325 0.766876
Si Si3 0.276121 0.178756 0.748028
Si Si4 0.500000 0.293161 0.500000
Si Si5 0.261513 0.889116 0.543701
Si Si6 0.330381 0.058148 0.496716
Si Si7 0.031995 0.558456 0.157134
O O1 0.120326 0.217958 0.866296
O O2 0.910761 0.325905 0.916240
O O3 0.810612 0.362360 0.689475
O O4 0.908588 0.471243 0.834097
O O5 0.106199 0.371120 0.631444
O O6 0.405580 0.242172 0.656539
O O7 0.243043 0.130329 0.609176
O O8 0.336239 0.119368 0.848448
O O9 0.607232 0.345697 0.560067
O O10 0.226105 0.981553 0.558375
O O11 0.500000 0.040902 0.500000
O O12 0.369150 0.076140 0.308648
O O13 0.000000 0.571894 0.000000
#
# Coordination Sequence:
#
# PCOD8048313 Si02
#       7
#     2   4   4   2   4   4   4
#     4  12  24  38  60  94 132 158 202 268 312 350
#     4  10  19  38  64  89 123 165 214 238 312 375
#     4  11  22  40  57  90 128 163 196 263 310 358
#     4  12  22  36  66  92 126 150 216 260 310 344
#     4  10  19  37  65  90 115 171 208 250 293 386
#     4   9  16  37  64  82 114 169 206 236 305 378
#     4  10  18  34  67  89 115 164 213 242 295 384
#
# _framework density 18.016763000000001
#
# number of rings (size 3 to 8) (size 9 to 14) (size 15 to 20)
#    0.000    1.667   10.000    0.000    0.000    1.333 
#    0.000    5.000    0.000    0.000    0.000    0.000 
#    0.000    0.000    0.000    0.000    0.000    0.000 
#
# Total GULP energy -148776.317890 kJ/mol
# GULP energy per Si atom -12398.026491 kJ/mol
# Density = 1.797576 g / cm^3
# Si number density = 18.016763 Si / 1000 Ang^3
#
#
#
# Elastic Constant Matrix: (Units=GPa)
#
#
# Indices 1 2 3 4 5 6 
#
# 1 84.5411 59.7386 46.5142 0.0000 4.2382 0.0000
# 2 59.7386 128.2043 60.2545 0.0000 -1.1073 0.0000
# 3 46.5142 60.2545 130.1239 0.0000 13.2962 0.0000
# 4 0.0000 0.0000 0.0000 28.7843 0.0000 -4.5956
# 5 4.2382 -1.1073 13.2962 0.0000 30.7497 0.0000
# 6 0.0000 0.0000 0.0000 -4.5956 0.0000 20.4897
#
#
#
# Elastic Compliance Matrix: (Units=1/GPa)
#
#
# Indices 1 2 3 4 5 6 
#
# 1 0.018800 -0.007266 -0.003206 0.000000 -0.001467 0.000000
# 2 -0.007266 0.012960 -0.003718 0.000000 0.003076 0.000000
# 3 -0.003206 -0.003718 0.011007 0.000000 -0.004452 0.000000
# 4 0.000000 0.000000 0.000000 0.036031 0.000000 0.008081
# 5 -0.001467 0.003076 -0.004452 0.000000 0.034758 0.000000
# 6 0.000000 0.000000 0.000000 0.008081 0.000000 0.050618
#
#
# Mechanical properties :
#
#
# Convention : Reuss Voigt Hill
#
# Bulk Modulus (GPa) = 69.50495 75.09823 72.30159
# Shear Modulus (GPa) = 25.33551 27.76219 26.54885
#
# Velocity S-wave (km/s) = 3.75403 3.92970 3.84287
# Velocity P-wave (km/s) = 7.57971 7.89702 7.73999
#
# Compressibility (1/GPa) = 0.01438747
#
# Stress axis : x y z
#
# Youngs Moduli (GPa) = 53.19012 77.16129 90.84733
#
# Poissons Ratio (x) = 0.56068 0.29125
# Poissons Ratio (y) = 0.38649 0.33777
# Poissons Ratio (z) = 0.17052 0.28689
#
# Static dielectric constant tensor:
#      x y z
#    x 2.923460 0.000000 0.099820 
#    y 0.000000 3.486340 0.000000 
#    z 0.099820 0.000000 3.695470 
# 
# 
# High freq. dielectric constant tensor:
#      x y z
#    x 1.654470 0.000000 0.011710 
#    y 0.000000 1.711260 0.000000 
#    z 0.011710 0.000000 1.705870 
# 
# From -- ./inp_files/15844.got.cif
#   From: 2010.03.12/outbox.cif.g09.slc.cpg/sg5_8_cif.got.tgz:15844.got - 2010.03.31 09:47:26.
