data_PCOD8048588
_publ_section_title
;
Structure prediction by ZEFSAII (Michael W. Deem and Ramdas Pophale) SiO2 
 PCOD8048588
Probable space group: C 2
;
_chemical_formula_sum "Si O2"
_cell_formula_units_Z 32
_cell_length_a 27.065471
_cell_length_b 8.604805
_cell_length_c 21.299298
_cell_angle_alpha 90.000000
_cell_angle_beta 18.653197
_cell_angle_gamma 90.000000
_cell_volume 1586.549111
_symmetry_space_group_name_H-M "C 2"
_symmetry_group_IT_number 5
_symmetry_cell_setting 'monoclinic'
loop_
_space_group_symop_operation_xyz
x,y,z
-x,y,-z
1/2+x,1/2+y,z
1/2-x,1/2+y,-z
loop_
_atom_site_type_symbol
_atom_site_label
_atom_site_fract_x
_atom_site_fract_y
_atom_site_fract_z
Si Si1 0.236025 0.679120 0.967607
Si Si2 0.787404 0.948329 0.489580
Si Si3 0.946649 0.967724 0.632677
Si Si4 0.178811 0.731200 0.397051
Si Si5 0.281047 0.726341 0.142333
Si Si6 0.103536 0.609763 0.612899
Si Si7 0.443588 0.911154 0.131026
Si Si8 0.366738 0.528270 0.928461
O O1 0.364321 0.611602 0.765905
O O2 0.292087 0.652132 0.971057
O O3 0.072473 0.594482 0.151677
O O4 0.213183 0.862353 0.986045
O O5 0.814441 0.765669 0.461587
O O6 0.668274 0.008360 0.687522
O O7 0.707351 0.974018 0.517988
O O8 0.949939 0.032939 0.303211
O O9 0.835885 0.819909 0.760476
O O10 0.000000 0.027961 0.500000
O O11 0.087864 0.898141 0.504263
O O12 0.191629 0.660354 0.311664
O O13 0.101128 0.609297 0.539242
O O14 0.350373 0.763698 0.215825
O O15 0.413789 0.847553 0.000816
O O16 0.340153 0.579104 0.032262
O O17 0.500000 0.006596 0.000000
#
# Coordination Sequence:
#
# PCOD8048588 Si02
#       8
#     4   4   4   4   4   4   4   4
#     4  11  22  36  54  80 113 146 182 223 271 326
#     4  10  20  34  54  80 109 138 177 223 271 319
#     4  10  20  37  58  79 107 142 181 227 275 324
#     4   9  18  34  56  79 105 136 178 224 268 320
#     4  10  19  34  58  81 103 140 185 226 271 323
#     4  10  20  35  55  80 108 140 178 222 269 323
#     4   9  17  31  54  80 103 134 178 223 266 319
#     4  11  22  35  55  81 112 146 183 226 271 324
#
# _framework density 20.169561000000002
#
# number of rings (size 3 to 8) (size 9 to 14) (size 15 to 20)
#    0.000    2.000    0.000    6.000    0.000    1.000 
#    0.000    3.125    0.000    7.500    0.000    7.875 
#    0.000    0.000    0.000    0.000    0.000    0.000 
#
# Total GULP energy -198304.243135 kJ/mol
# GULP energy per Si atom -12394.015196 kJ/mol
# Density = 2.012365 g / cm^3
# Si number density = 20.169561 Si / 1000 Ang^3
#
#
#
# Elastic Constant Matrix: (Units=GPa)
#
#
# Indices 1 2 3 4 5 6 
#
# 1 113.4238 40.9210 53.4382 -0.0009 19.2364 0.0004
# 2 40.9210 45.3153 41.0513 -0.0012 13.1972 0.0002
# 3 53.4382 41.0513 127.6884 -0.0012 21.4919 0.0007
# 4 -0.0009 -0.0012 -0.0012 28.2907 0.0007 1.9705
# 5 19.2364 13.1972 21.4919 0.0007 42.2694 -0.0004
# 6 0.0004 0.0002 0.0007 1.9705 -0.0004 30.3525
#
#
#
# Elastic Compliance Matrix: (Units=1/GPa)
#
#
# Indices 1 2 3 4 5 6 
#
# 1 0.013760 -0.009769 -0.002272 0.000000 -0.002057 0.000000
# 2 -0.009769 0.039095 -0.007846 0.000001 -0.003771 0.000000
# 3 -0.002272 -0.007846 0.011722 0.000000 -0.002476 0.000000
# 4 0.000000 0.000001 0.000000 0.035508 -0.000001 -0.002305
# 5 -0.002057 -0.003771 -0.002476 -0.000001 0.027030 0.000001
# 6 0.000000 0.000000 0.000000 -0.002305 0.000001 0.033096
#
#
# Mechanical properties :
#
#
# Convention : Reuss Voigt Hill
#
# Bulk Modulus (GPa) = 40.31642 61.91650 51.11646
# Shear Modulus (GPa) = 24.00951 30.25032 27.12992
#
# Velocity S-wave (km/s) = 3.45394 3.87693 3.67153
# Velocity P-wave (km/s) = 5.99486 7.12779 6.58573
#
# Compressibility (1/GPa) = 0.02480379
#
# Stress axis : x y z
#
# Youngs Moduli (GPa) = 72.67441 25.57892 85.31282
#
# Poissons Ratio (x) = 0.24987 0.19382
# Poissons Ratio (y) = 0.70992 0.66935
# Poissons Ratio (z) = 0.16511 0.20069
#
# Static dielectric constant tensor:
#      x y z
#    x 3.904670 0.000000 0.127470 
#    y 0.000000 3.076820 0.000000 
#    z 0.127470 0.000000 4.130740 
# 
# 
# High freq. dielectric constant tensor:
#      x y z
#    x 1.807640 0.000000 -0.003860 
#    y 0.000000 1.722840 0.000000 
#    z -0.003860 0.000000 1.813280 
# 
# From -- ./inp_files/67557.got.cif
#   From: 2010.03.12/outbox.cif.g09.slc.cpg/sg5_34_cif.got.tgz:67557.got - 2010.03.31 09:47:26.
