data_PCOD8048262
_publ_section_title
;
Structure prediction by ZEFSAII (Michael W. Deem and Ramdas Pophale) SiO2 
 PCOD8048262
Probable space group: C 2
;
_chemical_formula_sum "Si O2"
_cell_formula_units_Z 26
_cell_length_a 13.656566
_cell_length_b 10.190271
_cell_length_c 14.627795
_cell_angle_alpha 90.000000
_cell_angle_beta 138.085157
_cell_angle_gamma 90.000000
_cell_volume 1359.875197
_symmetry_space_group_name_H-M "C 2"
_symmetry_group_IT_number 5
_symmetry_cell_setting 'monoclinic'
loop_
_space_group_symop_operation_xyz
x,y,z
-x,y,-z
1/2+x,1/2+y,z
1/2-x,1/2+y,-z
loop_
_atom_site_type_symbol
_atom_site_label
_atom_site_fract_x
_atom_site_fract_y
_atom_site_fract_z
Si Si1 0.732319 0.080880 0.316355
Si Si2 0.206026 0.122494 0.839992
Si Si3 0.701403 0.860670 0.582391
Si Si4 0.997141 0.871692 0.299372
Si Si5 0.085227 0.607698 0.844024
Si Si6 0.000000 0.889146 0.500000
Si Si7 0.108679 0.400308 0.714870
O O1 0.701565 0.110677 0.188716
O O2 0.803917 0.203348 0.418758
O O3 0.574806 0.045150 0.248973
O O4 0.850565 0.968559 0.410603
O O5 0.132270 0.266422 0.789025
O O6 0.313215 0.098532 0.997989
O O7 0.083951 0.010068 0.758958
O O8 0.841817 0.909050 0.624177
O O9 0.707424 0.910662 0.691874
O O10 0.560338 0.912991 0.431571
O O11 0.923685 0.762053 0.185027
O O12 0.992262 0.809216 0.399405
O O13 0.154807 0.522749 0.810431
#
# Coordination Sequence:
#
# PCOD8048262 Si02
#       7
#     4   4   4   4   4   2   4
#     4   9  18  33  57  77 102 139 181 218 248 307
#     4  10  20  37  54  75 105 144 179 209 252 314
#     4   9  18  35  55  80 101 135 179 216 263 303
#     4  10  21  35  56  77 107 137 170 219 264 310
#     4  11  21  34  52  81 109 139 172 212 263 312
#     4  10  18  34  54  82 106 132 172 220 272 302
#     4  10  20  34  57  78 105 136 176 221 254 308
#
# _framework density 19.119402000000001
#
# number of rings (size 3 to 8) (size 9 to 14) (size 15 to 20)
#    0.000    2.154    0.000    5.077    0.000    2.462 
#    0.000    5.385    0.000    0.000    0.000    0.000 
#    0.000    0.000    0.000    0.000    0.000    0.000 
#
# Total GULP energy -161146.547160 kJ/mol
# GULP energy per Si atom -12395.888243 kJ/mol
# Density = 1.907588 g / cm^3
# Si number density = 19.119402 Si / 1000 Ang^3
#
#
#
# Elastic Constant Matrix: (Units=GPa)
#
#
# Indices 1 2 3 4 5 6 
#
# 1 99.8095 21.5422 19.9338 0.0000 -2.3044 0.0000
# 2 21.5422 55.4350 10.7068 0.0000 -1.5145 0.0000
# 3 19.9338 10.7068 82.6444 0.0000 -15.7756 0.0000
# 4 0.0000 0.0000 0.0000 18.6063 0.0000 -4.6574
# 5 -2.3044 -1.5145 -15.7756 0.0000 21.9425 0.0000
# 6 0.0000 0.0000 0.0000 -4.6574 0.0000 28.8137
#
#
#
# Elastic Compliance Matrix: (Units=1/GPa)
#
#
# Indices 1 2 3 4 5 6 
#
# 1 0.011330 -0.003967 -0.002369 0.000000 -0.000787 0.000000
# 2 -0.003967 0.019896 -0.001667 0.000000 -0.000242 0.000000
# 3 -0.002369 -0.001667 0.014857 0.000000 0.010318 0.000000
# 4 0.000000 0.000000 0.000000 0.056012 0.000000 0.009054
# 5 -0.000787 -0.000242 0.010318 0.000000 0.052892 0.000000
# 6 0.000000 0.000000 0.000000 0.009054 0.000000 0.036169
#
#
# Mechanical properties :
#
#
# Convention : Reuss Voigt Hill
#
# Bulk Modulus (GPa) = 33.24782 38.02829 35.63805
# Shear Modulus (GPa) = 23.02155 26.25290 24.63722
#
# Velocity S-wave (km/s) = 3.47377 3.70956 3.59360
# Velocity P-wave (km/s) = 5.78937 6.18715 5.99156
#
# Compressibility (1/GPa) = 0.03007716
#
# Stress axis : x y z
#
# Youngs Moduli (GPa) = 88.25907 50.26126 67.30881
#
# Poissons Ratio (x) = 0.19938 0.15947
# Poissons Ratio (y) = 0.35012 0.11220
# Poissons Ratio (z) = 0.20910 0.08378
#
# Static dielectric constant tensor:
#      x y z
#    x 3.701740 0.000000 -0.194620 
#    y 0.000000 3.248160 0.000000 
#    z -0.194620 0.000000 3.518300 
# 
# 
# High freq. dielectric constant tensor:
#      x y z
#    x 1.751490 0.000000 -0.012930 
#    y 0.000000 1.725190 0.000000 
#    z -0.012930 0.000000 1.745630 
# 
# From -- ./inp_files/23353.got.cif
#   From: 2010.03.12/outbox.cif.g09.slc.cpg/sg5_12_cif.got.tgz:23353.got - 2010.03.31 09:47:26.
