data_PCOD8048384
_publ_section_title
;
Structure prediction by ZEFSAII (Michael W. Deem and Ramdas Pophale) SiO2 
 PCOD8048384
Probable space group: C 2
;
_chemical_formula_sum "Si O2"
_cell_formula_units_Z 26
_cell_length_a 22.915423
_cell_length_b 8.337679
_cell_length_c 12.202685
_cell_angle_alpha 90.000000
_cell_angle_beta 150.099281
_cell_angle_gamma 90.000000
_cell_volume 1162.230876
_symmetry_space_group_name_H-M "C 2"
_symmetry_group_IT_number 5
_symmetry_cell_setting 'monoclinic'
loop_
_space_group_symop_operation_xyz
x,y,z
-x,y,-z
1/2+x,1/2+y,z
1/2-x,1/2+y,-z
loop_
_atom_site_type_symbol
_atom_site_label
_atom_site_fract_x
_atom_site_fract_y
_atom_site_fract_z
Si Si1 0.500000 0.327770 0.500000
Si Si2 0.723639 0.299260 0.115102
Si Si3 0.429842 0.746855 0.078470
Si Si4 0.249331 0.731694 0.600171
Si Si5 0.668619 0.870495 0.488091
Si Si6 0.981436 0.914616 0.709378
Si Si7 0.236898 0.646805 0.920021
O O1 0.497115 0.439134 0.603393
O O2 0.611261 0.211145 0.679646
O O3 0.799541 0.278231 0.347625
O O4 0.751005 0.465394 0.098008
O O5 0.585370 0.296068 0.919926
O O6 0.754459 0.156812 0.080382
O O7 0.527712 0.885366 0.249593
O O8 0.504253 0.581794 0.203856
O O9 0.365676 0.771441 0.858220
O O10 0.335773 0.755574 0.022628
O O11 0.274995 0.764424 0.515705
O O12 0.220842 0.547032 0.574531
O O13 0.143509 0.842060 0.466784
#
# Coordination Sequence:
#
# PCOD8048384 Si02
#       7
#     2   4   4   4   4   4   4
#     4  10  18  36  72 106 128 188 218 282 342 414
#     4  10  23  43  66 106 131 184 219 286 340 409
#     4  11  24  46  68 103 136 181 226 293 332 412
#     4  12  25  50  66 102 139 186 228 291 327 415
#     4  12  26  46  72  97 143 181 234 277 350 397
#     4  10  21  43  73  93 146 178 225 285 347 390
#     4  10  21  41  70  99 143 166 232 280 345 402
#
# _framework density 22.37077
#
# number of rings (size 3 to 8) (size 9 to 14) (size 15 to 20)
#    0.000    1.231    4.615    1.385    0.000    8.615 
#   11.077    0.000    0.000    0.000    0.000    0.000 
#    0.000    0.000    0.000    0.000    0.000    0.000 
#
# Total GULP energy -161228.503029 kJ/mol
# GULP energy per Si atom -12402.192541 kJ/mol
# Density = 2.231985 g / cm^3
# Si number density = 22.370770 Si / 1000 Ang^3
#
#
#
# Elastic Constant Matrix: (Units=GPa)
#
#
# Indices 1 2 3 4 5 6 
#
# 1 110.9312 21.4234 67.3192 0.0000 -8.3731 0.0000
# 2 21.4234 26.6776 32.3274 0.0000 -2.5513 0.0000
# 3 67.3192 32.3274 171.5309 0.0000 -10.3591 0.0000
# 4 0.0000 0.0000 0.0000 27.3054 0.0000 -1.6829
# 5 -8.3731 -2.5513 -10.3591 0.0000 44.0683 0.0000
# 6 0.0000 0.0000 0.0000 -1.6829 0.0000 33.5821
#
#
#
# Elastic Compliance Matrix: (Units=1/GPa)
#
#
# Indices 1 2 3 4 5 6 
#
# 1 0.012434 -0.005243 -0.003822 0.000000 0.001161 0.000000
# 2 -0.005243 0.050809 -0.007507 0.000000 0.000181 0.000000
# 3 -0.003822 -0.007507 0.008799 0.000000 0.000908 0.000000
# 4 0.000000 0.000000 0.000000 0.036736 0.000000 0.001841
# 5 0.001161 0.000181 0.000908 0.000000 0.023136 0.000000
# 6 0.000000 0.000000 0.000000 0.001841 0.000000 0.029870
#
#
# Mechanical properties :
#
#
# Convention : Reuss Voigt Hill
#
# Bulk Modulus (GPa) = 25.70767 61.25328 43.48048
# Shear Modulus (GPa) = 24.05061 33.52915 28.78988
#
# Velocity S-wave (km/s) = 3.28241 3.87562 3.59129
# Velocity P-wave (km/s) = 5.08746 6.88968 6.05599
#
# Compressibility (1/GPa) = 0.03889889
#
# Stress axis : x y z
#
# Youngs Moduli (GPa) = 80.42519 19.68148 113.64522
#
# Poissons Ratio (x) = 0.10319 0.43431
# Poissons Ratio (y) = 0.42168 0.85314
# Poissons Ratio (z) = 0.30735 0.14775
#
# Static dielectric constant tensor:
#      x y z
#    x 4.242630 0.000000 0.042870 
#    y 0.000000 3.697080 0.000000 
#    z 0.042870 0.000000 4.451700 
# 
# 
# High freq. dielectric constant tensor:
#      x y z
#    x 1.889770 0.000000 0.006020 
#    y 0.000000 1.858590 0.000000 
#    z 0.006020 0.000000 1.901940 
# 
# From -- ./inp_files/47373.got.cif
#   From: 2010.03.12/outbox.cif.g09.slc.cpg/sg5_24_cif.got.tgz:47373.got - 2010.03.31 09:47:26.
