data_PCOD8048028
_publ_section_title
;
Structure prediction by ZEFSAII (Michael W. Deem and Ramdas Pophale) SiO2 
 PCOD8048028
Probable space group: P 21
;
_chemical_formula_sum "Si O2"
_cell_formula_units_Z 16
_cell_length_a 15.000000
_cell_length_b 9.000000
_cell_length_c 15.000000
_cell_angle_alpha 90.000000
_cell_angle_beta 20.000000
_cell_angle_gamma 90.000000
_cell_volume 692.590790
_symmetry_space_group_name_H-M "P 21"
_symmetry_group_IT_number 4
_symmetry_cell_setting 'monoclinic'
loop_
_space_group_symop_operation_xyz
x,y,z
-x,1/2+y,-z
loop_
_atom_site_type_symbol
_atom_site_label
_atom_site_fract_x
_atom_site_fract_y
_atom_site_fract_z
Si Si1 0.243708 0.490580 0.917972
Si Si2 0.546865 0.696118 0.342212
Si Si3 0.683697 0.963668 0.786057
Si Si4 0.461362 0.995231 0.804302
Si Si5 0.183446 0.065348 0.564221
Si Si6 0.086577 0.574593 0.881305
Si Si7 0.912760 0.864599 0.272142
Si Si8 0.221792 0.112773 0.321491
O O1 0.332086 0.356507 0.772612
O O2 0.508802 0.549808 0.713283
O O3 0.141628 0.594771 0.933878
O O4 0.018342 0.441730 0.203766
O O5 0.488234 0.650346 0.294348
O O6 0.277553 0.692450 0.651669
O O7 0.774908 0.591647 0.166104
O O8 0.732011 0.785853 0.747456
O O9 0.527870 0.011031 0.844776
O O10 0.962322 0.047573 0.518339
O O11 0.486227 0.019816 0.050108
O O12 0.654611 0.878360 0.576380
O O13 0.159339 0.949377 0.081876
O O14 0.043268 0.189894 0.759210
O O15 0.142580 0.093829 0.499050
O O16 0.145865 0.417053 0.774190
#
# Coordination Sequence:
#
# PCOD8048028 Si02
#       8
#     2   2   2   2   2   2   2   2
#     4  12  26  40  68  99 139 182 226 291 349 412
#     4  10  23  44  61  99 135 172 231 288 338 419
#     4  12  26  47  76 111 143 194 238 314 358 452
#     4  10  21  42  73  91 129 178 228 274 349 409
#     4  12  26  45  68 100 138 184 223 284 356 418
#     4  10  23  40  66  96 131 181 225 283 334 403
#     4  10  21  41  69  96 127 172 231 273 321 419
#     4  12  28  47  75 108 150 183 254 295 379 436
#
# _framework density 23.101664
#
# number of rings (size 3 to 8) (size 9 to 14) (size 15 to 20)
#    0.000    1.000    1.250    4.500    5.250    3.000 
#    0.000    0.000    0.000    0.000    0.000    0.000 
#    0.000    0.000    0.000    0.000    0.000    0.000 
#
# Total GULP energy -198219.097375 kJ/mol
# GULP energy per Si atom -12388.693586 kJ/mol
# Density = 2.304908 g / cm^3
# Si number density = 23.101664 Si / 1000 Ang^3
#
#
#
# Elastic Constant Matrix: (Units=GPa)
#
#
# Indices 1 2 3 4 5 6 
#
# 1 96.8704 28.0401 52.2431 0.0000 1.2319 0.0000
# 2 28.0401 62.0822 23.1599 0.0000 6.6891 0.0000
# 3 52.2431 23.1599 149.0306 0.0000 2.0205 0.0000
# 4 0.0000 0.0000 0.0000 33.4557 0.0000 -1.7305
# 5 1.2319 6.6891 2.0205 0.0000 44.5972 0.0000
# 6 0.0000 0.0000 0.0000 -1.7305 0.0000 14.3100
#
#
#
# Elastic Compliance Matrix: (Units=1/GPa)
#
#
# Indices 1 2 3 4 5 6 
#
# 1 0.013945 -0.004807 -0.004149 0.000000 0.000524 0.000000
# 2 -0.004807 0.019027 -0.001236 0.000000 -0.002665 0.000000
# 3 -0.004149 -0.001236 0.008357 0.000000 -0.000079 0.000000
# 4 0.000000 0.000000 0.000000 0.030078 0.000000 0.003637
# 5 0.000524 -0.002665 -0.000079 0.000000 0.022812 0.000000
# 6 0.000000 0.000000 0.000000 0.003637 0.000000 0.070321
#
#
# Mechanical properties :
#
#
# Convention : Reuss Voigt Hill
#
# Bulk Modulus (GPa) = 47.73985 57.20769 52.47377
# Shear Modulus (GPa) = 26.05440 32.10858 29.08149
#
# Velocity S-wave (km/s) = 3.36194 3.73216 3.55187
# Velocity P-wave (km/s) = 5.98165 6.58705 6.29164
#
# Compressibility (1/GPa) = 0.02094686
#
# Stress axis : x y z
#
# Youngs Moduli (GPa) = 71.70864 52.55677 119.65439
#
# Poissons Ratio (x) = 0.25266 0.49640
# Poissons Ratio (y) = 0.34473 0.14783
# Poissons Ratio (z) = 0.29749 0.06493
#
# Static dielectric constant tensor:
#      x y z
#    x 4.106390 0.000000 -0.064370 
#    y 0.000000 4.166460 0.000000 
#    z -0.064370 0.000000 4.709930 
# 
# 
# High freq. dielectric constant tensor:
#      x y z
#    x 1.915770 0.000000 0.000810 
#    y 0.000000 1.898360 0.000000 
#    z 0.000810 0.000000 1.958580 
# 
# From -- ./inp_files/14186.got.cif
#   From: 2010.06.25/outbox.ucp.g09.slc.cvg/sg4_8_cif.got.tgz:14186.got - 2010.06.28 13:22:43.
