data_PCOD8048681
_publ_section_title
;
Structure prediction by ZEFSAII (Michael W. Deem and Ramdas Pophale) SiO2 
 PCOD8048681
Probable space group: C 2
;
_chemical_formula_sum "Si O2"
_cell_formula_units_Z 30
_cell_length_a 17.165686
_cell_length_b 8.530143
_cell_length_c 13.096056
_cell_angle_alpha 90.000000
_cell_angle_beta 126.859630
_cell_angle_gamma 90.000000
_cell_volume 1534.286084
_symmetry_space_group_name_H-M "C 2"
_symmetry_group_IT_number 5
_symmetry_cell_setting 'monoclinic'
loop_
_space_group_symop_operation_xyz
x,y,z
-x,y,-z
1/2+x,1/2+y,z
1/2-x,1/2+y,-z
loop_
_atom_site_type_symbol
_atom_site_label
_atom_site_fract_x
_atom_site_fract_y
_atom_site_fract_z
Si Si1 0.141211 0.348090 0.640928
Si Si2 0.633798 0.357451 0.177278
Si Si3 0.035516 0.392012 0.861963
Si Si4 0.981171 0.212851 0.638063
Si Si5 0.140601 0.108480 0.021162
Si Si6 0.519255 0.408306 0.768910
Si Si7 0.500000 0.120164 0.000000
Si Si8 0.863895 0.610857 0.211203
O O1 0.254767 0.315123 0.713379
O O2 0.091035 0.302527 0.494941
O O3 0.124180 0.528816 0.666402
O O4 0.093080 0.234919 0.688240
O O5 0.621208 0.526749 0.115017
O O6 0.567908 0.347934 0.226890
O O7 0.595241 0.230277 0.064111
O O8 0.114064 0.479474 0.854847
O O9 0.961611 0.297009 0.731214
O O10 0.978460 0.519138 0.882906
O O11 0.086742 0.273982 0.980884
O O12 0.969428 0.025694 0.645940
O O13 0.253229 0.153267 0.100226
O O14 0.102661 0.000487 0.897669
O O15 0.566334 0.262218 0.744917
#
# Coordination Sequence:
#
# PCOD8048681 Si02
#       8
#     4   4   4   4   4   4   2   4
#     4   9  21  43  63  81 117 162 202 250 301 350
#     4  11  21  38  60  89 124 157 194 253 306 351
#     4  10  21  33  57  85 117 158 191 242 295 356
#     4   9  21  42  62  80 119 161 206 244 297 356
#     4  10  20  33  59  87 129 159 191 241 307 368
#     4  11  20  36  60  90 121 157 200 253 301 356
#     4  12  22  34  56  84 130 150 196 242 300 356
#     4  10  19  36  60  91 114 159 206 247 296 356
#
# _framework density 19.553066999999999
#
# number of rings (size 3 to 8) (size 9 to 14) (size 15 to 20)
#    0.000    1.867    2.667    0.800    3.733    5.333 
#    2.400    5.333    0.000    0.000    0.000    0.000 
#    0.000    0.000    0.000    0.000    0.000    0.000 
#
# Total GULP energy -185854.349383 kJ/mol
# GULP energy per Si atom -12390.289959 kJ/mol
# Density = 1.950856 g / cm^3
# Si number density = 19.553067 Si / 1000 Ang^3
#
#
#
# Elastic Constant Matrix: (Units=GPa)
#
#
# Indices 1 2 3 4 5 6 
#
# 1 86.5016 46.8798 47.6559 0.0000 10.4369 0.0000
# 2 46.8798 121.0320 54.5931 0.0000 4.5052 0.0000
# 3 47.6559 54.5931 103.5065 0.0000 6.2693 0.0000
# 4 0.0000 0.0000 0.0000 30.1754 0.0000 -6.4819
# 5 10.4369 4.5052 6.2693 0.0000 26.4451 0.0000
# 6 0.0000 0.0000 0.0000 -6.4819 0.0000 28.4999
#
#
#
# Elastic Compliance Matrix: (Units=1/GPa)
#
#
# Indices 1 2 3 4 5 6 
#
# 1 0.017420 -0.004043 -0.005593 0.000000 -0.004860 0.000000
# 2 -0.004043 0.011787 -0.004393 0.000000 0.000629 0.000000
# 3 -0.005593 -0.004393 0.014584 0.000000 -0.000502 0.000000
# 4 0.000000 0.000000 0.000000 0.034842 0.000000 0.007924
# 5 -0.004860 0.000629 -0.000502 0.000000 0.039744 0.000000
# 6 0.000000 0.000000 0.000000 0.007924 0.000000 0.036890
#
#
# Mechanical properties :
#
#
# Convention : Reuss Voigt Hill
#
# Bulk Modulus (GPa) = 63.57053 67.69976 65.63515
# Shear Modulus (GPa) = 26.51546 27.81816 27.16681
#
# Velocity S-wave (km/s) = 3.68649 3.77596 3.73149
# Velocity P-wave (km/s) = 7.12058 7.32866 7.22537
#
# Compressibility (1/GPa) = 0.01573056
#
# Stress axis : x y z
#
# Youngs Moduli (GPa) = 57.40634 84.84216 68.56860
#
# Poissons Ratio (x) = 0.34305 0.38352
# Poissons Ratio (y) = 0.23212 0.30123
# Poissons Ratio (z) = 0.32109 0.37272
#
# Static dielectric constant tensor:
#      x y z
#    x 3.577770 0.000000 -0.104730 
#    y 0.000000 3.759660 0.000000 
#    z -0.104730 0.000000 3.445370 
# 
# 
# High freq. dielectric constant tensor:
#      x y z
#    x 1.755050 0.000000 -0.005600 
#    y 0.000000 1.770240 0.000000 
#    z -0.005600 0.000000 1.739740 
# 
# From -- ./inp_files/55659.got.cif
#   From: 2010.03.12/outbox.cif.g09.slc.cpg/sg5_28_cif.got.tgz:55659.got - 2010.03.31 09:47:26.
