data_PCOD8048504
_publ_section_title
;
Structure prediction by ZEFSAII (Michael W. Deem and Ramdas Pophale) SiO2 
 PCOD8048504
Probable space group: C 2
;
_chemical_formula_sum "Si O2"
_cell_formula_units_Z 24
_cell_length_a 23.905345
_cell_length_b 6.366028
_cell_length_c 14.784165
_cell_angle_alpha 90.000000
_cell_angle_beta 31.191152
_cell_angle_gamma 90.000000
_cell_volume 1165.204104
_symmetry_space_group_name_H-M "C 2"
_symmetry_group_IT_number 5
_symmetry_cell_setting 'monoclinic'
loop_
_space_group_symop_operation_xyz
x,y,z
-x,y,-z
1/2+x,1/2+y,z
1/2-x,1/2+y,-z
loop_
_atom_site_type_symbol
_atom_site_label
_atom_site_fract_x
_atom_site_fract_y
_atom_site_fract_z
Si Si1 0.500000 0.152941 0.500000
Si Si2 0.352139 0.532283 0.709288
Si Si3 0.165956 0.279314 0.521062
Si Si4 0.177494 0.520086 0.817889
Si Si5 0.000000 0.810088 0.000000
Si Si6 0.327507 0.627658 0.289260
Si Si7 0.511235 0.777595 0.363517
O O1 0.394990 0.298261 0.632834
O O2 0.527872 0.017700 0.371909
O O3 0.226585 0.529616 0.852622
O O4 0.413669 0.695582 0.560534
O O5 0.381020 0.628414 0.770303
O O6 0.214398 0.507931 0.428559
O O7 0.038276 0.270671 0.669268
O O8 0.234534 0.097617 0.377045
O O9 0.173886 0.258982 0.617175
O O10 0.070187 0.661745 0.969206
O O11 0.149257 0.281960 0.827550
O O12 0.078471 0.953586 0.831492
#
# Coordination Sequence:
#
# PCOD8048504 Si02
#       7
#     2   4   4   4   2   4   4
#     4   8  12  24  40  70 102 138 162 204 278 302
#     4   8  15  26  46  69 103 137 167 213 262 305
#     4  10  19  31  53  82 110 137 175 219 274 308
#     4  10  19  35  51  78 110 139 180 218 261 326
#     4  10  24  36  52  78 108 146 178 212 266 316
#     4  11  20  35  54  82 109 144 172 222 267 320
#     4   8  15  26  42  74 108 129 165 219 259 315
#
# _framework density 20.597252000000001
#
# number of rings (size 3 to 8) (size 9 to 14) (size 15 to 20)
#    0.000    3.000    1.667    1.500    0.000    1.333 
#    0.000    0.000    0.000    0.000    8.667    0.000 
#    0.000    0.000    0.000    0.000    0.000    0.000 
#
# Total GULP energy -148661.714691 kJ/mol
# GULP energy per Si atom -12388.476224 kJ/mol
# Density = 2.055037 g / cm^3
# Si number density = 20.597252 Si / 1000 Ang^3
#
#
#
# Elastic Constant Matrix: (Units=GPa)
#
#
# Indices 1 2 3 4 5 6 
#
# 1 114.4374 38.8122 34.6060 0.0002 -48.8763 0.0019
# 2 38.8122 124.0691 26.8627 -0.0199 -23.8873 0.0122
# 3 34.6060 26.8627 47.5003 -0.0187 -30.5916 -0.0037
# 4 0.0002 -0.0199 -0.0187 21.7611 0.0008 -2.3936
# 5 -48.8763 -23.8873 -30.5916 0.0008 36.6474 0.0035
# 6 0.0019 0.0122 -0.0037 -2.3936 0.0035 18.9669
#
#
#
# Elastic Compliance Matrix: (Units=1/GPa)
#
#
# Indices 1 2 3 4 5 6 
#
# 1 0.021386 -0.001792 0.006596 0.000002 0.032861 -0.000006
# 2 -0.001792 0.009556 -0.003517 0.000005 0.000903 -0.000006
# 3 0.006596 -0.003517 0.048498 0.000037 0.046988 0.000007
# 4 0.000002 0.000005 0.000037 0.046600 0.000035 0.005881
# 5 0.032861 0.000903 0.046988 0.000035 0.110925 -0.000011
# 6 -0.000006 -0.000006 0.000007 0.005881 -0.000011 0.053466
#
#
# Mechanical properties :
#
#
# Convention : Reuss Voigt Hill
#
# Bulk Modulus (GPa) = 12.19303 54.06316 33.12810
# Shear Modulus (GPa) = 15.86316 27.85679 21.85998
#
# Velocity S-wave (km/s) = 2.77818 3.68156 3.26130
# Velocity P-wave (km/s) = 4.02786 6.66157 5.50455
#
# Compressibility (1/GPa) = 0.08201407
#
# Stress axis : x y z
#
# Youngs Moduli (GPa) = 46.75890 104.64737 20.61943
#
# Poissons Ratio (x) = 0.18748 -0.13600
# Poissons Ratio (y) = 0.08377 0.07252
# Poissons Ratio (z) = -0.30840 0.36805
#
# Static dielectric constant tensor:
#      x y z
#    x 4.272780 -0.000020 -0.700790 
#    y -0.000020 3.846350 0.000020 
#    z -0.700790 0.000020 3.297670 
# 
# 
# High freq. dielectric constant tensor:
#      x y z
#    x 1.799420 0.000000 -0.046050 
#    y 0.000000 1.821050 0.000000 
#    z -0.046050 0.000000 1.745790 
# 
# From -- ./inp_files/43744.got.cif
#   From: 2010.03.12/outbox.cif.g09.slc.cpg/sg5_22_cif.got.tgz:43744.got - 2010.03.31 09:47:26.
