data_PCOD8048879
_publ_section_title
;
Structure prediction by ZEFSAII (Michael W. Deem and Ramdas Pophale) SiO2 
 PCOD8048879
Probable space group: C 2
;
_chemical_formula_sum "Si O2"
_cell_formula_units_Z 32
_cell_length_a 25.985717
_cell_length_b 9.344973
_cell_length_c 15.737309
_cell_angle_alpha 90.000000
_cell_angle_beta 23.782463
_cell_angle_gamma 90.000000
_cell_volume 1541.111296
_symmetry_space_group_name_H-M "C 2"
_symmetry_group_IT_number 5
_symmetry_cell_setting 'monoclinic'
loop_
_space_group_symop_operation_xyz
x,y,z
-x,y,-z
1/2+x,1/2+y,z
1/2-x,1/2+y,-z
loop_
_atom_site_type_symbol
_atom_site_label
_atom_site_fract_x
_atom_site_fract_y
_atom_site_fract_z
Si Si1 0.114954 0.906250 0.162707
Si Si2 0.478584 0.996142 0.844939
Si Si3 0.538757 0.730818 0.851377
Si Si4 0.306118 0.080566 0.970196
Si Si5 0.459984 0.423563 0.917855
Si Si6 0.910375 0.086242 0.567977
Si Si7 0.176027 0.697737 0.614527
Si Si8 0.293480 0.187868 0.236162
O O1 0.067179 0.932213 0.140543
O O2 0.241847 0.003280 0.986593
O O3 0.162382 0.743524 0.102953
O O4 0.997121 0.951628 0.403405
O O5 0.487000 0.829302 0.853464
O O6 0.616752 0.067240 0.650441
O O7 0.437863 0.012211 0.807130
O O8 0.383213 0.076663 0.052532
O O9 0.473883 0.578088 0.937044
O O10 0.689801 0.729850 0.629144
O O11 0.500000 0.797168 0.000000
O O12 0.212869 0.045719 0.190543
O O13 0.589995 0.338558 0.738217
O O14 0.341511 0.348148 0.144298
O O15 0.854848 0.175339 0.571685
O O16 0.000000 0.175047 0.500000
O O17 0.198404 0.650638 0.677694
#
# Coordination Sequence:
#
# PCOD8048879 Si02
#       8
#     4   4   4   4   4   4   4   4
#     4  11  21  40  70  93 129 176 219 278 338 398
#     4  10  21  41  61  90 125 163 217 270 325 400
#     4  12  25  37  57  93 132 168 216 272 325 392
#     4  10  22  41  66  98 127 169 225 277 335 403
#     4  11  22  39  63  95 130 169 213 279 335 392
#     4   9  19  37  65  94 123 166 226 260 325 395
#     4  11  21  39  63  85 123 173 221 257 335 403
#     4  10  19  40  66  90 122 170 219 261 327 408
#
# _framework density 20.764237000000001
#
# number of rings (size 3 to 8) (size 9 to 14) (size 15 to 20)
#    0.000    1.500    3.750    4.500    1.750    2.000 
#    0.000    0.000    0.000    6.750    0.000    0.000 
#    0.000    0.000    0.000    0.000    0.000    0.000 
#
# Total GULP energy -198261.196578 kJ/mol
# GULP energy per Si atom -12391.324786 kJ/mol
# Density = 2.071698 g / cm^3
# Si number density = 20.764237 Si / 1000 Ang^3
#
#
#
# Elastic Constant Matrix: (Units=GPa)
#
#
# Indices 1 2 3 4 5 6 
#
# 1 136.3885 27.6446 31.3999 0.0000 -39.3576 0.0000
# 2 27.6446 124.3183 29.7100 0.0000 -24.4141 0.0000
# 3 31.3999 29.7100 81.9272 0.0000 -11.5415 0.0000
# 4 0.0000 0.0000 0.0000 17.7884 0.0000 -10.4604
# 5 -39.3576 -24.4141 -11.5415 0.0000 30.8433 0.0000
# 6 0.0000 0.0000 0.0000 -10.4604 0.0000 95.5233
#
#
#
# Elastic Compliance Matrix: (Units=1/GPa)
#
#
# Indices 1 2 3 4 5 6 
#
# 1 0.012202 0.000972 -0.002879 0.000000 0.015263 0.000000
# 2 0.000972 0.010124 -0.002893 0.000000 0.008171 0.000000
# 3 -0.002879 -0.002893 0.014271 0.000000 -0.000623 0.000000
# 4 0.000000 0.000000 0.000000 0.060086 0.000000 0.006580
# 5 0.015263 0.008171 -0.000623 0.000000 0.058132 0.000000
# 6 0.000000 0.000000 0.000000 0.006580 0.000000 0.011189
#
#
# Mechanical properties :
#
#
# Convention : Reuss Voigt Hill
#
# Bulk Modulus (GPa) = 37.04116 57.79367 47.41741
# Shear Modulus (GPa) = 27.08529 45.75630 36.42080
#
# Velocity S-wave (km/s) = 3.61559 4.69936 4.19264
# Velocity P-wave (km/s) = 5.94203 7.57225 6.80612
#
# Compressibility (1/GPa) = 0.02699700
#
# Stress axis : x y z
#
# Youngs Moduli (GPa) = 81.95314 98.77773 70.07442
#
# Poissons Ratio (x) = -0.09601 0.20175
# Poissons Ratio (y) = -0.07966 0.20270
# Poissons Ratio (z) = 0.23594 0.28573
#
# Static dielectric constant tensor:
#      x y z
#    x 4.191890 0.000000 -0.367620 
#    y 0.000000 3.763110 0.000000 
#    z -0.367620 0.000000 3.814780 
# 
# 
# High freq. dielectric constant tensor:
#      x y z
#    x 1.839300 0.000000 -0.020220 
#    y 0.000000 1.795260 0.000000 
#    z -0.020220 0.000000 1.799470 
# 
# From -- ./inp_files/57679.got.cif
#   From: 2010.03.12/outbox.cif.g09.slc.cpg/sg5_29_cif.got.tgz:57679.got - 2010.03.31 09:47:26.
