data_PCOD8048515
_publ_section_title
;
Structure prediction by ZEFSAII (Michael W. Deem and Ramdas Pophale) SiO2 
 PCOD8048515
Probable space group: C 2
;
_chemical_formula_sum "Si O2"
_cell_formula_units_Z 24
_cell_length_a 24.441192
_cell_length_b 9.220825
_cell_length_c 18.484705
_cell_angle_alpha 90.000000
_cell_angle_beta 18.926475
_cell_angle_gamma 90.000000
_cell_volume 1351.215681
_symmetry_space_group_name_H-M "C 2"
_symmetry_group_IT_number 5
_symmetry_cell_setting 'monoclinic'
loop_
_space_group_symop_operation_xyz
x,y,z
-x,y,-z
1/2+x,1/2+y,z
1/2-x,1/2+y,-z
loop_
_atom_site_type_symbol
_atom_site_label
_atom_site_fract_x
_atom_site_fract_y
_atom_site_fract_z
Si Si1 0.639662 0.731920 0.880647
Si Si2 0.336818 0.066625 0.162601
Si Si3 0.009063 0.755490 0.404958
Si Si4 0.017240 0.053745 0.324914
Si Si5 0.816025 0.060456 0.032058
Si Si6 0.675162 0.754246 0.243249
O O1 0.823062 0.697348 0.616579
O O2 0.610344 0.648215 0.992220
O O3 0.623711 0.903920 0.913662
O O4 0.500000 0.673908 0.000000
O O5 0.293823 0.157852 0.145661
O O6 0.180794 0.074675 0.413135
O O7 0.500000 0.130574 0.000000
O O8 0.000000 0.806827 0.500000
O O9 0.136891 0.625205 0.231160
O O10 0.070207 0.891941 0.281996
O O11 0.133179 0.167252 0.222933
O O12 0.047951 0.074942 0.201643
O O13 0.786471 0.893674 0.087171
O O14 0.500000 0.799609 0.500000
#
# Coordination Sequence:
#
# PCOD8048515 Si02
#       6
#     4   4   4   4   4   4
#     4   9  18  34  55  71  95 136 171 194 236 303
#     4   9  19  37  55  69  95 138 172 192 236 306
#     4   9  17  33  54  72  96 133 168 194 238 303
#     4  10  19  33  52  75 100 128 164 207 245 285
#     4  11  20  31  50  80 103 122 161 214 249 277
#     4  10  19  32  52  75 101 131 162 199 246 294
#
# _framework density 17.761783000000001
#
# number of rings (size 3 to 8) (size 9 to 14) (size 15 to 20)
#    0.000    2.333    0.000    6.000    0.000    0.667 
#    0.000    6.667    0.000    0.000    0.000    0.000 
#    0.000    0.000    0.000    0.000    0.000    0.000 
#
# Total GULP energy -148810.321702 kJ/mol
# GULP energy per Si atom -12400.860142 kJ/mol
# Density = 1.772136 g / cm^3
# Si number density = 17.761783 Si / 1000 Ang^3
#
#
#
# Elastic Constant Matrix: (Units=GPa)
#
#
# Indices 1 2 3 4 5 6 
#
# 1 121.2314 60.2049 73.8115 0.0000 -2.4384 0.0000
# 2 60.2049 89.3392 48.2063 0.0000 6.9362 -0.0001
# 3 73.8115 48.2063 83.2966 0.0000 -1.8760 0.0000
# 4 0.0000 0.0000 0.0000 23.7663 0.0000 -2.9519
# 5 -2.4384 6.9362 -1.8760 0.0000 40.3384 0.0000
# 6 0.0000 -0.0001 0.0000 -2.9519 0.0000 12.1708
#
#
#
# Elastic Compliance Matrix: (Units=1/GPa)
#
#
# Indices 1 2 3 4 5 6 
#
# 1 0.019759 -0.005825 -0.014103 0.000000 0.001540 0.000000
# 2 -0.005825 0.018427 -0.005588 0.000000 -0.003781 0.000000
# 3 -0.014103 -0.005588 0.027768 0.000000 0.001400 0.000000
# 4 0.000000 0.000000 0.000000 0.043383 0.000000 0.010522
# 5 0.001540 -0.003781 0.001400 0.000000 0.025599 0.000000
# 6 0.000000 0.000000 0.000000 0.010522 0.000000 0.084716
#
#
# Mechanical properties :
#
#
# Convention : Reuss Voigt Hill
#
# Bulk Modulus (GPa) = 67.01489 73.14586 70.08038
# Shear Modulus (GPa) = 18.13833 22.69808 20.41820
#
# Velocity S-wave (km/s) = 3.19909 3.57867 3.39419
# Velocity P-wave (km/s) = 7.17337 7.63851 7.40959
#
# Compressibility (1/GPa) = 0.01492206
#
# Stress axis : x y z
#
# Youngs Moduli (GPa) = 50.60880 54.26677 36.01247
#
# Poissons Ratio (x) = 0.31612 0.50790
# Poissons Ratio (y) = 0.29481 0.20123
# Poissons Ratio (z) = 0.71376 0.30323
#
# Static dielectric constant tensor:
#      x y z
#    x 3.264250 0.000000 -0.161430 
#    y 0.000000 3.231620 0.000000 
#    z -0.161430 0.000000 3.317250 
# 
# 
# High freq. dielectric constant tensor:
#      x y z
#    x 1.679430 0.000000 -0.006120 
#    y 0.000000 1.688000 0.000000 
#    z -0.006120 0.000000 1.678420 
# 
# From -- ./inp_files/22844.got.cif
#   From: 2010.03.12/outbox.cif.g09.slc.cpg/sg5_12_cif.got.tgz:22844.got - 2010.03.31 09:47:26.
