data_PCOD8048367
_publ_section_title
;
Structure prediction by ZEFSAII (Michael W. Deem and Ramdas Pophale) SiO2 
 PCOD8048367
Probable space group: C 2
;
_chemical_formula_sum "Si O2"
_cell_formula_units_Z 32
_cell_length_a 19.305139
_cell_length_b 8.260901
_cell_length_c 24.838399
_cell_angle_alpha 90.000000
_cell_angle_beta 21.929971
_cell_angle_gamma 90.000000
_cell_volume 1479.391940
_symmetry_space_group_name_H-M "C 2"
_symmetry_group_IT_number 5
_symmetry_cell_setting 'monoclinic'
loop_
_space_group_symop_operation_xyz
x,y,z
-x,y,-z
1/2+x,1/2+y,z
1/2-x,1/2+y,-z
loop_
_atom_site_type_symbol
_atom_site_label
_atom_site_fract_x
_atom_site_fract_y
_atom_site_fract_z
Si Si1 0.690399 0.349100 0.357110
Si Si2 0.746178 0.222430 0.539109
Si Si3 0.567088 0.689984 0.396895
Si Si4 0.487157 0.838441 0.950430
Si Si5 0.119468 0.867172 0.157556
Si Si6 0.763827 0.230026 0.949238
Si Si7 0.134316 0.383817 0.653949
Si Si8 0.540899 0.219371 0.913401
O O1 0.500000 0.240383 0.500000
O O2 0.620154 0.503945 0.372791
O O3 0.742525 0.393648 0.380976
O O4 0.863109 0.263729 0.200894
O O5 0.590562 0.354547 0.668680
O O6 0.807644 0.249943 0.432705
O O7 0.922896 0.215304 0.451769
O O8 0.642178 0.051495 0.616190
O O9 0.500000 0.775955 0.500000
O O10 0.755389 0.783578 0.247343
O O11 0.536191 0.026066 0.917549
O O12 0.500000 0.756719 0.000000
O O13 0.273180 0.813344 0.089825
O O14 0.154254 0.051152 0.115108
O O15 0.151608 0.744787 0.085400
O O16 0.928908 0.356910 0.824409
O O17 0.614756 0.285535 0.013330
O O18 0.500000 0.296809 0.000000
#
# Coordination Sequence:
#
# PCOD8048367 Si02
#       8
#     4   4   4   4   4   4   4   4
#     4  10  19  36  65  91 125 170 227 276 309 393
#     4  12  25  39  66 100 135 176 221 291 335 400
#     4  10  18  36  62  92 120 167 236 266 308 391
#     4   9  19  34  59  94 123 160 221 272 314 390
#     4  11  23  39  64  98 135 172 221 273 341 398
#     4  11  22  40  65  94 134 172 219 274 338 405
#     4  12  24  42  63 101 137 172 226 280 344 397
#     4   9  18  32  58  90 117 158 215 270 305 377
#
# _framework density 21.630509
#
# number of rings (size 3 to 8) (size 9 to 14) (size 15 to 20)
#    0.000    1.500    3.750    3.000    3.500    2.000 
#    0.000    0.000    0.000   15.000    0.000    0.000 
#    0.000    0.000    0.000    0.000    0.000    0.000 
#
# Total GULP energy -198214.532821 kJ/mol
# GULP energy per Si atom -12388.408301 kJ/mol
# Density = 2.158128 g / cm^3
# Si number density = 21.630509 Si / 1000 Ang^3
#
#
#
# Elastic Constant Matrix: (Units=GPa)
#
#
# Indices 1 2 3 4 5 6 
#
# 1 151.7009 17.8456 51.6947 0.0050 -5.1557 0.0012
# 2 17.8456 28.5804 3.9331 -0.0078 -9.3618 -0.0007
# 3 51.6947 3.9331 138.6945 0.0065 -11.6333 -0.0101
# 4 0.0050 -0.0078 0.0065 24.5109 -0.0030 -0.4983
# 5 -5.1557 -9.3618 -11.6333 -0.0030 47.5221 0.0004
# 6 0.0012 -0.0007 -0.0101 -0.4983 0.0004 19.5159
#
#
#
# Elastic Compliance Matrix: (Units=1/GPa)
#
#
# Indices 1 2 3 4 5 6 
#
# 1 0.008159 -0.004953 -0.002969 -0.000003 -0.000817 -0.000002
# 2 -0.004953 0.040438 0.001350 0.000015 0.007759 0.000003
# 3 -0.002969 0.001350 0.008447 -0.000001 0.002012 0.000005
# 4 -0.000003 0.000015 -0.000001 0.040819 0.000005 0.001042
# 5 -0.000817 0.007759 0.002012 0.000005 0.022975 0.000001
# 6 -0.000002 0.000003 0.000005 0.001042 0.000001 0.051267
#
#
# Mechanical properties :
#
#
# Convention : Reuss Voigt Hill
#
# Bulk Modulus (GPa) = 22.77939 51.76918 37.27429
# Shear Modulus (GPa) = 25.01473 34.67660 29.84566
#
# Velocity S-wave (km/s) = 3.40436 4.00826 3.71859
# Velocity P-wave (km/s) = 5.09969 6.73846 5.97552
#
# Compressibility (1/GPa) = 0.04389933
#
# Stress axis : x y z
#
# Youngs Moduli (GPa) = 122.57051 24.72941 118.38314
#
# Poissons Ratio (x) = 0.12249 0.35148
# Poissons Ratio (y) = 0.60714 -0.15986
# Poissons Ratio (z) = 0.36391 -0.03339
#
# Static dielectric constant tensor:
#      x y z
#    x 4.107720 -0.000010 0.184380 
#    y -0.000010 3.311820 0.000010 
#    z 0.184380 0.000010 4.609620 
# 
# 
# High freq. dielectric constant tensor:
#      x y z
#    x 1.862220 0.000000 0.001160 
#    y 0.000000 1.788600 0.000000 
#    z 0.001160 0.000000 1.881050 
# 
# From -- ./inp_files/71092.got.cif
#   From: 2010.03.12/outbox.cif.g09.slc.cpg/sg5_36_cif.got.tgz:71092.got - 2010.03.31 09:47:26.
