data_PCOD8048723
_publ_section_title
;
Structure prediction by ZEFSAII (Michael W. Deem and Ramdas Pophale) SiO2 
 PCOD8048723
Probable space group: C 2
;
_chemical_formula_sum "Si O2"
_cell_formula_units_Z 32
_cell_length_a 22.345188
_cell_length_b 10.659216
_cell_length_c 11.212786
_cell_angle_alpha 90.000000
_cell_angle_beta 144.607724
_cell_angle_gamma 90.000000
_cell_volume 1546.784557
_symmetry_space_group_name_H-M "C 2"
_symmetry_group_IT_number 5
_symmetry_cell_setting 'monoclinic'
loop_
_space_group_symop_operation_xyz
x,y,z
-x,y,-z
1/2+x,1/2+y,z
1/2-x,1/2+y,-z
loop_
_atom_site_type_symbol
_atom_site_label
_atom_site_fract_x
_atom_site_fract_y
_atom_site_fract_z
Si Si1 0.975965 0.966950 0.251589
Si Si2 0.543744 0.666176 0.203213
Si Si3 0.632050 0.091224 0.973286
Si Si4 0.589771 0.303426 0.066799
Si Si5 0.198536 0.905216 0.674674
Si Si6 0.449056 0.955468 0.788261
Si Si7 0.280912 0.470285 0.547439
Si Si8 0.888626 0.771738 0.270787
O O1 0.890289 0.907922 0.201941
O O2 0.084991 0.966370 0.497436
O O3 0.979085 0.876293 0.142203
O O4 0.964388 0.106412 0.174184
O O5 0.559951 0.809946 0.264926
O O6 0.653233 0.592130 0.384391
O O7 0.500000 0.650077 0.000000
O O8 0.645311 0.157483 0.867654
O O9 0.517969 0.030468 0.803977
O O10 0.655190 0.192188 0.114827
O O11 0.718646 0.988117 0.123038
O O12 0.667024 0.395487 0.260475
O O13 0.500000 0.240597 0.000000
O O14 0.231257 0.880253 0.590371
O O15 0.190518 0.780869 0.745421
O O16 0.333764 0.013910 0.600566
O O17 0.500000 0.966151 0.000000
O O18 0.000000 0.735230 0.500000
#
# Coordination Sequence:
#
# PCOD8048723 Si02
#       8
#     4   4   4   4   4   4   4   4
#     4   9  17  37  63  90 115 155 209 253 298 364
#     4  10  19  37  57  89 132 155 198 249 309 382
#     4  11  24  41  62  90 127 158 214 258 311 372
#     4  11  19  34  63  97 121 162 202 251 300 380
#     4  10  20  39  61  90 119 159 207 254 306 362
#     4  11  24  38  54  91 135 166 191 252 328 366
#     4  11  21  37  61  97 128 163 207 241 314 386
#     4   9  21  43  65  81 114 166 219 262 299 361
#
# _framework density 20.688078000000001
#
# number of rings (size 3 to 8) (size 9 to 14) (size 15 to 20)
#    0.000    1.750    5.000    0.375    3.500    0.000 
#    2.250    2.500    0.000    0.000    0.000    0.000 
#    0.000    0.000    0.000    0.000    0.000    0.000 
#
# Total GULP energy -198241.845937 kJ/mol
# GULP energy per Si atom -12390.115371 kJ/mol
# Density = 2.064099 g / cm^3
# Si number density = 20.688078 Si / 1000 Ang^3
#
#
#
# Elastic Constant Matrix: (Units=GPa)
#
#
# Indices 1 2 3 4 5 6 
#
# 1 78.9866 25.4240 40.1632 0.0000 -5.7917 0.0000
# 2 25.4240 70.9256 23.6418 0.0000 0.4022 0.0000
# 3 40.1632 23.6418 95.7031 0.0000 3.9036 0.0000
# 4 0.0000 0.0000 0.0000 16.7521 0.0000 -1.9115
# 5 -5.7917 0.4022 3.9036 0.0000 31.1533 0.0000
# 6 0.0000 0.0000 0.0000 -1.9115 0.0000 31.5880
#
#
#
# Elastic Compliance Matrix: (Units=1/GPa)
#
#
# Indices 1 2 3 4 5 6 
#
# 1 0.017630 -0.004163 -0.006540 0.000000 0.004151 0.000000
# 2 -0.004163 0.016350 -0.002263 0.000000 -0.000702 0.000000
# 3 -0.006540 -0.002263 0.013872 0.000000 -0.002925 0.000000
# 4 0.000000 0.000000 0.000000 0.060109 0.000000 0.003637
# 5 0.004151 -0.000702 -0.002925 0.000000 0.033246 0.000000
# 6 0.000000 0.000000 0.000000 0.003637 0.000000 0.031878
#
#
# Mechanical properties :
#
#
# Convention : Reuss Voigt Hill
#
# Bulk Modulus (GPa) = 45.62097 47.11924 46.37011
# Shear Modulus (GPa) = 24.23377 26.32445 25.27911
#
# Velocity S-wave (km/s) = 3.42627 3.57101 3.49938
# Velocity P-wave (km/s) = 6.14427 6.31096 6.22818
#
# Compressibility (1/GPa) = 0.02191975
#
# Stress axis : x y z
#
# Youngs Moduli (GPa) = 56.72131 61.16191 72.08888
#
# Poissons Ratio (x) = 0.25464 0.47143
# Poissons Ratio (y) = 0.23615 0.16315
# Poissons Ratio (z) = 0.37093 0.13842
#
# Static dielectric constant tensor:
#      x y z
#    x 3.953140 0.000000 -0.166750 
#    y 0.000000 3.722340 0.000000 
#    z -0.166750 0.000000 3.713520 
# 
# 
# High freq. dielectric constant tensor:
#      x y z
#    x 1.798920 0.000000 -0.009950 
#    y 0.000000 1.790350 0.000000 
#    z -0.009950 0.000000 1.808050 
# 
# From -- ./inp_files/47519.got.cif
#   From: 2010.03.12/outbox.cif.g09.slc.cpg/sg5_24_cif.got.tgz:47519.got - 2010.03.31 09:47:26.
