data_PCOD8048623
_publ_section_title
;
Structure prediction by ZEFSAII (Michael W. Deem and Ramdas Pophale) SiO2 
 PCOD8048623
Probable space group: C 2
;
_chemical_formula_sum "Si O2"
_cell_formula_units_Z 28
_cell_length_a 17.718463
_cell_length_b 11.630535
_cell_length_c 10.548193
_cell_angle_alpha 90.000000
_cell_angle_beta 136.018769
_cell_angle_gamma 90.000000
_cell_volume 1509.481204
_symmetry_space_group_name_H-M "C 2"
_symmetry_group_IT_number 5
_symmetry_cell_setting 'monoclinic'
loop_
_space_group_symop_operation_xyz
x,y,z
-x,y,-z
1/2+x,1/2+y,z
1/2-x,1/2+y,-z
loop_
_atom_site_type_symbol
_atom_site_label
_atom_site_fract_x
_atom_site_fract_y
_atom_site_fract_z
Si Si1 0.620040 0.881650 0.678778
Si Si2 0.378046 0.281540 0.408032
Si Si3 0.288533 0.416931 0.072498
Si Si4 0.622638 0.613280 0.663269
Si Si5 0.938437 0.972021 0.044721
Si Si6 0.356794 0.498717 0.556629
Si Si7 0.755082 0.551391 0.329613
O O1 0.500000 0.924270 0.500000
O O2 0.628683 0.745896 0.696795
O O3 0.693041 0.933636 0.657137
O O4 0.664251 0.922215 0.870639
O O5 0.500000 0.270584 0.500000
O O6 0.301827 0.325728 0.201191
O O7 0.368049 0.368827 0.514736
O O8 0.334070 0.159445 0.403594
O O9 0.317740 0.545844 0.152098
O O10 0.368083 0.385342 0.048895
O O11 0.500000 0.565181 0.500000
O O12 0.678293 0.585571 0.596453
O O13 0.027868 0.034045 0.241212
O O14 0.858448 0.068198 0.884971
O O15 0.000000 0.907716 0.000000
O O16 0.262410 0.520064 0.544679
#
# Coordination Sequence:
#
# PCOD8048623 Si02
#       7
#     4   4   4   4   4   4   4
#     4  10  23  37  55  82 117 151 187 239 298 344
#     4  11  21  37  64  89 115 161 193 246 290 346
#     4  10  19  35  58  86 109 148 206 235 278 351
#     4  10  19  35  61  81 107 150 193 240 281 337
#     4   9  17  34  56  84 112 147 193 250 271 336
#     4  10  19  37  60  85 116 149 206 235 284 353
#     4  10  23  34  56  87 124 147 191 240 307 333
#
# _framework density 18.549419
#
# number of rings (size 3 to 8) (size 9 to 14) (size 15 to 20)
#    0.000    2.000    2.857    1.286    6.000    0.000 
#    0.000    0.000    0.000    2.571    0.000    0.000 
#    0.000    0.000    0.000    0.000    0.000    0.000 
#
# Total GULP energy -173436.766620 kJ/mol
# GULP energy per Si atom -12388.340473 kJ/mol
# Density = 1.850720 g / cm^3
# Si number density = 18.549419 Si / 1000 Ang^3
#
#
#
# Elastic Constant Matrix: (Units=GPa)
#
#
# Indices 1 2 3 4 5 6 
#
# 1 111.2811 41.6903 53.7109 0.0000 -14.1566 0.0000
# 2 41.6903 67.1600 39.4707 0.0000 0.2468 0.0000
# 3 53.7109 39.4707 138.0014 0.0000 0.0237 0.0000
# 4 0.0000 0.0000 0.0000 22.4655 0.0000 0.8304
# 5 -14.1566 0.2468 0.0237 0.0000 26.8315 0.0000
# 6 0.0000 0.0000 0.0000 0.8304 0.0000 26.4300
#
#
#
# Elastic Compliance Matrix: (Units=1/GPa)
#
#
# Indices 1 2 3 4 5 6 
#
# 1 0.014210 -0.006729 -0.003607 0.000000 0.007563 0.000000
# 2 -0.006729 0.021085 -0.003411 0.000000 -0.003741 0.000000
# 3 -0.003607 -0.003411 0.009626 0.000000 -0.001880 0.000000
# 4 0.000000 0.000000 0.000000 0.044565 0.000000 -0.001400
# 5 0.007563 -0.003741 -0.001880 0.000000 0.041296 0.000000
# 6 0.000000 0.000000 0.000000 -0.001400 0.000000 0.037880
#
#
# Mechanical properties :
#
#
# Convention : Reuss Voigt Hill
#
# Bulk Modulus (GPa) = 57.38232 65.13179 61.25706
# Shear Modulus (GPa) = 24.75658 27.25010 26.00334
#
# Velocity S-wave (km/s) = 3.65722 3.83698 3.74818
# Velocity P-wave (km/s) = 6.98825 7.40397 7.19911
#
# Compressibility (1/GPa) = 0.01742697
#
# Stress axis : x y z
#
# Youngs Moduli (GPa) = 70.37078 47.42613 103.88160
#
# Poissons Ratio (x) = 0.31913 0.37475
# Poissons Ratio (y) = 0.47352 0.35436
# Poissons Ratio (z) = 0.25386 0.16178
#
# Static dielectric constant tensor:
#      x y z
#    x 3.595670 0.000000 -0.061520 
#    y 0.000000 3.082580 0.000000 
#    z -0.061520 0.000000 3.760080 
# 
# 
# High freq. dielectric constant tensor:
#      x y z
#    x 1.719960 0.000000 -0.012850 
#    y 0.000000 1.688110 0.000000 
#    z -0.012850 0.000000 1.733970 
# 
# From -- ./inp_files/46273.got.cif
#   From: 2010.03.12/outbox.cif.g09.slc.cpg/sg5_24_cif.got.tgz:46273.got - 2010.03.31 09:47:26.
