data_PCOD8048622
_publ_section_title
;
Structure prediction by ZEFSAII (Michael W. Deem and Ramdas Pophale) SiO2 
 PCOD8048622
Probable space group: C 2
;
_chemical_formula_sum "Si O2"
_cell_formula_units_Z 26
_cell_length_a 8.845775
_cell_length_b 21.108306
_cell_length_c 11.003250
_cell_angle_alpha 90.000000
_cell_angle_beta 137.709551
_cell_angle_gamma 90.000000
_cell_volume 1382.463949
_symmetry_space_group_name_H-M "C 2"
_symmetry_group_IT_number 5
_symmetry_cell_setting 'monoclinic'
loop_
_space_group_symop_operation_xyz
x,y,z
-x,y,-z
1/2+x,1/2+y,z
1/2-x,1/2+y,-z
loop_
_atom_site_type_symbol
_atom_site_label
_atom_site_fract_x
_atom_site_fract_y
_atom_site_fract_z
Si Si1 0.222938 0.875000 0.072877
Si Si2 0.000000 0.995731 0.000000
Si Si3 0.030980 0.110898 0.182163
Si Si4 0.131974 0.818621 0.768973
Si Si5 0.157709 0.673857 0.818830
Si Si6 0.172676 0.309690 0.377470
Si Si7 0.154676 0.174196 0.478391
O O1 0.220439 0.865905 0.925361
O O2 0.440333 0.845454 0.268388
O O3 0.213805 0.950677 0.095408
O O4 0.000000 0.842349 0.000000
O O5 0.943169 0.039031 0.849378
O O6 0.225917 0.154160 0.238305
O O7 0.057979 0.114952 0.343258
O O8 0.785468 0.138280 0.003419
O O9 0.168414 0.748867 0.844998
O O10 0.275722 0.824787 0.732170
O O11 0.871420 0.834382 0.583665
O O12 0.899519 0.653057 0.667632
O O13 0.152920 0.234752 0.388043
O O14 0.000000 0.189282 0.500000
#
# Coordination Sequence:
#
# PCOD8048622 Si02
#       7
#     4   2   4   4   4   4   4
#     4  10  22  36  56  84 111 152 192 236 279 320
#     4   8  22  40  60  82 106 154 206 238 262 332
#     4  10  19  40  63  77 112 153 200 229 280 335
#     4  10  19  35  58  84 118 147 187 223 290 353
#     4   9  19  34  58  88 111 149 184 229 288 354
#     4  10  21  35  56  88 120 149 177 234 290 355
#     4  11  22  33  57  92 122 143 178 241 295 341
#
# _framework density 18.806999999999999
#
# number of rings (size 3 to 8) (size 9 to 14) (size 15 to 20)
#    0.462    1.846    1.538    1.846    6.462    0.615 
#    0.000    6.154   16.923    0.000    0.000    0.000 
#    0.000    0.000    0.000    0.000    0.000    0.000 
#
# Total GULP energy -161130.579380 kJ/mol
# GULP energy per Si atom -12394.659952 kJ/mol
# Density = 1.876419 g / cm^3
# Si number density = 18.807000 Si / 1000 Ang^3
#
#
#
# Elastic Constant Matrix: (Units=GPa)
#
#
# Indices 1 2 3 4 5 6 
#
# 1 74.9780 28.8760 50.0475 0.0000 14.4571 0.0000
# 2 28.8760 93.1457 48.0736 0.0000 7.8171 0.0000
# 3 50.0475 48.0736 108.5274 0.0000 25.1183 0.0000
# 4 0.0000 0.0000 0.0000 11.1135 0.0000 1.8234
# 5 14.4571 7.8171 25.1183 0.0000 31.4957 0.0000
# 6 0.0000 0.0000 0.0000 1.8234 0.0000 27.4393
#
#
#
# Elastic Compliance Matrix: (Units=1/GPa)
#
#
# Indices 1 2 3 4 5 6 
#
# 1 0.019656 -0.001948 -0.007634 0.000000 -0.002450 0.000000
# 2 -0.001948 0.014194 -0.005863 0.000000 0.002047 0.000000
# 3 -0.007634 -0.005863 0.017395 0.000000 -0.008913 0.000000
# 4 0.000000 0.000000 0.000000 0.090972 0.000000 -0.006045
# 5 -0.002450 0.002047 -0.008913 0.000000 0.039476 0.000000
# 6 0.000000 0.000000 0.000000 -0.006045 0.000000 0.036846
#
#
# Mechanical properties :
#
#
# Convention : Reuss Voigt Hill
#
# Bulk Modulus (GPa) = 49.12919 58.96061 54.04490
# Shear Modulus (GPa) = 19.51503 23.98663 21.75083
#
# Velocity S-wave (km/s) = 3.22475 3.57516 3.40447
# Velocity P-wave (km/s) = 6.32810 6.96138 6.65228
#
# Compressibility (1/GPa) = 0.02035450
#
# Stress axis : x y z
#
# Youngs Moduli (GPa) = 50.87569 70.45332 57.48821
#
# Poissons Ratio (x) = 0.13722 0.43889
# Poissons Ratio (y) = 0.09909 0.33705
# Poissons Ratio (z) = 0.38841 0.41306
#
# Static dielectric constant tensor:
#      x y z
#    x 3.316750 0.000000 0.104570 
#    y 0.000000 3.135330 0.000000 
#    z 0.104570 0.000000 3.503020 
# 
# 
# High freq. dielectric constant tensor:
#      x y z
#    x 1.720880 0.000000 0.004920 
#    y 0.000000 1.696020 0.000000 
#    z 0.004920 0.000000 1.738950 
# 
# From -- ./inp_files/37501.got.cif
#   From: 2010.03.12/outbox.cif.g09.slc.cpg/sg5_19_cif.got.tgz:37501.got - 2010.03.31 09:47:26.
