data_PCOD8048388
_publ_section_title
;
Structure prediction by ZEFSAII (Michael W. Deem and Ramdas Pophale) SiO2 
 PCOD8048388
Probable space group: C 2
;
_chemical_formula_sum "Si O2"
_cell_formula_units_Z 32
_cell_length_a 19.348176
_cell_length_b 18.731019
_cell_length_c 11.569379
_cell_angle_alpha 90.000000
_cell_angle_beta 23.658547
_cell_angle_gamma 90.000000
_cell_volume 1682.536994
_symmetry_space_group_name_H-M "C 2"
_symmetry_group_IT_number 5
_symmetry_cell_setting 'monoclinic'
loop_
_space_group_symop_operation_xyz
x,y,z
-x,y,-z
1/2+x,1/2+y,z
1/2-x,1/2+y,-z
loop_
_atom_site_type_symbol
_atom_site_label
_atom_site_fract_x
_atom_site_fract_y
_atom_site_fract_z
Si Si1 0.969364 0.183140 0.236180
Si Si2 0.013113 0.040624 0.664678
Si Si3 0.237198 0.537027 0.908727
Si Si4 0.251916 0.650586 0.361878
Si Si5 0.363554 0.490410 0.119586
Si Si6 0.013079 0.434010 0.607074
Si Si7 0.412216 0.773672 0.751970
Si Si8 0.087512 0.676815 0.242142
O O1 0.025549 0.121498 0.238894
O O2 0.792999 0.164852 0.435793
O O3 0.968450 0.251750 0.320986
O O4 0.117177 0.196188 0.915480
O O5 0.205321 0.038959 0.314160
O O6 0.888905 0.008333 0.757562
O O7 0.982946 0.992960 0.823059
O O8 0.202925 0.613730 0.016720
O O9 0.074986 0.484892 0.163759
O O10 0.281329 0.566763 0.284985
O O11 0.063931 0.682345 0.621998
O O12 0.214212 0.431453 0.333384
O O13 0.500000 0.459876 0.000000
O O14 0.000000 0.470254 0.500000
O O15 0.914578 0.359082 0.752869
O O16 0.500000 0.745473 0.500000
O O17 0.213119 0.745886 0.061659
O O18 0.000000 0.659548 0.500000
#
# Coordination Sequence:
#
# PCOD8048388 Si02
#       8
#     4   4   4   4   4   4   4   4
#     4  10  18  37  58  87 123 151 193 247 304 357
#     4  10  19  33  58  92 118 151 191 263 300 349
#     4  11  20  33  61  92 119 146 205 260 308 345
#     4  10  19  32  64  94 113 151 202 250 297 361
#     4  11  19  38  63  91 121 157 201 244 309 373
#     4  11  23  40  60  87 122 164 207 249 304 367
#     4  11  24  41  58  84 124 167 202 255 307 355
#     4  12  20  36  62  93 117 156 212 249 297 370
#
# _framework density 19.018899000000001
#
# number of rings (size 3 to 8) (size 9 to 14) (size 15 to 20)
#    0.000    1.250    7.500    1.875    0.000    0.000 
#    2.250    6.875    5.500    0.000    0.000    0.000 
#    0.000    0.000    0.000    0.000    0.000    0.000 
#
# Total GULP energy -198218.901656 kJ/mol
# GULP energy per Si atom -12388.681353 kJ/mol
# Density = 1.897561 g / cm^3
# Si number density = 19.018899 Si / 1000 Ang^3
#
#
#
# Elastic Constant Matrix: (Units=GPa)
#
#
# Indices 1 2 3 4 5 6 
#
# 1 122.4623 23.6987 51.6525 -0.0174 -11.5844 0.0119
# 2 23.6987 58.0522 38.3802 0.1314 -0.4670 -0.0288
# 3 51.6525 38.3802 117.7596 0.0814 3.5723 -0.0256
# 4 -0.0174 0.1314 0.0814 26.8601 -0.0602 -3.3530
# 5 -11.5844 -0.4670 3.5723 -0.0602 37.4634 0.0167
# 6 0.0119 -0.0288 -0.0256 -3.3530 0.0167 15.3958
#
#
#
# Elastic Compliance Matrix: (Units=1/GPa)
#
#
# Indices 1 2 3 4 5 6 
#
# 1 0.010604 -0.001467 -0.004284 0.000033 0.003669 -0.000015
# 2 -0.001467 0.022195 -0.006604 -0.000087 0.000453 0.000012
# 3 -0.004284 -0.006604 0.012603 -0.000013 -0.002609 0.000012
# 4 0.000033 -0.000087 -0.000013 0.038271 0.000068 0.008335
# 5 0.003669 0.000453 -0.002609 0.000068 0.028082 -0.000022
# 6 -0.000015 0.000012 0.000012 0.008335 -0.000022 0.066768
#
#
# Mechanical properties :
#
#
# Convention : Reuss Voigt Hill
#
# Bulk Modulus (GPa) = 48.33076 58.41521 53.37299
# Shear Modulus (GPa) = 23.79490 28.24672 26.02081
#
# Velocity S-wave (km/s) = 3.54095 3.85800 3.70287
# Velocity P-wave (km/s) = 6.49499 7.11523 6.81218
#
# Compressibility (1/GPa) = 0.02069076
#
# Stress axis : x y z
#
# Youngs Moduli (GPa) = 94.30574 45.05594 79.34848
#
# Poissons Ratio (x) = 0.06609 0.33996
# Poissons Ratio (y) = 0.13833 0.52401
# Poissons Ratio (z) = 0.40404 0.29755
#
# Static dielectric constant tensor:
#      x y z
#    x 3.816530 0.000000 0.135180 
#    y 0.000000 3.063750 0.000010 
#    z 0.135180 0.000010 3.711900 
# 
# 
# High freq. dielectric constant tensor:
#      x y z
#    x 1.745100 0.000000 0.004080 
#    y 0.000000 1.695360 0.000000 
#    z 0.004080 0.000000 1.739870 
# 
# From -- ./inp_files/46665.got.cif
#   From: 2010.03.12/outbox.cif.g09.slc.cpg/sg5_24_cif.got.tgz:46665.got - 2010.03.31 09:47:26.
