data_PCOD8048473
_publ_section_title
;
Structure prediction by ZEFSAII (Michael W. Deem and Ramdas Pophale) SiO2 
 PCOD8048473
Probable space group: C 2
;
_chemical_formula_sum "Si O2"
_cell_formula_units_Z 30
_cell_length_a 11.527473
_cell_length_b 10.942149
_cell_length_c 14.690919
_cell_angle_alpha 90.000000
_cell_angle_beta 125.964290
_cell_angle_gamma 90.000000
_cell_volume 1499.822541
_symmetry_space_group_name_H-M "C 2"
_symmetry_group_IT_number 5
_symmetry_cell_setting 'monoclinic'
loop_
_space_group_symop_operation_xyz
x,y,z
-x,y,-z
1/2+x,1/2+y,z
1/2-x,1/2+y,-z
loop_
_atom_site_type_symbol
_atom_site_label
_atom_site_fract_x
_atom_site_fract_y
_atom_site_fract_z
Si Si1 0.262271 0.053630 0.780091
Si Si2 0.015836 0.881807 0.609505
Si Si3 0.500000 0.955140 0.000000
Si Si4 0.778383 0.032177 0.571269
Si Si5 0.962846 0.220200 0.887583
Si Si6 0.481083 0.711608 0.281375
Si Si7 0.338485 0.138406 0.302264
Si Si8 0.941125 0.494296 0.687999
O O1 0.173269 0.182357 0.743736
O O2 0.147305 0.945287 0.722069
O O3 0.366678 0.050081 0.742145
O O4 0.359889 0.038519 0.916380
O O5 0.043049 0.737489 0.612231
O O6 0.000000 0.936687 0.500000
O O7 0.869739 0.906609 0.599611
O O8 0.485639 0.863114 0.080770
O O9 0.707758 0.046512 0.637993
O O10 0.892364 0.141676 0.606756
O O11 0.651995 0.034737 0.441029
O O12 0.792587 0.215540 0.797551
O O13 0.034384 0.162153 0.830553
O O14 0.000000 0.150161 0.000000
O O15 0.532609 0.850135 0.300164
O O16 0.403923 0.056688 0.251715
#
# Coordination Sequence:
#
# PCOD8048473 Si02
#       8
#     4   4   2   4   4   4   4   4
#     4  11  22  39  63  94 116 166 211 252 315 369
#     4  11  19  37  63  82 120 161 211 253 302 375
#     4  10  18  40  68  86 116 156 220 256 304 380
#     4  10  23  37  59  88 118 166 207 253 304 374
#     4   9  18  40  65  84 113 160 205 259 309 358
#     4  10  23  40  60  91 128 154 213 261 297 384
#     4  11  23  37  58  93 123 162 211 254 314 374
#     4  12  22  39  57  87 134 165 200 256 317 369
#
# _framework density 20.002367
#
# number of rings (size 3 to 8) (size 9 to 14) (size 15 to 20)
#    0.400    1.067    4.000    2.000    1.867    2.133 
#    2.400    0.000    1.467    0.000    0.000    0.000 
#    0.000    0.000    0.000    0.000    0.000    0.000 
#
# Total GULP energy -185841.651769 kJ/mol
# GULP energy per Si atom -12389.443451 kJ/mol
# Density = 1.995684 g / cm^3
# Si number density = 20.002367 Si / 1000 Ang^3
#
#
#
# Elastic Constant Matrix: (Units=GPa)
#
#
# Indices 1 2 3 4 5 6 
#
# 1 139.7041 56.9308 28.9039 0.0000 -0.2612 0.0000
# 2 56.9308 67.1204 33.0082 0.0000 -0.7555 0.0000
# 3 28.9039 33.0082 105.8851 0.0000 1.8346 0.0000
# 4 0.0000 0.0000 0.0000 24.1234 0.0000 1.6861
# 5 -0.2612 -0.7555 1.8346 0.0000 22.3649 0.0000
# 6 0.0000 0.0000 0.0000 1.6861 0.0000 23.9412
#
#
#
# Elastic Compliance Matrix: (Units=1/GPa)
#
#
# Indices 1 2 3 4 5 6 
#
# 1 0.010941 -0.009230 -0.000106 0.000000 -0.000175 0.000000
# 2 -0.009230 0.025407 -0.005421 0.000000 0.001195 0.000000
# 3 -0.000106 -0.005421 0.011182 0.000000 -0.001102 0.000000
# 4 0.000000 0.000000 0.000000 0.041659 0.000000 -0.002934
# 5 -0.000175 0.001195 -0.001102 0.000000 0.044842 0.000000
# 6 0.000000 0.000000 0.000000 -0.002934 0.000000 0.041976
#
#
# Mechanical properties :
#
#
# Convention : Reuss Voigt Hill
#
# Bulk Modulus (GPa) = 55.50889 61.15504 58.33197
# Shear Modulus (GPa) = 23.63785 27.01035 25.32410
#
# Velocity S-wave (km/s) = 3.44139 3.67871 3.56203
# Velocity P-wave (km/s) = 6.60320 6.97740 6.79288
#
# Compressibility (1/GPa) = 0.01801513
#
# Stress axis : x y z
#
# Youngs Moduli (GPa) = 91.40111 39.35990 89.42649
#
# Poissons Ratio (x) = 0.36327 0.00951
# Poissons Ratio (y) = 0.84359 0.48482
# Poissons Ratio (z) = 0.00972 0.21339
#
# Static dielectric constant tensor:
#      x y z
#    x 3.721870 0.000000 0.044070 
#    y 0.000000 3.470880 0.000000 
#    z 0.044070 0.000000 3.833480 
# 
# 
# High freq. dielectric constant tensor:
#      x y z
#    x 1.776000 0.000000 0.007930 
#    y 0.000000 1.756290 0.000000 
#    z 0.007930 0.000000 1.784970 
# 
# From -- ./inp_files/52888.got.cif
#   From: 2010.03.12/outbox.cif.g09.slc.cpg/sg5_27_cif.got.tgz:52888.got - 2010.03.31 09:47:26.
