data_PCOD8048575
_publ_section_title
;
Structure prediction by ZEFSAII (Michael W. Deem and Ramdas Pophale) SiO2 
 PCOD8048575
Probable space group: C 2
;
_chemical_formula_sum "Si O2"
_cell_formula_units_Z 32
_cell_length_a 20.481805
_cell_length_b 13.815263
_cell_length_c 14.849584
_cell_angle_alpha 90.000000
_cell_angle_beta 19.420128
_cell_angle_gamma 90.000000
_cell_volume 1397.087090
_symmetry_space_group_name_H-M "C 2"
_symmetry_group_IT_number 5
_symmetry_cell_setting 'monoclinic'
loop_
_space_group_symop_operation_xyz
x,y,z
-x,y,-z
1/2+x,1/2+y,z
1/2-x,1/2+y,-z
loop_
_atom_site_type_symbol
_atom_site_label
_atom_site_fract_x
_atom_site_fract_y
_atom_site_fract_z
Si Si1 0.044614 0.761480 0.600230
Si Si2 0.748453 0.042159 0.897421
Si Si3 0.291909 0.854632 0.635630
Si Si4 0.623979 0.719602 0.165903
Si Si5 0.853007 0.961613 0.574536
Si Si6 0.165714 0.554765 0.479130
Si Si7 0.040203 0.774084 0.813923
Si Si8 0.796262 0.096642 0.493621
O O1 0.169908 0.844825 0.386225
O O2 0.151115 0.658123 0.447783
O O3 0.038653 0.797567 0.711132
O O4 0.819358 0.753368 0.857636
O O5 0.800355 0.155309 0.847492
O O6 0.749881 0.018737 0.789693
O O7 0.538218 0.018678 0.212000
O O8 0.912455 0.977768 0.733310
O O9 0.512212 0.812641 0.351594
O O10 0.203991 0.838474 0.650240
O O11 0.282155 0.971420 0.661712
O O12 0.170974 0.797506 0.868596
O O13 0.484676 0.658122 0.280652
O O14 0.760173 0.003606 0.603637
O O15 0.326668 0.562872 0.350327
O O16 0.096050 0.660934 0.756100
#
# Coordination Sequence:
#
# PCOD8048575 Si02
#       8
#     4   4   4   4   4   4   4   4
#     4  10  20  35  56  82 112 147 185 226 273 332
#     4   9  20  33  53  83 109 140 183 233 278 323
#     4  10  19  34  56  81 112 148 182 229 282 330
#     4   9  19  33  53  82 112 140 182 233 279 321
#     4  10  19  34  56  81 112 148 182 229 282 330
#     4  10  20  35  56  82 112 147 185 226 273 332
#     4   9  20  33  53  83 109 140 183 233 278 323
#     4   9  19  33  53  82 112 140 182 233 279 321
#
# _framework density 22.904800000000002
#
# number of rings (size 3 to 8) (size 9 to 14) (size 15 to 20)
#    0.000    2.500    0.000    1.500    0.000   18.000 
#    0.000    0.000    0.000   34.500    0.000    0.000 
#    0.000    0.000    0.000    0.000    0.000    0.000 
#
# Total GULP energy -198318.582874 kJ/mol
# GULP energy per Si atom -12394.911430 kJ/mol
# Density = 2.285267 g / cm^3
# Si number density = 22.904800 Si / 1000 Ang^3
#
#
#
# Elastic Constant Matrix: (Units=GPa)
#
#
# Indices 1 2 3 4 5 6 
#
# 1 46.5625 12.8321 9.1809 0.0010 -6.6221 -0.0008
# 2 12.8321 145.4791 17.0281 0.0039 6.3705 -0.0035
# 3 9.1809 17.0281 36.7947 0.0192 -7.9730 -0.0115
# 4 0.0010 0.0039 0.0192 26.6425 -0.0054 4.9296
# 5 -6.6221 6.3705 -7.9730 -0.0054 14.4238 0.0030
# 6 -0.0008 -0.0035 -0.0115 4.9296 0.0030 23.3804
#
#
#
# Elastic Compliance Matrix: (Units=1/GPa)
#
#
# Indices 1 2 3 4 5 6 
#
# 1 0.024141 -0.002282 -0.002667 0.000004 0.010617 -0.000003
# 2 -0.002282 0.007930 -0.004643 0.000001 -0.007117 0.000000
# 3 -0.002667 -0.004643 0.034276 -0.000023 0.019773 0.000018
# 4 0.000004 0.000001 -0.000023 0.039058 0.000005 -0.008235
# 5 0.010617 -0.007117 0.019773 0.000005 0.088278 -0.000003
# 6 -0.000003 0.000000 0.000018 -0.008235 -0.000003 0.044507
#
#
# Mechanical properties :
#
#
# Convention : Reuss Voigt Hill
#
# Bulk Modulus (GPa) = 21.20237 34.10207 27.65222
# Shear Modulus (GPa) = 18.30865 25.54236 21.92550
#
# Velocity S-wave (km/s) = 2.83032 3.34301 3.09729
# Velocity P-wave (km/s) = 4.46741 5.46094 4.98897
#
# Compressibility (1/GPa) = 0.04716455
#
# Stress axis : x y z
#
# Youngs Moduli (GPa) = 41.42283 126.10043 29.17465
#
# Poissons Ratio (x) = 0.28778 0.07780
# Poissons Ratio (y) = 0.09453 0.13545
# Poissons Ratio (z) = 0.11047 0.58544
#
# Static dielectric constant tensor:
#      x y z
#    x 4.039690 0.000000 -0.401940 
#    y 0.000000 4.343690 0.000000 
#    z -0.401940 0.000000 3.773400 
# 
# 
# High freq. dielectric constant tensor:
#      x y z
#    x 1.891160 0.000000 -0.028350 
#    y 0.000000 1.912630 0.000000 
#    z -0.028350 0.000000 1.872370 
# 
# From -- ./inp_files/57181.got.cif
#   From: 2010.03.12/outbox.cif.g09.slc.cpg/sg5_29_cif.got.tgz:57181.got - 2010.03.31 09:47:26.
