data_PCOD8048296
_publ_section_title
;
Structure prediction by ZEFSAII (Michael W. Deem and Ramdas Pophale) SiO2 
 PCOD8048296
Probable space group: C 2
;
_chemical_formula_sum "Si O2"
_cell_formula_units_Z 26
_cell_length_a 8.088850
_cell_length_b 14.680123
_cell_length_c 14.443581
_cell_angle_alpha 90.000000
_cell_angle_beta 42.968730
_cell_angle_gamma 90.000000
_cell_volume 1169.015780
_symmetry_space_group_name_H-M "C 2"
_symmetry_group_IT_number 5
_symmetry_cell_setting 'monoclinic'
loop_
_space_group_symop_operation_xyz
x,y,z
-x,y,-z
1/2+x,1/2+y,z
1/2-x,1/2+y,-z
loop_
_atom_site_type_symbol
_atom_site_label
_atom_site_fract_x
_atom_site_fract_y
_atom_site_fract_z
Si Si1 0.240417 0.300110 0.624151
Si Si2 0.500000 0.531840 0.000000
Si Si3 0.486284 0.059852 0.187804
Si Si4 0.100382 0.975696 0.765951
Si Si5 0.012895 0.121593 0.309668
Si Si6 0.363171 0.987722 0.431353
Si Si7 0.669447 0.879851 0.848349
O O1 0.500000 0.255074 0.500000
O O2 0.062657 0.225687 0.653705
O O3 0.237546 0.392394 0.565778
O O4 0.191182 0.310166 0.753967
O O5 0.581359 0.462793 0.884370
O O6 0.732862 0.593038 0.934913
O O7 0.289134 0.130664 0.231224
O O8 0.432921 0.050453 0.317299
O O9 0.464174 0.968655 0.136278
O O10 0.383133 0.968443 0.616442
O O11 0.939259 0.901559 0.776709
O O12 0.998603 0.078809 0.788510
O O13 0.850165 0.043972 0.429921
O O14 0.500000 0.839639 0.000000
#
# Coordination Sequence:
#
# PCOD8048296 Si02
#       7
#     4   2   4   4   4   4   4
#     4  11  23  40  64  95 133 175 221 277 334 392
#     4  10  18  34  60  94 120 170 226 258 320 394
#     4   9  19  35  64  92 125 167 219 268 319 391
#     4  10  20  35  64  89 124 169 221 266 320 392
#     4  11  22  39  62  94 134 171 217 275 330 390
#     4  10  20  39  64  97 124 168 220 268 328 396
#     4  10  19  38  66  94 129 173 220 271 329 392
#
# _framework density 22.240932000000001
#
# number of rings (size 3 to 8) (size 9 to 14) (size 15 to 20)
#    0.000    1.846    1.538    4.615    0.000    0.000 
#    1.385    9.231    3.385    0.000    0.000    0.000 
#    0.000    0.000    0.000    0.000    0.000    0.000 
#
# Total GULP energy -161049.221263 kJ/mol
# GULP energy per Si atom -12388.401636 kJ/mol
# Density = 2.219031 g / cm^3
# Si number density = 22.240932 Si / 1000 Ang^3
#
#
#
# Elastic Constant Matrix: (Units=GPa)
#
#
# Indices 1 2 3 4 5 6 
#
# 1 150.8931 36.5185 64.3643 0.0024 -41.0915 -0.0029
# 2 36.5185 77.9132 39.6304 0.0026 3.5547 -0.0028
# 3 64.3643 39.6304 135.4208 0.0038 -13.3766 -0.0031
# 4 0.0024 0.0026 0.0038 12.2375 -0.0028 -5.8358
# 5 -41.0915 3.5547 -13.3766 -0.0028 41.7088 0.0031
# 6 -0.0029 -0.0028 -0.0031 -5.8358 0.0031 23.8940
#
#
#
# Elastic Compliance Matrix: (Units=1/GPa)
#
#
# Indices 1 2 3 4 5 6 
#
# 1 0.012273 -0.004556 -0.003374 0.000002 0.011397 0.000000
# 2 -0.004556 0.017092 -0.003536 -0.000003 -0.007079 0.000001
# 3 -0.003374 -0.003536 0.010042 -0.000002 0.000198 0.000000
# 4 0.000002 -0.000003 -0.000002 0.092488 0.000006 0.022589
# 5 0.011397 -0.007079 0.000198 0.000006 0.035871 -0.000003
# 6 0.000000 0.000001 0.000000 0.022589 -0.000003 0.047369
#
#
# Mechanical properties :
#
#
# Convention : Reuss Voigt Hill
#
# Bulk Modulus (GPa) = 60.69724 71.69483 66.19604
# Shear Modulus (GPa) = 20.52898 30.48233 25.50566
#
# Velocity S-wave (km/s) = 3.04143 3.70611 3.39010
# Velocity P-wave (km/s) = 6.29951 7.11472 6.71949
#
# Compressibility (1/GPa) = 0.01647521
#
# Stress axis : x y z
#
# Youngs Moduli (GPa) = 81.48070 58.50800 99.57931
#
# Poissons Ratio (x) = 0.26657 0.33598
# Poissons Ratio (y) = 0.37124 0.35207
# Poissons Ratio (z) = 0.27492 0.20686
#
# Static dielectric constant tensor:
#      x y z
#    x 4.491750 0.000000 -0.024880 
#    y 0.000000 3.310780 0.000000 
#    z -0.024880 0.000000 4.321940 
# 
# 
# High freq. dielectric constant tensor:
#      x y z
#    x 1.903160 0.000000 -0.001850 
#    y 0.000000 1.808610 0.000000 
#    z -0.001850 0.000000 1.897320 
# 
# From -- ./inp_files/51092.got.cif
#   From: 2010.03.12/outbox.cif.g09.slc.cpg/sg5_26_cif.got.tgz:51092.got - 2010.03.31 09:47:26.
