data_PCOD8048530
_publ_section_title
;
Structure prediction by ZEFSAII (Michael W. Deem and Ramdas Pophale) SiO2 
 PCOD8048530
Probable space group: C 2
;
_chemical_formula_sum "Si O2"
_cell_formula_units_Z 26
_cell_length_a 13.513327
_cell_length_b 12.062147
_cell_length_c 11.479880
_cell_angle_alpha 90.000000
_cell_angle_beta 47.718785
_cell_angle_gamma 90.000000
_cell_volume 1384.423405
_symmetry_space_group_name_H-M "C 2"
_symmetry_group_IT_number 5
_symmetry_cell_setting 'monoclinic'
loop_
_space_group_symop_operation_xyz
x,y,z
-x,y,-z
1/2+x,1/2+y,z
1/2-x,1/2+y,-z
loop_
_atom_site_type_symbol
_atom_site_label
_atom_site_fract_x
_atom_site_fract_y
_atom_site_fract_z
Si Si1 0.668268 0.192840 0.115367
Si Si2 0.935685 0.918821 0.728405
Si Si3 0.371211 0.514735 0.031033
Si Si4 0.570316 0.101887 0.830453
Si Si5 0.835551 0.011211 0.571817
Si Si6 0.000000 0.207116 0.500000
Si Si7 0.255747 0.286967 0.186814
O O1 0.617028 0.293631 0.235503
O O2 0.767251 0.116005 0.110990
O O3 0.539116 0.122784 0.180788
O O4 0.744325 0.240095 0.943354
O O5 0.858333 0.987037 0.690741
O O6 0.095668 0.921201 0.568773
O O7 0.910916 0.977032 0.870514
O O8 0.306684 0.412577 0.152186
O O9 0.500000 0.556471 0.000000
O O10 0.675629 0.018420 0.685262
O O11 0.644366 0.215328 0.811100
O O12 0.500000 0.047253 0.000000
O O13 0.908325 0.129342 0.488444
O O14 0.898716 0.284808 0.651945
#
# Coordination Sequence:
#
# PCOD8048530 Si02
#       7
#     4   4   4   4   4   2   4
#     4  10  19  33  52  77 107 136 171 213 260 314
#     4   9  18  35  55  76 102 138 175 210 260 306
#     4  11  21  35  53  76 107 142 171 207 263 315
#     4   9  16  31  55  81 101 131 179 220 249 294
#     4   9  17  33  59  79 101 134 175 221 256 296
#     4   8  14  28  52  82 100 124 174 216 244 286
#     4   9  17  32  56  78 103 136 175 218 252 296
#
# _framework density 18.780381999999999
#
# number of rings (size 3 to 8) (size 9 to 14) (size 15 to 20)
#    0.000    2.769    0.000    6.000    0.000    0.000 
#    0.000   13.077    0.000    1.846    0.000    0.000 
#    0.000    0.000    0.000    0.000    0.000    0.000 
#
# Total GULP energy -161125.730261 kJ/mol
# GULP energy per Si atom -12394.286943 kJ/mol
# Density = 1.873764 g / cm^3
# Si number density = 18.780382 Si / 1000 Ang^3
#
#
#
# Elastic Constant Matrix: (Units=GPa)
#
#
# Indices 1 2 3 4 5 6 
#
# 1 100.8865 47.2958 46.9246 0.0000 -22.9784 0.0000
# 2 47.2958 88.3354 49.4715 0.0000 -15.0389 0.0000
# 3 46.9246 49.4715 124.5579 0.0000 -33.4425 0.0000
# 4 0.0000 0.0000 0.0000 30.2577 0.0000 -7.8404
# 5 -22.9784 -15.0389 -33.4425 0.0000 34.6845 0.0000
# 6 0.0000 0.0000 0.0000 -7.8404 0.0000 17.4645
#
#
#
# Elastic Compliance Matrix: (Units=1/GPa)
#
#
# Indices 1 2 3 4 5 6 
#
# 1 0.014787 -0.006028 -0.001684 0.000000 0.005559 0.000000
# 2 -0.006028 0.017041 -0.004839 0.000000 -0.001270 0.000000
# 3 -0.001684 -0.004839 0.013118 0.000000 0.009434 0.000000
# 4 0.000000 0.000000 0.000000 0.037400 0.000000 0.016790
# 5 0.005559 -0.001270 0.009434 0.000000 0.041060 0.000000
# 6 0.000000 0.000000 0.000000 0.016790 0.000000 0.064797
#
#
# Mechanical properties :
#
#
# Convention : Reuss Voigt Hill
#
# Bulk Modulus (GPa) = 50.38896 66.79595 58.59245
# Shear Modulus (GPa) = 22.73556 27.82051 25.27804
#
# Velocity S-wave (km/s) = 3.48314 3.85302 3.67274
# Velocity P-wave (km/s) = 6.56241 7.44570 7.01797
#
# Compressibility (1/GPa) = 0.01984562
#
# Stress axis : x y z
#
# Youngs Moduli (GPa) = 67.62471 58.68057 76.23343
#
# Poissons Ratio (x) = 0.35371 0.12839
# Poissons Ratio (y) = 0.40762 0.36886
# Poissons Ratio (z) = 0.11389 0.28393
#
# Static dielectric constant tensor:
#      x y z
#    x 3.260870 0.000000 -0.285460 
#    y 0.000000 3.332630 0.000000 
#    z -0.285460 0.000000 3.650960 
# 
# 
# High freq. dielectric constant tensor:
#      x y z
#    x 1.709560 0.000000 -0.021350 
#    y 0.000000 1.706740 0.000000 
#    z -0.021350 0.000000 1.733950 
# 
# From -- ./inp_files/42189.got.cif
#   From: 2010.03.12/outbox.cif.g09.slc.cpg/sg5_22_cif.got.tgz:42189.got - 2010.03.31 09:47:26.
