data_PCOD8048888
_publ_section_title
;
Structure prediction by ZEFSAII (Michael W. Deem and Ramdas Pophale) SiO2 
 PCOD8048888
Probable space group: C 2
;
_chemical_formula_sum "Si O2"
_cell_formula_units_Z 28
_cell_length_a 15.101224
_cell_length_b 9.542620
_cell_length_c 14.860133
_cell_angle_alpha 90.000000
_cell_angle_beta 143.846121
_cell_angle_gamma 90.000000
_cell_volume 1263.345178
_symmetry_space_group_name_H-M "C 2"
_symmetry_group_IT_number 5
_symmetry_cell_setting 'monoclinic'
loop_
_space_group_symop_operation_xyz
x,y,z
-x,y,-z
1/2+x,1/2+y,z
1/2-x,1/2+y,-z
loop_
_atom_site_type_symbol
_atom_site_label
_atom_site_fract_x
_atom_site_fract_y
_atom_site_fract_z
Si Si1 0.516882 0.698420 0.658225
Si Si2 0.229521 0.139018 0.677260
Si Si3 0.480451 0.953298 0.881365
Si Si4 0.103118 0.891845 0.238133
Si Si5 0.577533 0.652441 0.911371
Si Si6 0.924584 0.661561 0.189308
Si Si7 0.065705 0.492601 0.454507
O O1 0.630689 0.622534 0.684199
O O2 0.352603 0.669137 0.484223
O O3 0.545205 0.636015 0.778875
O O4 0.532583 0.866069 0.669336
O O5 0.344711 0.270039 0.788594
O O6 0.308022 0.992034 0.720167
O O7 0.495753 0.788435 0.882640
O O8 0.580212 0.046585 0.895279
O O9 0.500000 0.001522 0.000000
O O10 0.993653 0.812306 0.219330
O O11 0.254938 0.965361 0.401331
O O12 0.999393 0.013911 0.107789
O O13 0.751660 0.672597 0.077969
O O14 0.027351 0.621712 0.358781
O O15 0.000000 0.519584 0.500000
#
# Coordination Sequence:
#
# PCOD8048888 Si02
#       7
#     4   4   4   4   4   4   4
#     4  10  19  40  69  93 130 173 228 272 339 394
#     4   9  20  41  67  94 126 177 228 278 324 409
#     4  11  24  42  64  96 137 174 227 272 338 397
#     4  10  24  41  67 101 130 179 228 266 341 403
#     4  12  25  41  67  97 142 176 219 282 335 408
#     4  11  25  45  68  98 139 182 223 275 347 402
#     4  11  22  44  70  99 134 172 234 285 332 402
#
# _framework density 22.16338
#
# number of rings (size 3 to 8) (size 9 to 14) (size 15 to 20)
#    0.000    1.429    4.286    1.714    6.000    1.143 
#    0.000    2.143    0.000    0.000    0.000    0.000 
#    0.000    0.000    0.000    0.000    0.000    0.000 
#
# Total GULP energy -173471.239756 kJ/mol
# GULP energy per Si atom -12390.802840 kJ/mol
# Density = 2.211294 g / cm^3
# Si number density = 22.163380 Si / 1000 Ang^3
#
#
#
# Elastic Constant Matrix: (Units=GPa)
#
#
# Indices 1 2 3 4 5 6 
#
# 1 70.8474 36.6221 45.6322 0.0000 15.8473 0.0000
# 2 36.6221 127.9973 40.9178 0.0000 24.8735 0.0000
# 3 45.6322 40.9178 83.7985 0.0000 15.5689 0.0000
# 4 0.0000 0.0000 0.0000 29.7737 0.0000 6.9850
# 5 15.8473 24.8735 15.5689 0.0000 45.2796 0.0000
# 6 0.0000 0.0000 0.0000 6.9850 0.0000 23.8996
#
#
#
# Elastic Compliance Matrix: (Units=1/GPa)
#
#
# Indices 1 2 3 4 5 6 
#
# 1 0.023018 -0.002584 -0.010725 0.000000 -0.002949 0.000000
# 2 -0.002584 0.010193 -0.002882 0.000000 -0.003704 0.000000
# 3 -0.010725 -0.002882 0.019430 0.000000 -0.001344 0.000000
# 4 0.000000 0.000000 0.000000 0.036059 0.000000 -0.010539
# 5 -0.002949 -0.003704 -0.001344 0.000000 0.025614 0.000000
# 6 0.000000 0.000000 0.000000 -0.010539 0.000000 0.044922
#
#
# Mechanical properties :
#
#
# Convention : Reuss Voigt Hill
#
# Bulk Modulus (GPa) = 49.35812 58.77636 54.06724
# Shear Modulus (GPa) = 25.20531 30.42197 27.81364
#
# Velocity S-wave (km/s) = 3.37597 3.70891 3.54635
# Velocity P-wave (km/s) = 6.12493 6.70213 6.42002
#
# Compressibility (1/GPa) = 0.02026009
#
# Stress axis : x y z
#
# Youngs Moduli (GPa) = 43.44441 98.10548 51.46603
#
# Poissons Ratio (x) = 0.25354 0.55195
# Poissons Ratio (y) = 0.11228 0.14831
# Poissons Ratio (z) = 0.46592 0.28271
#
# Static dielectric constant tensor:
#      x y z
#    x 4.025520 0.000000 0.170410 
#    y 0.000000 3.929610 0.000000 
#    z 0.170410 0.000000 3.952860 
# 
# 
# High freq. dielectric constant tensor:
#      x y z
#    x 1.873040 0.000000 0.014710 
#    y 0.000000 1.869620 0.000000 
#    z 0.014710 0.000000 1.862810 
# 
# From -- ./inp_files/54323.got.cif
#   From: 2010.03.12/outbox.cif.g09.slc.cpg/sg5_28_cif.got.tgz:54323.got - 2010.03.31 09:47:26.
