data_PCOD8048241
_publ_section_title
;
Structure prediction by ZEFSAII (Michael W. Deem and Ramdas Pophale) SiO2 
 PCOD8048241
Probable space group: C 2
;
_chemical_formula_sum "Si O2"
_cell_formula_units_Z 26
_cell_length_a 8.490008
_cell_length_b 16.130259
_cell_length_c 10.300895
_cell_angle_alpha 90.000000
_cell_angle_beta 63.934905
_cell_angle_gamma 90.000000
_cell_volume 1267.195399
_symmetry_space_group_name_H-M "C 2"
_symmetry_group_IT_number 5
_symmetry_cell_setting 'monoclinic'
loop_
_space_group_symop_operation_xyz
x,y,z
-x,y,-z
1/2+x,1/2+y,z
1/2-x,1/2+y,-z
loop_
_atom_site_type_symbol
_atom_site_label
_atom_site_fract_x
_atom_site_fract_y
_atom_site_fract_z
Si Si1 0.296362 0.140990 0.751468
Si Si2 0.022681 0.852246 0.288050
Si Si3 0.865955 0.968219 0.165114
Si Si4 0.872094 0.307845 0.784179
Si Si5 0.248402 0.288888 0.584610
Si Si6 0.948442 0.707967 0.158860
Si Si7 0.000000 0.236146 0.000000
O O1 0.288400 0.194792 0.621035
O O2 0.490639 0.144349 0.749223
O O3 0.159414 0.177317 0.903549
O O4 0.248371 0.045750 0.745686
O O5 0.980500 0.943758 0.251184
O O6 0.853229 0.807328 0.415557
O O7 0.058778 0.793409 0.149253
O O8 0.184760 0.853405 0.327782
O O9 0.733867 0.893643 0.179399
O O10 0.000000 0.988767 0.000000
O O11 0.757870 0.230195 0.771889
O O12 0.045281 0.308190 0.630882
O O13 0.939470 0.294677 0.905328
O O14 0.000000 0.672181 0.000000
#
# Coordination Sequence:
#
# PCOD8048241 Si02
#       7
#     4   4   4   4   4   4   2
#     4  10  20  37  57  83 119 154 199 245 306 341
#     4   9  19  38  61  83 117 156 210 235 295 357
#     4  11  23  36  57  92 123 158 188 257 307 342
#     4  10  20  33  57  85 114 159 201 237 292 355
#     4   9  20  38  62  85 109 166 206 240 284 368
#     4  10  18  33  55  82 114 157 191 240 284 362
#     4  10  18  34  56  78 116 152 198 236 280 370
#
# _framework density 20.517749999999999
#
# number of rings (size 3 to 8) (size 9 to 14) (size 15 to 20)
#    0.000    2.154    2.308    1.846    4.308    2.462 
#    1.385    9.231    0.000   12.923    0.000    0.000 
#    0.000    0.000    0.000    0.000    0.000    0.000 
#
# Total GULP energy -161067.631436 kJ/mol
# GULP energy per Si atom -12389.817803 kJ/mol
# Density = 2.047105 g / cm^3
# Si number density = 20.517750 Si / 1000 Ang^3
#
#
#
# Elastic Constant Matrix: (Units=GPa)
#
#
# Indices 1 2 3 4 5 6 
#
# 1 107.7528 36.7352 9.4943 0.0000 -7.0951 0.0000
# 2 36.7352 110.1533 19.6325 0.0000 6.6415 0.0000
# 3 9.4943 19.6325 55.7369 0.0000 -2.1759 0.0000
# 4 0.0000 0.0000 0.0000 14.3616 0.0000 -1.0978
# 5 -7.0951 6.6415 -2.1759 0.0000 35.0876 0.0000
# 6 0.0000 0.0000 0.0000 -1.0978 0.0000 34.0283
#
#
#
# Elastic Compliance Matrix: (Units=1/GPa)
#
#
# Indices 1 2 3 4 5 6 
#
# 1 0.010762 -0.003685 -0.000424 0.000000 0.002847 0.000000
# 2 -0.003685 0.011098 -0.003401 0.000000 -0.003057 0.000000
# 3 -0.000424 -0.003401 0.019280 0.000000 0.001754 0.000000
# 4 0.000000 0.000000 0.000000 0.069802 0.000000 0.002252
# 5 0.002847 -0.003057 0.001754 0.000000 0.029763 0.000000
# 6 0.000000 0.000000 0.000000 0.002252 0.000000 0.029460
#
#
# Mechanical properties :
#
#
# Convention : Reuss Voigt Hill
#
# Bulk Modulus (GPa) = 38.28494 45.04079 41.66286
# Shear Modulus (GPa) = 25.78776 30.54757 28.16767
#
# Velocity S-wave (km/s) = 3.54906 3.86273 3.70921
# Velocity P-wave (km/s) = 5.95771 6.47256 6.22046
#
# Compressibility (1/GPa) = 0.02611993
#
# Stress axis : x y z
#
# Youngs Moduli (GPa) = 92.92254 90.11000 51.86744
#
# Poissons Ratio (x) = 0.33206 0.02199
# Poissons Ratio (y) = 0.34242 0.17638
# Poissons Ratio (z) = 0.03940 0.30642
#
# Static dielectric constant tensor:
#      x y z
#    x 4.117380 0.000000 -0.023430 
#    y 0.000000 3.399680 0.000000 
#    z -0.023430 0.000000 3.704200 
# 
# 
# High freq. dielectric constant tensor:
#      x y z
#    x 1.818840 0.000000 0.003500 
#    y 0.000000 1.755070 0.000000 
#    z 0.003500 0.000000 1.800430 
# 
# From -- ./inp_files/36621.got.cif
#   From: 2010.03.12/outbox.cif.g09.slc.cpg/sg5_19_cif.got.tgz:36621.got - 2010.03.31 09:47:26.
