data_PCOD8048460
_publ_section_title
;
Structure prediction by ZEFSAII (Michael W. Deem and Ramdas Pophale) SiO2 
 PCOD8048460
Probable space group: C 2
;
_chemical_formula_sum "Si O2"
_cell_formula_units_Z 22
_cell_length_a 21.958840
_cell_length_b 8.561731
_cell_length_c 9.897255
_cell_angle_alpha 90.000000
_cell_angle_beta 34.296128
_cell_angle_gamma 90.000000
_cell_volume 1048.471673
_symmetry_space_group_name_H-M "C 2"
_symmetry_group_IT_number 5
_symmetry_cell_setting 'monoclinic'
loop_
_space_group_symop_operation_xyz
x,y,z
-x,y,-z
1/2+x,1/2+y,z
1/2-x,1/2+y,-z
loop_
_atom_site_type_symbol
_atom_site_label
_atom_site_fract_x
_atom_site_fract_y
_atom_site_fract_z
Si Si1 0.715888 0.859780 0.377273
Si Si2 0.000000 0.581087 0.000000
Si Si3 0.242742 0.339725 0.855774
Si Si4 0.978233 0.434131 0.766233
Si Si5 0.718268 0.191980 0.490086
Si Si6 0.323128 0.165358 0.958715
O O1 0.599910 0.879090 0.513576
O O2 0.705311 0.743602 0.525097
O O3 0.800193 0.800837 0.110701
O O4 0.756761 0.025311 0.360643
O O5 0.903716 0.688939 0.230519
O O6 0.041360 0.465496 0.039884
O O7 0.281502 0.315784 0.631699
O O8 0.261207 0.522726 0.858380
O O9 0.112323 0.304512 0.108319
O O10 0.308894 0.228093 0.833815
O O11 0.945997 0.597851 0.748522
#
# Coordination Sequence:
#
# PCOD8048460 Si02
#       6
#     4   2   4   4   4   4
#     4  11  21  40  69  92 135 175 222 272 337 393
#     4  10  18  40  60  98 126 168 224 270 334 392
#     4  10  21  40  63  93 135 170 221 273 335 393
#     4   9  21  38  69  87 132 171 218 263 342 377
#     4  11  21  37  67  95 128 180 219 281 331 395
#     4  10  21  41  66  95 136 171 221 272 329 408
#
# _framework density 20.982921999999999
#
# number of rings (size 3 to 8) (size 9 to 14) (size 15 to 20)
#    1.091    0.727    1.818    4.364    0.000    0.727 
#    3.273    3.636   16.000    1.091    0.000    0.000 
#    0.000    0.000    0.000    0.000    0.000    0.000 
#
# Total GULP energy -136284.984976 kJ/mol
# GULP energy per Si atom -12389.544089 kJ/mol
# Density = 2.093516 g / cm^3
# Si number density = 20.982922 Si / 1000 Ang^3
#
#
#
# Elastic Constant Matrix: (Units=GPa)
#
#
# Indices 1 2 3 4 5 6 
#
# 1 123.3894 24.3417 18.8976 0.0000 0.8685 0.0000
# 2 24.3417 70.2405 17.2927 0.0000 -12.1420 0.0000
# 3 18.8976 17.2927 56.5297 0.0000 -0.6308 0.0000
# 4 0.0000 0.0000 0.0000 25.5853 0.0000 -0.3509
# 5 0.8685 -12.1420 -0.6308 0.0000 25.8058 0.0000
# 6 0.0000 0.0000 0.0000 -0.3509 0.0000 49.1559
#
#
#
# Elastic Compliance Matrix: (Units=1/GPa)
#
#
# Indices 1 2 3 4 5 6 
#
# 1 0.009016 -0.002892 -0.002148 0.000000 -0.001717 0.000000
# 2 -0.002892 0.017758 -0.004372 0.000000 0.008346 0.000000
# 3 -0.002148 -0.004372 0.019729 0.000000 -0.001503 0.000000
# 4 0.000000 0.000000 0.000000 0.039089 0.000000 0.000279
# 5 -0.001717 0.008346 -0.001503 0.000000 0.042699 0.000000
# 6 0.000000 0.000000 0.000000 0.000279 0.000000 0.020345
#
#
# Mechanical properties :
#
#
# Convention : Reuss Voigt Hill
#
# Bulk Modulus (GPa) = 36.13108 41.24704 38.68906
# Shear Modulus (GPa) = 28.29845 32.75126 30.52485
#
# Velocity S-wave (km/s) = 3.67637 3.95505 3.81825
# Velocity P-wave (km/s) = 5.93949 6.36841 6.15769
#
# Compressibility (1/GPa) = 0.02767700
#
# Stress axis : x y z
#
# Youngs Moduli (GPa) = 110.91216 56.31172 50.68742
#
# Poissons Ratio (x) = 0.16288 0.10890
# Poissons Ratio (y) = 0.32080 0.22162
# Poissons Ratio (z) = 0.23828 0.24621
#
# Static dielectric constant tensor:
#      x y z
#    x 4.040940 0.000000 0.057490 
#    y 0.000000 3.659130 0.000000 
#    z 0.057490 0.000000 3.428690 
# 
# 
# High freq. dielectric constant tensor:
#      x y z
#    x 1.835500 0.000000 0.019590 
#    y 0.000000 1.802920 0.000000 
#    z 0.019590 0.000000 1.799430 
# 
# From -- ./inp_files/28843.got.cif
#   From: 2010.03.12/outbox.cif.g09.slc.cpg/sg5_15_cif.got.tgz:28843.got - 2010.03.31 09:47:26.
