data_PCOD8048452
_publ_section_title
;
Structure prediction by ZEFSAII (Michael W. Deem and Ramdas Pophale) SiO2 
 PCOD8048452
Probable space group: C 2
;
_chemical_formula_sum "Si O2"
_cell_formula_units_Z 32
_cell_length_a 17.448119
_cell_length_b 9.009725
_cell_length_c 13.512996
_cell_angle_alpha 90.000000
_cell_angle_beta 129.920987
_cell_angle_gamma 90.000000
_cell_volume 1629.174505
_symmetry_space_group_name_H-M "C 2"
_symmetry_group_IT_number 5
_symmetry_cell_setting 'monoclinic'
loop_
_space_group_symop_operation_xyz
x,y,z
-x,y,-z
1/2+x,1/2+y,z
1/2-x,1/2+y,-z
loop_
_atom_site_type_symbol
_atom_site_label
_atom_site_fract_x
_atom_site_fract_y
_atom_site_fract_z
Si Si1 0.864548 0.168260 0.122516
Si Si2 0.044726 0.969717 0.639573
Si Si3 0.271030 0.959718 0.124065
Si Si4 0.898764 0.910627 0.873406
Si Si5 0.138428 0.922476 0.375409
Si Si6 0.609992 0.159303 0.630829
Si Si7 0.226882 0.223812 0.389805
Si Si8 0.545847 0.734352 0.131179
O O1 0.823056 0.332687 0.102888
O O2 0.966462 0.182816 0.146299
O O3 0.890245 0.092482 0.249403
O O4 0.785593 0.069380 0.997579
O O5 0.114165 0.828927 0.671839
O O6 0.000000 0.037599 0.500000
O O7 0.956906 0.902717 0.634086
O O8 0.194973 0.873966 0.134243
O O9 0.356644 0.048554 0.254471
O O10 0.883480 0.850669 0.749812
O O11 0.906379 0.088458 0.880020
O O12 0.000000 0.836591 0.000000
O O13 0.231578 0.834294 0.495276
O O14 0.166215 0.094685 0.394657
O O15 0.500000 0.114709 0.500000
O O16 0.688615 0.146878 0.606762
O O17 0.141841 0.317029 0.258070
O O18 0.500000 0.827711 0.000000
#
# Coordination Sequence:
#
# PCOD8048452 Si02
#       8
#     4   4   4   4   4   4   4   4
#     4  12  24  41  67 101 128 169 220 275 328 389
#     4  11  22  41  63  93 133 173 209 265 330 385
#     4  12  24  41  67 101 128 169 220 275 328 389
#     4  10  18  39  69  86 118 168 217 251 317 392
#     4  11  21  39  66  93 122 172 218 256 319 387
#     4  11  22  41  63  93 133 173 209 265 330 385
#     4  11  21  39  66  93 122 172 218 256 319 387
#     4  10  18  39  69  86 118 168 217 251 317 392
#
# _framework density 19.641849000000001
#
# number of rings (size 3 to 8) (size 9 to 14) (size 15 to 20)
#    0.000    1.000   10.000    0.750    0.000    2.500 
#    0.000    0.000    0.000    0.000    0.000    0.000 
#    0.000    0.000    0.000    0.000    0.000    0.000 
#
# Total GULP energy -198365.758410 kJ/mol
# GULP energy per Si atom -12397.859901 kJ/mol
# Density = 1.959714 g / cm^3
# Si number density = 19.641849 Si / 1000 Ang^3
#
#
#
# Elastic Constant Matrix: (Units=GPa)
#
#
# Indices 1 2 3 4 5 6 
#
# 1 57.9750 18.7993 35.3240 0.0000 0.1154 0.0000
# 2 18.7993 49.5405 44.8308 0.0000 1.9836 0.0000
# 3 35.3240 44.8308 207.6360 0.0000 0.4987 0.0000
# 4 0.0000 0.0000 0.0000 34.5211 0.0000 -0.3015
# 5 0.1154 1.9836 0.4987 0.0000 36.2971 0.0000
# 6 0.0000 0.0000 0.0000 -0.3015 0.0000 12.1978
#
#
#
# Elastic Compliance Matrix: (Units=1/GPa)
#
#
# Indices 1 2 3 4 5 6 
#
# 1 0.020480 -0.005754 -0.002243 0.000000 0.000280 0.000000
# 2 -0.005754 0.026765 -0.004797 0.000000 -0.001378 0.000000
# 3 -0.002243 -0.004797 0.006233 0.000000 0.000184 0.000000
# 4 0.000000 0.000000 0.000000 0.028974 0.000000 0.000716
# 5 0.000280 -0.001378 0.000184 0.000000 0.027622 0.000000
# 6 0.000000 0.000000 0.000000 0.000716 0.000000 0.082000
#
#
# Mechanical properties :
#
#
# Convention : Reuss Voigt Hill
#
# Bulk Modulus (GPa) = 35.85226 57.00664 46.42945
# Shear Modulus (GPa) = 22.03059 31.01637 26.52348
#
# Velocity S-wave (km/s) = 3.35269 3.97810 3.67871
# Velocity P-wave (km/s) = 5.76888 7.08423 6.46012
#
# Compressibility (1/GPa) = 0.02789225
#
# Stress axis : x y z
#
# Youngs Moduli (GPa) = 48.82722 37.36267 160.44012
#
# Poissons Ratio (x) = 0.21497 0.35981
# Poissons Ratio (y) = 0.28093 0.76957
# Poissons Ratio (z) = 0.10950 0.17922
#
# Static dielectric constant tensor:
#      x y z
#    x 3.560990 0.000000 0.033170 
#    y 0.000000 3.109520 0.000000 
#    z 0.033170 0.000000 4.351240 
# 
# 
# High freq. dielectric constant tensor:
#      x y z
#    x 1.774740 0.000000 0.001510 
#    y 0.000000 1.714880 0.000000 
#    z 0.001510 0.000000 1.795160 
# 
# From -- ./inp_files/55668.got.cif
#   From: 2010.03.12/outbox.cif.g09.slc.cpg/sg5_28_cif.got.tgz:55668.got - 2010.03.31 09:47:26.
