data_PCOD8048150
_publ_section_title
;
Structure prediction by ZEFSAII (Michael W. Deem and Ramdas Pophale) SiO2 
 PCOD8048150
Probable space group: C 2
;
_chemical_formula_sum "Si O2"
_cell_formula_units_Z 30
_cell_length_a 20.889403
_cell_length_b 14.378224
_cell_length_c 15.959455
_cell_angle_alpha 90.000000
_cell_angle_beta 162.640904
_cell_angle_gamma 90.000000
_cell_volume 1430.174941
_symmetry_space_group_name_H-M "C 2"
_symmetry_group_IT_number 5
_symmetry_cell_setting 'monoclinic'
loop_
_space_group_symop_operation_xyz
x,y,z
-x,y,-z
1/2+x,1/2+y,z
1/2-x,1/2+y,-z
loop_
_atom_site_type_symbol
_atom_site_label
_atom_site_fract_x
_atom_site_fract_y
_atom_site_fract_z
Si Si1 0.917269 0.734940 0.598322
Si Si2 0.166394 0.915006 0.941152
Si Si3 0.257131 0.206717 0.226934
Si Si4 0.134444 0.341219 0.536952
Si Si5 0.175132 0.111255 0.878886
Si Si6 0.249185 0.496536 0.787205
Si Si7 0.500000 0.702908 0.500000
Si Si8 0.899316 0.225000 0.656461
O O1 0.747244 0.741305 0.309935
O O2 0.797642 0.694784 0.530830
O O3 0.983725 0.842364 0.689114
O O4 0.109544 0.662493 0.818525
O O5 0.192989 0.999697 0.907964
O O6 0.380943 0.855340 0.213488
O O7 0.108850 0.956161 0.960172
O O8 0.500000 0.218161 0.500000
O O9 0.174699 0.100724 0.130377
O O10 0.096665 0.260388 0.962798
O O11 0.271820 0.433618 0.731114
O O12 0.163831 0.266422 0.649649
O O13 0.201076 0.305394 0.528535
O O14 0.136048 0.138021 0.733222
O O15 0.980495 0.143053 0.696442
O O16 0.000000 0.491836 0.500000
#
# Coordination Sequence:
#
# PCOD8048150 Si02
#       8
#     4   4   4   4   4   4   2   4
#     4  12  23  40  65  92 129 169 206 263 320 371
#     4  11  19  39  65  89 121 166 209 256 312 372
#     4  11  19  39  65  90 124 166 207 257 318 366
#     4  10  17  36  62  90 121 159 206 255 311 368
#     4  11  22  44  62  91 129 166 210 264 314 373
#     4   9  16  31  63  95 114 152 211 257 302 370
#     4  10  18  36  66  82 122 166 202 254 316 366
#     4  11  23  39  61  94 127 164 205 261 315 374
#
# _framework density 20.976455000000001
#
# number of rings (size 3 to 8) (size 9 to 14) (size 15 to 20)
#    0.000    1.333    7.333    2.000    0.000    0.000 
#    8.400    6.000    0.000    0.000    0.000    0.000 
#    0.000    0.000    0.000    0.000    0.000    0.000 
#
# Total GULP energy -185912.894462 kJ/mol
# GULP energy per Si atom -12394.192964 kJ/mol
# Density = 2.092871 g / cm^3
# Si number density = 20.976455 Si / 1000 Ang^3
#
#
#
# Elastic Constant Matrix: (Units=GPa)
#
#
# Indices 1 2 3 4 5 6 
#
# 1 107.8103 39.7413 25.5511 0.0020 -20.4805 0.0015
# 2 39.7413 92.1801 33.0541 0.0098 -9.2096 0.0152
# 3 25.5511 33.0541 53.6778 -0.0039 -22.4933 0.0006
# 4 0.0020 0.0098 -0.0039 22.8617 -0.0050 -16.8733
# 5 -20.4805 -9.2096 -22.4933 -0.0050 40.5469 0.0092
# 6 0.0015 0.0152 0.0006 -16.8733 0.0092 26.3967
#
#
#
# Elastic Compliance Matrix: (Units=1/GPa)
#
#
# Indices 1 2 3 4 5 6 
#
# 1 0.011981 -0.004289 -0.001217 0.000003 0.004402 0.000002
# 2 -0.004289 0.015594 -0.009100 -0.000027 -0.003673 -0.000024
# 3 -0.001217 -0.009100 0.030863 0.000023 0.014440 0.000014
# 4 0.000003 -0.000027 0.000023 0.082809 0.000007 0.052934
# 5 0.004402 -0.003673 0.014440 0.000007 0.034063 -0.000006
# 6 0.000002 -0.000024 0.000014 0.052934 -0.000006 0.071720
#
#
# Mechanical properties :
#
#
# Convention : Reuss Voigt Hill
#
# Bulk Modulus (GPa) = 34.21579 50.04014 42.12797
# Shear Modulus (GPa) = 17.48346 28.31583 22.89964
#
# Velocity S-wave (km/s) = 2.89014 3.67807 3.30765
# Velocity P-wave (km/s) = 5.24253 6.47648 5.89190
#
# Compressibility (1/GPa) = 0.02922627
#
# Stress axis : x y z
#
# Youngs Moduli (GPa) = 83.46230 64.12907 32.40087
#
# Poissons Ratio (x) = 0.27506 0.03944
# Poissons Ratio (y) = 0.35799 0.29484
# Poissons Ratio (z) = 0.10159 0.58355
#
# Static dielectric constant tensor:
#      x y z
#    x 3.866130 -0.000010 -0.432670 
#    y -0.000010 3.785170 -0.000010 
#    z -0.432670 -0.000010 3.733770 
# 
# 
# High freq. dielectric constant tensor:
#      x y z
#    x 1.820670 0.000000 -0.026390 
#    y 0.000000 1.803040 0.000000 
#    z -0.026390 0.000000 1.808460 
# 
# From -- ./inp_files/57157.got.cif
#   From: 2010.03.12/outbox.cif.g09.slc.cpg/sg5_29_cif.got.tgz:57157.got - 2010.03.31 09:47:26.
