data_PCOD8048491
_publ_section_title
;
Structure prediction by ZEFSAII (Michael W. Deem and Ramdas Pophale) SiO2 
 PCOD8048491
Probable space group: C 2
;
_chemical_formula_sum "Si O2"
_cell_formula_units_Z 28
_cell_length_a 20.860971
_cell_length_b 8.831803
_cell_length_c 16.923825
_cell_angle_alpha 90.000000
_cell_angle_beta 25.516969
_cell_angle_gamma 90.000000
_cell_volume 1343.186534
_symmetry_space_group_name_H-M "C 2"
_symmetry_group_IT_number 5
_symmetry_cell_setting 'monoclinic'
loop_
_space_group_symop_operation_xyz
x,y,z
-x,y,-z
1/2+x,1/2+y,z
1/2-x,1/2+y,-z
loop_
_atom_site_type_symbol
_atom_site_label
_atom_site_fract_x
_atom_site_fract_y
_atom_site_fract_z
Si Si1 0.238232 0.918640 0.720686
Si Si2 0.457041 0.452585 0.923507
Si Si3 0.601209 0.987867 0.601118
Si Si4 0.138563 0.193350 0.649157
Si Si5 0.828422 0.093372 0.681078
Si Si6 0.617198 0.923662 0.807787
Si Si7 0.411451 0.123436 0.931355
O O1 0.301161 0.760124 0.678830
O O2 0.104400 0.903743 0.807330
O O3 0.370631 0.006859 0.524919
O O4 0.175833 0.002988 0.868482
O O5 0.490249 0.591154 0.827109
O O6 0.413464 0.304987 0.921469
O O7 0.721434 0.082452 0.519626
O O8 0.441349 0.049186 0.810755
O O9 0.615874 0.807009 0.601238
O O10 0.168850 0.289365 0.694051
O O11 0.000000 0.056724 0.500000
O O12 0.765152 0.978057 0.687043
O O13 0.747878 0.072838 0.856008
O O14 0.537953 0.062677 0.850638
O O15 0.500000 0.853482 0.000000
#
# Coordination Sequence:
#
# PCOD8048491 Si02
#       7
#     4   4   4   4   4   4   4
#     4   9  17  29  52  76 105 132 176 214 263 304
#     4   9  16  30  51  78 108 134 167 216 265 314
#     4  10  19  30  48  79 114 133 169 219 277 313
#     4  10  20  27  50  80 115 139 167 214 279 318
#     4  10  19  34  58  76 101 148 188 214 254 321
#     4   9  18  31  51  82 105 132 180 222 260 306
#     4   9  17  34  53  79 106 135 170 225 268 316
#
# _framework density 20.845952
#
# number of rings (size 3 to 8) (size 9 to 14) (size 15 to 20)
#    0.000    2.571    1.429    1.714    6.000    0.000 
#    0.000    0.000    3.143    3.429    0.000    0.000 
#    0.000    0.000    0.000    0.000    0.000    0.000 
#
# Total GULP energy -173458.557915 kJ/mol
# GULP energy per Si atom -12389.896994 kJ/mol
# Density = 2.079851 g / cm^3
# Si number density = 20.845952 Si / 1000 Ang^3
#
#
#
# Elastic Constant Matrix: (Units=GPa)
#
#
# Indices 1 2 3 4 5 6 
#
# 1 22.9674 7.7289 36.8103 0.0000 2.2105 0.0000
# 2 7.7289 88.4807 41.5186 -0.0001 7.2065 0.0001
# 3 36.8103 41.5186 159.2923 0.0000 22.3018 0.0000
# 4 0.0000 -0.0001 0.0000 33.8166 0.0000 13.4349
# 5 2.2105 7.2065 22.3018 0.0000 36.9464 0.0000
# 6 0.0000 0.0001 0.0000 13.4349 0.0000 16.0324
#
#
#
# Elastic Compliance Matrix: (Units=1/GPa)
#
#
# Indices 1 2 3 4 5 6 
#
# 1 0.070593 0.001587 -0.017577 0.000000 0.006077 0.000000
# 2 0.001587 0.012922 -0.003679 0.000000 -0.000394 0.000000
# 3 -0.017577 -0.003679 0.012071 0.000000 -0.005517 0.000000
# 4 0.000000 0.000000 0.000000 0.044329 0.000000 -0.037147
# 5 0.006077 -0.000394 -0.005517 0.000000 0.030110 0.000000
# 6 0.000000 0.000000 0.000000 -0.037147 0.000000 0.093502
#
#
# Mechanical properties :
#
#
# Convention : Reuss Voigt Hill
#
# Bulk Modulus (GPa) = 17.77919 49.20621 33.49270
# Shear Modulus (GPa) = 15.54648 29.67128 22.60888
#
# Velocity S-wave (km/s) = 2.73386 3.77684 3.29685
# Velocity P-wave (km/s) = 4.30264 6.53263 5.53118
#
# Compressibility (1/GPa) = 0.05624553
#
# Stress axis : x y z
#
# Youngs Moduli (GPa) = 14.16573 77.38752 82.84230
#
# Poissons Ratio (x) = -0.12279 1.45616
# Poissons Ratio (y) = -0.02248 0.30482
# Poissons Ratio (z) = 0.24900 0.28475
#
# Static dielectric constant tensor:
#      x y z
#    x 3.210620 0.000000 0.580630 
#    y 0.000000 3.761020 0.000000 
#    z 0.580630 0.000000 4.308660 
# 
# 
# High freq. dielectric constant tensor:
#      x y z
#    x 1.745330 0.000000 0.046740 
#    y 0.000000 1.810460 0.000000 
#    z 0.046740 0.000000 1.831590 
# 
# From -- ./inp_files/67507.got.cif
#   From: 2010.03.12/outbox.cif.g09.slc.cpg/sg5_34_cif.got.tgz:67507.got - 2010.03.31 09:47:26.
