data_PCOD8048804
_publ_section_title
;
Structure prediction by ZEFSAII (Michael W. Deem and Ramdas Pophale) SiO2 
 PCOD8048804
Probable space group: C 2
;
_chemical_formula_sum "Si O2"
_cell_formula_units_Z 26
_cell_length_a 17.800437
_cell_length_b 9.619521
_cell_length_c 10.240880
_cell_angle_alpha 90.000000
_cell_angle_beta 138.908845
_cell_angle_gamma 90.000000
_cell_volume 1152.544941
_symmetry_space_group_name_H-M "C 2"
_symmetry_group_IT_number 5
_symmetry_cell_setting 'monoclinic'
loop_
_space_group_symop_operation_xyz
x,y,z
-x,y,-z
1/2+x,1/2+y,z
1/2-x,1/2+y,-z
loop_
_atom_site_type_symbol
_atom_site_label
_atom_site_fract_x
_atom_site_fract_y
_atom_site_fract_z
Si Si1 0.522247 0.030760 0.762949
Si Si2 0.500000 0.167378 0.000000
Si Si3 0.093725 0.990804 0.325571
Si Si4 0.600775 0.263481 0.546917
Si Si5 0.252766 0.102004 0.076540
Si Si6 0.358119 0.419011 0.876953
Si Si7 0.483450 0.721218 0.326324
O O1 0.446365 0.113785 0.559819
O O2 0.654761 0.071468 0.913726
O O3 0.505398 0.867806 0.728744
O O4 0.479257 0.069534 0.850055
O O5 0.616192 0.257758 0.124823
O O6 0.132499 0.862833 0.468224
O O7 0.175225 0.998608 0.303649
O O8 0.087986 0.130594 0.403198
O O9 0.972285 0.968203 0.098516
O O10 0.500000 0.337916 0.500000
O O11 0.710026 0.231147 0.781182
O O12 0.240133 0.959014 0.147285
O O13 0.136704 0.145766 0.854757
O O14 0.500000 0.740514 0.500000
#
# Coordination Sequence:
#
# PCOD8048804 Si02
#       7
#     4   2   4   4   4   4   4
#     4  11  23  41  64  95 131 173 212 269 323 384
#     4  10  20  40  74  88 128 180 218 254 338 388
#     4   9  18  37  66  88 123 174 213 252 327 388
#     4  10  19  38  63  92 128 170 213 263 322 389
#     4  10  24  38  66  96 132 165 221 270 323 384
#     4   9  18  39  66  92 124 168 213 266 314 386
#     4  11  24  41  62  94 130 172 215 278 323 382
#
# _framework density 22.558772000000001
#
# number of rings (size 3 to 8) (size 9 to 14) (size 15 to 20)
#    0.000    2.154    3.077    1.846    2.154    4.923 
#    0.000    6.154    0.000    0.000    0.000    0.000 
#    0.000    0.000    0.000    0.000    0.000    0.000 
#
# Total GULP energy -161088.722065 kJ/mol
# GULP energy per Si atom -12391.440159 kJ/mol
# Density = 2.250743 g / cm^3
# Si number density = 22.558772 Si / 1000 Ang^3
#
#
#
# Elastic Constant Matrix: (Units=GPa)
#
#
# Indices 1 2 3 4 5 6 
#
# 1 84.4162 34.2253 28.1380 0.0000 -26.1340 0.0000
# 2 34.2253 128.0698 20.6724 0.0000 -12.6459 0.0000
# 3 28.1380 20.6724 62.5157 0.0000 -14.6477 0.0000
# 4 0.0000 0.0000 0.0000 19.5238 0.0000 -10.1381
# 5 -26.1340 -12.6459 -14.6477 0.0000 33.6039 0.0000
# 6 0.0000 0.0000 0.0000 -10.1381 0.0000 32.6445
#
#
#
# Elastic Compliance Matrix: (Units=1/GPa)
#
#
# Indices 1 2 3 4 5 6 
#
# 1 0.017926 -0.002987 -0.004541 0.000000 0.010838 0.000000
# 2 -0.002987 0.008886 -0.001509 0.000000 0.000363 0.000000
# 3 -0.004541 -0.001509 0.019578 0.000000 0.004434 0.000000
# 4 0.000000 0.000000 0.000000 0.061068 0.000000 0.018965
# 5 0.010838 0.000363 0.004434 0.000000 0.040256 0.000000
# 6 0.000000 0.000000 0.000000 0.018965 0.000000 0.036523
#
#
# Mechanical properties :
#
#
# Convention : Reuss Voigt Hill
#
# Bulk Modulus (GPa) = 35.31679 49.00812 42.16246
# Shear Modulus (GPa) = 23.61273 29.95216 26.78245
#
# Velocity S-wave (km/s) = 3.23882 3.64777 3.44936
# Velocity P-wave (km/s) = 5.44757 6.28597 5.88173
#
# Compressibility (1/GPa) = 0.02831514
#
# Stress axis : x y z
#
# Youngs Moduli (GPa) = 55.78442 112.53691 51.07807
#
# Poissons Ratio (x) = 0.33619 0.23196
# Poissons Ratio (y) = 0.16665 0.07706
# Poissons Ratio (z) = 0.25333 0.16978
#
# Static dielectric constant tensor:
#      x y z
#    x 5.201430 0.000000 -0.242340 
#    y 0.000000 4.072770 0.000000 
#    z -0.242340 0.000000 3.890340 
# 
# 
# High freq. dielectric constant tensor:
#      x y z
#    x 1.890470 0.000000 -0.028800 
#    y 0.000000 1.877810 0.000000 
#    z -0.028800 0.000000 1.876930 
# 
# From -- ./inp_files/46167.got.cif
#   From: 2010.03.12/outbox.cif.g09.slc.cpg/sg5_24_cif.got.tgz:46167.got - 2010.03.31 09:47:26.
