data_PCOD8048197
_publ_section_title
;
Structure prediction by ZEFSAII (Michael W. Deem and Ramdas Pophale) SiO2 
 PCOD8048197
Probable space group: C 2
;
_chemical_formula_sum "Si O2"
_cell_formula_units_Z 26
_cell_length_a 10.370827
_cell_length_b 16.350809
_cell_length_c 10.199254
_cell_angle_alpha 90.000000
_cell_angle_beta 138.672459
_cell_angle_gamma 90.000000
_cell_volume 1142.098560
_symmetry_space_group_name_H-M "C 2"
_symmetry_group_IT_number 5
_symmetry_cell_setting 'monoclinic'
loop_
_space_group_symop_operation_xyz
x,y,z
-x,y,-z
1/2+x,1/2+y,z
1/2-x,1/2+y,-z
loop_
_atom_site_type_symbol
_atom_site_label
_atom_site_fract_x
_atom_site_fract_y
_atom_site_fract_z
Si Si1 0.887852 0.380940 0.624072
Si Si2 0.877387 0.918700 0.791285
Si Si3 0.272060 0.089199 0.342213
Si Si4 0.000000 0.536080 0.000000
Si Si5 0.742851 0.899466 0.054574
Si Si6 0.295539 0.548612 0.420612
Si Si7 0.773967 0.768137 0.294749
O O1 0.820105 0.376578 0.418594
O O2 0.771018 0.454934 0.604919
O O3 0.838471 0.298235 0.662163
O O4 0.123867 0.392009 0.823198
O O5 0.028651 0.916280 0.785723
O O6 0.835708 0.011680 0.805550
O O7 0.000000 0.872464 0.000000
O O8 0.500000 0.070637 0.500000
O O9 0.205368 0.097099 0.443307
O O10 0.216164 0.173256 0.226239
O O11 0.168274 0.479458 0.069003
O O12 0.120321 0.589587 0.198286
O O13 0.709261 0.818480 0.116875
O O14 0.500000 0.554479 0.500000
O O15 0.000000 0.775985 0.500000
#
# Coordination Sequence:
#
# PCOD8048197 Si02
#       7
#     4   4   4   2   4   4   4
#     4  10  20  36  67  93 126 155 232 271 315 379
#     4  11  25  38  61  95 132 171 217 267 331 389
#     4  10  25  40  62  96 145 174 208 273 345 389
#     4  10  18  30  66  92 116 152 228 262 314 372
#     4  11  20  36  67  99 115 169 223 280 313 383
#     4  10  19  37  64  92 124 166 216 270 315 379
#     4  11  19  39  67  95 128 171 223 275 321 390
#
# _framework density 22.76511
#
# number of rings (size 3 to 8) (size 9 to 14) (size 15 to 20)
#    0.000    1.538    4.615    2.308    6.462    1.231 
#    0.000    0.000    5.077    0.000    0.000    0.000 
#    0.000    0.000    0.000    0.000    0.000    0.000 
#
# Total GULP energy -161048.903408 kJ/mol
# GULP energy per Si atom -12388.377185 kJ/mol
# Density = 2.271330 g / cm^3
# Si number density = 22.765110 Si / 1000 Ang^3
#
#
#
# Elastic Constant Matrix: (Units=GPa)
#
#
# Indices 1 2 3 4 5 6 
#
# 1 43.4017 4.4639 8.3975 0.0000 13.2933 0.0000
# 2 4.4639 70.5326 15.5669 0.0000 5.2750 0.0000
# 3 8.3975 15.5669 153.1393 0.0000 -10.9516 0.0000
# 4 0.0000 0.0000 0.0000 8.5405 0.0000 3.1338
# 5 13.2933 5.2750 -10.9516 0.0000 38.1967 0.0000
# 6 0.0000 0.0000 0.0000 3.1338 0.0000 19.7330
#
#
#
# Elastic Compliance Matrix: (Units=1/GPa)
#
#
# Indices 1 2 3 4 5 6 
#
# 1 0.026484 -0.000483 -0.002101 0.000000 -0.009752 0.000000
# 2 -0.000483 0.014745 -0.001640 0.000000 -0.002338 0.000000
# 3 -0.002101 -0.001640 0.007024 0.000000 0.002971 0.000000
# 4 0.000000 0.000000 0.000000 0.124334 0.000000 -0.019746
# 5 -0.009752 -0.002338 0.002971 0.000000 0.030749 0.000000
# 6 0.000000 0.000000 0.000000 -0.019746 0.000000 0.053812
#
#
# Mechanical properties :
#
#
# Convention : Reuss Voigt Hill
#
# Bulk Modulus (GPa) = 25.12147 35.99226 30.55687
# Shear Modulus (GPa) = 17.92984 29.20373 23.56678
#
# Velocity S-wave (km/s) = 2.80947 3.58554 3.22097
# Velocity P-wave (km/s) = 4.64577 5.74335 5.22347
#
# Compressibility (1/GPa) = 0.03980658
#
# Stress axis : x y z
#
# Youngs Moduli (GPa) = 37.75902 67.81890 142.36172
#
# Poissons Ratio (x) = 0.03277 0.29904
# Poissons Ratio (y) = 0.01824 0.23342
# Poissons Ratio (z) = 0.07932 0.11120
#
# Static dielectric constant tensor:
#      x y z
#    x 4.163800 0.000000 -0.179590 
#    y 0.000000 3.658900 0.000000 
#    z -0.179590 0.000000 4.965850 
# 
# 
# High freq. dielectric constant tensor:
#      x y z
#    x 1.897800 0.000000 0.010230 
#    y 0.000000 1.837710 0.000000 
#    z 0.010230 0.000000 1.929690 
# 
# From -- ./inp_files/40390.got.cif
#   From: 2010.03.12/outbox.cif.g09.slc.cpg/sg5_21_cif.got.tgz:40390.got - 2010.03.31 09:47:26.
