data_PCOD8048907
_publ_section_title
;
Structure prediction by ZEFSAII (Michael W. Deem and Ramdas Pophale) SiO2 
 PCOD8048907
Probable space group: C 2
;
_chemical_formula_sum "Si O2"
_cell_formula_units_Z 20
_cell_length_a 23.445403
_cell_length_b 8.951194
_cell_length_c 6.761107
_cell_angle_alpha 90.000000
_cell_angle_beta 48.588426
_cell_angle_gamma 90.000000
_cell_volume 1064.154524
_symmetry_space_group_name_H-M "C 2"
_symmetry_group_IT_number 5
_symmetry_cell_setting 'monoclinic'
loop_
_space_group_symop_operation_xyz
x,y,z
-x,y,-z
1/2+x,1/2+y,z
1/2-x,1/2+y,-z
loop_
_atom_site_type_symbol
_atom_site_label
_atom_site_fract_x
_atom_site_fract_y
_atom_site_fract_z
Si Si1 0.577976 0.557260 0.716711
Si Si2 0.802401 0.558651 0.807295
Si Si3 0.837659 0.005199 0.089533
Si Si4 0.838282 0.231486 0.780154
Si Si5 0.419591 0.299016 0.604371
O O1 0.607763 0.703510 0.532808
O O2 0.564146 0.423990 0.595917
O O3 0.500000 0.602321 0.000000
O O4 0.639828 0.502224 0.734164
O O5 0.829770 0.406003 0.847834
O O6 0.875436 0.662235 0.599974
O O7 0.755263 0.512368 0.715399
O O8 0.742590 0.649188 0.083006
O O9 0.869542 0.860385 0.901378
O O10 0.872617 0.152985 0.899418
O O11 0.500000 0.238896 0.500000
#
# Coordination Sequence:
#
# PCOD8048907 Si02
#       5
#     4   4   4   4   4
#     4  11  21  36  61  86 116 160 197 238 298 349
#     4  10  19  42  58  88 118 155 201 240 299 340
#     4   9  19  37  61  82 115 154 195 237 291 351
#     4   9  20  37  59  82 117 153 197 246 283 354
#     4  11  21  39  62  88 121 157 196 244 293 356
#
# _framework density 18.794263999999998
#
# number of rings (size 3 to 8) (size 9 to 14) (size 15 to 20)
#    1.200    0.800    4.000    0.000    0.000    1.600 
#    3.600    1.000    0.000    0.000    0.000    0.000 
#    0.000    0.000    0.000    0.000    0.000    0.000 
#
# Total GULP energy -123894.520959 kJ/mol
# GULP energy per Si atom -12389.452096 kJ/mol
# Density = 1.875149 g / cm^3
# Si number density = 18.794264 Si / 1000 Ang^3
#
#
#
# Elastic Constant Matrix: (Units=GPa)
#
#
# Indices 1 2 3 4 5 6 
#
# 1 114.2957 14.0692 20.6948 0.0000 -10.4168 0.0000
# 2 14.0692 95.0386 20.0396 0.0000 -20.6495 0.0000
# 3 20.6948 20.0396 66.7864 0.0000 -7.6871 0.0000
# 4 0.0000 0.0000 0.0000 15.7746 0.0000 -8.8875
# 5 -10.4168 -20.6495 -7.6871 0.0000 30.6191 0.0000
# 6 0.0000 0.0000 0.0000 -8.8875 0.0000 25.8824
#
#
#
# Elastic Compliance Matrix: (Units=1/GPa)
#
#
# Indices 1 2 3 4 5 6 
#
# 1 0.009469 -0.000354 -0.002559 0.000000 0.002341 0.000000
# 2 -0.000354 0.012882 -0.002852 0.000000 0.007851 0.000000
# 3 -0.002559 -0.002852 0.016785 0.000000 0.001420 0.000000
# 4 0.000000 0.000000 0.000000 0.078599 0.000000 0.026989
# 5 0.002341 0.007851 0.001420 0.000000 0.039107 0.000000
# 6 0.000000 0.000000 0.000000 0.026989 0.000000 0.047904
#
#
# Mechanical properties :
#
#
# Convention : Reuss Voigt Hill
#
# Bulk Modulus (GPa) = 36.22216 42.85865 39.54041
# Shear Modulus (GPa) = 22.17523 29.20969 25.69246
#
# Velocity S-wave (km/s) = 3.43868 3.94659 3.70136
# Velocity P-wave (km/s) = 5.92291 6.60462 6.27303
#
# Compressibility (1/GPa) = 0.02760741
#
# Stress axis : x y z
#
# Youngs Moduli (GPa) = 105.60343 77.63024 59.57645
#
# Poissons Ratio (x) = 0.02746 0.15244
# Poissons Ratio (y) = 0.03736 0.16991
# Poissons Ratio (z) = 0.27021 0.22140
#
# Static dielectric constant tensor:
#      x y z
#    x 3.475270 0.000000 -0.084070 
#    y 0.000000 3.233980 0.000000 
#    z -0.084070 0.000000 3.160560 
# 
# 
# High freq. dielectric constant tensor:
#      x y z
#    x 1.730150 0.000000 -0.008220 
#    y 0.000000 1.715820 0.000000 
#    z -0.008220 0.000000 1.699990 
# 
# From -- ./inp_files/9156.got.cif
#   From: 2010.03.12/outbox.cif.g09.slc.cpg/sg5_5_cif.got.tgz:9156.got - 2010.03.31 09:47:26.
