data_PCOD8048696
_publ_section_title
;
Structure prediction by ZEFSAII (Michael W. Deem and Ramdas Pophale) SiO2 
 PCOD8048696
Probable space group: C 2
;
_chemical_formula_sum "Si O2"
_cell_formula_units_Z 20
_cell_length_a 7.346008
_cell_length_b 16.821491
_cell_length_c 10.267832
_cell_angle_alpha 90.000000
_cell_angle_beta 132.276887
_cell_angle_gamma 90.000000
_cell_volume 938.791501
_symmetry_space_group_name_H-M "C 2"
_symmetry_group_IT_number 5
_symmetry_cell_setting 'monoclinic'
loop_
_space_group_symop_operation_xyz
x,y,z
-x,y,-z
1/2+x,1/2+y,z
1/2-x,1/2+y,-z
loop_
_atom_site_type_symbol
_atom_site_label
_atom_site_fract_x
_atom_site_fract_y
_atom_site_fract_z
Si Si1 0.500000 0.226360 0.500000
Si Si2 0.675326 0.841155 0.194514
Si Si3 0.743274 0.903014 0.848081
Si Si4 0.763313 0.004944 0.100453
Si Si5 0.350479 0.595262 0.562492
Si Si6 0.000000 0.475671 0.500000
O O1 0.392824 0.281363 0.333926
O O2 0.719661 0.177143 0.538893
O O3 0.499822 0.853346 0.235243
O O4 0.787603 0.924936 0.200573
O O5 0.500000 0.803160 0.000000
O O6 0.708455 0.926070 0.678971
O O7 0.000000 0.854467 0.000000
O O8 0.778724 0.981188 0.956428
O O9 0.965789 0.070381 0.233244
O O10 0.500000 0.045494 0.000000
O O11 0.500000 0.602443 0.500000
O O12 0.137751 0.527900 0.455078
#
# Coordination Sequence:
#
# PCOD8048696 Si02
#       6
#     2   4   4   4   4   2
#     4  11  26  46  62  96 139 176 214 267 338 390
#     4   9  22  43  66  92 133 175 213 274 325 388
#     4  10  19  36  63 105 124 160 223 271 323 374
#     4   9  19  39  68  96 126 167 222 275 315 380
#     4  11  23  43  62  99 132 173 222 263 332 391
#     4  11  22  36  70 102 131 162 212 283 320 382
#
# _framework density 21.303985999999998
#
# number of rings (size 3 to 8) (size 9 to 14) (size 15 to 20)
#    0.000    2.400    2.000    2.400    4.200    0.000 
#   19.800    0.000    0.000    0.000    0.000    0.000 
#    0.000    0.000    0.000    0.000    0.000    0.000 
#
# Total GULP energy -123913.344470 kJ/mol
# GULP energy per Si atom -12391.334447 kJ/mol
# Density = 2.125550 g / cm^3
# Si number density = 21.303986 Si / 1000 Ang^3
#
#
#
# Elastic Constant Matrix: (Units=GPa)
#
#
# Indices 1 2 3 4 5 6 
#
# 1 119.3473 33.2683 28.0197 0.0000 3.9690 0.0000
# 2 33.2683 77.0467 64.4480 0.0000 11.0570 0.0000
# 3 28.0197 64.4480 149.6162 0.0000 8.1177 0.0000
# 4 0.0000 0.0000 0.0000 39.4988 0.0000 18.0361
# 5 3.9690 11.0570 8.1177 0.0000 38.0311 0.0000
# 6 0.0000 0.0000 0.0000 18.0361 0.0000 25.7399
#
#
#
# Elastic Compliance Matrix: (Units=1/GPa)
#
#
# Indices 1 2 3 4 5 6 
#
# 1 0.009527 -0.004130 -0.000017 0.000000 0.000210 0.000000
# 2 -0.004130 0.022726 -0.008783 0.000000 -0.004302 0.000000
# 3 -0.000017 -0.008783 0.010452 0.000000 0.000324 0.000000
# 4 0.000000 0.000000 0.000000 0.037229 0.000000 -0.026087
# 5 0.000210 -0.004302 0.000324 0.000000 0.027454 0.000000
# 6 0.000000 0.000000 0.000000 -0.026087 0.000000 0.057129
#
#
# Mechanical properties :
#
#
# Convention : Reuss Voigt Hill
#
# Bulk Modulus (GPa) = 59.35636 66.38693 62.87164
# Shear Modulus (GPa) = 25.51122 35.33891 30.42507
#
# Velocity S-wave (km/s) = 3.46423 4.07725 3.78317
# Velocity P-wave (km/s) = 6.62746 7.30716 6.97560
#
# Compressibility (1/GPa) = 0.01684740
#
# Stress axis : x y z
#
# Youngs Moduli (GPa) = 104.96415 44.00190 95.67134
#
# Poissons Ratio (x) = 0.18173 0.00159
# Poissons Ratio (y) = 0.43350 0.84025
# Poissons Ratio (z) = 0.00174 0.38645
#
# Static dielectric constant tensor:
#      x y z
#    x 4.132430 0.000000 0.307270 
#    y 0.000000 3.344870 0.000000 
#    z 0.307270 0.000000 3.883910 
# 
# 
# High freq. dielectric constant tensor:
#      x y z
#    x 1.854640 0.000000 0.017680 
#    y 0.000000 1.776420 0.000000 
#    z 0.017680 0.000000 1.846620 
# 
# From -- ./inp_files/36710.got.cif
#   From: 2010.03.12/outbox.cif.g09.slc.cpg/sg5_19_cif.got.tgz:36710.got - 2010.03.31 09:47:26.
