data_PCOD8048294
_publ_section_title
;
Structure prediction by ZEFSAII (Michael W. Deem and Ramdas Pophale) SiO2 
 PCOD8048294
Probable space group: C 2
;
_chemical_formula_sum "Si O2"
_cell_formula_units_Z 26
_cell_length_a 9.670448
_cell_length_b 26.332668
_cell_length_c 5.094445
_cell_angle_alpha 90.000000
_cell_angle_beta 79.519248
_cell_angle_gamma 90.000000
_cell_volume 1275.649824
_symmetry_space_group_name_H-M "C 2"
_symmetry_group_IT_number 5
_symmetry_cell_setting 'monoclinic'
loop_
_space_group_symop_operation_xyz
x,y,z
-x,y,-z
1/2+x,1/2+y,z
1/2-x,1/2+y,-z
loop_
_atom_site_type_symbol
_atom_site_label
_atom_site_fract_x
_atom_site_fract_y
_atom_site_fract_z
Si Si1 0.148886 0.618980 0.559033
Si Si2 0.901925 0.308151 0.282532
Si Si3 0.840372 0.955233 0.023727
Si Si4 0.258085 0.063729 0.985840
Si Si5 0.339332 0.388756 0.530275
Si Si6 0.360102 0.697375 0.387734
Si Si7 0.500000 0.617783 0.000000
O O1 0.134515 0.585163 0.830461
O O2 0.230992 0.672323 0.595450
O O3 0.000000 0.636572 0.500000
O O4 0.218758 0.583948 0.314583
O O5 0.769817 0.344687 0.364751
O O6 0.829337 0.252449 0.272494
O O7 0.000000 0.311954 0.500000
O O8 0.000000 0.321739 0.000000
O O9 0.816961 0.932497 0.747021
O O10 0.735339 0.003159 0.056440
O O11 0.805466 0.913103 0.257517
O O12 0.000000 0.974318 0.000000
O O13 0.101270 0.081674 0.141413
O O14 0.500000 0.367733 0.500000
O O15 0.500000 0.705306 0.500000
O O16 0.386258 0.654328 0.167607
#
# Coordination Sequence:
#
# PCOD8048294 Si02
#       7
#     4   4   4   4   4   4   2
#     4  11  24  38  56  88 129 162 193 243 310 380
#     4  11  23  40  64  90 124 160 208 258 319 364
#     4  10  20  38  62  91 116 155 210 263 299 359
#     4  11  21  37  62  86 123 155 202 249 310 353
#     4  10  22  40  62  89 122 156 209 260 310 365
#     4  10  20  37  61  87 119 152 209 250 294 364
#     4  10  18  34  60  94 112 146 200 254 298 342
#
# _framework density 20.381765999999999
#
# number of rings (size 3 to 8) (size 9 to 14) (size 15 to 20)
#    0.000    1.538    3.077    2.308    0.000    0.615 
#    0.000    7.692    0.000    3.692    0.000    0.000 
#    0.000    0.000    0.000    0.000    0.000    0.000 
#
# Total GULP energy -161052.345120 kJ/mol
# GULP energy per Si atom -12388.641932 kJ/mol
# Density = 2.033538 g / cm^3
# Si number density = 20.381766 Si / 1000 Ang^3
#
#
#
# Elastic Constant Matrix: (Units=GPa)
#
#
# Indices 1 2 3 4 5 6 
#
# 1 86.0073 49.7746 15.7207 0.0000 -4.5752 0.0000
# 2 49.7746 98.8116 18.9401 0.0000 -20.3450 0.0000
# 3 15.7207 18.9401 88.9697 0.0000 -0.7914 0.0000
# 4 0.0000 0.0000 0.0000 24.4304 0.0000 -6.5265
# 5 -4.5752 -20.3450 -0.7914 0.0000 29.5807 0.0000
# 6 0.0000 0.0000 0.0000 -6.5265 0.0000 18.6892
#
#
#
# Elastic Compliance Matrix: (Units=1/GPa)
#
#
# Indices 1 2 3 4 5 6 
#
# 1 0.016860 -0.009032 -0.001089 0.000000 -0.003634 0.000000
# 2 -0.009032 0.017182 -0.001970 0.000000 0.010368 0.000000
# 3 -0.001089 -0.001970 0.011841 0.000000 -0.001206 0.000000
# 4 0.000000 0.000000 0.000000 0.045144 0.000000 0.015765
# 5 -0.003634 0.010368 -0.001206 0.000000 0.040342 0.000000
# 6 0.000000 0.000000 0.000000 0.015765 0.000000 0.059012
#
#
# Mechanical properties :
#
#
# Convention : Reuss Voigt Hill
#
# Bulk Modulus (GPa) = 46.07901 49.18438 47.63170
# Shear Modulus (GPa) = 22.54314 27.16361 24.85337
#
# Velocity S-wave (km/s) = 3.32933 3.65463 3.49577
# Velocity P-wave (km/s) = 6.11852 6.48015 6.30193
#
# Compressibility (1/GPa) = 0.02170185
#
# Stress axis : x y z
#
# Youngs Moduli (GPa) = 59.31249 58.19886 84.45447
#
# Poissons Ratio (x) = 0.52567 0.09194
# Poissons Ratio (y) = 0.53573 0.16634
# Poissons Ratio (z) = 0.06457 0.11463
#
# Static dielectric constant tensor:
#      x y z
#    x 2.298210 0.000000 0.959520 
#    y 0.000000 3.844050 0.000000 
#    z 0.959520 0.000000 2.926320 
# 
# 
# High freq. dielectric constant tensor:
#      x y z
#    x 1.788250 0.000000 0.004000 
#    y 0.000000 1.797030 0.000000 
#    z 0.004000 0.000000 1.795830 
# 
# From -- ./inp_files/3598.got.cif
#   From: 2010.03.12/outbox.cif.g09.slc.cpg/sg5_2_cif.got.tgz:3598.got - 2010.03.31 09:47:26.
