data_PCOD8048171
_publ_section_title
;
Structure prediction by ZEFSAII (Michael W. Deem and Ramdas Pophale) SiO2 
 PCOD8048171
Probable space group: C 2
;
_chemical_formula_sum "Si O2"
_cell_formula_units_Z 28
_cell_length_a 9.407064
_cell_length_b 10.513876
_cell_length_c 14.438340
_cell_angle_alpha 90.000000
_cell_angle_beta 61.391294
_cell_angle_gamma 90.000000
_cell_volume 1253.673146
_symmetry_space_group_name_H-M "C 2"
_symmetry_group_IT_number 5
_symmetry_cell_setting 'monoclinic'
loop_
_space_group_symop_operation_xyz
x,y,z
-x,y,-z
1/2+x,1/2+y,z
1/2-x,1/2+y,-z
loop_
_atom_site_type_symbol
_atom_site_label
_atom_site_fract_x
_atom_site_fract_y
_atom_site_fract_z
Si Si1 0.500000 0.558960 0.000000
Si Si2 0.879848 0.251187 0.453000
Si Si3 0.294127 0.782786 0.994544
Si Si4 0.275253 0.981061 0.159215
Si Si5 0.417739 0.530731 0.215606
Si Si6 0.807928 0.503849 0.554374
Si Si7 0.500000 0.184663 0.000000
Si Si8 0.954237 0.312032 0.229209
O O1 0.641855 0.641544 0.002909
O O2 0.428258 0.473480 0.107291
O O3 0.768777 0.373969 0.510996
O O4 0.771613 0.126907 0.468654
O O5 0.981026 0.294220 0.330663
O O6 0.000000 0.220772 0.500000
O O7 0.102713 0.773893 0.036732
O O8 0.377521 0.840831 0.876208
O O9 0.327993 0.874461 0.069159
O O10 0.328208 0.926067 0.243427
O O11 0.084135 0.009239 0.221112
O O12 0.374761 0.106777 0.102897
O O13 0.266744 0.476767 0.320427
O O14 0.382067 0.680434 0.211985
O O15 0.000000 0.525846 0.500000
#
# Coordination Sequence:
#
# PCOD8048171 Si02
#       8
#     2   4   4   4   4   4   2   4
#     4  10  17  41  64  94 144 172 205 283 336 396
#     4  10  24  47  69 101 135 174 235 292 340 404
#     4  11  21  40  62 100 138 172 224 264 329 413
#     4  12  21  41  64  95 137 180 211 270 340 403
#     4  10  22  40  70  96 133 178 223 270 340 408
#     4  10  24  49  70 100 135 178 236 290 341 402
#     4  12  23  39  60 100 138 170 227 261 320 418
#     4  10  20  40  69  91 132 179 217 279 337 390
#
# _framework density 22.334368000000001
#
# number of rings (size 3 to 8) (size 9 to 14) (size 15 to 20)
#    0.000    1.429    7.143    0.000    0.000    5.714 
#   15.429    0.000    0.000    0.000    0.000    0.000 
#    0.000    0.000    0.000    0.000    0.000    0.000 
#
# Total GULP energy -173519.046403 kJ/mol
# GULP energy per Si atom -12394.217600 kJ/mol
# Density = 2.228353 g / cm^3
# Si number density = 22.334368 Si / 1000 Ang^3
#
#
#
# Elastic Constant Matrix: (Units=GPa)
#
#
# Indices 1 2 3 4 5 6 
#
# 1 123.3892 20.7339 55.2442 0.0000 -0.8909 0.0000
# 2 20.7339 84.2731 32.8437 0.0000 2.1022 0.0000
# 3 55.2442 32.8437 162.1494 0.0000 4.2900 0.0000
# 4 0.0000 0.0000 0.0000 17.5507 0.0000 -2.0716
# 5 -0.8909 2.1022 4.2900 0.0000 40.1344 0.0000
# 6 0.0000 0.0000 0.0000 -2.0716 0.0000 36.6304
#
#
#
# Elastic Compliance Matrix: (Units=1/GPa)
#
#
# Indices 1 2 3 4 5 6 
#
# 1 0.009686 -0.001201 -0.003073 0.000000 0.000606 0.000000
# 2 -0.001201 0.013038 -0.002219 0.000000 -0.000472 0.000000
# 3 -0.003073 -0.002219 0.007684 0.000000 -0.000773 0.000000
# 4 0.000000 0.000000 0.000000 0.057361 0.000000 0.003244
# 5 0.000606 -0.000472 -0.000773 0.000000 0.025037 0.000000
# 6 0.000000 0.000000 0.000000 0.003244 0.000000 0.027483
#
#
# Mechanical properties :
#
#
# Convention : Reuss Voigt Hill
#
# Bulk Modulus (GPa) = 57.39611 65.27281 61.33446
# Shear Modulus (GPa) = 31.43002 36.26242 33.84622
#
# Velocity S-wave (km/s) = 3.75540 4.03378 3.89708
# Velocity P-wave (km/s) = 6.67521 7.14030 6.91167
#
# Compressibility (1/GPa) = 0.01742278
#
# Stress axis : x y z
#
# Youngs Moduli (GPa) = 103.23719 76.69698 130.13841
#
# Poissons Ratio (x) = 0.09209 0.39992
# Poissons Ratio (y) = 0.12395 0.28883
# Poissons Ratio (z) = 0.31725 0.17022
#
# Static dielectric constant tensor:
#      x y z
#    x 3.855520 0.000000 0.100770 
#    y 0.000000 4.082070 0.000000 
#    z 0.100770 0.000000 4.275070 
# 
# 
# High freq. dielectric constant tensor:
#      x y z
#    x 1.869580 0.000000 0.003700 
#    y 0.000000 1.881480 0.000000 
#    z 0.003700 0.000000 1.875630 
# 
# From -- ./inp_files/50454.got.cif
#   From: 2010.03.12/outbox.cif.g09.slc.cpg/sg5_26_cif.got.tgz:50454.got - 2010.03.31 09:47:26.
