data_PCOD8048154
_publ_section_title
;
Structure prediction by ZEFSAII (Michael W. Deem and Ramdas Pophale) SiO2 
 PCOD8048154
Probable space group: C 2
;
_chemical_formula_sum "Si O2"
_cell_formula_units_Z 24
_cell_length_a 11.954610
_cell_length_b 13.878754
_cell_length_c 14.312652
_cell_angle_alpha 90.000000
_cell_angle_beta 148.776126
_cell_angle_gamma 90.000000
_cell_volume 1230.997212
_symmetry_space_group_name_H-M "C 2"
_symmetry_group_IT_number 5
_symmetry_cell_setting 'monoclinic'
loop_
_space_group_symop_operation_xyz
x,y,z
-x,y,-z
1/2+x,1/2+y,z
1/2-x,1/2+y,-z
loop_
_atom_site_type_symbol
_atom_site_label
_atom_site_fract_x
_atom_site_fract_y
_atom_site_fract_z
Si Si1 0.566927 0.818640 0.829893
Si Si2 0.077684 0.216950 0.456887
Si Si3 0.824653 0.028402 0.262009
Si Si4 0.784141 0.324152 0.791076
Si Si5 0.419885 0.030761 0.096758
Si Si6 0.419866 0.219091 0.196361
O O1 0.548524 0.775160 0.713656
O O2 0.365554 0.781229 0.750291
O O3 0.550581 0.934047 0.822240
O O4 0.799091 0.788203 0.036545
O O5 0.327835 0.238546 0.625611
O O6 0.000000 0.260040 0.500000
O O7 0.026044 0.101461 0.416969
O O8 0.874079 0.917676 0.329198
O O9 0.632346 0.065809 0.191702
O O10 0.772768 0.024708 0.115070
O O11 0.665148 0.238608 0.759723
O O12 0.000000 0.363168 0.000000
O O13 0.360887 0.109722 0.131524
#
# Coordination Sequence:
#
# PCOD8048154 Si02
#       6
#     4   4   4   4   4   4
#     4  10  22  41  64  88 124 159 209 258 301 363
#     4  12  25  36  61  96 126 164 198 253 313 368
#     4  10  17  36  63  93 114 148 217 256 291 348
#     4   9  18  38  66  91 113 159 207 256 303 356
#     4  10  18  37  66  88 115 164 204 259 300 351
#     4  11  21  37  63  92 125 156 203 253 317 358
#
# _framework density 19.496390000000002
#
# number of rings (size 3 to 8) (size 9 to 14) (size 15 to 20)
#    0.000    1.667    8.333    0.000    0.000    2.667 
#    0.000    0.000   18.333    0.000    0.000    0.000 
#    0.000    0.000    0.000    0.000    0.000    0.000 
#
# Total GULP energy -148740.980387 kJ/mol
# GULP energy per Si atom -12395.081699 kJ/mol
# Density = 1.945202 g / cm^3
# Si number density = 19.496390 Si / 1000 Ang^3
#
#
#
# Elastic Constant Matrix: (Units=GPa)
#
#
# Indices 1 2 3 4 5 6 
#
# 1 111.9638 55.3588 38.6640 0.0199 -5.8079 0.0034
# 2 55.3588 100.2224 25.5182 0.0182 5.1487 0.0098
# 3 38.6640 25.5182 85.1973 0.0271 4.9936 0.0139
# 4 0.0199 0.0182 0.0271 15.3837 0.0156 9.3439
# 5 -5.8079 5.1487 4.9936 0.0156 27.9343 0.0043
# 6 0.0034 0.0098 0.0139 9.3439 0.0043 33.8801
#
#
#
# Elastic Compliance Matrix: (Units=1/GPa)
#
#
# Indices 1 2 3 4 5 6 
#
# 1 0.014241 -0.006934 -0.004683 -0.000010 0.005076 0.000005
# 2 -0.006934 0.014235 -0.000888 -0.000001 -0.003907 -0.000002
# 3 -0.004683 -0.000888 0.014326 -0.000014 -0.003371 -0.000001
# 4 -0.000010 -0.000001 -0.000014 0.078084 -0.000040 -0.021535
# 5 0.005076 -0.003907 -0.003371 -0.000040 0.038176 0.000008
# 6 0.000005 -0.000002 -0.000001 -0.021535 0.000008 0.035455
#
#
# Mechanical properties :
#
#
# Convention : Reuss Voigt Hill
#
# Bulk Modulus (GPa) = 56.20744 59.60728 57.90736
# Shear Modulus (GPa) = 22.17712 27.29578 24.73645
#
# Velocity S-wave (km/s) = 3.37634 3.74577 3.56585
# Velocity P-wave (km/s) = 6.64017 7.02479 6.83518
#
# Compressibility (1/GPa) = 0.01779124
#
# Stress axis : x y z
#
# Youngs Moduli (GPa) = 70.22219 70.25079 69.80192
#
# Poissons Ratio (x) = 0.48714 0.32689
# Poissons Ratio (y) = 0.48694 0.06196
# Poissons Ratio (z) = 0.32886 0.06236
#
# Static dielectric constant tensor:
#      x y z
#    x 3.672590 -0.000030 -0.104030 
#    y -0.000030 3.461640 -0.000040 
#    z -0.104030 -0.000040 3.478120 
# 
# 
# High freq. dielectric constant tensor:
#      x y z
#    x 1.747750 0.000000 -0.010700 
#    y 0.000000 1.747020 0.000000 
#    z -0.010700 0.000000 1.757600 
# 
# From -- ./inp_files/53100.got.cif
#   From: 2010.03.12/outbox.cif.g09.slc.cpg/sg5_27_cif.got.tgz:53100.got - 2010.03.31 09:47:26.
