data_PCOD8048489
_publ_section_title
;
Structure prediction by ZEFSAII (Michael W. Deem and Ramdas Pophale) SiO2 
 PCOD8048489
Probable space group: C 2
;
_chemical_formula_sum "Si O2"
_cell_formula_units_Z 20
_cell_length_a 12.780936
_cell_length_b 7.245396
_cell_length_c 9.758279
_cell_angle_alpha 90.000000
_cell_angle_beta 106.396776
_cell_angle_gamma 90.000000
_cell_volume 866.893967
_symmetry_space_group_name_H-M "C 2"
_symmetry_group_IT_number 5
_symmetry_cell_setting 'monoclinic'
loop_
_space_group_symop_operation_xyz
x,y,z
-x,y,-z
1/2+x,1/2+y,z
1/2-x,1/2+y,-z
loop_
_atom_site_type_symbol
_atom_site_label
_atom_site_fract_x
_atom_site_fract_y
_atom_site_fract_z
Si Si1 0.656138 0.432630 0.801244
Si Si2 0.710283 0.764107 0.657621
Si Si3 0.000000 0.579285 0.000000
Si Si4 0.554964 0.253592 0.293481
Si Si5 0.500000 0.966209 0.500000
Si Si6 0.704069 0.025239 0.906841
O O1 0.702266 0.544536 0.687439
O O2 0.524525 0.431466 0.730157
O O3 0.695713 0.220057 0.824056
O O4 0.690168 0.531510 0.955582
O O5 0.821635 0.799249 0.611440
O O6 0.606902 0.837253 0.535291
O O7 0.720605 0.865153 0.805505
O O8 0.936996 0.698811 0.862988
O O9 0.096385 0.470027 0.957196
O O10 0.501451 0.091240 0.364883
#
# Coordination Sequence:
#
# PCOD8048489 Si02
#       6
#     4   4   2   4   2   4
#     4  11  22  42  76 104 142 182 238 298 360 417
#     4  12  25  48  73 102 146 196 238 293 361 425
#     4  10  18  44  74 100 146 176 226 318 344 398
#     4  11  25  47  75 104 146 186 242 302 349 431
#     4  12  28  48  70 106 150 192 246 290 348 442
#     4  11  21  43  73 110 141 179 244 299 351 432
#
# _framework density 23.070871
#
# number of rings (size 3 to 8) (size 9 to 14) (size 15 to 20)
#    0.000    0.800    8.000    1.200    0.000    4.000 
#    7.200    1.000    0.000    0.000    0.000    0.000 
#    0.000    0.000    0.000    0.000    0.000    0.000 
#
# Total GULP energy -123918.488442 kJ/mol
# GULP energy per Si atom -12391.848844 kJ/mol
# Density = 2.301836 g / cm^3
# Si number density = 23.070871 Si / 1000 Ang^3
#
#
#
# Elastic Constant Matrix: (Units=GPa)
#
#
# Indices 1 2 3 4 5 6 
#
# 1 167.8610 55.6683 18.8050 0.0000 32.0757 0.0000
# 2 55.6683 89.4551 22.4844 0.0000 2.8200 0.0000
# 3 18.8050 22.4844 64.4319 0.0000 14.7791 0.0000
# 4 0.0000 0.0000 0.0000 27.3043 0.0000 9.0908
# 5 32.0757 2.8200 14.7791 0.0000 42.9277 0.0000
# 6 0.0000 0.0000 0.0000 9.0908 0.0000 33.1704
#
#
#
# Elastic Compliance Matrix: (Units=1/GPa)
#
#
# Indices 1 2 3 4 5 6 
#
# 1 0.008987 -0.005598 0.000854 0.000000 -0.006642 0.000000
# 2 -0.005598 0.015761 -0.004982 0.000000 0.004863 0.000000
# 3 0.000854 -0.004982 0.018545 0.000000 -0.006696 0.000000
# 4 0.000000 0.000000 0.000000 0.040302 0.000000 -0.011045
# 5 -0.006642 0.004863 -0.006696 0.000000 0.030243 0.000000
# 6 0.000000 0.000000 0.000000 -0.011045 0.000000 0.033174
#
#
# Mechanical properties :
#
#
# Convention : Reuss Voigt Hill
#
# Bulk Modulus (GPa) = 41.94238 57.29593 49.61916
# Shear Modulus (GPa) = 28.66772 35.66650 32.16711
#
# Velocity S-wave (km/s) = 3.52887 3.93613 3.73805
# Velocity P-wave (km/s) = 5.90111 6.74879 6.33914
#
# Compressibility (1/GPa) = 0.02384223
#
# Stress axis : x y z
#
# Youngs Moduli (GPa) = 111.26872 63.44642 53.92222
#
# Poissons Ratio (x) = 0.35518 -0.04605
# Poissons Ratio (y) = 0.62289 0.26862
# Poissons Ratio (z) = -0.09501 0.31607
#
# Static dielectric constant tensor:
#      x y z
#    x 4.518530 0.000000 0.323830 
#    y 0.000000 3.952020 0.000000 
#    z 0.323830 0.000000 4.025800 
# 
# 
# High freq. dielectric constant tensor:
#      x y z
#    x 1.920680 0.000000 0.023080 
#    y 0.000000 1.888510 0.000000 
#    z 0.023080 0.000000 1.909310 
# 
# From -- ./inp_files/18335.got.cif
#   From: 2010.03.12/outbox.cif.g09.slc.cpg/sg5_10_cif.got.tgz:18335.got - 2010.03.31 09:47:26.
