data_PCOD8048008
_publ_section_title
;
Structure prediction by ZEFSAII (Michael W. Deem and Ramdas Pophale) SiO2 
 PCOD8048008
Probable space group: P 21
;
_chemical_formula_sum "Si O2"
_cell_formula_units_Z 16
_cell_length_a 16.756464
_cell_length_b 9.288969
_cell_length_c 5.682613
_cell_angle_alpha 90.000000
_cell_angle_beta 47.530768
_cell_angle_gamma 90.000000
_cell_volume 652.442804
_symmetry_space_group_name_H-M "P 21"
_symmetry_group_IT_number 4
_symmetry_cell_setting 'monoclinic'
loop_
_space_group_symop_operation_xyz
x,y,z
-x,1/2+y,-z
loop_
_atom_site_type_symbol
_atom_site_label
_atom_site_fract_x
_atom_site_fract_y
_atom_site_fract_z
Si Si1 0.799631 0.207090 0.535141
Si Si2 0.084704 0.252682 0.414863
Si Si3 0.316202 0.651226 0.731456
Si Si4 0.593329 0.608622 0.707056
Si Si5 0.301249 0.335132 0.819675
Si Si6 0.999244 0.040336 0.238667
Si Si7 0.512079 0.821129 0.218647
Si Si8 0.191311 0.026476 0.523721
O O1 0.736216 0.213733 0.408635
O O2 0.839789 0.369019 0.513750
O O3 0.900558 0.100589 0.277112
O O4 0.744396 0.154847 0.892198
O O5 0.998961 0.146044 0.464498
O O6 0.165246 0.154484 0.401431
O O7 0.014693 0.370454 0.691703
O O8 0.170491 0.343474 0.088461
O O9 0.340325 0.484146 0.620633
O O10 0.425876 0.742183 0.562023
O O11 0.667967 0.691685 0.376994
O O12 0.518112 0.487426 0.746188
O O13 0.679365 0.527140 0.701710
O O14 0.512831 0.725176 0.981906
O O15 0.364457 0.321358 0.940001
O O16 0.118112 0.058790 0.896295
#
# Coordination Sequence:
#
# PCOD8048008 Si02
#       8
#     2   2   2   2   2   2   2   2
#     4  12  30  51  81 118 161 210 275 334 396 478
#     4  12  27  48  78 117 156 213 269 331 404 483
#     4  12  30  51  81 118 161 210 275 334 396 478
#     4  12  27  48  78 117 156 213 269 331 404 483
#     4  12  27  47  79 109 164 208 270 331 408 479
#     4  12  28  48  80 116 159 215 268 334 404 478
#     4  12  28  48  80 116 159 215 268 334 404 478
#     4  12  27  47  79 109 164 208 270 331 408 479
#
# _framework density 24.523223999999999
#
# number of rings (size 3 to 8) (size 9 to 14) (size 15 to 20)
#    0.000    0.000    5.000    3.000   14.000    2.000 
#    0.000    0.000    0.000    0.000    0.000    0.000 
#    0.000    0.000    0.000    0.000    0.000    0.000 
#
# Total GULP energy -198278.014762 kJ/mol
# GULP energy per Si atom -12392.375923 kJ/mol
# Density = 2.446741 g / cm^3
# Si number density = 24.523224 Si / 1000 Ang^3
#
#
#
# Elastic Constant Matrix: (Units=GPa)
#
#
# Indices 1 2 3 4 5 6 
#
# 1 59.7988 -5.7420 15.4979 0.0000 -0.2370 0.0000
# 2 -5.7420 118.6249 21.5133 0.0000 4.4881 0.0000
# 3 15.4979 21.5133 73.7706 0.0000 -0.8006 0.0000
# 4 0.0000 0.0000 0.0000 44.4816 0.0000 -1.9665
# 5 -0.2370 4.4881 -0.8006 0.0000 33.5535 0.0000
# 6 0.0000 0.0000 0.0000 -1.9665 0.0000 45.5524
#
#
#
# Elastic Compliance Matrix: (Units=1/GPa)
#
#
# Indices 1 2 3 4 5 6 
#
# 1 0.017985 0.001651 -0.004262 0.000000 -0.000196 0.000000
# 2 0.001651 0.009105 -0.003016 0.000000 -0.001278 0.000000
# 3 -0.004262 -0.003016 0.015338 0.000000 0.000739 0.000000
# 4 0.000000 0.000000 0.000000 0.022524 0.000000 0.000972
# 5 -0.000196 -0.001278 0.000739 0.000000 0.029990 0.000000
# 6 0.000000 0.000000 0.000000 0.000972 0.000000 0.021995
#
#
# Mechanical properties :
#
#
# Convention : Reuss Voigt Hill
#
# Bulk Modulus (GPa) = 32.07737 34.97031 33.52384
# Shear Modulus (GPa) = 36.07935 39.44586 37.76260
#
# Velocity S-wave (km/s) = 3.83983 4.01497 3.92838
# Velocity P-wave (km/s) = 5.72432 5.98201 5.85458
#
# Compressibility (1/GPa) = 0.03117462
#
# Stress axis : x y z
#
# Youngs Moduli (GPa) = 55.60182 109.82774 65.19565
#
# Poissons Ratio (x) = -0.18131 0.27786
# Poissons Ratio (y) = -0.09179 0.19663
# Poissons Ratio (z) = 0.23697 0.33124
#
# Static dielectric constant tensor:
#      x y z
#    x 4.483020 0.000000 -0.156650 
#    y 0.000000 4.944030 0.000000 
#    z -0.156650 0.000000 4.289550 
# 
# 
# High freq. dielectric constant tensor:
#      x y z
#    x 1.971950 0.000000 -0.016590 
#    y 0.000000 2.004010 0.000000 
#    z -0.016590 0.000000 1.965990 
# 
# From -- ./inp_files/1336.got.cif
#   From: 2010.03.12/outbox.cif.g09.slc.cpg/sg4_1_cif.got.tgz:1336.got - 2010.03.31 09:31:35.
