data_PCOD8048599
_publ_section_title
;
Structure prediction by ZEFSAII (Michael W. Deem and Ramdas Pophale) SiO2 
 PCOD8048599
Probable space group: C 2
;
_chemical_formula_sum "Si O2"
_cell_formula_units_Z 30
_cell_length_a 31.137624
_cell_length_b 6.003502
_cell_length_c 9.563744
_cell_angle_alpha 90.000000
_cell_angle_beta 56.635322
_cell_angle_gamma 90.000000
_cell_volume 1493.144481
_symmetry_space_group_name_H-M "C 2"
_symmetry_group_IT_number 5
_symmetry_cell_setting 'monoclinic'
loop_
_space_group_symop_operation_xyz
x,y,z
-x,y,-z
1/2+x,1/2+y,z
1/2-x,1/2+y,-z
loop_
_atom_site_type_symbol
_atom_site_label
_atom_site_fract_x
_atom_site_fract_y
_atom_site_fract_z
Si Si1 0.628051 0.725300 0.610861
Si Si2 0.078617 0.470999 0.471817
Si Si3 0.339622 0.353714 0.659069
Si Si4 0.639528 0.506732 0.866366
Si Si5 0.815187 0.604160 0.344019
Si Si6 0.593686 0.580019 0.243562
Si Si7 0.259020 0.755991 0.297229
Si Si8 0.000000 0.778006 0.500000
O O1 0.654395 0.513528 0.487587
O O2 0.612387 0.654756 0.794882
O O3 0.579315 0.799948 0.602154
O O4 0.665330 0.936643 0.568397
O O5 0.126918 0.631345 0.405872
O O6 0.082908 0.330548 0.318596
O O7 0.026544 0.616007 0.567244
O O8 0.355550 0.488974 0.768421
O O9 0.279822 0.275493 0.765874
O O10 0.639636 0.254958 0.806061
O O11 0.699653 0.557754 0.793151
O O12 0.604393 0.561665 0.061203
O O13 0.771802 0.745365 0.501007
O O14 0.792165 0.480689 0.250164
O O15 0.543512 0.429428 0.354588
#
# Coordination Sequence:
#
# PCOD8048599 Si02
#       8
#     4   4   4   4   4   4   4   2
#     4  10  19  34  62  89 119 164 215 260 313 379
#     4  10  20  40  69  88 116 163 214 268 328 395
#     4  10  20  37  58  86 124 168 218 261 308 382
#     4  11  23  36  57  93 132 166 209 268 316 382
#     4  11  19  33  57  85 123 169 216 258 307 365
#     4  10  24  42  61  95 121 165 210 274 333 388
#     4  11  19  32  54  87 120 175 217 246 304 377
#     4  10  22  42  72  86 116 160 218 266 344 396
#
# _framework density 20.091823999999999
#
# number of rings (size 3 to 8) (size 9 to 14) (size 15 to 20)
#    0.000    1.600    4.000    1.200    0.000    4.267 
#    4.800    0.000    0.000   32.800    0.000    0.000 
#    0.000    0.000    0.000    0.000    0.000    0.000 
#
# Total GULP energy -185835.512163 kJ/mol
# GULP energy per Si atom -12389.034144 kJ/mol
# Density = 2.004609 g / cm^3
# Si number density = 20.091824 Si / 1000 Ang^3
#
#
#
# Elastic Constant Matrix: (Units=GPa)
#
#
# Indices 1 2 3 4 5 6 
#
# 1 95.6881 43.3007 34.9140 0.0000 1.6825 0.0000
# 2 43.3007 113.4641 39.9777 0.0000 1.6860 0.0000
# 3 34.9140 39.9777 111.2496 0.0000 10.2600 0.0000
# 4 0.0000 0.0000 0.0000 17.9843 0.0000 7.1607
# 5 1.6825 1.6860 10.2600 0.0000 17.4056 0.0000
# 6 0.0000 0.0000 0.0000 7.1607 0.0000 44.5832
#
#
#
# Elastic Compliance Matrix: (Units=1/GPa)
#
#
# Indices 1 2 3 4 5 6 
#
# 1 0.013309 -0.004115 -0.002767 0.000000 0.000743 0.000000
# 2 -0.004115 0.011388 -0.002893 0.000000 0.001000 0.000000
# 3 -0.002767 -0.002893 0.011470 0.000000 -0.006213 0.000000
# 4 0.000000 0.000000 0.000000 0.059403 0.000000 -0.009541
# 5 0.000743 0.001000 -0.006213 0.000000 0.060947 0.000000
# 6 0.000000 0.000000 0.000000 -0.009541 0.000000 0.023962
#
#
# Mechanical properties :
#
#
# Convention : Reuss Voigt Hill
#
# Bulk Modulus (GPa) = 60.17848 61.86517 61.02183
# Shear Modulus (GPa) = 24.32277 29.47525 26.89901
#
# Velocity S-wave (km/s) = 3.48311 3.83433 3.66294
# Velocity P-wave (km/s) = 6.79653 7.10358 6.95175
#
# Compressibility (1/GPa) = 0.01661724
#
# Stress axis : x y z
#
# Youngs Moduli (GPa) = 75.13537 87.80867 87.18623
#
# Poissons Ratio (x) = 0.36137 0.24121
# Poissons Ratio (y) = 0.30921 0.25224
# Poissons Ratio (z) = 0.20787 0.25404
#
# Static dielectric constant tensor:
#      x y z
#    x 3.797000 0.000000 0.253840 
#    y 0.000000 3.993240 0.000000 
#    z 0.253840 0.000000 3.158150 
# 
# 
# High freq. dielectric constant tensor:
#      x y z
#    x 1.784090 0.000000 0.026880 
#    y 0.000000 1.808530 0.000000 
#    z 0.026880 0.000000 1.731140 
# 
# From -- ./inp_files/32267.got.cif
#   From: 2010.03.12/outbox.cif.g09.slc.cpg/sg5_17_cif.got.tgz:32267.got - 2010.03.31 09:47:26.
