data_PCOD8048738
_publ_section_title
;
Structure prediction by ZEFSAII (Michael W. Deem and Ramdas Pophale) SiO2 
 PCOD8048738
Probable space group: C 2
;
_chemical_formula_sum "Si O2"
_cell_formula_units_Z 30
_cell_length_a 8.271289
_cell_length_b 16.066658
_cell_length_c 11.933438
_cell_angle_alpha 90.000000
_cell_angle_beta 103.792055
_cell_angle_gamma 90.000000
_cell_volume 1540.133607
_symmetry_space_group_name_H-M "C 2"
_symmetry_group_IT_number 5
_symmetry_cell_setting 'monoclinic'
loop_
_space_group_symop_operation_xyz
x,y,z
-x,y,-z
1/2+x,1/2+y,z
1/2-x,1/2+y,-z
loop_
_atom_site_type_symbol
_atom_site_label
_atom_site_fract_x
_atom_site_fract_y
_atom_site_fract_z
Si Si1 0.456688 0.858610 0.623997
Si Si2 0.922970 0.534135 0.366091
Si Si3 0.000000 0.069960 0.000000
Si Si4 0.507263 0.205088 0.736397
Si Si5 0.093250 0.962413 0.228742
Si Si6 0.586061 0.363516 0.623637
Si Si7 0.815733 0.688943 0.018666
Si Si8 0.265485 0.791505 0.193206
O O1 0.500000 0.845938 0.500000
O O2 0.269857 0.840415 0.620250
O O3 0.554894 0.794307 0.719261
O O4 0.490702 0.952441 0.669497
O O5 0.972094 0.611373 0.299125
O O6 0.723669 0.516175 0.326454
O O7 0.000000 0.551968 0.500000
O O8 0.828484 0.119246 0.996494
O O9 0.024173 0.015032 0.114719
O O10 0.510047 0.273443 0.639498
O O11 0.327143 0.214052 0.763161
O O12 0.651496 0.224095 0.851427
O O13 0.177008 0.879767 0.193313
O O14 0.940921 0.931772 0.282825
O O15 0.500000 0.401291 0.500000
O O16 0.734497 0.766427 0.937496
O O17 0.000000 0.658935 0.000000
#
# Coordination Sequence:
#
# PCOD8048738 Si02
#       8
#     4   4   2   4   4   4   4   4
#     4  10  21  38  61  90 123 159 205 260 308 376
#     4  10  19  37  60  86 121 157 197 250 313 363
#     4  12  24  42  66  90 134 160 216 258 312 382
#     4  10  20  37  60  88 119 163 198 252 314 366
#     4  10  23  40  62  92 123 170 202 262 310 369
#     4  11  22  38  62  90 121 161 212 253 312 370
#     4  10  23  41  63  89 128 165 206 261 313 372
#     4   9  21  39  61  84 125 161 206 251 309 363
#
# _framework density 19.478831
#
# number of rings (size 3 to 8) (size 9 to 14) (size 15 to 20)
#    0.000    1.867    1.333    3.600    6.533    2.133 
#    0.000    0.000    0.000    3.200    0.000    0.000 
#    0.000    0.000    0.000    0.000    0.000    0.000 
#
# Total GULP energy -185838.235849 kJ/mol
# GULP energy per Si atom -12389.215723 kJ/mol
# Density = 1.943450 g / cm^3
# Si number density = 19.478831 Si / 1000 Ang^3
#
#
#
# Elastic Constant Matrix: (Units=GPa)
#
#
# Indices 1 2 3 4 5 6 
#
# 1 88.2698 26.9434 52.3607 0.0000 17.5999 0.0000
# 2 26.9434 81.0479 53.3008 0.0000 1.0431 0.0000
# 3 52.3607 53.3008 152.3271 0.0000 11.9846 0.0000
# 4 0.0000 0.0000 0.0000 67.6312 0.0000 -33.2975
# 5 17.5999 1.0431 11.9846 0.0000 26.5987 0.0000
# 6 0.0000 0.0000 0.0000 -33.2975 0.0000 68.3204
#
#
#
# Elastic Compliance Matrix: (Units=1/GPa)
#
#
# Indices 1 2 3 4 5 6 
#
# 1 0.016264 -0.002695 -0.003949 0.000000 -0.008877 0.000000
# 2 -0.002695 0.016573 -0.005144 0.000000 0.003451 0.000000
# 3 -0.003949 -0.005144 0.009850 0.000000 -0.001623 0.000000
# 4 0.000000 0.000000 0.000000 0.019454 0.000000 0.009481
# 5 -0.008877 0.003451 -0.001623 0.000000 0.044065 0.000000
# 6 0.000000 0.000000 0.000000 0.009481 0.000000 0.019258
#
#
# Mechanical properties :
#
#
# Convention : Reuss Voigt Hill
#
# Bulk Modulus (GPa) = 52.32901 65.20608 58.76754
# Shear Modulus (GPa) = 32.17264 45.11273 38.64268
#
# Velocity S-wave (km/s) = 4.06849 4.81769 4.45885
# Velocity P-wave (km/s) = 6.99950 8.03087 7.53286
#
# Compressibility (1/GPa) = 0.01910986
#
# Stress axis : x y z
#
# Youngs Moduli (GPa) = 61.48511 60.33912 101.52359
#
# Poissons Ratio (x) = 0.16264 0.40092
# Poissons Ratio (y) = 0.16573 0.52224
# Poissons Ratio (z) = 0.24281 0.31039
#
# Static dielectric constant tensor:
#      x y z
#    x 3.506840 0.000000 0.706230 
#    y 0.000000 3.487010 0.000000 
#    z 0.706230 0.000000 0.431890 
# 
# 
# High freq. dielectric constant tensor:
#      x y z
#    x 1.752310 0.000000 0.009370 
#    y 0.000000 1.748380 0.000000 
#    z 0.009370 0.000000 1.774920 
# 
# From -- ./inp_files/36365.got.cif
#   From: 2010.03.12/outbox.cif.g09.slc.cpg/sg5_19_cif.got.tgz:36365.got - 2010.03.31 09:47:26.
