data_PCOD8048602
_publ_section_title
;
Structure prediction by ZEFSAII (Michael W. Deem and Ramdas Pophale) SiO2 
 PCOD8048602
Probable space group: C 2
;
_chemical_formula_sum "Si O2"
_cell_formula_units_Z 32
_cell_length_a 14.409591
_cell_length_b 17.614900
_cell_length_c 11.382409
_cell_angle_alpha 90.000000
_cell_angle_beta 150.442145
_cell_angle_gamma 90.000000
_cell_volume 1425.210586
_symmetry_space_group_name_H-M "C 2"
_symmetry_group_IT_number 5
_symmetry_cell_setting 'monoclinic'
loop_
_space_group_symop_operation_xyz
x,y,z
-x,y,-z
1/2+x,1/2+y,z
1/2-x,1/2+y,-z
loop_
_atom_site_type_symbol
_atom_site_label
_atom_site_fract_x
_atom_site_fract_y
_atom_site_fract_z
Si Si1 0.701405 0.592220 0.673227
Si Si2 0.034240 0.785411 0.669830
Si Si3 0.292145 0.101705 0.237067
Si Si4 0.727188 0.183517 0.469268
Si Si5 0.461623 0.451592 0.642407
Si Si6 0.659944 0.027839 0.948074
Si Si7 0.073436 0.248760 0.962273
Si Si8 0.737031 0.018620 0.580420
O O1 0.500000 0.621078 0.500000
O O2 0.787156 0.657731 0.683285
O O3 0.667101 0.511092 0.570984
O O4 0.851635 0.576554 0.943495
O O5 0.000000 0.756042 0.500000
O O6 0.958722 0.725937 0.685113
O O7 0.925272 0.865052 0.566716
O O8 0.261743 0.791811 0.929145
O O9 0.500000 0.129184 0.500000
O O10 0.273389 0.085461 0.078622
O O11 0.250355 0.022860 0.263770
O O12 0.149996 0.170133 0.103021
O O13 0.762973 0.107374 0.581029
O O14 0.905533 0.238357 0.684322
O O15 0.402802 0.465103 0.713857
O O16 0.682434 0.463654 0.863524
O O17 0.461464 0.989988 0.693579
O O18 0.000000 0.292968 0.000000
#
# Coordination Sequence:
#
# PCOD8048602 Si02
#       8
#     4   4   4   4   4   4   4   4
#     4   9  19  40  62  91 124 162 208 255 307 374
#     4  12  23  40  58  90 131 165 213 259 314 378
#     4  10  19  34  63  93 124 148 198 269 309 359
#     4  11  23  37  62  93 123 161 204 263 313 365
#     4  10  23  37  60  85 125 166 201 254 308 368
#     4  10  20  36  60  89 120 161 198 251 311 365
#     4  12  21  35  59  91 121 159 200 257 325 369
#     4  10  20  37  60  94 120 152 209 256 308 362
#
# _framework density 22.452822000000001
#
# number of rings (size 3 to 8) (size 9 to 14) (size 15 to 20)
#    0.000    1.500    2.500    5.250    0.000    3.000 
#    0.000    1.250    0.000   11.250    0.000    0.000 
#    0.000    0.000    0.000    0.000    0.000    0.000 
#
# Total GULP energy -198240.439097 kJ/mol
# GULP energy per Si atom -12390.027444 kJ/mol
# Density = 2.240172 g / cm^3
# Si number density = 22.452822 Si / 1000 Ang^3
#
#
#
# Elastic Constant Matrix: (Units=GPa)
#
#
# Indices 1 2 3 4 5 6 
#
# 1 150.7917 61.3412 29.1230 0.0000 -2.2220 0.0000
# 2 61.3412 77.7202 9.1908 0.0000 -2.3697 0.0000
# 3 29.1230 9.1908 57.9506 0.0000 -6.4020 0.0000
# 4 0.0000 0.0000 0.0000 15.2546 0.0000 9.3039
# 5 -2.2220 -2.3697 -6.4020 0.0000 43.8543 0.0000
# 6 0.0000 0.0000 0.0000 9.3039 0.0000 29.9242
#
#
#
# Elastic Compliance Matrix: (Units=1/GPa)
#
#
# Indices 1 2 3 4 5 6 
#
# 1 0.010653 -0.007932 -0.004150 0.000000 -0.000495 0.000000
# 2 -0.007932 0.019026 0.001055 0.000000 0.000780 0.000000
# 3 -0.004150 0.001055 0.019471 0.000000 0.002689 0.000000
# 4 0.000000 0.000000 0.000000 0.080894 0.000000 -0.025151
# 5 -0.000495 0.000780 0.002689 0.000000 0.023212 0.000000
# 6 0.000000 0.000000 0.000000 -0.025151 0.000000 0.041238
#
#
# Mechanical properties :
#
#
# Convention : Reuss Voigt Hill
#
# Bulk Modulus (GPa) = 36.90606 53.97472 45.44039
# Shear Modulus (GPa) = 22.16508 30.26045 26.21277
#
# Velocity S-wave (km/s) = 3.14536 3.67513 3.42052
# Velocity P-wave (km/s) = 5.44646 6.48846 5.99016
#
# Compressibility (1/GPa) = 0.02709582
#
# Stress axis : x y z
#
# Youngs Moduli (GPa) = 93.87414 52.55959 51.35714
#
# Poissons Ratio (x) = 0.41690 0.21314
# Poissons Ratio (y) = 0.74460 -0.05418
# Poissons Ratio (z) = 0.38959 -0.05544
#
# Static dielectric constant tensor:
#      x y z
#    x 4.718540 0.000000 0.118080 
#    y 0.000000 3.495120 0.000000 
#    z 0.118080 0.000000 4.119930 
# 
# 
# High freq. dielectric constant tensor:
#      x y z
#    x 1.905680 0.000000 0.016910 
#    y 0.000000 1.828560 0.000000 
#    z 0.016910 0.000000 1.879330 
# 
# From -- ./inp_files/43390.got.cif
#   From: 2010.03.12/outbox.cif.g09.slc.cpg/sg5_22_cif.got.tgz:43390.got - 2010.03.31 09:47:26.
