data_PCOD8048724
_publ_section_title
;
Structure prediction by ZEFSAII (Michael W. Deem and Ramdas Pophale) SiO2 
 PCOD8048724
Probable space group: C 2
;
_chemical_formula_sum "Si O2"
_cell_formula_units_Z 28
_cell_length_a 19.898251
_cell_length_b 9.554951
_cell_length_c 14.735578
_cell_angle_alpha 90.000000
_cell_angle_beta 29.790899
_cell_angle_gamma 90.000000
_cell_volume 1391.950218
_symmetry_space_group_name_H-M "C 2"
_symmetry_group_IT_number 5
_symmetry_cell_setting 'monoclinic'
loop_
_space_group_symop_operation_xyz
x,y,z
-x,y,-z
1/2+x,1/2+y,z
1/2-x,1/2+y,-z
loop_
_atom_site_type_symbol
_atom_site_label
_atom_site_fract_x
_atom_site_fract_y
_atom_site_fract_z
Si Si1 0.660438 0.768580 0.513572
Si Si2 0.074571 0.954324 0.082021
Si Si3 0.789142 0.968344 0.722223
Si Si4 0.774861 0.046183 0.413305
Si Si5 0.858652 0.730934 0.124021
Si Si6 0.528589 0.548011 0.325207
Si Si7 0.150840 0.185826 0.854365
O O1 0.735413 0.659322 0.493774
O O2 0.740584 0.789322 0.326101
O O3 0.511411 0.706350 0.662461
O O4 0.656460 0.926292 0.561286
O O5 0.101631 0.968283 0.157266
O O6 0.142699 0.808229 0.971926
O O7 0.914184 0.959625 0.253092
O O8 0.145853 0.075915 0.941144
O O9 0.735705 0.812912 0.798362
O O10 0.656646 0.064515 0.866726
O O11 0.868819 0.039460 0.712198
O O12 0.886161 0.974700 0.520173
O O13 0.764809 0.127148 0.329608
O O14 0.000000 0.774481 0.000000
O O15 0.000000 0.231643 0.000000
#
# Coordination Sequence:
#
# PCOD8048724 Si02
#       7
#     4   4   4   4   4   4   4
#     4  10  20  35  60  85 116 152 192 235 291 352
#     4  10  19  37  58  81 119 150 181 238 299 342
#     4  10  22  38  59  80 116 154 196 238 277 343
#     4  10  20  34  58  91 118 151 186 241 298 343
#     4  11  19  34  59  86 112 145 191 238 293 338
#     4   9  22  40  58  78 115 160 193 228 286 342
#     4  10  20  36  59  88 118 145 188 244 295 339
#
# _framework density 20.115663000000001
#
# number of rings (size 3 to 8) (size 9 to 14) (size 15 to 20)
#    0.000    2.000    2.857    0.857    6.000    1.143 
#    2.571    0.000    6.286    0.000    0.000    0.000 
#    0.000    0.000    0.000    0.000    0.000    0.000 
#
# Total GULP energy -173491.145833 kJ/mol
# GULP energy per Si atom -12392.224702 kJ/mol
# Density = 2.006988 g / cm^3
# Si number density = 20.115663 Si / 1000 Ang^3
#
#
#
# Elastic Constant Matrix: (Units=GPa)
#
#
# Indices 1 2 3 4 5 6 
#
# 1 76.2690 31.8763 21.3983 0.0000 20.3481 0.0000
# 2 31.8763 106.2332 23.2911 0.0000 5.0356 0.0000
# 3 21.3983 23.2911 63.7354 0.0000 23.9907 0.0000
# 4 0.0000 0.0000 0.0000 31.1651 0.0000 3.9929
# 5 20.3481 5.0356 23.9907 0.0000 34.1234 0.0000
# 6 0.0000 0.0000 0.0000 3.9929 0.0000 26.1211
#
#
#
# Elastic Compliance Matrix: (Units=1/GPa)
#
#
# Indices 1 2 3 4 5 6 
#
# 1 0.017804 -0.004743 -0.000696 0.000000 -0.009428 0.000000
# 2 -0.004743 0.011555 -0.004152 0.000000 0.004042 0.000000
# 3 -0.000696 -0.004152 0.023191 0.000000 -0.015277 0.000000
# 4 0.000000 0.000000 0.000000 0.032728 0.000000 -0.005003
# 5 -0.009428 0.004042 -0.015277 0.000000 0.045072 0.000000
# 6 0.000000 0.000000 0.000000 -0.005003 0.000000 0.039048
#
#
# Mechanical properties :
#
#
# Convention : Reuss Voigt Hill
#
# Bulk Modulus (GPa) = 29.96699 44.37432 37.17066
# Shear Modulus (GPa) = 25.03736 29.59339 27.31537
#
# Velocity S-wave (km/s) = 3.53182 3.83973 3.68899
# Velocity P-wave (km/s) = 5.61795 6.46263 6.05503
#
# Compressibility (1/GPa) = 0.03337005
#
# Stress axis : x y z
#
# Youngs Moduli (GPa) = 56.16640 86.54221 43.12016
#
# Poissons Ratio (x) = 0.41046 0.02999
# Poissons Ratio (y) = 0.26639 0.17902
# Poissons Ratio (z) = 0.03907 0.35929
#
# Static dielectric constant tensor:
#      x y z
#    x 3.511680 0.000000 0.279400 
#    y 0.000000 3.667400 0.000000 
#    z 0.279400 0.000000 3.687380 
# 
# 
# High freq. dielectric constant tensor:
#      x y z
#    x 1.768860 0.000000 0.028560 
#    y 0.000000 1.782500 0.000000 
#    z 0.028560 0.000000 1.770290 
# 
# From -- ./inp_files/46059.got.cif
#   From: 2010.03.12/outbox.cif.g09.slc.cpg/sg5_24_cif.got.tgz:46059.got - 2010.03.31 09:47:26.
