data_PCOD8048930
_publ_section_title
;
Structure prediction by ZEFSAII (Michael W. Deem and Ramdas Pophale) SiO2 
 PCOD8048930
Probable space group: C 2
;
_chemical_formula_sum "Si O2"
_cell_formula_units_Z 24
_cell_length_a 14.243796
_cell_length_b 14.581736
_cell_length_c 11.290777
_cell_angle_alpha 90.000000
_cell_angle_beta 151.167647
_cell_angle_gamma 90.000000
_cell_volume 1130.914098
_symmetry_space_group_name_H-M "C 2"
_symmetry_group_IT_number 5
_symmetry_cell_setting 'monoclinic'
loop_
_space_group_symop_operation_xyz
x,y,z
-x,y,-z
1/2+x,1/2+y,z
1/2-x,1/2+y,-z
loop_
_atom_site_type_symbol
_atom_site_label
_atom_site_fract_x
_atom_site_fract_y
_atom_site_fract_z
Si Si1 0.000000 0.575310 0.500000
Si Si2 0.500000 0.678913 0.500000
Si Si3 0.922989 0.787671 0.782506
Si Si4 0.612228 0.666670 0.001359
Si Si5 0.707074 0.604523 0.519279
Si Si6 0.187460 0.310291 0.902231
Si Si7 0.621240 0.951052 0.432252
O O1 0.133184 0.517296 0.557764
O O2 0.164118 0.634020 0.747402
O O3 0.647088 0.612203 0.591278
O O4 0.611013 0.744781 0.712987
O O5 0.836133 0.694140 0.631665
O O6 0.759489 0.864861 0.606006
O O7 0.000000 0.770441 0.000000
O O8 0.084458 0.822821 0.869058
O O9 0.484876 0.600658 0.775808
O O10 0.631482 0.767080 0.966100
O O11 0.500000 0.676333 0.000000
O O12 0.827583 0.510815 0.628414
O O13 0.097860 0.412010 0.809801
#
# Coordination Sequence:
#
# PCOD8048930 Si02
#       7
#     2   2   4   4   4   4   4
#     4  12  25  40  70 101 132 180 237 282 340 405
#     4  10  19  46  68  99 132 190 225 276 344 413
#     4  12  23  44  72 101 136 186 232 287 342 408
#     4  11  24  45  66  97 137 180 222 283 349 407
#     4  11  24  44  70 104 143 176 232 292 350 401
#     4  11  23  42  71  96 137 180 233 275 341 414
#     4  12  25  41  68 110 133 178 238 290 331 411
#
# _framework density 21.221769999999999
#
# number of rings (size 3 to 8) (size 9 to 14) (size 15 to 20)
#    0.000    0.667    6.667    2.500    4.667    0.000 
#    0.000    2.500    0.000    0.000    0.000    0.000 
#    0.000    0.000    0.000    0.000    0.000    0.000 
#
# Total GULP energy -148781.706561 kJ/mol
# GULP energy per Si atom -12398.475547 kJ/mol
# Density = 2.117347 g / cm^3
# Si number density = 21.221770 Si / 1000 Ang^3
#
#
#
# Elastic Constant Matrix: (Units=GPa)
#
#
# Indices 1 2 3 4 5 6 
#
# 1 132.4220 38.4202 28.9387 0.0000 14.5581 0.0000
# 2 38.4202 78.1031 43.6778 0.0000 -6.6276 0.0000
# 3 28.9387 43.6778 100.4669 0.0000 16.5328 0.0000
# 4 0.0000 0.0000 0.0000 21.4262 0.0000 16.1457
# 5 14.5581 -6.6276 16.5328 0.0000 32.0252 0.0000
# 6 0.0000 0.0000 0.0000 16.1457 0.0000 39.2406
#
#
#
# Elastic Compliance Matrix: (Units=1/GPa)
#
#
# Indices 1 2 3 4 5 6 
#
# 1 0.009692 -0.005612 0.000617 0.000000 -0.005886 0.000000
# 2 -0.005612 0.022260 -0.010097 0.000000 0.012370 0.000000
# 3 0.000617 -0.010097 0.015907 0.000000 -0.010582 0.000000
# 4 0.000000 0.000000 0.000000 0.067645 0.000000 -0.027833
# 5 -0.005886 0.012370 -0.010582 0.000000 0.041924 0.000000
# 6 0.000000 0.000000 0.000000 -0.027833 0.000000 0.036936
#
#
# Mechanical properties :
#
#
# Convention : Reuss Voigt Hill
#
# Bulk Modulus (GPa) = 56.57743 59.22949 57.90346
# Shear Modulus (GPa) = 21.69766 31.86876 26.78321
#
# Velocity S-wave (km/s) = 3.20101 3.87938 3.55641
# Velocity P-wave (km/s) = 6.35452 6.93084 6.64893
#
# Compressibility (1/GPa) = 0.01767489
#
# Stress axis : x y z
#
# Youngs Moduli (GPa) = 103.17639 44.92286 62.86617
#
# Poissons Ratio (x) = 0.25211 -0.03876
# Poissons Ratio (y) = 0.57902 0.63475
# Poissons Ratio (z) = -0.06361 0.45358
#
# Static dielectric constant tensor:
#      x y z
#    x 4.234670 0.000000 0.252380 
#    y 0.000000 3.748260 0.000000 
#    z 0.252380 0.000000 3.939390 
# 
# 
# High freq. dielectric constant tensor:
#      x y z
#    x 1.847400 0.000000 0.021450 
#    y 0.000000 1.818960 0.000000 
#    z 0.021450 0.000000 1.825680 
# 
# From -- ./inp_files/42979.got.cif
#   From: 2010.03.12/outbox.cif.g09.slc.cpg/sg5_22_cif.got.tgz:42979.got - 2010.03.31 09:47:26.
