data_PCOD8048050
_publ_section_title
;
Structure prediction by ZEFSAII (Michael W. Deem and Ramdas Pophale) SiO2 
 PCOD8048050
Probable space group: C 2
;
_chemical_formula_sum "Si O2"
_cell_formula_units_Z 20
_cell_length_a 10.060976
_cell_length_b 22.035448
_cell_length_c 5.176317
_cell_angle_alpha 90.000000
_cell_angle_beta 122.563732
_cell_angle_gamma 90.000000
_cell_volume 967.172457
_symmetry_space_group_name_H-M "C 2"
_symmetry_group_IT_number 5
_symmetry_cell_setting 'monoclinic'
loop_
_space_group_symop_operation_xyz
x,y,z
-x,y,-z
1/2+x,1/2+y,z
1/2-x,1/2+y,-z
loop_
_atom_site_type_symbol
_atom_site_label
_atom_site_fract_x
_atom_site_fract_y
_atom_site_fract_z
Si Si1 0.169418 0.875000 0.450725
Si Si2 0.667716 0.515118 0.576742
Si Si3 0.398087 0.190807 0.143805
Si Si4 0.320603 0.063949 0.228748
Si Si5 0.317006 0.322565 0.036047
O O1 0.266719 0.844957 0.789006
O O2 0.999586 0.842929 0.248557
O O3 0.152473 0.946185 0.470477
O O4 0.263383 0.858454 0.287024
O O5 0.500000 0.539972 0.500000
O O6 0.714933 0.552727 0.371461
O O7 0.785213 0.520926 0.945038
O O8 0.500000 0.208508 0.500000
O O9 0.290098 0.133132 0.103266
O O10 0.296069 0.250449 0.970742
O O11 0.500000 0.172339 0.000000
O O12 0.500000 0.053182 0.500000
#
# Coordination Sequence:
#
# PCOD8048050 Si02
#       5
#     4   4   4   4   4
#     4  10  18  29  52  88 119 140 190 262 318 324
#     4  12  23  39  62  89 129 163 211 253 300 375
#     4  11  18  33  55  82 123 151 202 250 314 346
#     4  11  25  40  58  88 130 175 200 246 309 375
#     4  10  16  29  51  87 119 139 185 275 315 316
#
# _framework density 20.678834999999999
#
# number of rings (size 3 to 8) (size 9 to 14) (size 15 to 20)
#    0.000    1.200    6.000    4.800    2.800    0.000 
#    0.000    0.000    0.000    0.000    0.000   21.000 
#    0.000    0.000    0.000    0.000    0.000    0.000 
#
# Total GULP energy -123916.667979 kJ/mol
# GULP energy per Si atom -12391.666798 kJ/mol
# Density = 2.063177 g / cm^3
# Si number density = 20.678835 Si / 1000 Ang^3
#
#
#
# Elastic Constant Matrix: (Units=GPa)
#
#
# Indices 1 2 3 4 5 6 
#
# 1 82.6859 60.0963 50.4827 0.0000 -38.9061 0.0000
# 2 60.0963 135.1923 48.6714 0.0000 -18.5248 0.0000
# 3 50.4827 48.6714 140.1520 0.0000 -53.3412 0.0000
# 4 0.0000 0.0000 0.0000 40.5417 0.0000 -14.4091
# 5 -38.9061 -18.5248 -53.3412 0.0000 48.1302 0.0000
# 6 0.0000 0.0000 0.0000 -14.4091 0.0000 22.7646
#
#
#
# Elastic Compliance Matrix: (Units=1/GPa)
#
#
# Indices 1 2 3 4 5 6 
#
# 1 0.028368 -0.010208 0.000967 0.000000 0.020074 0.000000
# 2 -0.010208 0.012127 -0.003284 0.000000 -0.007223 0.000000
# 3 0.000967 -0.003284 0.013393 0.000000 0.014360 0.000000
# 4 0.000000 0.000000 0.000000 0.031826 0.000000 0.020144
# 5 0.020074 -0.007223 0.014360 0.000000 0.050139 0.000000
# 6 0.000000 0.000000 0.000000 0.020144 0.000000 0.056679
#
#
# Mechanical properties :
#
#
# Convention : Reuss Voigt Hill
#
# Bulk Modulus (GPa) = 34.67575 75.17008 54.92292
# Shear Modulus (GPa) = 22.00776 35.53929 28.77352
#
# Velocity S-wave (km/s) = 3.26585 4.15014 3.73426
# Velocity P-wave (km/s) = 5.57011 7.70681 6.72388
#
# Compressibility (1/GPa) = 0.02883860
#
# Stress axis : x y z
#
# Youngs Moduli (GPa) = 35.25082 82.46156 74.66773
#
# Poissons Ratio (x) = 0.84175 -0.07219
# Poissons Ratio (y) = 0.35983 0.24518
# Poissons Ratio (z) = -0.03408 0.27077
#
# Static dielectric constant tensor:
#      x y z
#    x 3.399430 0.000000 -0.316700 
#    y 0.000000 3.837500 0.000000 
#    z -0.316700 0.000000 3.360610 
# 
# 
# High freq. dielectric constant tensor:
#      x y z
#    x 1.757800 0.000000 -0.060230 
#    y 0.000000 1.819470 0.000000 
#    z -0.060230 0.000000 1.823020 
# 
# From -- ./inp_files/3249.got.cif
#   From: 2010.03.12/outbox.cif.g09.slc.cpg/sg5_2_cif.got.tgz:3249.got - 2010.03.31 09:47:26.
