data_PCOD8048961
_publ_section_title
;
Structure prediction by ZEFSAII (Michael W. Deem and Ramdas Pophale) SiO2 
 PCOD8048961
Probable space group: C 2
;
_chemical_formula_sum "Si O2"
_cell_formula_units_Z 30
_cell_length_a 20.570384
_cell_length_b 8.430673
_cell_length_c 9.477344
_cell_angle_alpha 90.000000
_cell_angle_beta 76.351915
_cell_angle_gamma 90.000000
_cell_volume 1597.172372
_symmetry_space_group_name_H-M "C 2"
_symmetry_group_IT_number 5
_symmetry_cell_setting 'monoclinic'
loop_
_space_group_symop_operation_xyz
x,y,z
-x,y,-z
1/2+x,1/2+y,z
1/2-x,1/2+y,-z
loop_
_atom_site_type_symbol
_atom_site_label
_atom_site_fract_x
_atom_site_fract_y
_atom_site_fract_z
Si Si1 0.413270 0.938250 0.170284
Si Si2 0.735576 0.982369 0.687452
Si Si3 0.045596 0.576333 0.144797
Si Si4 0.262233 0.612584 0.377679
Si Si5 0.681903 0.002240 0.181635
Si Si6 0.500000 0.361158 0.000000
Si Si7 0.787836 0.146967 0.933513
Si Si8 0.116149 0.086517 0.867242
O O1 0.343287 0.016869 0.252632
O O2 0.412950 0.750230 0.175867
O O3 0.474910 0.002392 0.234872
O O4 0.426826 0.984251 0.003898
O O5 0.745964 0.797214 0.655023
O O6 0.762094 0.086757 0.544245
O O7 0.778580 0.036956 0.800771
O O8 0.103592 0.549211 0.228885
O O9 0.033742 0.758471 0.107290
O O10 0.201879 0.516347 0.335370
O O11 0.328747 0.535410 0.275751
O O12 0.700446 0.829151 0.113630
O O13 0.722120 0.131449 0.066135
O O14 0.556271 0.463422 0.895063
O O15 0.852251 0.094089 0.991771
#
# Coordination Sequence:
#
# PCOD8048961 Si02
#       8
#     4   4   4   4   4   2   4   4
#     4   9  18  36  55  78 115 148 187 220 284 338
#     4  11  21  40  57  85 110 159 184 239 280 345
#     4  10  20  33  54  85 114 150 181 235 278 335
#     4  10  24  36  60  81 118 146 196 231 290 332
#     4  11  21  36  55  89 111 151 187 241 278 335
#     4  10  22  30  58  84 118 142 188 238 278 330
#     4  11  21  33  60  81 120 141 192 233 286 325
#     4  10  20  36  56  90 107 150 185 238 280 333
#
# _framework density 18.783197000000001
#
# number of rings (size 3 to 8) (size 9 to 14) (size 15 to 20)
#    0.000    1.867    2.667    3.200    5.600    2.133 
#    0.000    0.667    0.000    0.800    0.000    0.000 
#    0.000    0.000    0.000    0.000    0.000    0.000 
#
# Total GULP energy -185934.077359 kJ/mol
# GULP energy per Si atom -12395.605157 kJ/mol
# Density = 1.874045 g / cm^3
# Si number density = 18.783197 Si / 1000 Ang^3
#
#
#
# Elastic Constant Matrix: (Units=GPa)
#
#
# Indices 1 2 3 4 5 6 
#
# 1 86.7899 26.6470 12.2190 0.0000 -12.1275 0.0000
# 2 26.6470 60.0940 4.9325 0.0000 -9.0047 0.0000
# 3 12.2190 4.9325 68.9413 0.0000 -0.5658 0.0000
# 4 0.0000 0.0000 0.0000 26.2276 0.0000 -3.5867
# 5 -12.1275 -9.0047 -0.5658 0.0000 17.5920 0.0000
# 6 0.0000 0.0000 0.0000 -3.5867 0.0000 23.5702
#
#
#
# Elastic Compliance Matrix: (Units=1/GPa)
#
#
# Indices 1 2 3 4 5 6 
#
# 1 0.014408 -0.005130 -0.002127 0.000000 0.007238 0.000000
# 2 -0.005130 0.019951 -0.000464 0.000000 0.006661 0.000000
# 3 -0.002127 -0.000464 0.014905 0.000000 -0.001224 0.000000
# 4 0.000000 0.000000 0.000000 0.038938 0.000000 0.005925
# 5 0.007238 0.006661 -0.001224 0.000000 0.065204 0.000000
# 6 0.000000 0.000000 0.000000 0.005925 0.000000 0.043328
#
#
# Mechanical properties :
#
#
# Convention : Reuss Voigt Hill
#
# Bulk Modulus (GPa) = 29.56507 33.71358 31.63932
# Shear Modulus (GPa) = 22.37634 24.94641 23.66138
#
# Velocity S-wave (km/s) = 3.45526 3.64830 3.55309
# Velocity P-wave (km/s) = 5.62963 5.97784 5.80635
#
# Compressibility (1/GPa) = 0.03382370
#
# Stress axis : x y z
#
# Youngs Moduli (GPa) = 69.40614 50.12189 67.09049
#
# Poissons Ratio (x) = 0.25710 0.14272
# Poissons Ratio (y) = 0.35602 0.03110
# Poissons Ratio (z) = 0.14764 0.02324
#
# Static dielectric constant tensor:
#      x y z
#    x 4.133640 0.000000 0.014900 
#    y 0.000000 3.463830 0.000000 
#    z 0.014900 0.000000 3.277510 
# 
# 
# High freq. dielectric constant tensor:
#      x y z
#    x 1.736220 0.000000 0.000300 
#    y 0.000000 1.737760 0.000000 
#    z 0.000300 0.000000 1.696130 
# 
# From -- ./inp_files/28933.got.cif
#   From: 2010.03.12/outbox.cif.g09.slc.cpg/sg5_15_cif.got.tgz:28933.got - 2010.03.31 09:47:26.
