data_PCOD8048661
_publ_section_title
;
Structure prediction by ZEFSAII (Michael W. Deem and Ramdas Pophale) SiO2 
 PCOD8048661
Probable space group: C 2
;
_chemical_formula_sum "Si O2"
_cell_formula_units_Z 32
_cell_length_a 14.712893
_cell_length_b 8.956668
_cell_length_c 24.484462
_cell_angle_alpha 90.000000
_cell_angle_beta 29.729626
_cell_angle_gamma 90.000000
_cell_volume 1600.059052
_symmetry_space_group_name_H-M "C 2"
_symmetry_group_IT_number 5
_symmetry_cell_setting 'monoclinic'
loop_
_space_group_symop_operation_xyz
x,y,z
-x,y,-z
1/2+x,1/2+y,z
1/2-x,1/2+y,-z
loop_
_atom_site_type_symbol
_atom_site_label
_atom_site_fract_x
_atom_site_fract_y
_atom_site_fract_z
Si Si1 0.007574 0.938410 0.708094
Si Si2 0.697246 0.459767 0.395316
Si Si3 0.377814 0.757323 0.916840
Si Si4 0.454509 0.414752 0.859943
Si Si5 0.797269 0.446068 0.218362
Si Si6 0.212192 0.273274 0.262234
Si Si7 0.882171 0.279958 0.514739
Si Si8 0.024249 0.283875 0.257057
O O1 0.207089 0.875265 0.587300
O O2 0.939717 0.885655 0.803013
O O3 0.860799 0.882411 0.739482
O O4 0.022738 0.115696 0.701760
O O5 0.500000 0.382008 0.500000
O O6 0.749231 0.438683 0.306134
O O7 0.691927 0.630383 0.417499
O O8 0.836508 0.374233 0.361733
O O9 0.405240 0.580247 0.905640
O O10 0.519006 0.845895 0.883287
O O11 0.392876 0.807183 0.846099
O O12 0.175332 0.795311 0.042990
O O13 0.664536 0.386151 0.767479
O O14 0.825706 0.621143 0.190597
O O15 0.168170 0.347516 0.226363
O O16 0.016823 0.241554 0.394053
O O17 0.000000 0.367181 0.500000
#
# Coordination Sequence:
#
# PCOD8048661 Si02
#       8
#     4   4   4   4   4   4   4   4
#     4  10  22  38  58  87 118 150 193 233 285 343
#     4  10  19  36  55  82 117 155 193 225 278 334
#     4  10  23  42  61  84 112 148 192 244 292 338
#     4  11  22  41  62  84 112 150 192 241 292 342
#     4  10  20  39  59  83 116 151 190 236 281 340
#     4  11  21  38  60  85 119 156 190 232 283 341
#     4  11  20  35  58  86 120 157 190 228 278 333
#     4   9  23  38  56  87 117 150 194 234 285 341
#
# _framework density 19.999262000000002
#
# number of rings (size 3 to 8) (size 9 to 14) (size 15 to 20)
#    0.000    1.750    3.750    0.750    1.750    3.500 
#    2.250    5.000    0.000    0.000    0.000    0.000 
#    0.000    0.000    0.000    0.000    0.000    0.000 
#
# Total GULP energy -198326.724277 kJ/mol
# GULP energy per Si atom -12395.420267 kJ/mol
# Density = 1.995374 g / cm^3
# Si number density = 19.999262 Si / 1000 Ang^3
#
#
#
# Elastic Constant Matrix: (Units=GPa)
#
#
# Indices 1 2 3 4 5 6 
#
# 1 150.8227 34.7225 33.4904 0.0002 -8.2494 -0.0001
# 2 34.7225 50.3783 33.8969 -0.0004 -0.0305 0.0003
# 3 33.4904 33.8969 84.3817 -0.0019 -9.8373 -0.0004
# 4 0.0002 -0.0004 -0.0019 40.9244 0.0005 -13.7304
# 5 -8.2494 -0.0305 -9.8373 0.0005 20.4273 -0.0004
# 6 -0.0001 0.0003 -0.0004 -13.7304 -0.0004 37.8889
#
#
#
# Elastic Compliance Matrix: (Units=1/GPa)
#
#
# Indices 1 2 3 4 5 6 
#
# 1 0.008136 -0.005012 -0.000883 0.000000 0.002853 0.000000
# 2 -0.005012 0.030893 -0.011285 0.000000 -0.007412 -0.000001
# 3 -0.000883 -0.011285 0.017684 0.000001 0.008143 0.000001
# 4 0.000000 0.000000 0.000001 0.027817 0.000000 0.010081
# 5 0.002853 -0.007412 0.008143 0.000000 0.054016 0.000001
# 6 0.000000 -0.000001 0.000001 0.010081 0.000001 0.030046
#
#
# Mechanical properties :
#
#
# Convention : Reuss Voigt Hill
#
# Bulk Modulus (GPa) = 44.73681 54.42250 49.57966
# Shear Modulus (GPa) = 23.76383 32.07963 27.92173
#
# Velocity S-wave (km/s) = 3.45082 4.00939 3.74055
# Velocity P-wave (km/s) = 6.18832 6.97889 6.59546
#
# Compressibility (1/GPa) = 0.02235296
#
# Stress axis : x y z
#
# Youngs Moduli (GPa) = 122.90592 32.37024 56.54822
#
# Poissons Ratio (x) = 0.16223 0.04995
# Poissons Ratio (y) = 0.61597 0.63814
# Poissons Ratio (z) = 0.10857 0.36529
#
# Static dielectric constant tensor:
#      x y z
#    x 2.966370 0.000000 0.015280 
#    y 0.000000 3.586780 0.000000 
#    z 0.015280 0.000000 3.586460 
# 
# 
# High freq. dielectric constant tensor:
#      x y z
#    x 1.796660 0.000000 -0.002470 
#    y 0.000000 1.762810 0.000000 
#    z -0.002470 0.000000 1.775410 
# 
# From -- ./inp_files/54178.got.cif
#   From: 2010.03.12/outbox.cif.g09.slc.cpg/sg5_28_cif.got.tgz:54178.got - 2010.03.31 09:47:26.
