data_PCOD8048555
_publ_section_title
;
Structure prediction by ZEFSAII (Michael W. Deem and Ramdas Pophale) SiO2 
 PCOD8048555
Probable space group: C 2
;
_chemical_formula_sum "Si O2"
_cell_formula_units_Z 30
_cell_length_a 9.327398
_cell_length_b 19.025024
_cell_length_c 8.493545
_cell_angle_alpha 90.000000
_cell_angle_beta 106.167398
_cell_angle_gamma 90.000000
_cell_volume 1447.606437
_symmetry_space_group_name_H-M "C 2"
_symmetry_group_IT_number 5
_symmetry_cell_setting 'monoclinic'
loop_
_space_group_symop_operation_xyz
x,y,z
-x,y,-z
1/2+x,1/2+y,z
1/2-x,1/2+y,-z
loop_
_atom_site_type_symbol
_atom_site_label
_atom_site_fract_x
_atom_site_fract_y
_atom_site_fract_z
Si Si1 0.254676 0.082740 0.115523
Si Si2 0.591143 0.059046 0.195462
Si Si3 0.300619 0.456645 0.079941
Si Si4 0.161112 0.822489 0.108427
Si Si5 0.075719 0.913202 0.360235
Si Si6 0.814430 0.177434 0.169816
Si Si7 0.733880 0.043189 0.539475
Si Si8 0.000000 0.128880 0.500000
O O1 0.420192 0.071479 0.085146
O O2 0.278328 0.091362 0.307911
O O3 0.165307 0.146777 0.003424
O O4 0.165453 0.011032 0.052153
O O5 0.681566 0.131153 0.200568
O O6 0.585351 0.045437 0.384527
O O7 0.666071 0.987825 0.145074
O O8 0.449254 0.455123 0.227764
O O9 0.269355 0.381462 0.987963
O O10 0.138067 0.847344 0.281146
O O11 0.275758 0.758794 0.144116
O O12 0.000000 0.796811 0.000000
O O13 0.000000 0.886900 0.500000
O O14 0.220185 0.962654 0.421080
O O15 0.961497 0.173384 0.328481
O O16 0.862106 0.077784 0.475583
#
# Coordination Sequence:
#
# PCOD8048555 Si02
#       8
#     4   4   4   4   4   4   4   2
#     4  11  21  34  61  85 117 154 197 243 295 354
#     4  10  20  36  58  86 120 155 193 244 300 350
#     4  10  19  33  57  84 111 154 194 242 291 345
#     4  10  21  36  59  86 116 155 203 244 297 361
#     4  11  19  35  58  86 117 150 195 250 296 342
#     4  10  21  40  59  82 119 153 196 248 302 357
#     4  11  19  35  60  90 114 148 196 252 295 351
#     4  10  22  38  62  80 118 152 192 252 308 348
#
# _framework density 20.723865
#
# number of rings (size 3 to 8) (size 9 to 14) (size 15 to 20)
#    0.000    1.600    3.333    4.400    0.000    1.600 
#    0.000    9.333    5.867    0.000    0.000    0.000 
#    0.000    0.000    0.000    0.000    0.000    0.000 
#
# Total GULP energy -185845.580112 kJ/mol
# GULP energy per Si atom -12389.705341 kJ/mol
# Density = 2.067670 g / cm^3
# Si number density = 20.723865 Si / 1000 Ang^3
#
#
#
# Elastic Constant Matrix: (Units=GPa)
#
#
# Indices 1 2 3 4 5 6 
#
# 1 25.9645 12.2202 12.3543 0.0000 5.6132 0.0000
# 2 12.2202 109.5073 39.9066 0.0000 9.2289 0.0000
# 3 12.3543 39.9066 145.8758 0.0000 7.5792 0.0000
# 4 0.0000 0.0000 0.0000 21.2070 0.0000 -0.3581
# 5 5.6132 9.2289 7.5792 0.0000 39.0269 0.0000
# 6 0.0000 0.0000 0.0000 -0.3581 0.0000 21.8730
#
#
#
# Elastic Compliance Matrix: (Units=1/GPa)
#
#
# Indices 1 2 3 4 5 6 
#
# 1 0.042313 -0.003445 -0.002391 0.000000 -0.004807 0.000000
# 2 -0.003445 0.010562 -0.002519 0.000000 -0.001513 0.000000
# 3 -0.002391 -0.002519 0.007776 0.000000 -0.000571 0.000000
# 4 0.000000 0.000000 0.000000 0.047167 0.000000 0.000772
# 5 -0.004807 -0.001513 -0.000571 0.000000 0.026783 0.000000
# 6 0.000000 0.000000 0.000000 0.000772 0.000000 0.045731
#
#
# Mechanical properties :
#
#
# Convention : Reuss Voigt Hill
#
# Bulk Modulus (GPa) = 22.75844 45.59000 34.17422
# Shear Modulus (GPa) = 23.61947 30.87915 27.24931
#
# Velocity S-wave (km/s) = 3.37964 3.86428 3.63006
# Velocity P-wave (km/s) = 5.12200 6.47740 5.83916
#
# Compressibility (1/GPa) = 0.04393975
#
# Stress axis : x y z
#
# Youngs Moduli (GPa) = 23.63368 94.68142 128.59414
#
# Poissons Ratio (x) = 0.32620 0.30750
# Poissons Ratio (y) = 0.08142 0.32392
# Poissons Ratio (z) = 0.05651 0.23850
#
# Static dielectric constant tensor:
#      x y z
#    x 3.630930 0.000000 0.128560 
#    y 0.000000 3.377830 0.000000 
#    z 0.128560 0.000000 4.629630 
# 
# 
# High freq. dielectric constant tensor:
#      x y z
#    x 1.790780 0.000000 0.003680 
#    y 0.000000 1.772930 0.000000 
#    z 0.003680 0.000000 1.850500 
# 
# From -- ./inp_files/21344.got.cif
#   From: 2010.03.12/outbox.cif.g09.slc.cpg/sg5_11_cif.got.tgz:21344.got - 2010.03.31 09:47:26.
