data_PCOD8048960
_publ_section_title
;
Structure prediction by ZEFSAII (Michael W. Deem and Ramdas Pophale) SiO2 
 PCOD8048960
Probable space group: C 2
;
_chemical_formula_sum "Si O2"
_cell_formula_units_Z 32
_cell_length_a 11.864438
_cell_length_b 19.966008
_cell_length_c 8.982560
_cell_angle_alpha 90.000000
_cell_angle_beta 54.037919
_cell_angle_gamma 90.000000
_cell_volume 1722.284376
_symmetry_space_group_name_H-M "C 2"
_symmetry_group_IT_number 5
_symmetry_cell_setting 'monoclinic'
loop_
_space_group_symop_operation_xyz
x,y,z
-x,y,-z
1/2+x,1/2+y,z
1/2-x,1/2+y,-z
loop_
_atom_site_type_symbol
_atom_site_label
_atom_site_fract_x
_atom_site_fract_y
_atom_site_fract_z
Si Si1 0.151008 0.410830 0.455323
Si Si2 0.846628 0.876777 0.050432
Si Si3 0.374705 0.799646 0.294875
Si Si4 0.334969 0.647192 0.804746
Si Si5 0.132405 0.020672 0.064459
Si Si6 0.181426 0.042137 0.693771
Si Si7 0.190365 0.273878 0.992374
Si Si8 0.836904 0.166648 0.475324
O O1 0.244736 0.369384 0.268314
O O2 0.159498 0.371843 0.606881
O O3 0.207286 0.485584 0.436535
O O4 0.000000 0.414563 0.500000
O O5 0.818155 0.816020 0.961240
O O6 0.000000 0.877832 0.000000
O O7 0.812360 0.944699 0.983757
O O8 0.309219 0.787366 0.183661
O O9 0.304674 0.741470 0.447194
O O10 0.541393 0.796087 0.170555
O O11 0.291333 0.570531 0.878537
O O12 0.271960 0.662855 0.691547
O O13 0.500022 0.652773 0.662205
O O14 0.282580 0.697299 0.976188
O O15 0.970987 0.017294 0.238286
O O16 0.165555 0.055536 0.881132
O O17 0.233870 0.110169 0.573830
#
# Coordination Sequence:
#
# PCOD8048960 Si02
#       8
#     4   4   4   4   4   4   4   4
#     4  11  20  34  57  82 112 148 188 227 273 332
#     4  11  20  36  57  82 115 151 183 224 278 336
#     4  10  20  33  54  83 111 145 186 235 274 324
#     4   9  17  29  52  79 105 139 186 231 272 321
#     4   9  16  31  51  76 106 142 179 222 271 327
#     4   9  17  31  50  76 106 141 179 222 277 320
#     4  10  20  34  53  82 112 146 187 230 280 325
#     4   9  17  29  50  79 109 137 181 237 273 318
#
# _framework density 18.579975000000001
#
# number of rings (size 3 to 8) (size 9 to 14) (size 15 to 20)
#    0.000    2.250    3.750    1.500    1.750    4.000 
#    0.000    0.625    0.000    9.000    0.000    0.000 
#    0.000    0.000    0.000    0.000    0.000    0.000 
#
# Total GULP energy -198252.986265 kJ/mol
# GULP energy per Si atom -12390.811642 kJ/mol
# Density = 1.853769 g / cm^3
# Si number density = 18.579975 Si / 1000 Ang^3
#
#
#
# Elastic Constant Matrix: (Units=GPa)
#
#
# Indices 1 2 3 4 5 6 
#
# 1 65.9987 52.3193 38.2249 0.0000 14.4388 0.0000
# 2 52.3193 119.6841 47.0397 0.0000 15.7276 0.0000
# 3 38.2249 47.0397 75.2983 0.0000 13.4498 0.0000
# 4 0.0000 0.0000 0.0000 31.7227 0.0000 11.7409
# 5 14.4388 15.7276 13.4498 0.0000 22.0147 0.0000
# 6 0.0000 0.0000 0.0000 11.7409 0.0000 23.3235
#
#
#
# Elastic Compliance Matrix: (Units=1/GPa)
#
#
# Indices 1 2 3 4 5 6 
#
# 1 0.027657 -0.008085 -0.007611 0.000000 -0.007713 0.000000
# 2 -0.008085 0.013784 -0.004148 0.000000 -0.002011 0.000000
# 3 -0.007611 -0.004148 0.020558 0.000000 -0.004605 0.000000
# 4 0.000000 0.000000 0.000000 0.038741 0.000000 -0.019502
# 5 -0.007713 -0.002011 -0.004605 0.000000 0.054733 0.000000
# 6 0.000000 0.000000 0.000000 -0.019502 0.000000 0.052693
#
#
# Mechanical properties :
#
#
# Convention : Reuss Voigt Hill
#
# Bulk Modulus (GPa) = 44.82107 59.57210 52.19658
# Shear Modulus (GPa) = 19.58559 23.63865 21.61212
#
# Velocity S-wave (km/s) = 3.25025 3.57075 3.41426
# Velocity P-wave (km/s) = 6.18556 7.00946 6.61036
#
# Compressibility (1/GPa) = 0.02231093
#
# Stress axis : x y z
#
# Youngs Moduli (GPa) = 36.15755 72.54803 48.64305
#
# Poissons Ratio (x) = 0.58654 0.37024
# Poissons Ratio (y) = 0.29233 0.20175
# Poissons Ratio (z) = 0.27521 0.30090
#
# Static dielectric constant tensor:
#      x y z
#    x 3.345800 0.000000 0.126150 
#    y 0.000000 3.516670 0.000000 
#    z 0.126150 0.000000 3.432550 
# 
# 
# High freq. dielectric constant tensor:
#      x y z
#    x 1.682470 0.000000 0.023760 
#    y 0.000000 1.730510 0.000000 
#    z 0.023760 0.000000 1.707100 
# 
# From -- ./inp_files/21951.got.cif
#   From: 2010.03.12/outbox.cif.g09.slc.cpg/sg5_11_cif.got.tgz:21951.got - 2010.03.31 09:47:26.
