data_PCOD8048525
_publ_section_title
;
Structure prediction by ZEFSAII (Michael W. Deem and Ramdas Pophale) SiO2 
 PCOD8048525
Probable space group: C 2
;
_chemical_formula_sum "Si O2"
_cell_formula_units_Z 26
_cell_length_a 5.181885
_cell_length_b 18.378710
_cell_length_c 15.655358
_cell_angle_alpha 90.000000
_cell_angle_beta 99.773230
_cell_angle_gamma 90.000000
_cell_volume 1469.321516
_symmetry_space_group_name_H-M "C 2"
_symmetry_group_IT_number 5
_symmetry_cell_setting 'monoclinic'
loop_
_space_group_symop_operation_xyz
x,y,z
-x,y,-z
1/2+x,1/2+y,z
1/2-x,1/2+y,-z
loop_
_atom_site_type_symbol
_atom_site_label
_atom_site_fract_x
_atom_site_fract_y
_atom_site_fract_z
Si Si1 0.610039 0.233720 0.701673
Si Si2 0.000000 0.897716 0.000000
Si Si3 0.446080 0.734063 0.403385
Si Si4 0.608138 0.062108 0.701643
Si Si5 0.654090 0.354185 0.834676
Si Si6 0.824679 0.441513 0.165334
Si Si7 0.052834 0.061919 0.596606
O O1 0.336609 0.258636 0.645465
O O2 0.620659 0.147921 0.720768
O O3 0.655223 0.273980 0.794186
O O4 0.832807 0.261001 0.649407
O O5 0.850505 0.847088 0.061645
O O6 0.212431 0.948338 0.061729
O O7 0.500000 0.768192 0.500000
O O8 0.460027 0.647995 0.411038
O O9 0.335941 0.037080 0.644734
O O10 0.832893 0.035159 0.650024
O O11 0.640801 0.021834 0.794001
O O12 0.389765 0.396762 0.790803
O O13 0.902877 0.399237 0.817136
O O14 0.000000 0.027785 0.500000
#
# Coordination Sequence:
#
# PCOD8048525 Si02
#       7
#     4   2   4   4   4   4   4
#     4  10  19  32  55  82 106 135 176 222 259 292
#     4   8  22  36  62  72  98 140 188 192 266 332
#     4   9  17  30  50  78 110 142 175 209 252 308
#     4  10  19  32  55  82 106 135 176 222 259 292
#     4  10  20  36  58  76 103 136 181 208 259 326
#     4  10  20  36  58  76 103 136 181 208 259 326
#     4   9  17  30  50  78 110 142 175 209 252 308
#
# _framework density 17.695240999999999
#
# number of rings (size 3 to 8) (size 9 to 14) (size 15 to 20)
#    0.923    1.538    0.000    3.231    0.000    3.692 
#    0.000    0.000    6.769   18.462    0.000    0.000 
#    0.000    0.000    0.000    0.000    0.000    0.000 
#
# Total GULP energy -161106.720463 kJ/mol
# GULP energy per Si atom -12392.824651 kJ/mol
# Density = 1.765497 g / cm^3
# Si number density = 17.695241 Si / 1000 Ang^3
#
#
#
# Elastic Constant Matrix: (Units=GPa)
#
#
# Indices 1 2 3 4 5 6 
#
# 1 149.3196 36.0628 44.2023 0.0000 -14.9313 0.0000
# 2 36.0628 59.7112 57.4004 0.0000 -5.2244 0.0000
# 3 44.2023 57.4004 132.0849 0.0000 -21.1125 0.0000
# 4 0.0000 0.0000 0.0000 28.6923 0.0000 -3.2023
# 5 -14.9313 -5.2244 -21.1125 0.0000 1.5137 0.0000
# 6 0.0000 0.0000 0.0000 -3.2023 0.0000 10.7729
#
#
#
# Elastic Compliance Matrix: (Units=1/GPa)
#
#
# Indices 1 2 3 4 5 6 
#
# 1 0.005960 -0.000021 -0.006020 0.000000 -0.025240 0.000000
# 2 -0.000021 0.023173 -0.002186 0.000000 0.049285 0.000000
# 3 -0.006020 -0.002186 0.000131 0.000000 -0.065089 0.000000
# 4 0.000000 0.000000 0.000000 0.036048 0.000000 0.010716
# 5 -0.025240 0.049285 -0.065089 0.000000 -0.326058 0.000000
# 6 0.000000 0.000000 0.000000 0.010716 0.000000 0.096010
#
#
# Mechanical properties :
#
#
# Convention : Reuss Voigt Hill
#
# Bulk Modulus (GPa) = 78.05272 68.49408 73.27340
# Shear Modulus (GPa) = -34.71984 21.75914 -6.48035
#
# Velocity S-wave (km/s) = -4.43437 3.51046 -1.91576
# Velocity P-wave (km/s) = 4.24112 7.43120 6.05020
#
# Compressibility (1/GPa) = 0.01281185
#
# Stress axis : x y z
#
# Youngs Moduli (GPa) = 167.77648 43.15308 7611.89596
#
# Poissons Ratio (x) = 0.00092 45.82086
# Poissons Ratio (y) = 0.00359 16.63613
# Poissons Ratio (z) = 1.00995 0.09431
#
# Static dielectric constant tensor:
#      x y z
#    x 3.570720 0.000000 0.003840 
#    y 0.000000 2.832610 0.000000 
#    z 0.003840 0.000000 3.262790 
# 
# 
# High freq. dielectric constant tensor:
#      x y z
#    x 1.708500 0.000000 0.001140 
#    y 0.000000 1.637030 0.000000 
#    z 0.001140 0.000000 1.680170 
# 
# From -- ./inp_files/49129.got.cif
#   From: 2010.03.12/outbox.cif.g09.slc.cpg/sg5_25_cif.got.tgz:49129.got - 2010.03.31 09:47:26.
