data_PCOD8048731
_publ_section_title
;
Structure prediction by ZEFSAII (Michael W. Deem and Ramdas Pophale) SiO2 
 PCOD8048731
Probable space group: C 2
;
_chemical_formula_sum "Si O2"
_cell_formula_units_Z 28
_cell_length_a 13.805559
_cell_length_b 9.084359
_cell_length_c 11.594765
_cell_angle_alpha 90.000000
_cell_angle_beta 69.435401
_cell_angle_gamma 90.000000
_cell_volume 1361.490055
_symmetry_space_group_name_H-M "C 2"
_symmetry_group_IT_number 5
_symmetry_cell_setting 'monoclinic'
loop_
_space_group_symop_operation_xyz
x,y,z
-x,y,-z
1/2+x,1/2+y,z
1/2-x,1/2+y,-z
loop_
_atom_site_type_symbol
_atom_site_label
_atom_site_fract_x
_atom_site_fract_y
_atom_site_fract_z
Si Si1 0.746860 0.431840 0.058911
Si Si2 0.149859 0.708124 0.708123
Si Si3 0.482009 0.383449 0.877815
Si Si4 0.957576 0.141676 0.309113
Si Si5 0.604417 0.391679 0.506623
Si Si6 0.816199 0.243992 0.829525
Si Si7 0.694958 0.885575 0.715110
O O1 0.636438 0.350697 0.102315
O O2 0.724203 0.606420 0.076414
O O3 0.811912 0.379089 0.143064
O O4 0.809527 0.386977 0.916542
O O5 0.154691 0.795070 0.586355
O O6 0.245409 0.762882 0.746664
O O7 0.147994 0.535298 0.683829
O O8 0.043138 0.735699 0.820552
O O9 0.534573 0.516508 0.788929
O O10 0.500000 0.428734 0.000000
O O11 0.865520 0.251153 0.315243
O O12 0.067518 0.225812 0.268038
O O13 0.924530 0.058880 0.441127
O O14 0.500000 0.317785 0.500000
O O15 0.684097 0.391012 0.367868
#
# Coordination Sequence:
#
# PCOD8048731 Si02
#       7
#     4   4   4   4   4   4   4
#     4  10  22  36  60  87 127 161 201 246 298 366
#     4  10  21  39  61  88 123 156 206 250 306 359
#     4  10  19  37  59  85 117 169 202 234 299 369
#     4  10  24  38  63  89 121 162 202 256 298 366
#     4  11  22  44  68  84 116 164 208 250 305 377
#     4  10  21  39  58  91 124 164 198 246 305 362
#     4  11  23  39  59  95 122 156 204 261 308 347
#
# _framework density 20.565702999999999
#
# number of rings (size 3 to 8) (size 9 to 14) (size 15 to 20)
#    0.000    1.714    1.429    4.286    4.000    1.143 
#    0.000    5.000    0.000    0.000    0.000    0.000 
#    0.000    0.000    0.000    0.000    0.000    0.000 
#
# Total GULP energy -173580.326039 kJ/mol
# GULP energy per Si atom -12398.594717 kJ/mol
# Density = 2.051889 g / cm^3
# Si number density = 20.565703 Si / 1000 Ang^3
#
#
#
# Elastic Constant Matrix: (Units=GPa)
#
#
# Indices 1 2 3 4 5 6 
#
# 1 100.1049 37.3482 22.1613 0.0000 -2.6737 0.0000
# 2 37.3482 60.8839 14.5839 0.0000 -3.1263 0.0000
# 3 22.1613 14.5839 62.4345 0.0000 0.1023 0.0000
# 4 0.0000 0.0000 0.0000 30.7992 0.0000 -3.6721
# 5 -2.6737 -3.1263 0.1023 0.0000 38.9933 0.0000
# 6 0.0000 0.0000 0.0000 -3.6721 0.0000 30.2805
#
#
#
# Elastic Compliance Matrix: (Units=1/GPa)
#
#
# Indices 1 2 3 4 5 6 
#
# 1 0.013476 -0.007525 -0.003026 0.000000 0.000329 0.000000
# 2 -0.007525 0.021677 -0.002395 0.000000 0.001228 0.000000
# 3 -0.003026 -0.002395 0.017651 0.000000 -0.000446 0.000000
# 4 0.000000 0.000000 0.000000 0.032945 0.000000 0.003995
# 5 0.000329 0.001228 -0.000446 0.000000 0.025768 0.000000
# 6 0.000000 0.000000 0.000000 0.003995 0.000000 0.033509
#
#
# Mechanical properties :
#
#
# Convention : Reuss Voigt Hill
#
# Bulk Modulus (GPa) = 37.15664 41.29001 39.22333
# Shear Modulus (GPa) = 27.79522 29.96990 28.88256
#
# Velocity S-wave (km/s) = 3.68031 3.82157 3.75160
# Velocity P-wave (km/s) = 6.01382 6.29232 6.15464
#
# Compressibility (1/GPa) = 0.02691309
#
# Stress axis : x y z
#
# Youngs Moduli (GPa) = 74.20832 46.13132 56.65399
#
# Poissons Ratio (x) = 0.34712 0.17144
# Poissons Ratio (y) = 0.55839 0.13567
# Poissons Ratio (z) = 0.22456 0.11047
#
# Static dielectric constant tensor:
#      x y z
#    x 3.822500 0.000000 -0.053700 
#    y 0.000000 3.717800 0.000000 
#    z -0.053700 0.000000 3.839270 
# 
# 
# High freq. dielectric constant tensor:
#      x y z
#    x 1.813500 0.000000 0.001920 
#    y 0.000000 1.787890 0.000000 
#    z 0.001920 0.000000 1.808020 
# 
# From -- ./inp_files/41699.got.cif
#   From: 2010.03.12/outbox.cif.g09.slc.cpg/sg5_21_cif.got.tgz:41699.got - 2010.03.31 09:47:26.
