data_PCOD8048483
_publ_section_title
;
Structure prediction by ZEFSAII (Michael W. Deem and Ramdas Pophale) SiO2 
 PCOD8048483
Probable space group: C 2
;
_chemical_formula_sum "Si O2"
_cell_formula_units_Z 26
_cell_length_a 21.684465
_cell_length_b 9.282094
_cell_length_c 8.898538
_cell_angle_alpha 90.000000
_cell_angle_beta 43.391723
_cell_angle_gamma 90.000000
_cell_volume 1230.436013
_symmetry_space_group_name_H-M "C 2"
_symmetry_group_IT_number 5
_symmetry_cell_setting 'monoclinic'
loop_
_space_group_symop_operation_xyz
x,y,z
-x,y,-z
1/2+x,1/2+y,z
1/2-x,1/2+y,-z
loop_
_atom_site_type_symbol
_atom_site_label
_atom_site_fract_x
_atom_site_fract_y
_atom_site_fract_z
Si Si1 0.000000 0.230350 0.000000
Si Si2 0.046702 0.536545 0.266130
Si Si3 0.688437 0.280843 0.959367
Si Si4 0.856325 0.068177 0.126138
Si Si5 0.210237 0.335515 0.913343
Si Si6 0.578371 0.007587 0.764889
Si Si7 0.759413 0.066196 0.600919
O O1 0.042839 0.131524 0.055955
O O2 0.077764 0.333354 0.790837
O O3 0.000000 0.492590 0.500000
O O4 0.952473 0.551948 0.345265
O O5 0.106569 0.681369 0.161613
O O6 0.110555 0.407574 0.092920
O O7 0.646112 0.413307 0.944602
O O8 0.755040 0.201155 0.723870
O O9 0.745178 0.337761 0.001017
O O10 0.792426 0.172488 0.141698
O O11 0.838256 0.067975 0.339152
O O12 0.268631 0.424897 0.689038
O O13 0.672794 0.070158 0.645977
O O14 0.500000 0.082995 0.000000
#
# Coordination Sequence:
#
# PCOD8048483 Si02
#       7
#     2   4   4   4   4   4   4
#     4  10  20  40  64  88 130 150 210 268 312 354
#     4  11  24  43  67  91 122 176 214 249 319 388
#     4  11  25  40  61  97 135 160 206 273 321 364
#     4  12  23  40  67  95 129 162 211 274 320 363
#     4  11  22  45  62  93 131 169 211 258 311 394
#     4  10  18  42  69  84 124 165 222 263 288 394
#     4  11  23  41  68  96 120 177 221 249 317 391
#
# _framework density 21.130721000000001
#
# number of rings (size 3 to 8) (size 9 to 14) (size 15 to 20)
#    0.462    0.615    6.154    2.769    4.308    1.231 
#    2.769    0.769    0.000    0.000    0.000    0.000 
#    0.000    0.000    0.000    0.000    0.000    0.000 
#
# Total GULP energy -161047.826431 kJ/mol
# GULP energy per Si atom -12388.294341 kJ/mol
# Density = 2.108263 g / cm^3
# Si number density = 21.130721 Si / 1000 Ang^3
#
#
#
# Elastic Constant Matrix: (Units=GPa)
#
#
# Indices 1 2 3 4 5 6 
#
# 1 115.5401 7.4477 3.7489 0.0000 18.8679 0.0000
# 2 7.4477 84.4801 11.6465 0.0000 2.6607 0.0000
# 3 3.7489 11.6465 72.8604 0.0000 21.4923 0.0000
# 4 0.0000 0.0000 0.0000 12.7559 0.0000 12.3120
# 5 18.8679 2.6607 21.4923 0.0000 30.0465 0.0000
# 6 0.0000 0.0000 0.0000 12.3120 0.0000 40.9308
#
#
#
# Elastic Compliance Matrix: (Units=1/GPa)
#
#
# Indices 1 2 3 4 5 6 
#
# 1 0.009865 -0.000887 0.001823 0.000000 -0.007420 0.000000
# 2 -0.000887 0.012187 -0.002216 0.000000 0.001063 0.000000
# 3 0.001823 -0.002216 0.018080 0.000000 -0.013881 0.000000
# 4 0.000000 0.000000 0.000000 0.110467 0.000000 -0.033228
# 5 -0.007420 0.001063 -0.013881 0.000000 0.047776 0.000000
# 6 0.000000 0.000000 0.000000 -0.033228 0.000000 0.034427
#
#
# Mechanical properties :
#
#
# Convention : Reuss Voigt Hill
#
# Bulk Modulus (GPa) = 26.61592 35.39630 31.00611
# Shear Modulus (GPa) = 20.17053 33.41580 26.79316
#
# Velocity S-wave (km/s) = 3.09295 3.98098 3.56472
# Velocity P-wave (km/s) = 5.03769 6.15779 5.62568
#
# Compressibility (1/GPa) = 0.03757150
#
# Stress axis : x y z
#
# Youngs Moduli (GPa) = 101.37087 82.05222 55.30974
#
# Poissons Ratio (x) = 0.07280 -0.10083
# Poissons Ratio (y) = 0.08995 0.12257
# Poissons Ratio (z) = -0.18480 0.18183
#
# Static dielectric constant tensor:
#      x y z
#    x 3.675780 0.000000 0.225130 
#    y 0.000000 3.746550 0.000000 
#    z 0.225130 0.000000 3.783250 
# 
# 
# High freq. dielectric constant tensor:
#      x y z
#    x 1.841180 0.000000 0.015960 
#    y 0.000000 1.826100 0.000000 
#    z 0.015960 0.000000 1.808750 
# 
# From -- ./inp_files/29086.got.cif
#   From: 2010.03.12/outbox.cif.g09.slc.cpg/sg5_15_cif.got.tgz:29086.got - 2010.03.31 09:47:26.
