data_PCOD8048695
_publ_section_title
;
Structure prediction by ZEFSAII (Michael W. Deem and Ramdas Pophale) SiO2 
 PCOD8048695
Probable space group: C 2
;
_chemical_formula_sum "Si O2"
_cell_formula_units_Z 26
_cell_length_a 16.773997
_cell_length_b 7.371569
_cell_length_c 10.154263
_cell_angle_alpha 90.000000
_cell_angle_beta 84.015258
_cell_angle_gamma 90.000000
_cell_volume 1248.738187
_symmetry_space_group_name_H-M "C 2"
_symmetry_group_IT_number 5
_symmetry_cell_setting 'monoclinic'
loop_
_space_group_symop_operation_xyz
x,y,z
-x,y,-z
1/2+x,1/2+y,z
1/2-x,1/2+y,-z
loop_
_atom_site_type_symbol
_atom_site_label
_atom_site_fract_x
_atom_site_fract_y
_atom_site_fract_z
Si Si1 0.341779 0.368760 0.414661
Si Si2 0.500000 0.385080 0.500000
Si Si3 0.731583 0.172007 0.322662
Si Si4 0.144645 0.980695 0.023007
Si Si5 0.411074 0.187442 0.159271
Si Si6 0.186537 0.359958 0.923456
Si Si7 0.925678 0.731525 0.764492
O O1 0.421268 0.485865 0.451264
O O2 0.295951 0.279581 0.544078
O O3 0.279825 0.494097 0.350285
O O4 0.370352 0.210079 0.310144
O O5 0.464675 0.256436 0.616853
O O6 0.788572 0.301673 0.227805
O O7 0.654668 0.111411 0.245387
O O8 0.237712 0.920786 0.002731
O O9 0.103056 0.924613 0.168181
O O10 0.098903 0.879718 0.912486
O O11 0.139569 0.196984 0.004883
O O12 0.506488 0.141086 0.154594
O O13 0.372479 0.030399 0.078356
#
# Coordination Sequence:
#
# PCOD8048695 Si02
#       7
#     4   2   4   4   4   4   4
#     4  10  19  36  62  89 123 158 204 245 306 355
#     4   8  18  38  60  86 114 166 188 248 306 356
#     4  10  20  37  61  92 119 164 202 247 299 370
#     4  11  21  39  62  90 120 163 204 256 302 370
#     4  11  21  39  63  87 125 162 196 263 299 363
#     4  11  22  38  64  90 123 160 211 249 309 358
#     4   9  21  38  63  85 124 161 202 243 315 357
#
# _framework density 20.821019
#
# number of rings (size 3 to 8) (size 9 to 14) (size 15 to 20)
#    0.000    1.846    3.077    1.385    0.000    0.000 
#    0.000    4.615    3.385    0.000    0.000    0.000 
#    0.000    0.000    0.000    0.000    0.000    0.000 
#
# Total GULP energy -161075.829107 kJ/mol
# GULP energy per Si atom -12390.448393 kJ/mol
# Density = 2.077363 g / cm^3
# Si number density = 20.821019 Si / 1000 Ang^3
#
#
#
# Elastic Constant Matrix: (Units=GPa)
#
#
# Indices 1 2 3 4 5 6 
#
# 1 147.9468 45.1462 25.2692 0.0000 32.7518 0.0000
# 2 45.1462 72.8207 9.6925 0.0000 11.5235 0.0000
# 3 25.2692 9.6925 61.1869 0.0000 6.8632 0.0000
# 4 0.0000 0.0000 0.0000 24.6124 0.0000 7.5341
# 5 32.7518 11.5235 6.8632 0.0000 42.8517 0.0000
# 6 0.0000 0.0000 0.0000 7.5341 0.0000 24.8582
#
#
#
# Elastic Compliance Matrix: (Units=1/GPa)
#
#
# Indices 1 2 3 4 5 6 
#
# 1 0.010031 -0.004924 -0.002700 0.000000 -0.005910 0.000000
# 2 -0.004924 0.016974 -0.000576 0.000000 -0.000709 0.000000
# 3 -0.002700 -0.000576 0.017617 0.000000 -0.000603 0.000000
# 4 0.000000 0.000000 0.000000 0.044785 0.000000 -0.013573
# 5 -0.005910 -0.000709 -0.000603 0.000000 0.028141 0.000000
# 6 0.000000 0.000000 0.000000 -0.013573 0.000000 0.044342
#
#
# Mechanical properties :
#
#
# Convention : Reuss Voigt Hill
#
# Bulk Modulus (GPa) = 35.43215 49.13004 42.28109
# Shear Modulus (GPa) = 26.63855 31.92090 29.27973
#
# Velocity S-wave (km/s) = 3.58076 3.91974 3.75408
# Velocity P-wave (km/s) = 5.84382 6.64330 6.25634
#
# Compressibility (1/GPa) = 0.02822295
#
# Stress axis : x y z
#
# Youngs Moduli (GPa) = 99.68660 58.91325 56.76275
#
# Poissons Ratio (x) = 0.29012 0.15325
# Poissons Ratio (y) = 0.49091 0.03267
# Poissons Ratio (z) = 0.26913 0.03391
#
# Static dielectric constant tensor:
#      x y z
#    x 4.383420 0.000000 0.123780 
#    y 0.000000 3.249150 0.000000 
#    z 0.123780 0.000000 4.107620 
# 
# 
# High freq. dielectric constant tensor:
#      x y z
#    x 1.838900 0.000000 0.005020 
#    y 0.000000 1.755630 0.000000 
#    z 0.005020 0.000000 1.840710 
# 
# From -- ./inp_files/26742.got.cif
#   From: 2010.03.12/outbox.cif.g09.slc.cpg/sg5_14_cif.got.tgz:26742.got - 2010.03.31 09:47:26.
