data_PCOD8048317
_publ_section_title
;
Structure prediction by ZEFSAII (Michael W. Deem and Ramdas Pophale) SiO2 
 PCOD8048317
Probable space group: C 2
;
_chemical_formula_sum "Si O2"
_cell_formula_units_Z 28
_cell_length_a 27.434776
_cell_length_b 9.080094
_cell_length_c 6.856012
_cell_angle_alpha 90.000000
_cell_angle_beta 57.462274
_cell_angle_gamma 90.000000
_cell_volume 1439.826678
_symmetry_space_group_name_H-M "C 2"
_symmetry_group_IT_number 5
_symmetry_cell_setting 'monoclinic'
loop_
_space_group_symop_operation_xyz
x,y,z
-x,y,-z
1/2+x,1/2+y,z
1/2-x,1/2+y,-z
loop_
_atom_site_type_symbol
_atom_site_label
_atom_site_fract_x
_atom_site_fract_y
_atom_site_fract_z
Si Si1 0.234797 0.480550 0.259099
Si Si2 0.167503 0.973935 0.634218
Si Si3 0.432545 0.689001 0.156220
Si Si4 0.755347 0.143746 0.818933
Si Si5 0.952432 0.362531 0.469022
Si Si6 0.564868 0.962548 0.103493
Si Si7 0.842364 0.640594 0.285916
O O1 0.291587 0.501865 0.269006
O O2 0.224940 0.313441 0.213104
O O3 0.178066 0.527317 0.503299
O O4 0.242179 0.588907 0.062691
O O5 0.157325 0.801701 0.620839
O O6 0.105176 0.045808 0.806834
O O7 0.194398 0.043903 0.381749
O O8 0.417104 0.753473 0.406124
O O9 0.500000 0.646318 0.000000
O O10 0.413962 0.811227 0.040617
O O11 0.698287 0.129155 0.813410
O O12 0.914203 0.454220 0.710445
O O13 0.000000 0.271717 0.500000
O O14 0.993953 0.472391 0.247098
O O15 0.593670 0.098684 0.928473
#
# Coordination Sequence:
#
# PCOD8048317 Si02
#       7
#     4   4   4   4   4   4   4
#     4  10  21  37  55  80 109 145 181 219 266 318
#     4  10  22  35  54  80 113 141 178 220 271 319
#     4  10  18  35  56  80 105 142 182 221 267 316
#     4  10  21  37  56  79 111 145 179 219 266 322
#     4   7  17  33  54  81 104 133 180 225 257 315
#     4   8  17  32  55  77 105 139 177 222 257 316
#     4  10  20  36  54  82 112 142 177 221 266 320
#
# _framework density 19.446784000000001
#
# number of rings (size 3 to 8) (size 9 to 14) (size 15 to 20)
#    0.857    1.714    0.000    1.714    0.000    6.857 
#    0.000    2.143    0.000    6.857    0.000    0.000 
#    0.000    0.000    0.000    0.000    0.000    0.000 
#
# Total GULP energy -173454.931519 kJ/mol
# GULP energy per Si atom -12389.637966 kJ/mol
# Density = 1.940252 g / cm^3
# Si number density = 19.446784 Si / 1000 Ang^3
#
#
#
# Elastic Constant Matrix: (Units=GPa)
#
#
# Indices 1 2 3 4 5 6 
#
# 1 38.6761 36.6480 33.4416 0.0000 -11.0967 0.0000
# 2 36.6480 122.9514 68.1478 0.0000 -6.4734 0.0000
# 3 33.4416 68.1478 127.1415 0.0000 5.0317 0.0000
# 4 0.0000 0.0000 0.0000 31.2228 0.0000 2.4024
# 5 -11.0967 -6.4734 5.0317 0.0000 24.7590 0.0000
# 6 0.0000 0.0000 0.0000 2.4024 0.0000 22.2604
#
#
#
# Elastic Compliance Matrix: (Units=1/GPa)
#
#
# Indices 1 2 3 4 5 6 
#
# 1 0.047151 -0.008002 -0.008938 0.000000 0.020857 0.000000
# 2 -0.008002 0.013406 -0.005119 0.000000 0.000959 0.000000
# 3 -0.008938 -0.005119 0.013278 0.000000 -0.008043 0.000000
# 4 0.000000 0.000000 0.000000 0.032296 0.000000 -0.003485
# 5 0.020857 0.000959 -0.008043 0.000000 0.051623 0.000000
# 6 0.000000 0.000000 0.000000 -0.003485 0.000000 0.045299
#
#
# Mechanical properties :
#
#
# Convention : Reuss Voigt Hill
#
# Bulk Modulus (GPa) = 33.65083 62.80487 48.22785
# Shear Modulus (GPa) = 19.44945 25.68388 22.56667
#
# Velocity S-wave (km/s) = 3.16593 3.63812 3.41021
# Velocity P-wave (km/s) = 5.54128 7.07204 6.35293
#
# Compressibility (1/GPa) = 0.02971695
#
# Stress axis : x y z
#
# Youngs Moduli (GPa) = 21.20860 74.59257 75.31065
#
# Poissons Ratio (x) = 0.59688 0.67315
# Poissons Ratio (y) = 0.16971 0.38551
# Poissons Ratio (z) = 0.18957 0.38184
#
# Static dielectric constant tensor:
#      x y z
#    x 3.334070 0.000000 0.034170 
#    y 0.000000 3.327410 0.000000 
#    z 0.034170 0.000000 3.755600 
# 
# 
# High freq. dielectric constant tensor:
#      x y z
#    x 1.742900 0.000000 0.004160 
#    y 0.000000 1.728690 0.000000 
#    z 0.004160 0.000000 1.773820 
# 
# From -- ./inp_files/11195.got.cif
#   From: 2010.03.12/outbox.cif.g09.slc.cpg/sg5_6_cif.got.tgz:11195.got - 2010.03.31 09:47:26.
