data_PCOD8048018
_publ_section_title
;
Structure prediction by ZEFSAII (Michael W. Deem and Ramdas Pophale) SiO2 
 PCOD8048018
Probable space group: P 21
;
_chemical_formula_sum "Si O2"
_cell_formula_units_Z 10
_cell_length_a 9.937248
_cell_length_b 5.006631
_cell_length_c 8.657980
_cell_angle_alpha 90.000000
_cell_angle_beta 71.581913
_cell_angle_gamma 90.000000
_cell_volume 408.688228
_symmetry_space_group_name_H-M "P 21"
_symmetry_group_IT_number 4
_symmetry_cell_setting 'monoclinic'
loop_
_space_group_symop_operation_xyz
x,y,z
-x,1/2+y,-z
loop_
_atom_site_type_symbol
_atom_site_label
_atom_site_fract_x
_atom_site_fract_y
_atom_site_fract_z
Si Si1 0.952491 0.075470 0.106243
Si Si2 0.495885 0.087705 0.897443
Si Si3 0.063626 0.100518 0.399401
Si Si4 0.358711 0.933334 0.380698
Si Si5 0.347626 0.747904 0.726087
O O1 0.781849 0.056793 0.181459
O O2 0.024273 0.004824 0.242594
O O3 0.996091 0.373131 0.042586
O O4 0.621791 0.169639 0.733085
O O5 0.360508 0.987700 0.846583
O O6 0.448685 0.347077 0.013599
O O7 0.233865 0.111782 0.354332
O O8 0.999455 0.891126 0.544898
O O9 0.315463 0.860528 0.569059
O O10 0.505632 0.090208 0.325635
#
# Coordination Sequence:
#
# PCOD8048018 Si02
#       5
#     2   2   2   2   2
#     4  12  31  53  79 116 164 212 261 326 400 470
#     4  12  28  47  76 124 158 197 256 334 397 454
#     4  12  29  52  78 115 160 209 264 320 397 478
#     4  12  28  49  87 116 161 207 270 329 390 475
#     4  12  28  51  84 119 159 209 271 321 400 471
#
# _framework density 24.468527999999999
#
# number of rings (size 3 to 8) (size 9 to 14) (size 15 to 20)
#    0.000    0.000    6.000    1.200   11.200    1.600 
#    0.000    0.000    0.000    0.000    0.000    0.000 
#    0.000    0.000    0.000    0.000    0.000    0.000 
#
# Total GULP energy -124054.880344 kJ/mol
# GULP energy per Si atom -12405.488034 kJ/mol
# Density = 2.441284 g / cm^3
# Si number density = 24.468528 Si / 1000 Ang^3
#
#
#
# Elastic Constant Matrix: (Units=GPa)
#
#
# Indices 1 2 3 4 5 6 
#
# 1 157.2756 24.4695 37.4619 0.0000 -17.1777 0.0000
# 2 24.4695 102.9884 28.9718 0.0000 1.2309 0.0000
# 3 37.4619 28.9718 96.3112 0.0000 26.5788 0.0000
# 4 0.0000 0.0000 0.0000 48.4369 0.0000 -1.3924
# 5 -17.1777 1.2309 26.5788 0.0000 42.7013 0.0000
# 6 0.0000 0.0000 0.0000 -1.3924 0.0000 33.2911
#
#
#
# Elastic Compliance Matrix: (Units=1/GPa)
#
#
# Indices 1 2 3 4 5 6 
#
# 1 0.008291 -0.000708 -0.004755 0.000000 0.006315 0.000000
# 2 -0.000708 0.010815 -0.003397 0.000000 0.001518 0.000000
# 3 -0.004755 -0.003397 0.016608 0.000000 -0.012152 0.000000
# 4 0.000000 0.000000 0.000000 0.020670 0.000000 0.000865
# 5 0.006315 0.001518 -0.012152 0.000000 0.033479 0.000000
# 6 0.000000 0.000000 0.000000 0.000865 0.000000 0.030074
#
#
# Mechanical properties :
#
#
# Convention : Reuss Voigt Hill
#
# Bulk Modulus (GPa) = 55.57068 59.82016 57.69542
# Shear Modulus (GPa) = 34.80567 42.59731 38.70149
#
# Velocity S-wave (km/s) = 3.77565 4.17694 3.98135
# Velocity P-wave (km/s) = 6.46280 6.91110 6.69071
#
# Compressibility (1/GPa) = 0.01799510
#
# Stress axis : x y z
#
# Youngs Moduli (GPa) = 120.61830 92.46000 60.21239
#
# Poissons Ratio (x) = 0.06544 0.28629
# Poissons Ratio (y) = 0.08537 0.20455
# Poissons Ratio (z) = 0.57349 0.31409
#
# Static dielectric constant tensor:
#      x y z
#    x 4.393520 0.000000 0.229460 
#    y 0.000000 4.443070 0.000000 
#    z 0.229460 0.000000 5.023800 
# 
# 
# High freq. dielectric constant tensor:
#      x y z
#    x 1.975500 0.000000 0.011850 
#    y 0.000000 1.974100 0.000000 
#    z 0.011850 0.000000 1.991510 
# 
# From -- ./inp_files/5071.got.cif
#   From: 2010.03.12/outbox.cif.g09.slc.cpg/sg4_3_cif.got.tgz:5071.got - 2010.03.31 09:31:35.
