data_PCOD8048563
_publ_section_title
;
Structure prediction by ZEFSAII (Michael W. Deem and Ramdas Pophale) SiO2 
 PCOD8048563
Probable space group: C 2
;
_chemical_formula_sum "Si O2"
_cell_formula_units_Z 26
_cell_length_a 8.890349
_cell_length_b 10.560442
_cell_length_c 23.189638
_cell_angle_alpha 90.000000
_cell_angle_beta 40.359943
_cell_angle_gamma 90.000000
_cell_volume 1409.915934
_symmetry_space_group_name_H-M "C 2"
_symmetry_group_IT_number 5
_symmetry_cell_setting 'monoclinic'
loop_
_space_group_symop_operation_xyz
x,y,z
-x,y,-z
1/2+x,1/2+y,z
1/2-x,1/2+y,-z
loop_
_atom_site_type_symbol
_atom_site_label
_atom_site_fract_x
_atom_site_fract_y
_atom_site_fract_z
Si Si1 0.408398 0.870930 0.649727
Si Si2 0.930809 0.763705 0.790998
Si Si3 0.049880 0.375268 0.050955
Si Si4 0.626405 0.633173 0.551346
Si Si5 0.839524 0.606669 0.372217
Si Si6 0.000000 0.461311 0.500000
Si Si7 0.250927 0.627488 0.048931
O O1 0.564210 0.745975 0.613720
O O2 0.141594 0.856919 0.747317
O O3 0.521175 0.980742 0.653205
O O4 0.409178 0.879340 0.579796
O O5 0.695449 0.841624 0.847554
O O6 0.908484 0.664870 0.850225
O O7 0.988824 0.693597 0.714552
O O8 0.153393 0.501463 0.048240
O O9 0.220495 0.250536 0.002440
O O10 0.000000 0.410305 0.000000
O O11 0.771108 0.676822 0.452088
O O12 0.387150 0.568161 0.598941
O O13 0.777680 0.540195 0.545189
O O14 0.500000 0.588583 0.000000
#
# Coordination Sequence:
#
# PCOD8048563 Si02
#       7
#     4   4   4   4   4   2   4
#     4  10  19  34  52  72 105 139 172 219 261 302
#     4   9  19  33  53  80 107 133 170 216 264 312
#     4   9  20  38  59  79 106 138 174 214 261 319
#     4   9  19  34  50  72  99 138 182 216 253 304
#     4   9  18  34  52  72 104 139 173 216 264 304
#     4  10  20  32  52  74  98 138 184 216 254 306
#     4   9  20  38  58  81 107 138 173 214 262 319
#
# _framework density 18.440816000000002
#
# number of rings (size 3 to 8) (size 9 to 14) (size 15 to 20)
#    0.000    3.077    0.000    1.846    0.000   10.462 
#    0.000    4.615    0.000    0.000    0.000    0.000 
#    0.000    0.000    0.000    0.000    0.000    0.000 
#
# Total GULP energy -161081.244172 kJ/mol
# GULP energy per Si atom -12390.864936 kJ/mol
# Density = 1.839884 g / cm^3
# Si number density = 18.440816 Si / 1000 Ang^3
#
#
#
# Elastic Constant Matrix: (Units=GPa)
#
#
# Indices 1 2 3 4 5 6 
#
# 1 68.3743 45.5345 33.6091 0.0001 -9.1398 0.0001
# 2 45.5345 109.2188 47.4563 0.0001 -11.9436 0.0001
# 3 33.6091 47.4563 115.7929 0.0001 -19.1025 0.0000
# 4 0.0001 0.0001 0.0001 14.3593 -0.0001 3.2767
# 5 -9.1398 -11.9436 -19.1025 -0.0001 20.4180 0.0000
# 6 0.0001 0.0001 0.0000 3.2767 0.0000 33.1629
#
#
#
# Elastic Compliance Matrix: (Units=1/GPa)
#
#
# Indices 1 2 3 4 5 6 
#
# 1 0.021225 -0.007387 -0.002694 0.000000 0.002659 0.000000
# 2 -0.007387 0.013834 -0.003235 0.000000 0.001758 0.000000
# 3 -0.002694 -0.003235 0.012101 0.000000 0.008222 0.000000
# 4 0.000000 0.000000 0.000000 0.071248 0.000000 -0.007040
# 5 0.002659 0.001758 0.008222 0.000000 0.058888 0.000000
# 6 0.000000 0.000000 0.000000 -0.007040 0.000000 0.030850
#
#
# Mechanical properties :
#
#
# Convention : Reuss Voigt Hill
#
# Bulk Modulus (GPa) = 48.72043 60.73177 54.72610
# Shear Modulus (GPa) = 20.69362 24.70713 22.70037
#
# Velocity S-wave (km/s) = 3.35351 3.66431 3.51235
# Velocity P-wave (km/s) = 6.43987 7.13496 6.79631
#
# Compressibility (1/GPa) = 0.02052527
#
# Stress axis : x y z
#
# Youngs Moduli (GPa) = 47.11440 72.28608 82.64097
#
# Poissons Ratio (x) = 0.53401 0.22266
# Poissons Ratio (y) = 0.34806 0.26737
# Poissons Ratio (z) = 0.12694 0.23387
#
# Static dielectric constant tensor:
#      x y z
#    x 3.245030 0.000000 -0.120110 
#    y 0.000000 3.360540 0.000000 
#    z -0.120110 0.000000 3.670370 
# 
# 
# High freq. dielectric constant tensor:
#      x y z
#    x 1.700640 0.000000 -0.010260 
#    y 0.000000 1.712200 0.000000 
#    z -0.010260 0.000000 1.725160 
# 
# From -- ./inp_files/50097.got.cif
#   From: 2010.03.12/outbox.cif.g09.slc.cpg/sg5_26_cif.got.tgz:50097.got - 2010.03.31 09:47:26.
