data_PCOD8048565
_publ_section_title
;
Structure prediction by ZEFSAII (Michael W. Deem and Ramdas Pophale) SiO2 
 PCOD8048565
Probable space group: C 2
;
_chemical_formula_sum "Si O2"
_cell_formula_units_Z 28
_cell_length_a 7.898396
_cell_length_b 12.977799
_cell_length_c 15.519699
_cell_angle_alpha 90.000000
_cell_angle_beta 105.401778
_cell_angle_gamma 90.000000
_cell_volume 1533.696907
_symmetry_space_group_name_H-M "C 2"
_symmetry_group_IT_number 5
_symmetry_cell_setting 'monoclinic'
loop_
_space_group_symop_operation_xyz
x,y,z
-x,y,-z
1/2+x,1/2+y,z
1/2-x,1/2+y,-z
loop_
_atom_site_type_symbol
_atom_site_label
_atom_site_fract_x
_atom_site_fract_y
_atom_site_fract_z
Si Si1 0.414561 0.867790 0.305809
Si Si2 0.342271 0.868266 0.100601
Si Si3 0.342831 0.629756 0.101390
Si Si4 0.403929 0.633672 0.306906
Si Si5 0.500000 0.019641 0.000000
Si Si6 0.368631 0.037956 0.604761
Si Si7 0.500000 0.478799 0.000000
Si Si8 0.739007 0.022921 0.599937
O O1 0.330596 0.884994 0.200883
O O2 0.459675 0.750447 0.329690
O O3 0.598729 0.929988 0.340350
O O4 0.275699 0.909163 0.358778
O O5 0.383510 0.748933 0.084194
O O6 0.490586 0.943887 0.081755
O O7 0.162445 0.902066 0.031073
O O8 0.332330 0.613129 0.201976
O O9 0.162494 0.596245 0.032089
O O10 0.491223 0.554499 0.082034
O O11 0.246586 0.611494 0.351528
O O12 0.578601 0.569511 0.345848
O O13 0.563967 0.085921 0.609827
O O14 0.262392 0.014328 0.503156
#
# Coordination Sequence:
#
# PCOD8048565 Si02
#       8
#     4   4   4   4   2   4   2   4
#     4   9  20  37  55  80 112 144 184 227 272 325
#     4  10  19  34  54  75 110 141 175 225 263 319
#     4  10  21  34  54  83 104 141 187 213 271 329
#     4  11  20  37  61  80 110 150 182 227 278 321
#     4  10  20  34  54  78 110 142 174 224 270 312
#     4   9  20  37  55  81 111 140 184 228 269 329
#     4  10  20  34  54  78 110 142 174 224 270 312
#     4   9  20  37  55  81 111 140 184 228 269 329
#
# _framework density 18.256540999999999
#
# number of rings (size 3 to 8) (size 9 to 14) (size 15 to 20)
#    0.857    1.429    0.000    3.000    0.000    2.286 
#    2.571    0.000   12.571    0.000    0.000    0.000 
#    0.000    0.000    0.000    0.000    0.000    0.000 
#
# Total GULP energy -173486.537172 kJ/mol
# GULP energy per Si atom -12391.895512 kJ/mol
# Density = 1.821499 g / cm^3
# Si number density = 18.256541 Si / 1000 Ang^3
#
#
#
# Elastic Constant Matrix: (Units=GPa)
#
#
# Indices 1 2 3 4 5 6 
#
# 1 54.3930 10.2779 7.4907 0.0000 -1.2305 0.0000
# 2 10.2779 68.1528 29.6186 0.0000 4.6733 0.0000
# 3 7.4907 29.6186 84.1602 0.0000 -8.1346 0.0000
# 4 0.0000 0.0000 0.0000 21.0155 0.0000 -1.5393
# 5 -1.2305 4.6733 -8.1346 0.0000 28.9006 0.0000
# 6 0.0000 0.0000 0.0000 -1.5393 0.0000 29.2237
#
#
#
# Elastic Compliance Matrix: (Units=1/GPa)
#
#
# Indices 1 2 3 4 5 6 
#
# 1 0.019000 -0.002653 -0.000656 0.000000 0.001053 0.000000
# 2 -0.002653 0.018321 -0.006691 0.000000 -0.004959 0.000000
# 3 -0.000656 -0.006691 0.014800 0.000000 0.005220 0.000000
# 4 0.000000 0.000000 0.000000 0.047768 0.000000 0.002516
# 5 0.001053 -0.004959 0.005220 0.000000 0.036917 0.000000
# 6 0.000000 0.000000 0.000000 0.002516 0.000000 0.034351
#
#
# Mechanical properties :
#
#
# Convention : Reuss Voigt Hill
#
# Bulk Modulus (GPa) = 31.13118 33.49783 32.31450
# Shear Modulus (GPa) = 24.76925 26.44919 25.60922
#
# Velocity S-wave (km/s) = 3.68738 3.81038 3.74938
# Velocity P-wave (km/s) = 5.93449 6.14385 6.04007
#
# Compressibility (1/GPa) = 0.03212214
#
# Stress axis : x y z
#
# Youngs Moduli (GPa) = 52.63137 54.58292 67.56889
#
# Poissons Ratio (x) = 0.14478 0.04431
# Poissons Ratio (y) = 0.13961 0.45209
# Poissons Ratio (z) = 0.03451 0.36521
#
# Static dielectric constant tensor:
#      x y z
#    x 3.234210 0.000000 -0.111990 
#    y 0.000000 3.285840 0.000000 
#    z -0.111990 0.000000 3.415670 
# 
# 
# High freq. dielectric constant tensor:
#      x y z
#    x 1.696970 0.000000 -0.004690 
#    y 0.000000 1.699460 0.000000 
#    z -0.004690 0.000000 1.719240 
# 
# From -- ./inp_files/50112.got.cif
#   From: 2010.03.12/outbox.cif.g09.slc.cpg/sg5_26_cif.got.tgz:50112.got - 2010.03.31 09:47:26.
