data_PCOD8048402
_publ_section_title
;
Structure prediction by ZEFSAII (Michael W. Deem and Ramdas Pophale) SiO2 
 PCOD8048402
Probable space group: C 2
;
_chemical_formula_sum "Si O2"
_cell_formula_units_Z 26
_cell_length_a 16.453416
_cell_length_b 8.482382
_cell_length_c 24.506731
_cell_angle_alpha 90.000000
_cell_angle_beta 20.621100
_cell_angle_gamma 90.000000
_cell_volume 1204.569323
_symmetry_space_group_name_H-M "C 2"
_symmetry_group_IT_number 5
_symmetry_cell_setting 'monoclinic'
loop_
_space_group_symop_operation_xyz
x,y,z
-x,y,-z
1/2+x,1/2+y,z
1/2-x,1/2+y,-z
loop_
_atom_site_type_symbol
_atom_site_label
_atom_site_fract_x
_atom_site_fract_y
_atom_site_fract_z
Si Si1 0.251796 0.543980 0.847823
Si Si2 0.244641 0.084053 0.676943
Si Si3 0.177223 0.887585 0.081520
Si Si4 0.392654 0.779277 0.342134
Si Si5 0.500000 0.529747 0.500000
Si Si6 0.906680 0.814604 0.659839
Si Si7 0.001711 0.551564 0.201897
O O1 0.297054 0.468908 0.877203
O O2 0.427527 0.689017 0.731653
O O3 0.265011 0.408682 0.793772
O O4 0.000000 0.619287 0.000000
O O5 0.500000 0.019784 0.500000
O O6 0.152264 0.201886 0.688772
O O7 0.258320 0.170903 0.727677
O O8 0.061449 0.941772 0.797799
O O9 0.173609 0.699865 0.094477
O O10 0.401058 0.929856 0.904793
O O11 0.158503 0.766694 0.525804
O O12 0.490115 0.955779 0.266820
O O13 0.494764 0.422151 0.555737
O O14 0.745289 0.621431 0.347911
#
# Coordination Sequence:
#
# PCOD8048402 Si02
#       7
#     4   4   4   4   2   4   4
#     4  11  24  37  64  92 130 169 211 261 331 373
#     4   9  17  37  64  93 123 165 216 257 313 385
#     4  11  24  37  64  94 131 166 216 271 323 376
#     4   9  20  41  63  86 126 171 212 257 317 380
#     4  10  20  38  66  92 120 170 214 256 318 386
#     4  10  18  37  68  89 123 170 212 260 318 382
#     4  11  22  40  66  90 128 166 220 263 319 381
#
# _framework density 21.584478000000001
#
# number of rings (size 3 to 8) (size 9 to 14) (size 15 to 20)
#    0.000    1.846    3.846    2.769    3.231    2.462 
#    0.000    0.769   16.923    0.000    0.000    0.000 
#    0.000    0.000    0.000    0.000    0.000    0.000 
#
# Total GULP energy -161071.541295 kJ/mol
# GULP energy per Si atom -12390.118561 kJ/mol
# Density = 2.153535 g / cm^3
# Si number density = 21.584478 Si / 1000 Ang^3
#
#
#
# Elastic Constant Matrix: (Units=GPa)
#
#
# Indices 1 2 3 4 5 6 
#
# 1 60.0834 11.9565 32.4472 -0.0208 -16.6039 0.0012
# 2 11.9565 65.8416 18.3225 -0.0485 -17.5516 0.0045
# 3 32.4472 18.3225 106.3317 -0.0868 -20.5107 0.0352
# 4 -0.0208 -0.0485 -0.0868 32.5864 0.0281 -0.3485
# 5 -16.6039 -17.5516 -20.5107 0.0281 25.8325 -0.0035
# 6 0.0012 0.0045 0.0352 -0.3485 -0.0035 20.9278
#
#
#
# Elastic Compliance Matrix: (Units=1/GPa)
#
#
# Indices 1 2 3 4 5 6 
#
# 1 0.022081 0.000108 -0.004729 -0.000007 0.010511 0.000008
# 2 0.000108 0.018622 -0.000930 0.000015 0.011983 0.000000
# 3 -0.004729 -0.000930 0.012162 0.000023 0.005985 -0.000019
# 4 -0.000007 0.000015 0.000023 0.030693 -0.000010 0.000511
# 5 0.010511 0.011983 0.005985 -0.000010 0.058361 -0.000004
# 6 0.000008 0.000000 -0.000019 0.000511 -0.000004 0.047792
#
#
# Mechanical properties :
#
#
# Convention : Reuss Voigt Hill
#
# Bulk Modulus (GPa) = 23.94500 39.74544 31.84522
# Shear Modulus (GPa) = 23.28468 27.17138 25.22803
#
# Velocity S-wave (km/s) = 3.28803 3.55186 3.42249
# Velocity P-wave (km/s) = 5.05297 5.93926 5.51395
#
# Compressibility (1/GPa) = 0.04176238
#
# Stress axis : x y z
#
# Youngs Moduli (GPa) = 45.28870 53.70107 82.22051
#
# Poissons Ratio (x) = -0.00581 0.38882
# Poissons Ratio (y) = -0.00490 0.07649
# Poissons Ratio (z) = 0.21417 0.04996
#
# Static dielectric constant tensor:
#      x y z
#    x 3.545140 -0.000100 -0.455820 
#    y -0.000100 3.845530 0.000140 
#    z -0.455820 0.000140 4.314710 
# 
# 
# High freq. dielectric constant tensor:
#      x y z
#    x 1.817170 0.000000 -0.016890 
#    y 0.000000 1.823120 0.000010 
#    z -0.016890 0.000010 1.871440 
# 
# From -- ./inp_files/70854.got.cif
#   From: 2010.03.12/outbox.cif.g09.slc.cpg/sg5_36_cif.got.tgz:70854.got - 2010.03.31 09:47:26.
