data_PCOD8048374
_publ_section_title
;
Structure prediction by ZEFSAII (Michael W. Deem and Ramdas Pophale) SiO2 
 PCOD8048374
Probable space group: C 2
;
_chemical_formula_sum "Si O2"
_cell_formula_units_Z 24
_cell_length_a 13.796005
_cell_length_b 17.384848
_cell_length_c 9.129285
_cell_angle_alpha 90.000000
_cell_angle_beta 151.354056
_cell_angle_gamma 90.000000
_cell_volume 1049.675771
_symmetry_space_group_name_H-M "C 2"
_symmetry_group_IT_number 5
_symmetry_cell_setting 'monoclinic'
loop_
_space_group_symop_operation_xyz
x,y,z
-x,y,-z
1/2+x,1/2+y,z
1/2-x,1/2+y,-z
loop_
_atom_site_type_symbol
_atom_site_label
_atom_site_fract_x
_atom_site_fract_y
_atom_site_fract_z
Si Si1 0.816001 0.994800 0.864795
Si Si2 0.124038 0.764828 0.312055
Si Si3 0.566790 0.418486 0.421427
Si Si4 0.269716 0.664498 0.746935
Si Si5 0.500000 0.912585 0.000000
Si Si6 0.917547 0.290389 0.127129
Si Si7 0.500000 0.877408 0.500000
O O1 0.646198 0.931916 0.596788
O O2 0.712264 0.078579 0.719199
O O3 0.000000 0.984267 0.000000
O O4 0.902244 0.979438 0.142359
O O5 0.058386 0.841547 0.311041
O O6 0.115634 0.693284 0.416262
O O7 0.351040 0.766441 0.554383
O O8 0.000000 0.749136 0.000000
O O9 0.500000 0.401477 0.500000
O O10 0.792223 0.458781 0.689939
O O11 0.500000 0.668980 0.000000
O O12 0.263776 0.721425 0.880682
O O13 0.605143 0.857535 0.020403
O O14 0.858747 0.324975 0.207839
#
# Coordination Sequence:
#
# PCOD8048374 Si02
#       7
#     4   4   4   4   2   4   2
#     4  11  24  42  64  90 134 177 207 265 330 384
#     4  10  19  37  67  98 122 165 228 267 314 385
#     4  11  21  36  63 101 129 166 214 270 322 383
#     4   9  19  41  67  85 130 175 205 265 335 373
#     4  10  18  36  64  90 124 162 220 266 310 372
#     4  10  18  38  64  91 123 169 212 263 319 377
#     4  12  24  38  66  98 126 168 224 258 314 390
#
# _framework density 22.864203
#
# number of rings (size 3 to 8) (size 9 to 14) (size 15 to 20)
#    0.000    1.667    4.167    4.500    0.000    0.000 
#    3.000    0.000   36.667    0.000    0.000    0.000 
#    0.000    0.000    0.000    0.000    0.000    0.000 
#
# Total GULP energy -148663.023405 kJ/mol
# GULP energy per Si atom -12388.585284 kJ/mol
# Density = 2.281216 g / cm^3
# Si number density = 22.864203 Si / 1000 Ang^3
#
#
#
# Elastic Constant Matrix: (Units=GPa)
#
#
# Indices 1 2 3 4 5 6 
#
# 1 88.7004 43.7555 30.0976 0.0000 -16.9944 0.0000
# 2 43.7555 119.9964 56.6191 0.0000 -32.6472 0.0000
# 3 30.0976 56.6191 127.6951 0.0000 -26.4758 0.0000
# 4 0.0000 0.0000 0.0000 25.7026 0.0000 -8.4239
# 5 -16.9944 -32.6472 -26.4758 0.0000 48.0127 0.0000
# 6 0.0000 0.0000 0.0000 -8.4239 0.0000 21.7239
#
#
#
# Elastic Compliance Matrix: (Units=1/GPa)
#
#
# Indices 1 2 3 4 5 6 
#
# 1 0.014000 -0.004157 -0.001146 0.000000 0.001497 0.000000
# 2 -0.004157 0.013053 -0.003695 0.000000 0.005367 0.000000
# 3 -0.001146 -0.003695 0.010314 0.000000 0.002769 0.000000
# 4 0.000000 0.000000 0.000000 0.044571 0.000000 0.017284
# 5 0.001497 0.005367 0.002769 0.000000 0.026534 0.000000
# 6 0.000000 0.000000 0.000000 0.017284 0.000000 0.052734
#
#
# Mechanical properties :
#
#
# Convention : Reuss Voigt Hill
#
# Bulk Modulus (GPa) = 51.62551 66.37071 58.99811
# Shear Modulus (GPa) = 26.93095 32.81582 29.87338
#
# Velocity S-wave (km/s) = 3.43573 3.79258 3.61855
# Velocity P-wave (km/s) = 6.19412 6.94762 6.58166
#
# Compressibility (1/GPa) = 0.01937027
#
# Stress axis : x y z
#
# Youngs Moduli (GPa) = 71.42731 76.61102 96.95693
#
# Poissons Ratio (x) = 0.31847 0.11115
# Poissons Ratio (y) = 0.29692 0.35827
# Poissons Ratio (z) = 0.08188 0.28309
#
# Static dielectric constant tensor:
#      x y z
#    x 4.061110 0.000000 -0.067430 
#    y 0.000000 4.133380 0.000000 
#    z -0.067430 0.000000 4.480880 
# 
# 
# High freq. dielectric constant tensor:
#      x y z
#    x 1.899390 0.000000 0.003660 
#    y 0.000000 1.862420 0.000000 
#    z 0.003660 0.000000 1.920630 
# 
# From -- ./inp_files/16899.got.cif
#   From: 2010.03.12/outbox.cif.g09.slc.cpg/sg5_9_cif.got.tgz:16899.got - 2010.03.31 09:47:26.
