data_PCOD8048399
_publ_section_title
;
Structure prediction by ZEFSAII (Michael W. Deem and Ramdas Pophale) SiO2 
 PCOD8048399
Probable space group: C 2
;
_chemical_formula_sum "Si O2"
_cell_formula_units_Z 32
_cell_length_a 14.565578
_cell_length_b 10.740699
_cell_length_c 15.205390
_cell_angle_alpha 90.000000
_cell_angle_beta 141.727913
_cell_angle_gamma 90.000000
_cell_volume 1473.420389
_symmetry_space_group_name_H-M "C 2"
_symmetry_group_IT_number 5
_symmetry_cell_setting 'monoclinic'
loop_
_space_group_symop_operation_xyz
x,y,z
-x,y,-z
1/2+x,1/2+y,z
1/2-x,1/2+y,-z
loop_
_atom_site_type_symbol
_atom_site_label
_atom_site_fract_x
_atom_site_fract_y
_atom_site_fract_z
Si Si1 0.538529 0.146070 0.425569
Si Si2 0.121674 0.399332 0.708480
Si Si3 0.924777 0.855950 0.209674
Si Si4 0.828209 0.043031 0.384927
Si Si5 0.188782 0.998894 0.431941
Si Si6 0.116790 0.759728 0.012819
Si Si7 0.659909 0.975592 0.092564
Si Si8 0.173984 0.311838 0.574436
O O1 0.500000 0.165660 0.500000
O O2 0.490148 0.267845 0.336197
O O3 0.713953 0.107463 0.542595
O O4 0.445760 0.031142 0.312618
O O5 0.190232 0.418447 0.662143
O O6 0.991464 0.297116 0.591089
O O7 0.235169 0.342983 0.863865
O O8 0.946343 0.791026 0.131098
O O9 0.749832 0.885165 0.093941
O O10 0.010575 0.992425 0.278670
O O11 0.775673 0.994387 0.439045
O O12 0.747644 0.968541 0.249340
O O13 0.772897 0.185494 0.340425
O O14 0.000000 0.026458 0.500000
O O15 0.225036 0.857356 0.428807
O O16 0.149062 0.612944 0.042631
O O17 0.000000 0.799600 0.000000
O O18 0.500000 0.921310 0.000000
#
# Coordination Sequence:
#
# PCOD8048399 Si02
#       8
#     4   4   4   4   4   4   4   4
#     4  11  25  45  72 103 145 180 233 306 367 420
#     4  10  18  39  67  94 134 177 229 284 345 405
#     4  12  28  46  70 107 147 189 241 294 372 440
#     4  12  21  41  69 100 140 183 240 300 347 417
#     4  11  24  39  68 104 134 180 236 303 347 419
#     4  11  25  43  72  98 143 188 242 293 347 435
#     4  11  27  47  69 102 145 197 241 291 365 439
#     4  10  18  37  65 101 128 175 237 286 343 415
#
# _framework density 21.718171999999999
#
# number of rings (size 3 to 8) (size 9 to 14) (size 15 to 20)
#    0.000    1.000    6.250    1.500    8.750    1.000 
#    0.000    1.875    0.000    0.000    0.000    0.000 
#    0.000    0.000    0.000    0.000    0.000    0.000 
#
# Total GULP energy -198212.556917 kJ/mol
# GULP energy per Si atom -12388.284807 kJ/mol
# Density = 2.166874 g / cm^3
# Si number density = 21.718172 Si / 1000 Ang^3
#
#
#
# Elastic Constant Matrix: (Units=GPa)
#
#
# Indices 1 2 3 4 5 6 
#
# 1 132.1897 30.1017 34.9662 0.0000 -5.7429 0.0000
# 2 30.1017 53.4093 15.9144 0.0000 10.8904 0.0000
# 3 34.9662 15.9144 83.0754 0.0000 -4.8811 0.0000
# 4 0.0000 0.0000 0.0000 35.8689 0.0000 1.0001
# 5 -5.7429 10.8904 -4.8811 0.0000 40.2360 0.0000
# 6 0.0000 0.0000 0.0000 1.0001 0.0000 32.7565
#
#
#
# Elastic Compliance Matrix: (Units=1/GPa)
#
#
# Indices 1 2 3 4 5 6 
#
# 1 0.009585 -0.005010 -0.002935 0.000000 0.002368 0.000000
# 2 -0.005010 0.023959 -0.002925 0.000000 -0.007555 0.000000
# 3 -0.002935 -0.002925 0.013954 0.000000 0.002065 0.000000
# 4 0.000000 0.000000 0.000000 0.027903 0.000000 -0.000852
# 5 0.002368 -0.007555 0.002065 0.000000 0.027487 0.000000
# 6 0.000000 0.000000 0.000000 -0.000852 0.000000 0.030554
#
#
# Mechanical properties :
#
#
# Convention : Reuss Voigt Hill
#
# Bulk Modulus (GPa) = 38.82358 47.84878 43.33618
# Shear Modulus (GPa) = 30.53062 34.28508 32.40785
#
# Velocity S-wave (km/s) = 3.75342 3.97752 3.86709
# Velocity P-wave (km/s) = 6.05798 6.57067 6.31952
#
# Compressibility (1/GPa) = 0.02575754
#
# Stress axis : x y z
#
# Youngs Moduli (GPa) = 104.32761 41.73765 71.66199
#
# Poissons Ratio (x) = 0.20913 0.21036
# Poissons Ratio (y) = 0.52273 0.20959
# Poissons Ratio (z) = 0.30624 0.12207
#
# Static dielectric constant tensor:
#      x y z
#    x 4.348360 0.000000 0.149530 
#    y 0.000000 3.750380 0.000000 
#    z 0.149530 0.000000 3.678350 
# 
# 
# High freq. dielectric constant tensor:
#      x y z
#    x 1.877460 0.000000 0.003240 
#    y 0.000000 1.828160 0.000000 
#    z 0.003240 0.000000 1.841590 
# 
# From -- ./inp_files/54589.got.cif
#   From: 2010.03.12/outbox.cif.g09.slc.cpg/sg5_28_cif.got.tgz:54589.got - 2010.03.31 09:47:26.
