data_PCOD8048324
_publ_section_title
;
Structure prediction by ZEFSAII (Michael W. Deem and Ramdas Pophale) SiO2 
 PCOD8048324
Probable space group: C 2
;
_chemical_formula_sum "Si O2"
_cell_formula_units_Z 26
_cell_length_a 8.222248
_cell_length_b 22.645608
_cell_length_c 12.079897
_cell_angle_alpha 90.000000
_cell_angle_beta 140.509124
_cell_angle_gamma 90.000000
_cell_volume 1430.422734
_symmetry_space_group_name_H-M "C 2"
_symmetry_group_IT_number 5
_symmetry_cell_setting 'monoclinic'
loop_
_space_group_symop_operation_xyz
x,y,z
-x,y,-z
1/2+x,1/2+y,z
1/2-x,1/2+y,-z
loop_
_atom_site_type_symbol
_atom_site_label
_atom_site_fract_x
_atom_site_fract_y
_atom_site_fract_z
Si Si1 0.929711 0.924370 0.841012
Si Si2 0.071023 0.362808 0.365181
Si Si3 0.505217 0.222701 0.125560
Si Si4 0.500000 0.441220 0.500000
Si Si5 0.000000 0.268285 0.500000
Si Si6 0.000000 0.610333 0.000000
Si Si7 0.825537 0.324932 0.009966
Si Si8 0.777095 0.997560 0.174851
O O1 0.632699 0.906922 0.684269
O O2 0.000111 0.975871 0.791020
O O3 0.000000 0.947560 0.000000
O O4 0.075372 0.865208 0.882681
O O5 0.325744 0.400435 0.485246
O O6 0.135563 0.308558 0.478915
O O7 0.984818 0.334302 0.204793
O O8 0.778070 0.228470 0.329469
O O9 0.500000 0.252924 0.000000
O O10 0.451917 0.152366 0.082471
O O11 0.274408 0.257663 0.064547
O O12 0.334718 0.482342 0.332274
O O13 0.750228 0.568842 0.850862
O O14 0.000000 0.344290 0.000000
O O15 0.500000 0.967965 0.000000
#
# Coordination Sequence:
#
# PCOD8048324 Si02
#       8
#     4   4   4   2   2   2   4   4
#     4  10  18  35  59  87 123 160 191 241 307 361
#     4  11  22  33  54  97 124 156 193 237 313 372
#     4  10  20  42  58  87 114 161 206 241 293 355
#     4  12  24  35  58  92 126 153 202 244 302 362
#     4  12  20  35  66  86 122 159 192 248 302 364
#     4   8  22  42  64  82 116 160 216 242 292 350
#     4  11  20  35  59  88 130 155 193 246 300 361
#     4  10  21  40  58  85 117 157 205 245 294 344
#
# _framework density 18.176445999999999
#
# number of rings (size 3 to 8) (size 9 to 14) (size 15 to 20)
#    0.923    0.615    3.077    4.615    2.154    0.615 
#    0.000    0.769    0.000    0.000    4.000    0.000 
#    0.000    0.000    0.000    0.000    0.000    0.000 
#
# Total GULP energy -161125.447733 kJ/mol
# GULP energy per Si atom -12394.265210 kJ/mol
# Density = 1.813508 g / cm^3
# Si number density = 18.176446 Si / 1000 Ang^3
#
#
#
# Elastic Constant Matrix: (Units=GPa)
#
#
# Indices 1 2 3 4 5 6 
#
# 1 94.4623 33.3739 25.1328 0.0000 -0.5297 0.0000
# 2 33.3739 114.9914 37.8143 0.0000 -3.9502 0.0000
# 3 25.1328 37.8143 110.8751 0.0000 -4.4171 0.0000
# 4 0.0000 0.0000 0.0000 16.2086 0.0000 -0.4439
# 5 -0.5297 -3.9502 -4.4171 0.0000 27.8476 0.0000
# 6 0.0000 0.0000 0.0000 -0.4439 0.0000 18.8430
#
#
#
# Elastic Compliance Matrix: (Units=1/GPa)
#
#
# Indices 1 2 3 4 5 6 
#
# 1 0.012092 -0.002949 -0.001754 0.000000 -0.000466 0.000000
# 2 -0.002949 0.010535 -0.002885 0.000000 0.000981 0.000000
# 3 -0.001754 -0.002885 0.010449 0.000000 0.001215 0.000000
# 4 0.000000 0.000000 0.000000 0.061735 0.000000 0.001454
# 5 -0.000466 0.000981 0.001215 0.000000 0.036233 0.000000
# 6 0.000000 0.000000 0.000000 0.001454 0.000000 0.053105
#
#
# Mechanical properties :
#
#
# Convention : Reuss Voigt Hill
#
# Bulk Modulus (GPa) = 55.86644 56.99675 56.43159
# Shear Modulus (GPa) = 24.35566 27.51370 25.93468
#
# Velocity S-wave (km/s) = 3.66451 3.89485 3.78144
# Velocity P-wave (km/s) = 6.97906 7.18694 7.08376
#
# Compressibility (1/GPa) = 0.01789984
#
# Stress axis : x y z
#
# Youngs Moduli (GPa) = 82.69890 94.92491 95.70114
#
# Poissons Ratio (x) = 0.27991 0.16785
# Poissons Ratio (y) = 0.24386 0.27614
# Poissons Ratio (z) = 0.14505 0.27390
#
# Static dielectric constant tensor:
#      x y z
#    x 3.304080 0.000000 -0.094160 
#    y 0.000000 3.114330 0.000000 
#    z -0.094160 0.000000 3.390530 
# 
# 
# High freq. dielectric constant tensor:
#      x y z
#    x 1.693810 0.000000 -0.007320 
#    y 0.000000 1.678630 0.000000 
#    z -0.007320 0.000000 1.713930 
# 
# From -- ./inp_files/37509.got.cif
#   From: 2010.03.12/outbox.cif.g09.slc.cpg/sg5_19_cif.got.tgz:37509.got - 2010.03.31 09:47:26.
