data_PCOD8048663
_publ_section_title
;
Structure prediction by ZEFSAII (Michael W. Deem and Ramdas Pophale) SiO2 
 PCOD8048663
Probable space group: C 2
;
_chemical_formula_sum "Si O2"
_cell_formula_units_Z 28
_cell_length_a 18.486105
_cell_length_b 15.144455
_cell_length_c 5.251086
_cell_angle_alpha 90.000000
_cell_angle_beta 73.077555
_cell_angle_gamma 90.000000
_cell_volume 1406.448396
_symmetry_space_group_name_H-M "C 2"
_symmetry_group_IT_number 5
_symmetry_cell_setting 'monoclinic'
loop_
_space_group_symop_operation_xyz
x,y,z
-x,y,-z
1/2+x,1/2+y,z
1/2-x,1/2+y,-z
loop_
_atom_site_type_symbol
_atom_site_label
_atom_site_fract_x
_atom_site_fract_y
_atom_site_fract_z
Si Si1 0.195446 0.969300 0.116282
Si Si2 0.228851 0.220843 0.616227
Si Si3 0.151027 0.163495 0.188266
Si Si4 0.626806 0.995137 0.000521
Si Si5 0.718284 0.410227 0.592106
Si Si6 0.500000 0.857647 0.000000
Si Si7 0.161726 0.568004 0.466287
Si Si8 0.500000 0.748616 0.500000
O O1 0.160811 0.933897 0.419162
O O2 0.162703 0.064345 0.078244
O O3 0.285643 0.965196 0.086622
O O4 0.173676 0.902491 0.907409
O O5 0.194335 0.171188 0.409561
O O6 0.239534 0.320409 0.515895
O O7 0.304993 0.166454 0.602240
O O8 0.178721 0.224807 0.925254
O O9 0.064746 0.185133 0.329604
O O10 0.607702 0.047991 0.279498
O O11 0.571742 0.912381 0.025081
O O12 0.613372 0.061020 0.774981
O O13 0.773887 0.492322 0.599361
O O14 0.527601 0.803981 0.719970
#
# Coordination Sequence:
#
# PCOD8048663 Si02
#       8
#     4   4   4   4   4   2   4   2
#     4  10  19  38  57  81 115 159 215 252 291 354
#     4  12  21  36  63  86 123 158 203 276 302 359
#     4  12  23  41  56  84 128 171 203 253 299 378
#     4  10  20  36  57  79 117 165 197 248 296 358
#     4  10  20  31  56  89 108 153 195 260 312 339
#     4  12  26  42  56  92 138 170 206 240 316 410
#     4  10  19  36  55  88 115 157 210 252 308 357
#     4  12  30  38  56  92 132 180 200 242 320 400
#
# _framework density 19.908304000000001
#
# number of rings (size 3 to 8) (size 9 to 14) (size 15 to 20)
#    0.000    1.143    5.714    2.571   12.000    0.000 
#    0.000    0.000    0.000    0.000    0.000    4.000 
#    0.000    0.000    0.000    0.000    0.000    0.000 
#
# Total GULP energy -173457.038754 kJ/mol
# GULP energy per Si atom -12389.788482 kJ/mol
# Density = 1.986299 g / cm^3
# Si number density = 19.908304 Si / 1000 Ang^3
#
#
#
# Elastic Constant Matrix: (Units=GPa)
#
#
# Indices 1 2 3 4 5 6 
#
# 1 56.1725 40.7362 48.1350 0.0000 8.3728 0.0000
# 2 40.7362 83.6125 39.7348 0.0000 -8.4190 0.0000
# 3 48.1350 39.7348 180.6526 0.0000 38.2009 0.0000
# 4 0.0000 0.0000 0.0000 33.5797 0.0000 4.2552
# 5 8.3728 -8.4190 38.2009 0.0000 34.9628 0.0000
# 6 0.0000 0.0000 0.0000 4.2552 0.0000 17.6789
#
#
#
# Elastic Compliance Matrix: (Units=1/GPa)
#
#
# Indices 1 2 3 4 5 6 
#
# 1 0.033180 -0.014963 -0.004041 0.000000 -0.007133 0.000000
# 2 -0.014963 0.022288 -0.003652 0.000000 0.012940 0.000000
# 3 -0.004041 -0.003652 0.009619 0.000000 -0.010422 0.000000
# 4 0.000000 0.000000 0.000000 0.030717 0.000000 -0.007393
# 5 -0.007133 0.012940 -0.010422 0.000000 0.044813 0.000000
# 6 0.000000 0.000000 0.000000 -0.007393 0.000000 0.058344
#
#
# Mechanical properties :
#
#
# Convention : Reuss Voigt Hill
#
# Bulk Modulus (GPa) = 50.56820 64.18330 57.37575
# Shear Modulus (GPa) = 19.93102 30.03305 24.98204
#
# Velocity S-wave (km/s) = 3.16751 3.88824 3.54624
# Velocity P-wave (km/s) = 6.23163 7.24344 6.75650
#
# Compressibility (1/GPa) = 0.01977528
#
# Stress axis : x y z
#
# Youngs Moduli (GPa) = 30.13895 44.86639 103.95797
#
# Poissons Ratio (x) = 0.67134 0.42011
# Poissons Ratio (y) = 0.45097 0.37964
# Poissons Ratio (z) = 0.12180 0.16385
#
# Static dielectric constant tensor:
#      x y z
#    x 3.269040 0.000000 0.679240 
#    y 0.000000 3.504230 0.000000 
#    z 0.679240 0.000000 5.144190 
# 
# 
# High freq. dielectric constant tensor:
#      x y z
#    x 1.715660 0.000000 0.039750 
#    y 0.000000 1.761930 0.000000 
#    z 0.039750 0.000000 1.818750 
# 
# From -- ./inp_files/8528.got.cif
#   From: 2010.03.12/outbox.cif.g09.slc.cpg/sg5_5_cif.got.tgz:8528.got - 2010.03.31 09:47:26.
