data_PCOD8048236
_publ_section_title
;
Structure prediction by ZEFSAII (Michael W. Deem and Ramdas Pophale) SiO2 
 PCOD8048236
Probable space group: C 2
;
_chemical_formula_sum "Si O2"
_cell_formula_units_Z 30
_cell_length_a 12.499610
_cell_length_b 19.267414
_cell_length_c 11.023536
_cell_angle_alpha 90.000000
_cell_angle_beta 145.501758
_cell_angle_gamma 90.000000
_cell_volume 1503.659334
_symmetry_space_group_name_H-M "C 2"
_symmetry_group_IT_number 5
_symmetry_cell_setting 'monoclinic'
loop_
_space_group_symop_operation_xyz
x,y,z
-x,y,-z
1/2+x,1/2+y,z
1/2-x,1/2+y,-z
loop_
_atom_site_type_symbol
_atom_site_label
_atom_site_fract_x
_atom_site_fract_y
_atom_site_fract_z
Si Si1 0.363973 0.235320 0.967605
Si Si2 0.783701 0.843507 0.275319
Si Si3 0.503661 0.683454 0.266869
Si Si4 0.500000 0.725351 0.000000
Si Si5 0.497033 0.536006 0.354468
Si Si6 0.264595 0.295683 0.639023
Si Si7 0.374585 0.970450 0.000416
Si Si8 0.793157 0.424335 0.559616
O O1 0.220099 0.191606 0.913358
O O2 0.239789 0.285357 0.761344
O O3 0.500000 0.190331 0.000000
O O4 0.514174 0.278700 0.190960
O O5 0.695607 0.871646 0.316975
O O6 0.000000 0.827398 0.500000
O O7 0.682575 0.772439 0.144016
O O8 0.746566 0.900162 0.136008
O O9 0.574353 0.612085 0.393513
O O10 0.625451 0.746283 0.433291
O O11 0.530501 0.677805 0.147119
O O12 0.500000 0.521271 0.500000
O O13 0.623169 0.478857 0.404898
O O14 0.278151 0.529662 0.109979
O O15 0.222876 0.376639 0.574336
O O16 0.506656 0.964463 0.243351
O O17 0.500000 0.991198 0.000000
#
# Coordination Sequence:
#
# PCOD8048236 Si02
#       8
#     4   4   4   2   4   4   4   4
#     4   8  22  39  61  94 119 156 211 248 311 370
#     4  11  18  33  60  89 123 146 205 261 308 356
#     4  12  24  41  61  88 130 169 206 253 318 380
#     4  12  26  38  62  94 124 170 206 264 308 378
#     4  12  23  36  58  87 125 168 207 261 311 372
#     4   9  20  39  63  92 120 160 203 262 312 365
#     4  10  18  33  52  92 119 148 202 259 313 353
#     4  11  19  35  60  94 124 150 204 262 321 360
#
# _framework density 19.951325000000001
#
# number of rings (size 3 to 8) (size 9 to 14) (size 15 to 20)
#    0.800    0.533    7.333    1.200    1.867    2.667 
#    0.000    1.333    0.000    0.000    0.000    0.000 
#    0.000    0.000    0.000    0.000    0.000    0.000 
#
# Total GULP energy -185868.653477 kJ/mol
# GULP energy per Si atom -12391.243565 kJ/mol
# Density = 1.990592 g / cm^3
# Si number density = 19.951325 Si / 1000 Ang^3
#
#
#
# Elastic Constant Matrix: (Units=GPa)
#
#
# Indices 1 2 3 4 5 6 
#
# 1 54.6535 30.5723 33.7604 0.0000 1.7618 0.0000
# 2 30.5723 87.6940 24.3761 0.0000 7.7605 0.0000
# 3 33.7604 24.3761 105.3407 0.0000 21.5740 0.0000
# 4 0.0000 0.0000 0.0000 20.5637 0.0000 -0.0953
# 5 1.7618 7.7605 21.5740 0.0000 24.6859 0.0000
# 6 0.0000 0.0000 0.0000 -0.0953 0.0000 23.3004
#
#
#
# Elastic Compliance Matrix: (Units=1/GPa)
#
#
# Indices 1 2 3 4 5 6 
#
# 1 0.027946 -0.008028 -0.008778 0.000000 0.008201 0.000000
# 2 -0.008028 0.014550 0.000031 0.000000 -0.004028 0.000000
# 3 -0.008778 0.000031 0.014827 0.000000 -0.012341 0.000000
# 4 0.000000 0.000000 0.000000 0.048630 0.000000 0.000199
# 5 0.008201 -0.004028 -0.012341 0.000000 0.051975 0.000000
# 6 0.000000 0.000000 0.000000 0.000199 0.000000 0.042918
#
#
# Mechanical properties :
#
#
# Convention : Reuss Voigt Hill
#
# Bulk Modulus (GPa) = 42.06686 47.23399 44.65043
# Shear Modulus (GPa) = 20.63375 24.30864 22.47119
#
# Velocity S-wave (km/s) = 3.21939 3.49434 3.35968
# Velocity P-wave (km/s) = 5.91184 6.32507 6.12194
#
# Compressibility (1/GPa) = 0.02377168
#
# Stress axis : x y z
#
# Youngs Moduli (GPa) = 35.78313 68.72837 67.44661
#
# Poissons Ratio (x) = 0.55178 0.59206
# Poissons Ratio (y) = 0.28728 -0.00210
# Poissons Ratio (z) = 0.31411 -0.00214
#
# Static dielectric constant tensor:
#      x y z
#    x 3.320420 0.000000 0.194570 
#    y 0.000000 3.339100 0.000000 
#    z 0.194570 0.000000 3.987280 
# 
# 
# High freq. dielectric constant tensor:
#      x y z
#    x 1.743820 0.000000 0.022240 
#    y 0.000000 1.746370 0.000000 
#    z 0.022240 0.000000 1.793570 
# 
# From -- ./inp_files/43326.got.cif
#   From: 2010.03.12/outbox.cif.g09.slc.cpg/sg5_22_cif.got.tgz:43326.got - 2010.03.31 09:47:26.
