data_PCOD8048752
_publ_section_title
;
Structure prediction by ZEFSAII (Michael W. Deem and Ramdas Pophale) SiO2 
 PCOD8048752
Probable space group: C 2
;
_chemical_formula_sum "Si O2"
_cell_formula_units_Z 18
_cell_length_a 11.041524
_cell_length_b 8.935936
_cell_length_c 10.359424
_cell_angle_alpha 90.000000
_cell_angle_beta 53.633493
_cell_angle_gamma 90.000000
_cell_volume 823.057764
_symmetry_space_group_name_H-M "C 2"
_symmetry_group_IT_number 5
_symmetry_cell_setting 'monoclinic'
loop_
_space_group_symop_operation_xyz
x,y,z
-x,y,-z
1/2+x,1/2+y,z
1/2-x,1/2+y,-z
loop_
_atom_site_type_symbol
_atom_site_label
_atom_site_fract_x
_atom_site_fract_y
_atom_site_fract_z
Si Si1 0.143710 0.328200 0.164171
Si Si2 0.836254 0.051399 0.416824
Si Si3 0.658508 0.484553 0.153605
Si Si4 0.000000 0.276614 0.500000
Si Si5 0.684336 0.835299 0.703079
O O1 0.100722 0.378021 0.338521
O O2 0.996510 0.340917 0.165205
O O3 0.200942 0.157809 0.137346
O O4 0.278224 0.426835 0.023151
O O5 0.764364 0.161729 0.353364
O O6 0.893095 0.168200 0.487361
O O7 0.720170 0.936214 0.553123
O O8 0.978950 0.958914 0.270349
O O9 0.733143 0.392388 0.222635
#
# Coordination Sequence:
#
# PCOD8048752 Si02
#       5
#     4   4   4   2   4
#     4  10  21  36  65  85 123 163 196 247 311 344
#     4  10  19  37  66  84 123 162 196 248 309 345
#     4  10  20  39  59  89 127 156 195 262 293 352
#     4   8  16  38  58  80 116 164 182 246 296 350
#     4  10  19  37  62  91 120 159 205 245 297 370
#
# _framework density 21.869668999999998
#
# number of rings (size 3 to 8) (size 9 to 14) (size 15 to 20)
#    0.000    2.667    4.444    0.667    0.000    1.778 
#    8.000    0.000    0.000    0.000    0.000    0.000 
#    0.000    0.000    0.000    0.000    0.000    0.000 
#
# Total GULP energy -111523.743995 kJ/mol
# GULP energy per Si atom -12391.527111 kJ/mol
# Density = 2.181989 g / cm^3
# Si number density = 21.869669 Si / 1000 Ang^3
#
#
#
# Elastic Constant Matrix: (Units=GPa)
#
#
# Indices 1 2 3 4 5 6 
#
# 1 44.7472 44.8533 41.9202 0.0000 -3.1415 0.0000
# 2 44.8533 88.7242 62.2498 0.0000 -1.2793 0.0000
# 3 41.9202 62.2498 158.8873 0.0000 11.3270 0.0000
# 4 0.0000 0.0000 0.0000 46.2768 0.0000 -6.4894
# 5 -3.1415 -1.2793 11.3270 0.0000 25.4550 0.0000
# 6 0.0000 0.0000 0.0000 -6.4894 0.0000 30.1245
#
#
#
# Elastic Compliance Matrix: (Units=1/GPa)
#
#
# Indices 1 2 3 4 5 6 
#
# 1 0.048576 -0.020821 -0.005176 0.000000 0.007252 0.000000
# 2 -0.020821 0.024795 -0.004262 0.000000 0.000573 0.000000
# 3 -0.005176 -0.004262 0.009697 0.000000 -0.005168 0.000000
# 4 0.000000 0.000000 0.000000 0.022282 0.000000 0.004800
# 5 0.007252 0.000573 -0.005168 0.000000 0.042508 0.000000
# 6 0.000000 0.000000 0.000000 0.004800 0.000000 0.034230
#
#
# Mechanical properties :
#
#
# Convention : Reuss Voigt Hill
#
# Bulk Modulus (GPa) = 44.34318 65.60059 54.97189
# Shear Modulus (GPa) = 19.99015 29.92697 24.95856
#
# Velocity S-wave (km/s) = 3.02662 3.70323 3.38189
# Velocity P-wave (km/s) = 5.70386 6.95317 6.35927
#
# Compressibility (1/GPa) = 0.02255138
#
# Stress axis : x y z
#
# Youngs Moduli (GPa) = 20.58628 40.33048 103.11954
#
# Poissons Ratio (x) = 0.83972 0.53371
# Poissons Ratio (y) = 0.42863 0.43948
# Poissons Ratio (z) = 0.10655 0.17188
#
# Static dielectric constant tensor:
#      x y z
#    x 3.710670 0.000000 0.227060 
#    y 0.000000 4.011770 0.000000 
#    z 0.227060 0.000000 4.586640 
# 
# 
# High freq. dielectric constant tensor:
#      x y z
#    x 1.836910 0.000000 0.005170 
#    y 0.000000 1.850460 0.000000 
#    z 0.005170 0.000000 1.871540 
# 
# From -- ./inp_files/38005.got.cif
#   From: 2010.03.12/outbox.cif.g09.slc.cpg/sg5_20_cif.got.tgz:38005.got - 2010.03.31 09:47:26.
