data_PCOD8048326
_publ_section_title
;
Structure prediction by ZEFSAII (Michael W. Deem and Ramdas Pophale) SiO2 
 PCOD8048326
Probable space group: C 2
;
_chemical_formula_sum "Si O2"
_cell_formula_units_Z 24
_cell_length_a 9.829960
_cell_length_b 17.690661
_cell_length_c 10.367284
_cell_angle_alpha 90.000000
_cell_angle_beta 44.348571
_cell_angle_gamma 90.000000
_cell_volume 1260.234870
_symmetry_space_group_name_H-M "C 2"
_symmetry_group_IT_number 5
_symmetry_cell_setting 'monoclinic'
loop_
_space_group_symop_operation_xyz
x,y,z
-x,y,-z
1/2+x,1/2+y,z
1/2-x,1/2+y,-z
loop_
_atom_site_type_symbol
_atom_site_label
_atom_site_fract_x
_atom_site_fract_y
_atom_site_fract_z
Si Si1 0.346017 0.362210 0.708704
Si Si2 0.317112 0.959610 0.968282
Si Si3 0.956764 0.316964 0.279731
Si Si4 0.000000 0.577597 0.000000
Si Si5 0.166075 0.190924 0.286399
Si Si6 0.146236 0.821128 0.700192
Si Si7 0.500000 0.437374 0.000000
O O1 0.500000 0.393152 0.500000
O O2 0.183007 0.309354 0.751061
O O3 0.453600 0.311441 0.743353
O O4 0.256128 0.435751 0.838708
O O5 0.397385 0.885222 0.844243
O O6 0.143395 0.988483 0.991464
O O7 0.471836 0.026251 0.889429
O O8 0.834984 0.341005 0.487730
O O9 0.069238 0.238285 0.233219
O O10 0.795530 0.621836 0.147969
O O11 0.325393 0.241812 0.249805
O O12 0.000000 0.163438 0.500000
O O13 0.127105 0.886572 0.817509
#
# Coordination Sequence:
#
# PCOD8048326 Si02
#       7
#     4   4   4   2   4   4   2
#     4   9  18  32  56  91 114 143 193 257 292 329
#     4  11  21  36  57  87 120 152 199 247 296 350
#     4  10  18  35  59  90 113 149 205 249 284 345
#     4  12  25  40  56  87 130 164 186 240 313 362
#     4  10  22  39  61  86 120 162 198 238 297 364
#     4   9  18  33  60  89 113 145 199 256 285 336
#     4  10  19  34  58  85 114 146 202 248 295 334
#
# _framework density 19.044069
#
# number of rings (size 3 to 8) (size 9 to 14) (size 15 to 20)
#    0.000    2.000    3.333    0.500    2.333    0.667 
#    3.000    1.667    0.000    0.000    0.000    0.000 
#    0.000    0.000    0.000    0.000    0.000    0.000 
#
# Total GULP energy -148696.663605 kJ/mol
# GULP energy per Si atom -12391.388634 kJ/mol
# Density = 1.900072 g / cm^3
# Si number density = 19.044069 Si / 1000 Ang^3
#
#
#
# Elastic Constant Matrix: (Units=GPa)
#
#
# Indices 1 2 3 4 5 6 
#
# 1 162.7575 55.7293 40.2010 0.0000 -0.4920 0.0000
# 2 55.7293 64.4584 28.4950 0.0000 -6.8922 0.0000
# 3 40.2010 28.4950 68.2950 0.0000 -2.0139 0.0000
# 4 0.0000 0.0000 0.0000 10.9022 0.0000 -6.3453
# 5 -0.4920 -6.8922 -2.0139 0.0000 27.2656 0.0000
# 6 0.0000 0.0000 0.0000 -6.3453 0.0000 28.5761
#
#
#
# Elastic Compliance Matrix: (Units=1/GPa)
#
#
# Indices 1 2 3 4 5 6 
#
# 1 0.009156 -0.006991 -0.002526 0.000000 -0.001789 0.000000
# 2 -0.006991 0.024860 -0.006089 0.000000 0.005708 0.000000
# 3 -0.002526 -0.006089 0.018663 0.000000 -0.000206 0.000000
# 4 0.000000 0.000000 0.000000 0.105338 0.000000 0.023390
# 5 -0.001789 0.005708 -0.000206 0.000000 0.038072 0.000000
# 6 0.000000 0.000000 0.000000 0.023390 0.000000 0.040188
#
#
# Mechanical properties :
#
#
# Convention : Reuss Voigt Hill
#
# Bulk Modulus (GPa) = 46.57935 60.48463 53.53199
# Shear Modulus (GPa) = 18.20525 24.75449 21.47987
#
# Velocity S-wave (km/s) = 3.09520 3.60926 3.36207
# Velocity P-wave (km/s) = 6.10619 7.01415 6.57586
#
# Compressibility (1/GPa) = 0.02146874
#
# Stress axis : x y z
#
# Youngs Moduli (GPa) = 109.21402 40.22466 53.58059
#
# Poissons Ratio (x) = 0.28122 0.13532
# Poissons Ratio (y) = 0.76353 0.32625
# Poissons Ratio (z) = 0.27583 0.24493
#
# Static dielectric constant tensor:
#      x y z
#    x 4.010540 0.000000 0.029800 
#    y 0.000000 3.030530 0.000000 
#    z 0.029800 0.000000 3.682640 
# 
# 
# High freq. dielectric constant tensor:
#      x y z
#    x 1.768730 0.000000 -0.006670 
#    y 0.000000 1.683870 0.000000 
#    z -0.006670 0.000000 1.748840 
# 
# From -- ./inp_files/39795.got.cif
#   From: 2010.03.12/outbox.cif.g09.slc.cpg/sg5_20_cif.got.tgz:39795.got - 2010.03.31 09:47:26.
