data_PCOD8048232
_publ_section_title
;
Structure prediction by ZEFSAII (Michael W. Deem and Ramdas Pophale) SiO2 
 PCOD8048232
Probable space group: C 2
;
_chemical_formula_sum "Si O2"
_cell_formula_units_Z 32
_cell_length_a 10.733896
_cell_length_b 21.209509
_cell_length_c 9.335790
_cell_angle_alpha 90.000000
_cell_angle_beta 49.182933
_cell_angle_gamma 90.000000
_cell_volume 1608.497595
_symmetry_space_group_name_H-M "C 2"
_symmetry_group_IT_number 5
_symmetry_cell_setting 'monoclinic'
loop_
_space_group_symop_operation_xyz
x,y,z
-x,y,-z
1/2+x,1/2+y,z
1/2-x,1/2+y,-z
loop_
_atom_site_type_symbol
_atom_site_label
_atom_site_fract_x
_atom_site_fract_y
_atom_site_fract_z
Si Si1 0.774225 0.844630 0.393128
Si Si2 0.860336 0.304388 0.993548
Si Si3 0.907233 0.648519 0.206837
Si Si4 0.658704 0.744672 0.285875
Si Si5 0.517767 0.253173 0.330760
Si Si6 0.613804 0.040173 0.550734
Si Si7 0.149317 0.962496 0.786318
Si Si8 0.543973 0.914399 0.260694
O O1 0.766733 0.805788 0.249307
O O2 0.899833 0.904248 0.279474
O O3 0.590212 0.864849 0.578112
O O4 0.858516 0.798918 0.445061
O O5 0.882444 0.253662 0.849339
O O6 0.880400 0.378689 0.933963
O O7 0.681155 0.295266 0.196503
O O8 0.000000 0.285629 0.000000
O O9 0.747691 0.679263 0.255186
O O10 0.858911 0.596650 0.360072
O O11 0.017540 0.701103 0.205028
O O12 0.000000 0.618432 0.000000
O O13 0.500000 0.743214 0.500000
O O14 0.500000 0.220266 0.500000
O O15 0.500000 0.058456 0.500000
O O16 0.792910 0.022733 0.349217
O O17 0.543980 0.981820 0.698984
O O18 0.310065 0.931000 0.739579
O O19 0.000000 0.983699 0.000000
#
# Coordination Sequence:
#
# PCOD8048232 Si02
#       8
#     4   4   4   4   4   4   4   4
#     4  10  18  32  62  90 127 160 202 254 315 386
#     4  12  23  36  59  97 132 159 206 264 331 384
#     4  11  23  42  66  84 119 165 222 266 309 383
#     4  11  21  38  62  91 123 166 204 256 327 386
#     4  11  24  38  58  92 127 164 210 265 320 374
#     4   9  21  40  63  89 121 170 214 260 311 379
#     4  10  18  32  62  95 124 162 210 256 311 392
#     4  10  19  37  61  93 129 165 204 254 321 383
#
# _framework density 19.894342999999999
#
# number of rings (size 3 to 8) (size 9 to 14) (size 15 to 20)
#    0.000    1.500    3.750    3.000    1.750    0.500 
#    0.000    2.500    0.000    6.000    0.000    0.000 
#    0.000    0.000    0.000    0.000    0.000    0.000 
#
# Total GULP energy -198237.359952 kJ/mol
# GULP energy per Si atom -12389.834997 kJ/mol
# Density = 1.984906 g / cm^3
# Si number density = 19.894343 Si / 1000 Ang^3
#
#
#
# Elastic Constant Matrix: (Units=GPa)
#
#
# Indices 1 2 3 4 5 6 
#
# 1 94.5371 40.9400 41.3922 0.0000 10.4799 0.0000
# 2 40.9400 107.7558 49.5747 0.0000 3.9345 0.0000
# 3 41.3922 49.5747 123.2745 0.0000 1.9511 0.0000
# 4 0.0000 0.0000 0.0000 51.3423 0.0000 11.9379
# 5 10.4799 3.9345 1.9511 0.0000 35.6478 0.0000
# 6 0.0000 0.0000 0.0000 11.9379 0.0000 22.9532
#
#
#
# Elastic Compliance Matrix: (Units=1/GPa)
#
#
# Indices 1 2 3 4 5 6 
#
# 1 0.013955 -0.003734 -0.003128 0.000000 -0.003519 0.000000
# 2 -0.003734 0.012422 -0.003741 0.000000 -0.000069 0.000000
# 3 -0.003128 -0.003741 0.010655 0.000000 0.000749 0.000000
# 4 0.000000 0.000000 0.000000 0.022156 0.000000 -0.011523
# 5 -0.003519 -0.000069 0.000749 0.000000 0.029053 0.000000
# 6 0.000000 0.000000 0.000000 -0.011523 0.000000 0.049560
#
#
# Mechanical properties :
#
#
# Convention : Reuss Voigt Hill
#
# Bulk Modulus (GPa) = 63.18832 65.48680 64.33756
# Shear Modulus (GPa) = 30.43514 34.89935 32.66725
#
# Velocity S-wave (km/s) = 3.91556 4.19290 4.05660
# Velocity P-wave (km/s) = 7.23001 7.51195 7.37233
#
# Compressibility (1/GPa) = 0.01582571
#
# Stress axis : x y z
#
# Youngs Moduli (GPa) = 71.66017 80.49917 93.85408
#
# Poissons Ratio (x) = 0.30060 0.29360
# Poissons Ratio (y) = 0.26759 0.35109
# Poissons Ratio (z) = 0.22417 0.30113
#
# Static dielectric constant tensor:
#      x y z
#    x 3.332850 0.000000 -0.025680 
#    y 0.000000 3.576430 0.000000 
#    z -0.025680 0.000000 3.594690 
# 
# 
# High freq. dielectric constant tensor:
#      x y z
#    x 1.762650 0.000000 -0.003040 
#    y 0.000000 1.760590 0.000000 
#    z -0.003040 0.000000 1.776550 
# 
# From -- ./inp_files/21937.got.cif
#   From: 2010.03.12/outbox.cif.g09.slc.cpg/sg5_11_cif.got.tgz:21937.got - 2010.03.31 09:47:26.
