data_PCOD8048025
_publ_section_title
;
Structure prediction by ZEFSAII (Michael W. Deem and Ramdas Pophale) SiO2 
 PCOD8048025
Probable space group: P 21
;
_chemical_formula_sum "Si O2"
_cell_formula_units_Z 8
_cell_length_a 5.108893
_cell_length_b 5.329825
_cell_length_c 11.736276
_cell_angle_alpha 90.000000
_cell_angle_beta 111.205002
_cell_angle_gamma 90.000000
_cell_volume 297.935418
_symmetry_space_group_name_H-M "P 21"
_symmetry_group_IT_number 4
_symmetry_cell_setting 'monoclinic'
loop_
_space_group_symop_operation_xyz
x,y,z
-x,1/2+y,-z
loop_
_atom_site_type_symbol
_atom_site_label
_atom_site_fract_x
_atom_site_fract_y
_atom_site_fract_z
Si Si1 0.670416 0.662630 0.501892
Si Si2 0.203562 0.445242 0.693913
Si Si3 0.134978 0.098330 0.883678
Si Si4 0.368898 0.287495 0.146097
O O1 0.485248 0.411365 0.476940
O O2 0.759422 0.708323 0.384373
O O3 0.956197 0.630616 0.617132
O O4 0.137857 0.353427 0.811338
O O5 0.498375 0.596345 0.740906
O O6 0.377658 0.914518 0.881239
O O7 0.173913 0.145499 0.023905
O O8 0.826448 0.980777 0.816378
#
# Coordination Sequence:
#
# PCOD8048025 Si02
#       4
#     2   2   2   2
#     4  12  32  56  86 124 176 240 298 364 436 516
#     4  12  32  54  80 128 172 230 298 358 440 524
#     4  12  29  53  86 129 172 227 288 361 444 524
#     4  12  29  53  86 129 172 227 288 361 444 524
#
# _framework density 26.851458999999998
#
# number of rings (size 3 to 8) (size 9 to 14) (size 15 to 20)
#    0.000    0.000    2.500    3.000   17.500    0.000 
#    0.000    0.000    0.000    0.000    0.000    0.000 
#    0.000    0.000    0.000    0.000    0.000    0.000 
#
# Total GULP energy -99286.565790 kJ/mol
# GULP energy per Si atom -12410.820724 kJ/mol
# Density = 2.679034 g / cm^3
# Si number density = 26.851459 Si / 1000 Ang^3
#
#
#
# Elastic Constant Matrix: (Units=GPa)
#
#
# Indices 1 2 3 4 5 6 
#
# 1 130.8283 56.7265 43.4959 0.0000 19.1060 0.0000
# 2 56.7265 148.8640 58.3610 0.0000 23.8890 0.0000
# 3 43.4959 58.3610 144.4686 0.0000 39.9164 0.0000
# 4 0.0000 0.0000 0.0000 42.5457 0.0000 0.0188
# 5 19.1060 23.8890 39.9164 0.0000 32.9829 0.0000
# 6 0.0000 0.0000 0.0000 0.0188 0.0000 72.8922
#
#
#
# Elastic Compliance Matrix: (Units=1/GPa)
#
#
# Indices 1 2 3 4 5 6 
#
# 1 0.009571 -0.002862 -0.001151 0.000000 -0.002078 0.000000
# 2 -0.002862 0.009016 -0.002155 0.000000 -0.002264 0.000000
# 3 -0.001151 -0.002155 0.011303 0.000000 -0.011452 0.000000
# 4 0.000000 0.000000 0.000000 0.023504 0.000000 -0.000006
# 5 -0.002078 -0.002264 -0.011452 0.000000 0.047021 0.000000
# 6 0.000000 0.000000 0.000000 -0.000006 0.000000 0.013719
#
#
# Mechanical properties :
#
#
# Convention : Reuss Voigt Hill
#
# Bulk Modulus (GPa) = 56.96854 82.36973 69.66914
# Shear Modulus (GPa) = 37.78639 47.38934 42.58786
#
# Velocity S-wave (km/s) = 3.75539 4.20559 3.98685
# Velocity P-wave (km/s) = 6.32978 7.37057 6.86992
#
# Compressibility (1/GPa) = 0.01755355
#
# Stress axis : x y z
#
# Youngs Moduli (GPa) = 104.48367 110.90781 88.47163
#
# Poissons Ratio (x) = 0.31746 0.10184
# Poissons Ratio (y) = 0.29907 0.19065
# Poissons Ratio (z) = 0.12028 0.23900
#
# Static dielectric constant tensor:
#      x y z
#    x 4.959850 0.000000 0.109310 
#    y 0.000000 4.908000 0.000000 
#    z 0.109310 0.000000 5.064320 
# 
# 
# High freq. dielectric constant tensor:
#      x y z
#    x 2.094060 0.000000 0.005660 
#    y 0.000000 2.083980 0.000000 
#    z 0.005660 0.000000 2.094400 
# 
# From -- ./inp_files/2309.got.cif
#   From: 2010.03.12/outbox.cif.g09.slc.cpg/sg4_2_cif.got.tgz:2309.got - 2010.03.31 09:31:35.
