data_PCOD8048657
_publ_section_title
;
Structure prediction by ZEFSAII (Michael W. Deem and Ramdas Pophale) SiO2 
 PCOD8048657
Probable space group: C 2
;
_chemical_formula_sum "Si O2"
_cell_formula_units_Z 18
_cell_length_a 19.677857
_cell_length_b 8.494293
_cell_length_c 14.509798
_cell_angle_alpha 90.000000
_cell_angle_beta 160.620436
_cell_angle_gamma 90.000000
_cell_volume 804.776149
_symmetry_space_group_name_H-M "C 2"
_symmetry_group_IT_number 5
_symmetry_cell_setting 'monoclinic'
loop_
_space_group_symop_operation_xyz
x,y,z
-x,y,-z
1/2+x,1/2+y,z
1/2-x,1/2+y,-z
loop_
_atom_site_type_symbol
_atom_site_label
_atom_site_fract_x
_atom_site_fract_y
_atom_site_fract_z
Si Si1 0.500000 0.947610 0.000000
Si Si2 0.776437 0.919621 0.756946
Si Si3 0.994676 0.885682 0.213808
Si Si4 0.396704 0.256013 0.463299
Si Si5 0.768971 0.177764 0.447995
O O1 0.321456 0.840728 0.812925
O O2 0.416980 0.059099 0.812532
O O3 0.670132 0.777624 0.565173
O O4 0.629633 0.068970 0.561168
O O5 0.000000 0.955615 0.000000
O O6 0.804727 0.866596 0.900344
O O7 0.952731 0.816929 0.261976
O O8 0.198306 0.794182 0.438742
O O9 0.037876 0.074045 0.272532
O O10 0.500000 0.302476 0.500000
#
# Coordination Sequence:
#
# PCOD8048657 Si02
#       5
#     2   4   4   4   4
#     4  10  20  40  68  86 128 164 196 264 302 356
#     4  10  19  40  62  89 122 161 207 255 304 363
#     4  10  20  36  61  92 121 163 204 248 315 361
#     4  11  24  42  60  93 130 161 209 254 302 372
#     4  10  19  35  66  95 119 160 211 252 306 373
#
# _framework density 22.366467
#
# number of rings (size 3 to 8) (size 9 to 14) (size 15 to 20)
#    0.000    1.778    4.444    2.667    3.111    0.000 
#    4.000    4.444    0.000    0.000    0.000    0.000 
#    0.000    0.000    0.000    0.000    0.000    0.000 
#
# Total GULP energy -111592.996447 kJ/mol
# GULP energy per Si atom -12399.221827 kJ/mol
# Density = 2.231556 g / cm^3
# Si number density = 22.366467 Si / 1000 Ang^3
#
#
#
# Elastic Constant Matrix: (Units=GPa)
#
#
# Indices 1 2 3 4 5 6 
#
# 1 147.1355 59.5380 33.9513 0.0000 -29.1907 0.0000
# 2 59.5380 139.3663 25.5532 0.0001 -13.6814 0.0000
# 3 33.9513 25.5532 26.5220 0.0001 -13.5938 0.0000
# 4 0.0000 0.0001 0.0001 25.8760 0.0001 -18.4545
# 5 -29.1907 -13.6814 -13.5938 0.0001 35.7422 0.0000
# 6 0.0000 0.0000 0.0000 -18.4545 0.0000 26.4882
#
#
#
# Elastic Compliance Matrix: (Units=1/GPa)
#
#
# Indices 1 2 3 4 5 6 
#
# 1 0.010789 -0.002500 -0.009163 0.000000 0.004370 0.000000
# 2 -0.002500 0.009295 -0.006183 0.000000 -0.000836 0.000000
# 3 -0.009163 -0.006183 0.062533 -0.000001 0.013933 0.000000
# 4 0.000000 0.000000 -0.000001 0.076813 0.000000 0.053516
# 5 0.004370 -0.000836 0.013933 0.000000 0.036526 0.000000
# 6 0.000000 0.000000 0.000000 0.053516 0.000000 0.075037
#
#
# Mechanical properties :
#
#
# Convention : Reuss Voigt Hill
#
# Bulk Modulus (GPa) = 21.31099 61.23433 41.27266
# Shear Modulus (GPa) = 15.51213 30.55339 23.03276
#
# Velocity S-wave (km/s) = 2.63638 3.70000 3.21252
# Velocity P-wave (km/s) = 4.33775 6.75948 5.67920
#
# Compressibility (1/GPa) = 0.04692414
#
# Stress axis : x y z
#
# Youngs Moduli (GPa) = 92.68273 107.58295 15.99155
#
# Poissons Ratio (x) = 0.26899 0.14653
# Poissons Ratio (y) = 0.23173 0.09888
# Poissons Ratio (z) = 0.84927 0.66522
#
# Static dielectric constant tensor:
#      x y z
#    x 3.940780 0.000000 -0.490440 
#    y 0.000000 4.349260 0.000000 
#    z -0.490440 0.000000 3.723450 
# 
# 
# High freq. dielectric constant tensor:
#      x y z
#    x 1.865230 0.000000 -0.042660 
#    y 0.000000 1.899260 0.000000 
#    z -0.042660 0.000000 1.849770 
# 
# From -- ./inp_files/18025.got.cif
#   From: 2010.03.12/outbox.cif.g09.slc.cpg/sg5_10_cif.got.tgz:18025.got - 2010.03.31 09:47:26.
