data_PCOD8048019
_publ_section_title
;
Structure prediction by ZEFSAII (Michael W. Deem and Ramdas Pophale) SiO2 
 PCOD8048019
Probable space group: P 21
;
_chemical_formula_sum "Si O2"
_cell_formula_units_Z 16
_cell_length_a 15.436344
_cell_length_b 5.119344
_cell_length_c 21.839699
_cell_angle_alpha 90.000000
_cell_angle_beta 19.469664
_cell_angle_gamma 90.000000
_cell_volume 575.242257
_symmetry_space_group_name_H-M "P 21"
_symmetry_group_IT_number 4
_symmetry_cell_setting 'monoclinic'
loop_
_space_group_symop_operation_xyz
x,y,z
-x,1/2+y,-z
loop_
_atom_site_type_symbol
_atom_site_label
_atom_site_fract_x
_atom_site_fract_y
_atom_site_fract_z
Si Si1 0.280737 0.642240 0.274754
Si Si2 0.822730 0.828620 0.110899
Si Si3 0.411809 0.828931 0.021831
Si Si4 0.140150 0.521523 0.619269
Si Si5 0.177743 0.409883 0.464049
Si Si6 0.889329 0.409839 0.252404
Si Si7 0.397495 0.521548 0.861906
Si Si8 0.558778 0.142029 0.385727
O O1 0.112940 0.572228 0.446593
O O2 0.071390 0.717966 0.361829
O O3 0.462062 0.879033 0.175444
O O4 0.450144 0.403277 0.134784
O O5 0.668354 0.818849 0.149262
O O6 0.610426 0.903036 0.304644
O O7 0.047994 0.051668 0.959099
O O8 0.102137 0.818911 0.215500
O O9 0.480349 0.051967 0.026735
O O10 0.182589 0.601937 0.519477
O O11 0.070019 0.763328 0.709632
O O12 0.411980 0.378794 0.450495
O O13 0.451573 0.263398 0.268852
O O14 0.838549 0.217870 0.228220
O O15 0.625022 0.572090 0.434426
O O16 0.125579 0.601927 0.076430
#
# Coordination Sequence:
#
# PCOD8048019 Si02
#       8
#     2   2   2   2   2   2   2   2
#     4  12  28  48  77 116 162 217 271 346 413 504
#     4  12  30  52  83 119 164 215 280 341 414 497
#     4  12  30  52  83 119 164 215 280 341 414 497
#     4  12  28  49  77 121 159 224 267 349 414 504
#     4  12  28  49  79 114 165 214 284 338 425 497
#     4  12  28  49  79 114 165 214 284 338 425 497
#     4  12  28  49  77 121 159 224 267 349 414 504
#     4  12  28  48  77 116 162 217 271 346 413 504
#
# _framework density 27.814364999999999
#
# number of rings (size 3 to 8) (size 9 to 14) (size 15 to 20)
#    0.000    0.000    7.500    0.000   14.000    0.000 
#    0.000    0.000    0.000    0.000    0.000    0.000 
#    0.000    0.000    0.000    0.000    0.000    0.000 
#
# Total GULP energy -198362.010553 kJ/mol
# GULP energy per Si atom -12397.625660 kJ/mol
# Density = 2.775106 g / cm^3
# Si number density = 27.814365 Si / 1000 Ang^3
#
#
#
# Elastic Constant Matrix: (Units=GPa)
#
#
# Indices 1 2 3 4 5 6 
#
# 1 145.9977 9.4956 29.1895 0.0000 11.8274 0.0000
# 2 9.4956 45.4648 -0.9253 0.0000 -13.2050 0.0000
# 3 29.1895 -0.9253 149.4661 0.0000 -7.3509 0.0000
# 4 0.0000 0.0000 0.0000 39.0895 0.0000 13.7596
# 5 11.8274 -13.2050 -7.3509 0.0000 38.8382 0.0000
# 6 0.0000 0.0000 0.0000 13.7596 0.0000 28.1555
#
#
#
# Elastic Compliance Matrix: (Units=1/GPa)
#
#
# Indices 1 2 3 4 5 6 
#
# 1 0.007647 -0.002664 -0.001685 0.000000 -0.003553 0.000000
# 2 -0.002664 0.025380 0.001152 0.000000 0.009658 0.000000
# 3 -0.001685 0.001152 0.007138 0.000000 0.002256 0.000000
# 4 0.000000 0.000000 0.000000 0.030897 0.000000 -0.015100
# 5 -0.003553 0.009658 0.002256 0.000000 0.030541 0.000000
# 6 0.000000 0.000000 0.000000 -0.015100 0.000000 0.042896
#
#
# Mechanical properties :
#
#
# Convention : Reuss Voigt Hill
#
# Bulk Modulus (GPa) = 29.60941 46.27203 37.94072
# Shear Modulus (GPa) = 30.83584 41.42788 36.13186
#
# Velocity S-wave (km/s) = 3.33322 3.86352 3.60812
# Velocity P-wave (km/s) = 5.04800 6.04768 5.57031
#
# Compressibility (1/GPa) = 0.03377305
#
# Stress axis : x y z
#
# Youngs Moduli (GPa) = 130.76444 39.40107 140.10384
#
# Poissons Ratio (x) = 0.10495 0.23603
# Poissons Ratio (y) = 0.34829 -0.16144
# Poissons Ratio (z) = 0.22030 -0.04540
#
# Static dielectric constant tensor:
#      x y z
#    x 5.372410 0.000000 0.068780 
#    y 0.000000 4.553710 0.000000 
#    z 0.068780 0.000000 5.426270 
# 
# 
# High freq. dielectric constant tensor:
#      x y z
#    x 2.144750 0.000000 0.007760 
#    y 0.000000 2.090470 0.000000 
#    z 0.007760 0.000000 2.150840 
# 
# From -- ./inp_files/7304.got.cif
#   From: 2010.03.12/outbox.cif.g09.slc.cpg/sg4_4_cif.got.tgz:7304.got - 2010.03.31 09:31:35.
