data_PCOD8048113
_publ_section_title
;
Structure prediction by ZEFSAII (Michael W. Deem and Ramdas Pophale) SiO2 
 PCOD8048113
Probable space group: C 2
;
_chemical_formula_sum "Si O2"
_cell_formula_units_Z 20
_cell_length_a 9.121464
_cell_length_b 24.481245
_cell_length_c 7.716566
_cell_angle_alpha 90.000000
_cell_angle_beta 34.794048
_cell_angle_gamma 90.000000
_cell_volume 983.275915
_symmetry_space_group_name_H-M "C 2"
_symmetry_group_IT_number 5
_symmetry_cell_setting 'monoclinic'
loop_
_space_group_symop_operation_xyz
x,y,z
-x,y,-z
1/2+x,1/2+y,z
1/2-x,1/2+y,-z
loop_
_atom_site_type_symbol
_atom_site_label
_atom_site_fract_x
_atom_site_fract_y
_atom_site_fract_z
Si Si1 0.522208 0.552740 0.785249
Si Si2 0.000000 0.395698 0.000000
Si Si3 0.981170 0.736397 0.311079
Si Si4 0.481324 0.112255 0.818980
Si Si5 0.000000 0.968651 0.500000
Si Si6 0.481538 0.790886 0.826560
O O1 0.477445 0.504519 0.693721
O O2 0.802662 0.579130 0.494413
O O3 0.500000 0.528254 0.000000
O O4 0.302910 0.598721 0.974023
O O5 0.750894 0.431936 0.268294
O O6 0.028763 0.357089 0.143430
O O7 0.733614 0.769903 0.480851
O O8 0.000000 0.737624 0.500000
O O9 0.964919 0.675769 0.254856
O O10 0.223967 0.767412 0.988701
O O11 0.500000 0.094640 0.000000
O O12 0.500000 0.764118 0.000000
#
# Coordination Sequence:
#
# PCOD8048113 Si02
#       6
#     4   2   4   4   2   4
#     4  12  25  43  63  91 132 169 214 267 318 388
#     4  10  20  36  64  90 118 164 214 272 318 362
#     4  10  17  31  55  83 117 155 203 242 300 375
#     4  12  23  40  60  92 134 172 209 264 318 381
#     4  12  22  40  66  90 124 166 218 270 320 364
#     4   8  17  31  52  86 111 146 208 253 290 379
#
# _framework density 20.340171999999999
#
# number of rings (size 3 to 8) (size 9 to 14) (size 15 to 20)
#    0.600    0.800    2.000    5.400    0.000    1.600 
#    0.000    0.000    0.000    7.200    0.000    0.000 
#    0.000    0.000    0.000    0.000    0.000    0.000 
#
# Total GULP energy -123965.128618 kJ/mol
# GULP energy per Si atom -12396.512862 kJ/mol
# Density = 2.029388 g / cm^3
# Si number density = 20.340172 Si / 1000 Ang^3
#
#
#
# Elastic Constant Matrix: (Units=GPa)
#
#
# Indices 1 2 3 4 5 6 
#
# 1 65.1274 19.1186 37.0125 0.0000 15.2709 0.0000
# 2 19.1186 114.1799 52.3037 0.0000 3.6235 0.0000
# 3 37.0125 52.3037 152.7996 0.0000 -21.7820 0.0000
# 4 0.0000 0.0000 0.0000 40.4141 0.0000 -9.1280
# 5 15.2709 3.6235 -21.7820 0.0000 32.2840 0.0000
# 6 0.0000 0.0000 0.0000 -9.1280 0.0000 58.9051
#
#
#
# Elastic Compliance Matrix: (Units=1/GPa)
#
#
# Indices 1 2 3 4 5 6 
#
# 1 0.023996 0.000353 -0.008361 0.000000 -0.017032 0.000000
# 2 0.000353 0.010867 -0.004429 0.000000 -0.004374 0.000000
# 3 -0.008361 -0.004429 0.011861 0.000000 0.012455 0.000000
# 4 0.000000 0.000000 0.000000 0.025641 0.000000 0.003973
# 5 -0.017032 -0.004374 0.012455 0.000000 0.047926 0.000000
# 6 0.000000 0.000000 0.000000 0.003973 0.000000 0.017592
#
#
# Mechanical properties :
#
#
# Convention : Reuss Voigt Hill
#
# Bulk Modulus (GPa) = 45.76742 60.99740 53.38241
# Shear Modulus (GPa) = 29.40469 41.23211 35.31840
#
# Velocity S-wave (km/s) = 3.80629 4.50725 4.17152
# Velocity P-wave (km/s) = 6.47047 7.55915 7.03590
#
# Compressibility (1/GPa) = 0.02184961
#
# Stress axis : x y z
#
# Youngs Moduli (GPa) = 41.67313 92.02532 84.30805
#
# Poissons Ratio (x) = -0.03245 0.70492
# Poissons Ratio (y) = -0.01469 0.37337
# Poissons Ratio (z) = 0.34844 0.40755
#
# Static dielectric constant tensor:
#      x y z
#    x 3.441250 0.000000 -0.187760 
#    y 0.000000 3.565740 0.000000 
#    z -0.187760 0.000000 4.020060 
# 
# 
# High freq. dielectric constant tensor:
#      x y z
#    x 1.768130 0.000000 -0.018710 
#    y 0.000000 1.786860 0.000000 
#    z -0.018710 0.000000 1.818450 
# 
# From -- ./inp_files/17405.got.cif
#   From: 2010.03.12/outbox.cif.g09.slc.cpg/sg5_9_cif.got.tgz:17405.got - 2010.03.31 09:47:26.
