data_PCOD8048666
_publ_section_title
;
Structure prediction by ZEFSAII (Michael W. Deem and Ramdas Pophale) SiO2 
 PCOD8048666
Probable space group: C 2
;
_chemical_formula_sum "Si O2"
_cell_formula_units_Z 28
_cell_length_a 14.349053
_cell_length_b 8.453169
_cell_length_c 12.039840
_cell_angle_alpha 90.000000
_cell_angle_beta 110.087585
_cell_angle_gamma 90.000000
_cell_volume 1371.535695
_symmetry_space_group_name_H-M "C 2"
_symmetry_group_IT_number 5
_symmetry_cell_setting 'monoclinic'
loop_
_space_group_symop_operation_xyz
x,y,z
-x,y,-z
1/2+x,1/2+y,z
1/2-x,1/2+y,-z
loop_
_atom_site_type_symbol
_atom_site_label
_atom_site_fract_x
_atom_site_fract_y
_atom_site_fract_z
Si Si1 0.770634 0.890570 0.086860
Si Si2 0.887111 0.900939 0.456260
Si Si3 0.241623 0.124636 0.741591
Si Si4 0.330036 0.127255 0.275176
Si Si5 0.380395 0.843751 0.168742
Si Si6 0.524176 0.560448 0.882595
Si Si7 0.340015 0.412844 0.689684
O O1 0.775952 0.725915 0.155738
O O2 0.712712 0.015201 0.141996
O O3 0.878299 0.961578 0.106067
O O4 0.714157 0.867904 0.949452
O O5 0.888515 0.737911 0.385468
O O6 0.846126 0.878720 0.562293
O O7 0.000000 0.966803 0.500000
O O8 0.806441 0.019649 0.373989
O O9 0.149219 0.226678 0.745335
O O10 0.329655 0.238094 0.737370
O O11 0.407126 0.010391 0.240016
O O12 0.250790 0.025242 0.312159
O O13 0.466826 0.751151 0.137144
O O14 0.440119 0.493132 0.769786
O O15 0.500000 0.533801 0.000000
#
# Coordination Sequence:
#
# PCOD8048666 Si02
#       7
#     4   4   4   4   4   4   4
#     4  10  19  37  61  86 119 156 195 241 293 347
#     4  11  22  40  60  83 115 153 197 245 293 349
#     4   9  20  36  59  85 110 152 193 236 292 344
#     4  10  21  37  59  86 116 155 198 244 293 348
#     4  10  19  36  57  83 118 155 191 237 290 343
#     4  11  22  37  60  89 118 155 196 243 295 353
#     4  11  21  39  61  86 117 152 196 246 296 350
#
# _framework density 20.415071999999999
#
# number of rings (size 3 to 8) (size 9 to 14) (size 15 to 20)
#    0.000    1.714    0.000    7.714    0.000    0.000 
#    0.000   16.429    0.000    0.000    0.000    0.000 
#    0.000    0.000    0.000    0.000    0.000    0.000 
#
# Total GULP energy -173508.454411 kJ/mol
# GULP energy per Si atom -12393.461029 kJ/mol
# Density = 2.036861 g / cm^3
# Si number density = 20.415072 Si / 1000 Ang^3
#
#
#
# Elastic Constant Matrix: (Units=GPa)
#
#
# Indices 1 2 3 4 5 6 
#
# 1 65.6723 29.2968 24.3690 0.0000 0.6794 0.0000
# 2 29.2968 121.4908 39.3242 0.0000 -4.3605 0.0000
# 3 24.3690 39.3242 103.0901 0.0000 -10.5673 0.0000
# 4 0.0000 0.0000 0.0000 23.3822 0.0000 -11.1674
# 5 0.6794 -4.3605 -10.5673 0.0000 35.3868 0.0000
# 6 0.0000 0.0000 0.0000 -11.1674 0.0000 28.4355
#
#
#
# Elastic Compliance Matrix: (Units=1/GPa)
#
#
# Indices 1 2 3 4 5 6 
#
# 1 0.017905 -0.003368 -0.003121 0.000000 -0.001691 0.000000
# 2 -0.003368 0.010024 -0.002986 0.000000 0.000408 0.000000
# 3 -0.003121 -0.002986 0.011910 0.000000 0.003249 0.000000
# 4 0.000000 0.000000 0.000000 0.052642 0.000000 0.020674
# 5 -0.001691 0.000408 0.003249 0.000000 0.029312 0.000000
# 6 0.000000 0.000000 0.000000 0.020674 0.000000 0.043286
#
#
# Mechanical properties :
#
#
# Convention : Reuss Voigt Hill
#
# Bulk Modulus (GPa) = 47.87086 52.91479 50.39283
# Shear Modulus (GPa) = 26.17897 30.59179 28.38538
#
# Velocity S-wave (km/s) = 3.58486 3.87523 3.73287
# Velocity P-wave (km/s) = 6.37453 6.78226 6.58155
#
# Compressibility (1/GPa) = 0.02088953
#
# Stress axis : x y z
#
# Youngs Moduli (GPa) = 55.84936 99.75659 83.96331
#
# Poissons Ratio (x) = 0.33600 0.26205
# Poissons Ratio (y) = 0.18811 0.25070
# Poissons Ratio (z) = 0.17431 0.29785
#
# Static dielectric constant tensor:
#      x y z
#    x 3.584260 0.000000 -0.326360 
#    y 0.000000 4.168580 0.000000 
#    z -0.326360 0.000000 3.795110 
# 
# 
# High freq. dielectric constant tensor:
#      x y z
#    x 1.773170 0.000000 -0.024000 
#    y 0.000000 1.814550 0.000000 
#    z -0.024000 0.000000 1.809690 
# 
# From -- ./inp_files/41706.got.cif
#   From: 2010.03.12/outbox.cif.g09.slc.cpg/sg5_21_cif.got.tgz:41706.got - 2010.03.31 09:47:26.
