data_PCOD8048531
_publ_section_title
;
Structure prediction by ZEFSAII (Michael W. Deem and Ramdas Pophale) SiO2 
 PCOD8048531
Probable space group: C 2
;
_chemical_formula_sum "Si O2"
_cell_formula_units_Z 26
_cell_length_a 14.384880
_cell_length_b 24.866665
_cell_length_c 12.340526
_cell_angle_alpha 90.000000
_cell_angle_beta 20.034769
_cell_angle_gamma 90.000000
_cell_volume 1512.281163
_symmetry_space_group_name_H-M "C 2"
_symmetry_group_IT_number 5
_symmetry_cell_setting 'monoclinic'
loop_
_space_group_symop_operation_xyz
x,y,z
-x,y,-z
1/2+x,1/2+y,z
1/2-x,1/2+y,-z
loop_
_atom_site_type_symbol
_atom_site_label
_atom_site_fract_x
_atom_site_fract_y
_atom_site_fract_z
Si Si1 0.701069 0.290610 0.368366
Si Si2 0.222797 0.084762 0.845277
Si Si3 0.168394 0.399410 0.206189
Si Si4 0.271954 0.508548 0.970745
Si Si5 0.164091 0.476319 0.710089
Si Si6 0.000000 0.688036 0.500000
Si Si7 0.733585 0.367147 0.523951
O O1 0.500000 0.318972 0.500000
O O2 0.627683 0.226646 0.453516
O O3 0.676170 0.314170 0.515854
O O4 0.000000 0.300757 0.000000
O O5 0.500000 0.057145 0.500000
O O6 0.264786 0.149672 0.808475
O O7 0.000000 0.069638 0.000000
O O8 0.163168 0.061530 0.029468
O O9 0.000000 0.401780 0.500000
O O10 0.997660 0.361976 0.310301
O O11 0.215812 0.459528 0.112950
O O12 0.468529 0.374579 0.890271
O O13 0.536086 0.500989 0.605103
O O14 0.007259 0.513701 0.185212
O O15 0.207948 0.416016 0.621009
O O16 0.000000 0.473887 0.000000
#
# Coordination Sequence:
#
# PCOD8048531 Si02
#       7
#     4   4   4   4   4   2   4
#     4  10  19  33  52  77 109 129 165 214 268 315
#     4  10  19  33  52  77 109 129 166 214 267 315
#     4  10  20  33  48  74 107 138 178 207 236 314
#     4  10  20  32  51  74 102 145 170 202 265 295
#     4  10  20  33  48  74 107 138 179 206 236 314
#     4   8  22  32  54  80 110 120 178 212 286 294
#     4  10  20  32  51  74 102 145 170 203 264 295
#
# _framework density 17.19257
#
# number of rings (size 3 to 8) (size 9 to 14) (size 15 to 20)
#    0.923    1.231    0.000    4.154    0.000    4.923 
#    0.000    0.000    0.000    0.000    0.000    4.308 
#    0.000    0.000    0.000    0.000    0.000    0.000 
#
# Total GULP energy -161069.608067 kJ/mol
# GULP energy per Si atom -12389.969851 kJ/mol
# Density = 1.715344 g / cm^3
# Si number density = 17.192570 Si / 1000 Ang^3
#
#
#
# Elastic Constant Matrix: (Units=GPa)
#
#
# Indices 1 2 3 4 5 6 
#
# 1 72.4274 34.1106 38.1286 -3.8431 -8.1590 0.9145
# 2 34.1106 64.1739 33.8660 -3.4387 1.4428 0.9436
# 3 38.1286 33.8660 111.6223 -6.9338 3.8144 2.1820
# 4 -3.8431 -3.4387 -6.9338 36.0986 2.8245 -0.9584
# 5 -8.1590 1.4428 3.8144 2.8245 38.2372 -0.7860
# 6 0.9145 0.9436 2.1820 -0.9584 -0.7860 25.2362
#
#
#
# Elastic Compliance Matrix: (Units=1/GPa)
#
#
# Indices 1 2 3 4 5 6 
#
# 1 0.021024 -0.008820 -0.004683 0.000089 0.005282 0.000141
# 2 -0.008820 0.022273 -0.003616 0.000671 -0.002416 -0.000250
# 3 -0.004683 -0.003616 0.011842 0.001583 -0.002176 -0.000727
# 4 0.000089 0.000671 0.001583 0.028276 -0.002236 0.000839
# 5 0.005282 -0.002416 -0.002176 -0.002236 0.027771 0.000867
# 6 0.000141 -0.000250 -0.000727 0.000839 0.000867 0.039752
#
#
# Mechanical properties :
#
#
# Convention : Reuss Voigt Hill
#
# Bulk Modulus (GPa) = 47.84281 51.15932 49.50107
# Shear Modulus (GPa) = 26.02228 29.38895 27.70562
#
# Velocity S-wave (km/s) = 3.89469 4.13897 4.01869
# Velocity P-wave (km/s) = 6.93634 7.25691 7.09844
#
# Compressibility (1/GPa) = 0.02090178
#
# Stress axis : x y z
#
# Youngs Moduli (GPa) = 47.56423 44.89825 84.44194
#
# Poissons Ratio (x) = 0.39598 0.39548
# Poissons Ratio (y) = 0.41950 0.30532
# Poissons Ratio (z) = 0.22277 0.16234
#
# Static dielectric constant tensor:
#      x y z
#    x 2.810190 0.008360 -0.323450 
#    y 0.008360 2.907090 0.001790 
#    z -0.323450 0.001790 3.318650 
# 
# 
# High freq. dielectric constant tensor:
#      x y z
#    x 1.657000 -0.000040 -0.022410 
#    y -0.000040 1.625560 0.000090 
#    z -0.022410 0.000090 1.675940 
# 
# From -- ./inp_files/43499.got.cif
#   From: 2010.03.12/outbox.cif.g09.slc.cpg/sg5_22_cif.got.tgz:43499.got - 2010.03.31 09:47:26.
