data_PCOD8048733
_publ_section_title
;
Structure prediction by ZEFSAII (Michael W. Deem and Ramdas Pophale) SiO2 
 PCOD8048733
Probable space group: C 2
;
_chemical_formula_sum "Si O2"
_cell_formula_units_Z 30
_cell_length_a 13.519012
_cell_length_b 12.939643
_cell_length_c 9.444712
_cell_angle_alpha 90.000000
_cell_angle_beta 89.829960
_cell_angle_gamma 90.000000
_cell_volume 1652.167424
_symmetry_space_group_name_H-M "C 2"
_symmetry_group_IT_number 5
_symmetry_cell_setting 'monoclinic'
loop_
_space_group_symop_operation_xyz
x,y,z
-x,y,-z
1/2+x,1/2+y,z
1/2-x,1/2+y,-z
loop_
_atom_site_type_symbol
_atom_site_label
_atom_site_fract_x
_atom_site_fract_y
_atom_site_fract_z
Si Si1 0.105856 0.527070 0.356280
Si Si2 0.822983 0.927201 0.638906
Si Si3 0.197487 0.236102 0.559963
Si Si4 0.817617 0.607900 0.358147
Si Si5 0.326209 0.511845 0.338539
Si Si6 0.485779 0.170164 0.162460
Si Si7 0.500000 0.858733 0.500000
Si Si8 0.494707 0.411707 0.163918
O O1 0.110951 0.584221 0.508790
O O2 0.212288 0.478280 0.313369
O O3 0.072733 0.611131 0.242997
O O4 0.029427 0.431505 0.366345
O O5 0.778088 0.811109 0.634462
O O6 0.864188 0.961233 0.485045
O O7 0.908728 0.946773 0.751938
O O8 0.736308 0.003375 0.686837
O O9 0.240986 0.197680 0.407937
O O10 0.093099 0.290799 0.541548
O O11 0.175616 0.136751 0.658069
O O12 0.878094 0.639447 0.219780
O O13 0.396582 0.470323 0.216095
O O14 0.490846 0.290730 0.189727
O O15 0.500000 0.140189 0.000000
O O16 0.500000 0.441110 0.000000
#
# Coordination Sequence:
#
# PCOD8048733 Si02
#       8
#     4   4   4   4   4   4   2   4
#     4  10  19  37  59  86 112 143 184 245 279 336
#     4  10  19  38  57  84 111 147 183 240 285 332
#     4  10  20  32  60  88 113 142 181 242 286 339
#     4  10  20  35  57  85 109 145 189 231 290 326
#     4  10  22  36  57  88 109 150 190 232 288 329
#     4  11  22  36  57  82 114 154 191 228 279 335
#     4  12  18  34  60  92 112 132 184 242 290 332
#     4  11  24  38  55  80 118 156 191 229 274 337
#
# _framework density 18.157965999999998
#
# number of rings (size 3 to 8) (size 9 to 14) (size 15 to 20)
#    0.000    1.867    4.000    2.800    3.733    2.133 
#    0.000    0.000    0.000    3.200    0.000    0.000 
#    0.000    0.000    0.000    0.000    0.000    0.000 
#
# Total GULP energy -185939.473338 kJ/mol
# GULP energy per Si atom -12395.964889 kJ/mol
# Density = 1.811664 g / cm^3
# Si number density = 18.157966 Si / 1000 Ang^3
#
#
#
# Elastic Constant Matrix: (Units=GPa)
#
#
# Indices 1 2 3 4 5 6 
#
# 1 117.2142 57.7319 66.7234 0.0000 -13.1731 0.0000
# 2 57.7319 86.7560 58.8949 0.0000 -0.8547 0.0000
# 3 66.7234 58.8949 104.0002 0.0000 -12.5681 0.0000
# 4 0.0000 0.0000 0.0000 24.5606 0.0000 -3.6317
# 5 -13.1731 -0.8547 -12.5681 0.0000 19.2826 0.0000
# 6 0.0000 0.0000 0.0000 -3.6317 0.0000 38.0601
#
#
#
# Elastic Compliance Matrix: (Units=1/GPa)
#
#
# Indices 1 2 3 4 5 6 
#
# 1 0.015699 -0.006669 -0.005466 0.000000 0.006867 0.000000
# 2 -0.006669 0.022366 -0.009572 0.000000 -0.009803 0.000000
# 3 -0.005466 -0.009572 0.019582 0.000000 0.008605 0.000000
# 4 0.000000 0.000000 0.000000 0.041298 0.000000 0.003941
# 5 0.006867 -0.009803 0.008605 0.000000 0.061726 0.000000
# 6 0.000000 0.000000 0.000000 0.003941 0.000000 0.026650
#
#
# Mechanical properties :
#
#
# Convention : Reuss Voigt Hill
#
# Bulk Modulus (GPa) = 70.25172 74.96342 72.60757
# Shear Modulus (GPa) = 21.23335 24.68868 22.96102
#
# Velocity S-wave (km/s) = 3.42331 3.69136 3.55986
# Velocity P-wave (km/s) = 7.37554 7.71634 7.54786
#
# Compressibility (1/GPa) = 0.01423453
#
# Stress axis : x y z
#
# Youngs Moduli (GPa) = 63.69810 44.71140 51.06659
#
# Poissons Ratio (x) = 0.29818 0.27911
# Poissons Ratio (y) = 0.42480 0.48879
# Poissons Ratio (z) = 0.34815 0.42796
#
# Static dielectric constant tensor:
#      x y z
#    x 3.479610 0.000000 -0.088130 
#    y 0.000000 3.538750 0.000000 
#    z -0.088130 0.000000 3.115630 
# 
# 
# High freq. dielectric constant tensor:
#      x y z
#    x 1.719490 0.000000 -0.007610 
#    y 0.000000 1.717100 0.000000 
#    z -0.007610 0.000000 1.665050 
# 
# From -- ./inp_files/23642.got.cif
#   From: 2010.03.12/outbox.cif.g09.slc.cpg/sg5_12_cif.got.tgz:23642.got - 2010.03.31 09:47:26.
