data_PCOD8048632
_publ_section_title
;
Structure prediction by ZEFSAII (Michael W. Deem and Ramdas Pophale) SiO2 
 PCOD8048632
Probable space group: C 2
;
_chemical_formula_sum "Si O2"
_cell_formula_units_Z 26
_cell_length_a 15.955794
_cell_length_b 8.691576
_cell_length_c 22.334778
_cell_angle_alpha 90.000000
_cell_angle_beta 24.899960
_cell_angle_gamma 90.000000
_cell_volume 1304.118267
_symmetry_space_group_name_H-M "C 2"
_symmetry_group_IT_number 5
_symmetry_cell_setting 'monoclinic'
loop_
_space_group_symop_operation_xyz
x,y,z
-x,y,-z
1/2+x,1/2+y,z
1/2-x,1/2+y,-z
loop_
_atom_site_type_symbol
_atom_site_label
_atom_site_fract_x
_atom_site_fract_y
_atom_site_fract_z
Si Si1 0.703226 0.240120 0.789071
Si Si2 0.759878 0.587597 0.792757
Si Si3 0.657076 0.976562 0.510574
Si Si4 0.500000 0.824791 0.500000
Si Si5 0.507828 0.697191 0.305428
Si Si6 0.128912 0.132456 0.009429
Si Si7 0.215951 0.788861 0.978056
O O1 0.706479 0.407265 0.818997
O O2 0.842090 0.225685 0.640222
O O3 0.809557 0.135450 0.771007
O O4 0.477604 0.191347 0.919616
O O5 0.737407 0.639696 0.875489
O O6 0.990424 0.611175 0.626835
O O7 0.604985 0.675917 0.849427
O O8 0.639544 0.925430 0.453073
O O9 0.616684 0.833938 0.581752
O O10 0.871546 0.048824 0.382794
O O11 0.593523 0.758023 0.186976
O O12 0.152072 0.964857 0.022910
O O13 0.229149 0.251555 0.989315
#
# Coordination Sequence:
#
# PCOD8048632 Si02
#       7
#     4   4   4   2   4   4   4
#     4   9  18  36  59  79 114 148 190 227 273 331
#     4   8  17  36  56  77 109 155 180 224 273 344
#     4  10  20  36  58  82 112 148 189 231 279 329
#     4   8  18  34  58  86 102 148 204 220 262 346
#     4  10  21  37  58  83 113 149 189 229 283 331
#     4  10  19  35  60  82 110 143 191 228 284 321
#     4  11  21  35  59  89 107 148 190 241 263 339
#
# _framework density 19.936841000000001
#
# number of rings (size 3 to 8) (size 9 to 14) (size 15 to 20)
#    0.000    2.769    3.077    0.462    6.462    2.462 
#    0.000    1.538    3.385    0.000    0.000    0.000 
#    0.000    0.000    0.000    0.000    0.000    0.000 
#
# Total GULP energy -161066.573814 kJ/mol
# GULP energy per Si atom -12389.736447 kJ/mol
# Density = 1.989146 g / cm^3
# Si number density = 19.936841 Si / 1000 Ang^3
#
#
#
# Elastic Constant Matrix: (Units=GPa)
#
#
# Indices 1 2 3 4 5 6 
#
# 1 151.4701 30.0132 37.4578 -0.0029 -4.9519 0.0034
# 2 30.0132 25.8132 11.8270 0.0025 -1.8325 0.0025
# 3 37.4578 11.8270 68.0504 0.0205 2.5182 0.0091
# 4 -0.0029 0.0025 0.0205 20.3909 0.0023 -5.7667
# 5 -4.9519 -1.8325 2.5182 0.0023 40.9782 -0.0033
# 6 0.0034 0.0025 0.0091 -5.7667 -0.0033 31.5650
#
#
#
# Elastic Compliance Matrix: (Units=1/GPa)
#
#
# Indices 1 2 3 4 5 6 
#
# 1 0.009329 -0.009140 -0.003582 0.000007 0.000939 0.000002
# 2 -0.009140 0.051270 -0.003933 -0.000005 0.001430 -0.000003
# 3 -0.003582 -0.003933 0.017412 -0.000020 -0.001679 -0.000008
# 4 0.000007 -0.000005 -0.000020 0.051713 0.000000 0.009448
# 5 0.000939 0.001430 -0.001679 0.000000 0.024684 0.000003
# 6 0.000002 -0.000003 -0.000008 0.009448 0.000003 0.033407
#
#
# Mechanical properties :
#
#
# Convention : Reuss Voigt Hill
#
# Bulk Modulus (GPa) = 22.36955 44.88106 33.62530
# Shear Modulus (GPa) = 21.18427 29.65586 25.42007
#
# Velocity S-wave (km/s) = 3.26324 3.86098 3.57463
# Velocity P-wave (km/s) = 5.04410 6.51435 5.82579
#
# Compressibility (1/GPa) = 0.04470363
#
# Stress axis : x y z
#
# Youngs Moduli (GPa) = 107.18877 19.50460 57.43156
#
# Poissons Ratio (x) = 0.17827 0.20569
# Poissons Ratio (y) = 0.97967 0.22586
# Poissons Ratio (z) = 0.38390 0.07670
#
# Static dielectric constant tensor:
#      x y z
#    x 3.982550 -0.000010 -0.300710 
#    y -0.000010 3.007010 0.000010 
#    z -0.300710 0.000010 3.861740 
# 
# 
# High freq. dielectric constant tensor:
#      x y z
#    x 1.798460 0.000000 -0.003800 
#    y 0.000000 1.709580 0.000000 
#    z -0.003800 0.000000 1.786410 
# 
# From -- ./inp_files/65874.got.cif
#   From: 2010.03.12/outbox.cif.g09.slc.cpg/sg5_33_cif.got.tgz:65874.got - 2010.03.31 09:47:26.
