data_PCOD8048306
_publ_section_title
;
Structure prediction by ZEFSAII (Michael W. Deem and Ramdas Pophale) SiO2 
 PCOD8048306
Probable space group: C 2
;
_chemical_formula_sum "Si O2"
_cell_formula_units_Z 20
_cell_length_a 5.000895
_cell_length_b 13.078508
_cell_length_c 13.108326
_cell_angle_alpha 90.000000
_cell_angle_beta 95.081173
_cell_angle_gamma 90.000000
_cell_volume 853.971012
_symmetry_space_group_name_H-M "C 2"
_symmetry_group_IT_number 5
_symmetry_cell_setting 'monoclinic'
loop_
_space_group_symop_operation_xyz
x,y,z
-x,y,-z
1/2+x,1/2+y,z
1/2-x,1/2+y,-z
loop_
_atom_site_type_symbol
_atom_site_label
_atom_site_fract_x
_atom_site_fract_y
_atom_site_fract_z
Si Si1 0.748732 0.674070 0.063897
Si Si2 0.971321 0.672234 0.280526
Si Si3 0.096946 0.401022 0.109767
Si Si4 0.609878 0.405108 0.239181
Si Si5 0.012951 0.081859 0.380131
O O1 0.857718 0.620148 0.171064
O O2 0.618083 0.780616 0.093227
O O3 0.500000 0.613891 0.000000
O O4 0.000000 0.694544 0.000000
O O5 0.733049 0.666850 0.355620
O O6 0.053797 0.788819 0.268022
O O7 0.224155 0.607643 0.324882
O O8 0.383456 0.446048 0.152880
O O9 0.893110 0.417969 0.194769
O O10 0.000000 0.455860 0.000000
O O11 0.610789 0.472275 0.341489
O O12 0.000000 0.075823 0.500000
#
# Coordination Sequence:
#
# PCOD8048306 Si02
#       5
#     4   4   4   4   4
#     4  10  18  34  63  98 132 167 204 247 308 381
#     4  11  23  44  68  94 128 167 210 259 318 379
#     4  10  18  35  64  95 129 167 202 246 309 379
#     4  11  23  42  66  93 128 167 208 257 315 377
#     4  12  27  45  65  92 125 164 220 277 317 364
#
# _framework density 23.419996999999999
#
# number of rings (size 3 to 8) (size 9 to 14) (size 15 to 20)
#    0.000    1.200    0.000   10.800    0.000    1.600 
#    0.000   10.000    0.000    0.000    0.000    0.000 
#    0.000    0.000    0.000    0.000    0.000    0.000 
#
# Total GULP energy -124012.744446 kJ/mol
# GULP energy per Si atom -12401.274445 kJ/mol
# Density = 2.336669 g / cm^3
# Si number density = 23.419997 Si / 1000 Ang^3
#
#
#
# Elastic Constant Matrix: (Units=GPa)
#
#
# Indices 1 2 3 4 5 6 
#
# 1 156.6895 21.1653 57.9843 0.0000 -2.4771 0.0000
# 2 21.1653 49.3708 45.9386 0.0000 5.0698 0.0000
# 3 57.9843 45.9386 163.7129 0.0000 -17.3626 0.0000
# 4 0.0000 0.0000 0.0000 28.4050 0.0000 2.7183
# 5 -2.4771 5.0698 -17.3626 0.0000 41.9620 0.0000
# 6 0.0000 0.0000 0.0000 2.7183 0.0000 -8.5618
#
#
#
# Elastic Compliance Matrix: (Units=1/GPa)
#
#
# Indices 1 2 3 4 5 6 
#
# 1 0.007388 -0.000865 -0.002423 0.000000 -0.000462 0.000000
# 2 -0.000865 0.029499 -0.008738 0.000000 -0.007231 0.000000
# 3 -0.002423 -0.008738 0.009952 0.000000 0.005030 0.000000
# 4 0.000000 0.000000 0.000000 0.034167 0.000000 0.010848
# 5 -0.000462 -0.007231 0.005030 0.000000 0.026759 0.000000
# 6 0.000000 0.000000 0.000000 0.010848 0.000000 -0.113353
#
#
# Mechanical properties :
#
#
# Convention : Reuss Voigt Hill
#
# Bulk Modulus (GPa) = 43.88571 68.88329 56.38450
# Shear Modulus (GPa) = 191.87070 28.67336 110.27203
#
# Velocity S-wave (km/s) = 9.06112 3.50281 6.86926
# Velocity P-wave (km/s) = 11.32480 6.77020 9.32970
#
# Compressibility (1/GPa) = 0.02278646
#
# Stress axis : x y z
#
# Youngs Moduli (GPa) = 135.34961 33.89975 100.48456
#
# Poissons Ratio (x) = 0.02934 0.24347
# Poissons Ratio (y) = 0.11714 0.87801
# Poissons Ratio (z) = 0.32794 0.29621
#
# Static dielectric constant tensor:
#      x y z
#    x 4.737820 0.000000 0.424600 
#    y 0.000000 4.054990 0.000000 
#    z 0.424600 0.000000 4.654320 
# 
# 
# High freq. dielectric constant tensor:
#      x y z
#    x 1.953290 0.000000 -0.000260 
#    y 0.000000 1.920540 0.000000 
#    z -0.000260 0.000000 1.919400 
# 
# From -- ./inp_files/33246.got.cif
#   From: 2010.03.12/outbox.cif.g09.slc.cpg/sg5_17_cif.got.tgz:33246.got - 2010.03.31 09:47:26.
