data_PCOD8048237
_publ_section_title
;
Structure prediction by ZEFSAII (Michael W. Deem and Ramdas Pophale) SiO2 
 PCOD8048237
Probable space group: C 2
;
_chemical_formula_sum "Si O2"
_cell_formula_units_Z 26
_cell_length_a 11.308804
_cell_length_b 25.087204
_cell_length_c 10.514035
_cell_angle_alpha 90.000000
_cell_angle_beta 26.364084
_cell_angle_gamma 90.000000
_cell_volume 1324.626151
_symmetry_space_group_name_H-M "C 2"
_symmetry_group_IT_number 5
_symmetry_cell_setting 'monoclinic'
loop_
_space_group_symop_operation_xyz
x,y,z
-x,y,-z
1/2+x,1/2+y,z
1/2-x,1/2+y,-z
loop_
_atom_site_type_symbol
_atom_site_label
_atom_site_fract_x
_atom_site_fract_y
_atom_site_fract_z
Si Si1 0.980004 0.004680 0.869925
Si Si2 0.901267 0.120257 0.238637
Si Si3 0.621263 0.185680 0.222202
Si Si4 0.491465 0.268625 0.150875
Si Si5 0.500000 0.761674 0.000000
Si Si6 0.524487 0.939091 0.627414
Si Si7 0.980598 0.324156 0.275419
O O1 0.061947 0.062228 0.731193
O O2 0.184560 0.961042 0.620867
O O3 0.000000 0.010539 0.000000
O O4 0.684043 0.984080 0.123987
O O5 0.595356 0.140824 0.527668
O O6 0.000000 0.116907 0.000000
O O7 0.115906 0.159885 0.098356
O O8 0.460051 0.218471 0.273164
O O9 0.740683 0.223840 0.221263
O O10 0.250988 0.309157 0.403642
O O11 0.500000 0.246944 0.000000
O O12 0.754022 0.300401 0.926277
O O13 0.577669 0.800327 0.808507
O O14 0.500000 0.925803 0.500000
O O15 0.487752 0.887744 0.752417
#
# Coordination Sequence:
#
# PCOD8048237 Si02
#       7
#     4   4   4   4   2   4   4
#     4   9  19  33  50  80 110 134 182 238 282 338
#     4  11  21  32  55  82 113 148 182 229 301 340
#     4  11  22  35  55  81 116 155 179 236 279 339
#     4  11  23  38  54  82 113 149 195 227 272 340
#     4  10  24  40  54  90 124 148 200 220 280 354
#     4  10  18  33  54  78 108 143 183 231 283 326
#     4  11  23  36  60  81 116 156 182 233 280 333
#
# _framework density 19.628181000000001
#
# number of rings (size 3 to 8) (size 9 to 14) (size 15 to 20)
#    0.000    1.538    0.769    5.538    2.154    5.538 
#    0.000    0.000    0.000    0.000   12.000    0.000 
#    0.000    0.000    0.000    0.000    0.000    0.000 
#
# Total GULP energy -161117.828541 kJ/mol
# GULP energy per Si atom -12393.679119 kJ/mol
# Density = 1.958351 g / cm^3
# Si number density = 19.628181 Si / 1000 Ang^3
#
#
#
# Elastic Constant Matrix: (Units=GPa)
#
#
# Indices 1 2 3 4 5 6 
#
# 1 80.4822 33.8391 23.1781 0.0000 -1.5500 0.0000
# 2 33.8391 132.7579 37.5924 -0.0001 -0.3606 0.0000
# 3 23.1781 37.5924 123.0310 0.0003 -12.8025 0.0002
# 4 0.0000 -0.0001 0.0003 25.1075 -0.0003 0.7703
# 5 -1.5500 -0.3606 -12.8025 -0.0003 20.0918 0.0000
# 6 0.0000 0.0000 0.0002 0.7703 0.0000 17.5361
#
#
#
# Elastic Compliance Matrix: (Units=1/GPa)
#
#
# Indices 1 2 3 4 5 6 
#
# 1 0.014243 -0.003141 -0.001730 0.000000 -0.000060 0.000000
# 2 -0.003141 0.008984 -0.002316 0.000000 -0.001556 0.000000
# 3 -0.001730 -0.002316 0.009793 0.000000 0.006065 0.000000
# 4 0.000000 0.000000 0.000000 0.039883 0.000000 -0.001752
# 5 -0.000060 -0.001556 0.006065 0.000000 0.053603 0.000000
# 6 0.000000 0.000000 0.000000 -0.001752 0.000000 0.057102
#
#
# Mechanical properties :
#
#
# Convention : Reuss Voigt Hill
#
# Bulk Modulus (GPa) = 53.62604 58.38779 56.00691
# Shear Modulus (GPa) = 24.48632 28.65784 26.57208
#
# Velocity S-wave (km/s) = 3.53584 3.82519 3.68336
# Velocity P-wave (km/s) = 6.63700 7.02288 6.83267
#
# Compressibility (1/GPa) = 0.01864766
#
# Stress axis : x y z
#
# Youngs Moduli (GPa) = 70.21176 111.30286 102.11881
#
# Poissons Ratio (x) = 0.34957 0.17664
# Poissons Ratio (y) = 0.22051 0.23646
# Poissons Ratio (z) = 0.12145 0.25772
#
# Static dielectric constant tensor:
#      x y z
#    x 3.422890 0.000000 -0.207370 
#    y 0.000000 4.014330 0.000000 
#    z -0.207370 0.000000 3.900640 
# 
# 
# High freq. dielectric constant tensor:
#      x y z
#    x 1.709070 0.000000 -0.022110 
#    y 0.000000 1.774090 0.000000 
#    z -0.022110 0.000000 1.786260 
# 
# From -- ./inp_files/40834.got.cif
#   From: 2010.03.12/outbox.cif.g09.slc.cpg/sg5_21_cif.got.tgz:40834.got - 2010.03.31 09:47:26.
