data_PCOD8048435
_publ_section_title
;
Structure prediction by ZEFSAII (Michael W. Deem and Ramdas Pophale) SiO2 
 PCOD8048435
Probable space group: C 2
;
_chemical_formula_sum "Si O2"
_cell_formula_units_Z 30
_cell_length_a 12.523147
_cell_length_b 12.830180
_cell_length_c 10.820498
_cell_angle_alpha 90.000000
_cell_angle_beta 127.765259
_cell_angle_gamma 90.000000
_cell_volume 1374.389757
_symmetry_space_group_name_H-M "C 2"
_symmetry_group_IT_number 5
_symmetry_cell_setting 'monoclinic'
loop_
_space_group_symop_operation_xyz
x,y,z
-x,y,-z
1/2+x,1/2+y,z
1/2-x,1/2+y,-z
loop_
_atom_site_type_symbol
_atom_site_label
_atom_site_fract_x
_atom_site_fract_y
_atom_site_fract_z
Si Si1 0.934152 0.978780 0.329112
Si Si2 0.737445 0.840410 0.052432
Si Si3 0.000000 0.475620 0.000000
Si Si4 0.159632 0.134910 0.126358
Si Si5 0.301299 0.040259 0.681726
Si Si6 0.823585 0.428428 0.243457
Si Si7 0.622996 0.881889 0.450554
Si Si8 0.861033 0.154750 0.610017
O O1 0.882133 0.887643 0.200198
O O2 0.000000 0.929275 0.500000
O O3 0.808388 0.047328 0.287071
O O4 0.033947 0.059101 0.329940
O O5 0.618956 0.902839 0.036275
O O6 0.719638 0.720341 0.075869
O O7 0.723585 0.845701 0.894063
O O8 0.052356 0.548430 0.149373
O O9 0.188920 0.169126 0.286657
O O10 0.240836 0.031350 0.151621
O O11 0.000000 0.117160 0.000000
O O12 0.274773 0.133064 0.566210
O O13 0.287199 0.929990 0.596219
O O14 0.792654 0.389150 0.361286
O O15 0.984593 0.448685 0.353575
O O16 0.577454 0.763302 0.393134
#
# Coordination Sequence:
#
# PCOD8048435 Si02
#       8
#     4   4   2   4   4   4   4   4
#     4   9  21  37  64 103 130 167 221 281 318 392
#     4  11  21  42  66  95 131 172 222 271 332 397
#     4  10  18  38  66  94 126 170 212 270 314 388
#     4  12  24  43  71  97 130 178 225 272 343 406
#     4  10  20  39  65  97 134 170 225 273 322 402
#     4  11  25  41  67  99 136 171 222 287 326 404
#     4  11  23  44  67  94 138 177 223 270 338 406
#     4  11  22  42  70  98 129 183 222 270 342 401
#
# _framework density 21.827870000000001
#
# number of rings (size 3 to 8) (size 9 to 14) (size 15 to 20)
#    0.000    1.333    3.333    3.200    5.600    0.000 
#    4.800    1.333    1.467    0.000    0.000    0.000 
#    0.000    0.000    0.000    0.000    0.000    0.000 
#
# Total GULP energy -185924.232454 kJ/mol
# GULP energy per Si atom -12394.948830 kJ/mol
# Density = 2.177819 g / cm^3
# Si number density = 21.827870 Si / 1000 Ang^3
#
#
#
# Elastic Constant Matrix: (Units=GPa)
#
#
# Indices 1 2 3 4 5 6 
#
# 1 54.9389 46.0979 31.9251 0.0000 -11.2988 0.0000
# 2 46.0979 112.8332 56.0204 0.0000 6.3153 0.0000
# 3 31.9251 56.0204 156.9235 0.0000 -23.1715 0.0000
# 4 0.0000 0.0000 0.0000 32.8312 0.0000 -3.1071
# 5 -11.2988 6.3153 -23.1715 0.0000 34.4506 0.0000
# 6 0.0000 0.0000 0.0000 -3.1071 0.0000 30.3198
#
#
#
# Elastic Compliance Matrix: (Units=1/GPa)
#
#
# Indices 1 2 3 4 5 6 
#
# 1 0.032861 -0.014446 0.000504 0.000000 0.013765 0.000000
# 2 -0.014446 0.017982 -0.005181 0.000000 -0.011519 0.000000
# 3 0.000504 -0.005181 0.009198 0.000000 0.007302 0.000000
# 4 0.000000 0.000000 0.000000 0.030757 0.000000 0.003152
# 5 0.013765 -0.011519 0.007302 0.000000 0.040564 0.000000
# 6 0.000000 0.000000 0.000000 0.003152 0.000000 0.033305
#
#
# Mechanical properties :
#
#
# Convention : Reuss Voigt Hill
#
# Bulk Modulus (GPa) = 45.88320 65.86470 55.87395
# Shear Modulus (GPa) = 23.78930 32.23048 28.00989
#
# Velocity S-wave (km/s) = 3.30488 3.84679 3.58609
# Velocity P-wave (km/s) = 5.96901 7.06898 6.54216
#
# Compressibility (1/GPa) = 0.02179447
#
# Stress axis : x y z
#
# Youngs Moduli (GPa) = 30.43081 55.61168 108.72187
#
# Poissons Ratio (x) = 0.80338 -0.05483
# Poissons Ratio (y) = 0.43961 0.56332
# Poissons Ratio (z) = -0.01535 0.28814
#
# Static dielectric constant tensor:
#      x y z
#    x 3.860650 0.000000 -0.079000 
#    y 0.000000 3.655900 0.000000 
#    z -0.079000 0.000000 4.597210 
# 
# 
# High freq. dielectric constant tensor:
#      x y z
#    x 1.844940 0.000000 -0.012000 
#    y 0.000000 1.825780 0.000000 
#    z -0.012000 0.000000 1.884970 
# 
# From -- ./inp_files/42702.got.cif
#   From: 2010.03.12/outbox.cif.g09.slc.cpg/sg5_22_cif.got.tgz:42702.got - 2010.03.31 09:47:26.
