data_PCOD8048216
_publ_section_title
;
Structure prediction by ZEFSAII (Michael W. Deem and Ramdas Pophale) SiO2 
 PCOD8048216
Probable space group: C 2
;
_chemical_formula_sum "Si O2"
_cell_formula_units_Z 20
_cell_length_a 23.622794
_cell_length_b 5.148513
_cell_length_c 10.230586
_cell_angle_alpha 90.000000
_cell_angle_beta 73.297718
_cell_angle_gamma 90.000000
_cell_volume 1191.772691
_symmetry_space_group_name_H-M "C 2"
_symmetry_group_IT_number 5
_symmetry_cell_setting 'monoclinic'
loop_
_space_group_symop_operation_xyz
x,y,z
-x,y,-z
1/2+x,1/2+y,z
1/2-x,1/2+y,-z
loop_
_atom_site_type_symbol
_atom_site_label
_atom_site_fract_x
_atom_site_fract_y
_atom_site_fract_z
Si Si1 0.549143 0.716150 0.356543
Si Si2 0.970842 0.216467 0.158456
Si Si3 0.592736 0.218883 0.713962
Si Si4 0.893606 0.716248 0.584401
Si Si5 0.711466 0.156569 0.516838
O O1 0.500000 0.707943 0.500000
O O2 0.521862 0.694210 0.231753
O O3 0.594659 0.480722 0.346420
O O4 0.586663 0.979217 0.338388
O O5 0.938315 0.492510 0.183939
O O6 0.922105 0.994429 0.212548
O O7 0.000000 0.176315 0.000000
O O8 0.569668 0.209404 0.577944
O O9 0.664059 0.184391 0.667027
O O10 0.823596 0.696089 0.597203
O O11 0.762636 0.367580 0.497231
#
# Coordination Sequence:
#
# PCOD8048216 Si02
#       5
#     4   4   4   4   4
#     4  12  17  33  51  74 106 140 166 219 254 304
#     4  12  23  34  51  78 112 150 171 198 257 322
#     4  10  20  35  50  79 109 130 183 211 254 313
#     4  10  20  29  53  78 102 129 174 208 272 297
#     4  10  18  32  53  81 106 127 168 232 277 290
#
# _framework density 16.781721999999998
#
# number of rings (size 3 to 8) (size 9 to 14) (size 15 to 20)
#    1.200    0.000    4.000    4.800    0.000    0.000 
#    0.000    0.000    0.000    0.000    0.000   28.000 
#    0.000    0.000    0.000    0.000    0.000    0.000 
#
# Total GULP energy -123983.683832 kJ/mol
# GULP energy per Si atom -12398.368383 kJ/mol
# Density = 1.674353 g / cm^3
# Si number density = 16.781722 Si / 1000 Ang^3
#
#
#
# Elastic Constant Matrix: (Units=GPa)
#
#
# Indices 1 2 3 4 5 6 
#
# 1 74.5115 8.7094 24.0180 0.0000 0.4442 0.0000
# 2 8.7094 85.0273 5.9691 0.0000 -0.0483 0.0000
# 3 24.0180 5.9691 72.8744 0.0000 9.6675 0.0000
# 4 0.0000 0.0000 0.0000 16.6548 0.0000 -9.9977
# 5 0.4442 -0.0483 9.6675 0.0000 18.1220 0.0000
# 6 0.0000 0.0000 0.0000 -9.9977 0.0000 37.2863
#
#
#
# Elastic Compliance Matrix: (Units=1/GPa)
#
#
# Indices 1 2 3 4 5 6 
#
# 1 0.015236 -0.001191 -0.005245 0.000000 0.002422 0.000000
# 2 -0.001191 0.011928 -0.000638 0.000000 0.000401 0.000000
# 3 -0.005245 -0.000638 0.016666 0.000000 -0.008764 0.000000
# 4 0.000000 0.000000 0.000000 0.071561 0.000000 0.019188
# 5 0.002422 0.000401 -0.008764 0.000000 0.059798 0.000000
# 6 0.000000 0.000000 0.000000 0.019188 0.000000 0.031964
#
#
# Mechanical properties :
#
#
# Convention : Reuss Voigt Hill
#
# Bulk Modulus (GPa) = 33.69042 34.42290 34.05666
# Shear Modulus (GPa) = 21.62667 27.32708 24.47688
#
# Velocity S-wave (km/s) = 3.59375 4.03970 3.82323
# Velocity P-wave (km/s) = 6.11059 6.50504 6.31090
#
# Compressibility (1/GPa) = 0.02968203
#
# Stress axis : x y z
#
# Youngs Moduli (GPa) = 65.63279 83.83694 60.00301
#
# Poissons Ratio (x) = 0.09985 0.31473
# Poissons Ratio (y) = 0.07817 0.03826
# Poissons Ratio (z) = 0.34426 0.05346
#
# Static dielectric constant tensor:
#      x y z
#    x 3.128990 0.000000 0.051750 
#    y 0.000000 3.246330 0.000000 
#    z 0.051750 0.000000 2.789850 
# 
# 
# High freq. dielectric constant tensor:
#      x y z
#    x 1.641600 0.000000 -0.000910 
#    y 0.000000 1.672250 0.000000 
#    z -0.000910 0.000000 1.599720 
# 
# From -- ./inp_files/46687.got.cif
#   From: 2010.03.12/outbox.cif.g09.slc.cpg/sg5_24_cif.got.tgz:46687.got - 2010.03.31 09:47:26.
