data_PCOD8048922
_publ_section_title
;
Structure prediction by ZEFSAII (Michael W. Deem and Ramdas Pophale) SiO2 
 PCOD8048922
Probable space group: C 2
;
_chemical_formula_sum "Si O2"
_cell_formula_units_Z 24
_cell_length_a 14.993861
_cell_length_b 9.350400
_cell_length_c 7.645982
_cell_angle_alpha 90.000000
_cell_angle_beta 114.859130
_cell_angle_gamma 90.000000
_cell_volume 972.632928
_symmetry_space_group_name_H-M "C 2"
_symmetry_group_IT_number 5
_symmetry_cell_setting 'monoclinic'
loop_
_space_group_symop_operation_xyz
x,y,z
-x,y,-z
1/2+x,1/2+y,z
1/2-x,1/2+y,-z
loop_
_atom_site_type_symbol
_atom_site_label
_atom_site_fract_x
_atom_site_fract_y
_atom_site_fract_z
Si Si1 0.388832 0.445510 0.182389
Si Si2 0.370574 0.756522 0.099139
Si Si3 0.880704 0.975518 0.568435
Si Si4 0.070403 0.286521 0.395615
Si Si5 0.110867 0.487389 0.153918
Si Si6 0.703724 0.288425 0.199862
O O1 0.340857 0.589350 0.055315
O O2 0.354150 0.416776 0.353479
O O3 0.506557 0.451772 0.285703
O O4 0.355512 0.318192 0.028834
O O5 0.487737 0.757219 0.178874
O O6 0.321301 0.802770 0.249380
O O7 0.333170 0.870346 0.924249
O O8 0.859477 0.146985 0.541550
O O9 0.814585 0.896825 0.657359
O O10 0.122402 0.427453 0.362313
O O11 0.000000 0.314070 0.500000
O O12 0.175471 0.628114 0.223339
O O13 0.000000 0.525028 0.000000
#
# Coordination Sequence:
#
# PCOD8048922 Si02
#       6
#     4   4   4   4   4   4
#     4  10  20  41  65  86 122 168 211 245 292 374
#     4  10  21  41  61  87 123 160 207 245 303 367
#     4  10  20  40  68  91 113 167 219 244 291 368
#     4  10  19  43  64  85 113 165 217 245 283 375
#     4  10  22  38  61  88 121 163 198 245 311 363
#     4  12  23  39  59  99 131 153 193 266 320 352
#
# _framework density 24.67529
#
# number of rings (size 3 to 8) (size 9 to 14) (size 15 to 20)
#    0.000    1.667    3.333    3.500    0.000    2.667 
#   15.000    0.000    0.000    0.000    0.000    0.000 
#    0.000    0.000    0.000    0.000    0.000    0.000 
#
# Total GULP energy -148667.779730 kJ/mol
# GULP energy per Si atom -12388.981644 kJ/mol
# Density = 2.461913 g / cm^3
# Si number density = 24.675290 Si / 1000 Ang^3
#
#
#
# Elastic Constant Matrix: (Units=GPa)
#
#
# Indices 1 2 3 4 5 6 
#
# 1 85.8019 52.8010 35.4560 0.0000 -11.0534 0.0000
# 2 52.8010 138.1921 66.2995 0.0000 -27.7558 0.0000
# 3 35.4560 66.2995 94.6419 0.0000 -17.7526 0.0000
# 4 0.0000 0.0000 0.0000 18.1526 0.0000 -20.6865
# 5 -11.0534 -27.7558 -17.7526 0.0000 41.7164 0.0000
# 6 0.0000 0.0000 0.0000 -20.6865 0.0000 28.5267
#
#
#
# Elastic Compliance Matrix: (Units=1/GPa)
#
#
# Indices 1 2 3 4 5 6 
#
# 1 0.015626 -0.004782 -0.002526 0.000000 -0.000116 0.000000
# 2 -0.004782 0.013141 -0.006533 0.000000 0.004696 0.000000
# 3 -0.002526 -0.006533 0.016462 0.000000 0.001989 0.000000
# 4 0.000000 0.000000 0.000000 0.317315 0.000000 0.230105
# 5 -0.000116 0.004696 0.001989 0.000000 0.027912 0.000000
# 6 0.000000 0.000000 0.000000 0.230105 0.000000 0.201919
#
#
# Mechanical properties :
#
#
# Convention : Reuss Voigt Hill
#
# Bulk Modulus (GPa) = 56.98940 69.74988 63.36964
# Shear Modulus (GPa) = 7.98841 28.61775 18.30308
#
# Velocity S-wave (km/s) = 1.80123 3.40924 2.72648
# Velocity P-wave (km/s) = 5.24135 6.62010 5.97066
#
# Compressibility (1/GPa) = 0.01754712
#
# Stress axis : x y z
#
# Youngs Moduli (GPa) = 63.99428 76.09716 60.74427
#
# Poissons Ratio (x) = 0.36390 0.15344
# Poissons Ratio (y) = 0.30602 0.39686
# Poissons Ratio (z) = 0.16165 0.49717
#
# Static dielectric constant tensor:
#      x y z
#    x 4.791560 0.000000 0.132110 
#    y 0.000000 4.435390 0.000000 
#    z 0.132110 0.000000 4.855100 
# 
# 
# High freq. dielectric constant tensor:
#      x y z
#    x 1.996600 0.000000 0.000390 
#    y 0.000000 1.966400 0.000000 
#    z 0.000390 0.000000 1.992980 
# 
# From -- ./inp_files/22914.got.cif
#   From: 2010.03.12/outbox.cif.g09.slc.cpg/sg5_12_cif.got.tgz:22914.got - 2010.03.31 09:47:26.
