data_PCOD8048207
_publ_section_title
;
Structure prediction by ZEFSAII (Michael W. Deem and Ramdas Pophale) SiO2 
 PCOD8048207
Probable space group: C 2
;
_chemical_formula_sum "Si O2"
_cell_formula_units_Z 30
_cell_length_a 11.582691
_cell_length_b 19.489783
_cell_length_c 13.918587
_cell_angle_alpha 90.000000
_cell_angle_beta 146.321441
_cell_angle_gamma 90.000000
_cell_volume 1742.364701
_symmetry_space_group_name_H-M "C 2"
_symmetry_group_IT_number 5
_symmetry_cell_setting 'monoclinic'
loop_
_space_group_symop_operation_xyz
x,y,z
-x,y,-z
1/2+x,1/2+y,z
1/2-x,1/2+y,-z
loop_
_atom_site_type_symbol
_atom_site_label
_atom_site_fract_x
_atom_site_fract_y
_atom_site_fract_z
Si Si1 0.691329 0.442860 0.191335
Si Si2 0.986076 0.526691 0.693043
Si Si3 0.564787 0.178684 0.696092
Si Si4 0.791758 0.707605 0.999990
Si Si5 0.899997 0.026691 0.693019
Si Si6 0.133150 0.552247 0.000012
Si Si7 0.327387 0.678683 0.696075
Si Si8 0.000000 0.811282 0.000000
O O1 0.906529 0.465366 0.291467
O O2 0.676389 0.465364 0.291468
O O3 0.671208 0.359923 0.171215
O O4 0.500000 0.477945 0.000000
O O5 0.088113 0.597358 0.727552
O O6 0.019603 0.518460 0.829799
O O7 0.739337 0.524952 0.500018
O O8 0.614714 0.218117 0.828883
O O9 0.731134 0.201359 0.731129
O O10 0.331313 0.197552 0.500011
O O11 0.853598 0.634104 1.000000
O O12 0.886444 0.765966 0.999995
O O13 0.543035 0.718114 0.828851
O O14 0.866982 0.097357 0.727536
O O15 0.139969 0.018468 0.829751
O O16 0.000000 0.531862 0.000000
#
# Coordination Sequence:
#
# PCOD8048207 Si02
#       8
#     4   4   4   4   4   4   4   2
#     4  10  19  33  56  75 103 132 174 223 254 298
#     4  10  18  31  53  81 105 127 165 219 274 310
#     4   9  17  29  52  82 104 123 161 218 273 313
#     4  10  19  33  48  68 107 147 171 201 246 300
#     4  10  18  31  53  81 105 127 165 219 274 310
#     4  10  19  31  50  75 108 142 164 204 257 321
#     4   9  17  29  52  82 104 123 161 218 273 313
#     4  10  22  36  50  72 106 152 186 196 232 314
#
# _framework density 17.217981000000002
#
# number of rings (size 3 to 8) (size 9 to 14) (size 15 to 20)
#    0.400    1.867    3.333    0.800    0.000    0.533 
#    0.000    3.333    0.000    6.400    0.000    0.000 
#    0.000    0.000    0.000    0.000    0.000    0.000 
#
# Total GULP energy -185978.906899 kJ/mol
# GULP energy per Si atom -12398.593793 kJ/mol
# Density = 1.717879 g / cm^3
# Si number density = 17.217981 Si / 1000 Ang^3
#
#
#
# Elastic Constant Matrix: (Units=GPa)
#
#
# Indices 1 2 3 4 5 6 
#
# 1 143.6491 48.0861 78.0907 -0.0001 2.9034 -0.0001
# 2 48.0861 70.6808 34.7786 0.0000 0.8614 0.0000
# 3 78.0907 34.7786 138.2194 -0.0003 -2.5079 -0.0002
# 4 -0.0001 0.0000 -0.0003 17.5038 -0.0001 0.3474
# 5 2.9034 0.8614 -2.5079 -0.0001 10.6880 -0.0001
# 6 -0.0001 0.0000 -0.0002 0.3474 -0.0001 22.9152
#
#
#
# Elastic Compliance Matrix: (Units=1/GPa)
#
#
# Indices 1 2 3 4 5 6 
#
# 1 0.011733 -0.005291 -0.005371 0.000000 -0.004021 0.000000
# 2 -0.005291 0.018588 -0.001696 0.000000 -0.000459 0.000000
# 3 -0.005371 -0.001696 0.010771 0.000000 0.004123 0.000000
# 4 0.000000 0.000000 0.000000 0.057148 0.000000 -0.000866
# 5 -0.004021 -0.000459 0.004123 0.000000 0.095659 0.000000
# 6 0.000000 0.000000 0.000000 -0.000866 0.000000 0.043652
#
#
# Mechanical properties :
#
#
# Convention : Reuss Voigt Hill
#
# Bulk Modulus (GPa) = 61.06325 74.93999 68.00162
# Shear Modulus (GPa) = 18.67583 22.99434 20.83508
#
# Velocity S-wave (km/s) = 3.29701 3.65839 3.48239
# Velocity P-wave (km/s) = 7.07358 7.83989 7.46657
#
# Compressibility (1/GPa) = 0.01637646
#
# Stress axis : x y z
#
# Youngs Moduli (GPa) = 85.22624 53.79870 92.84318
#
# Poissons Ratio (x) = 0.28464 0.49864
# Poissons Ratio (y) = 0.45092 0.15748
# Poissons Ratio (z) = 0.45773 0.09125
#
# Static dielectric constant tensor:
#      x y z
#    x 3.068440 0.000000 -0.021310 
#    y 0.000000 2.778020 0.000000 
#    z -0.021310 0.000000 3.401040 
# 
# 
# High freq. dielectric constant tensor:
#      x y z
#    x 1.657940 0.000000 -0.001220 
#    y 0.000000 1.616850 0.000000 
#    z -0.001220 0.000000 1.677030 
# 
# From -- ./inp_files/53390.got.cif
#   From: 2010.03.12/outbox.cif.g09.slc.cpg/sg5_27_cif.got.tgz:53390.got - 2010.03.31 09:47:26.
