data_PCOD8048275
_publ_section_title
;
Structure prediction by ZEFSAII (Michael W. Deem and Ramdas Pophale) SiO2 
 PCOD8048275
Probable space group: C 2
;
_chemical_formula_sum "Si O2"
_cell_formula_units_Z 22
_cell_length_a 9.069387
_cell_length_b 10.842411
_cell_length_c 10.472232
_cell_angle_alpha 90.000000
_cell_angle_beta 71.883834
_cell_angle_gamma 90.000000
_cell_volume 978.728633
_symmetry_space_group_name_H-M "C 2"
_symmetry_group_IT_number 5
_symmetry_cell_setting 'monoclinic'
loop_
_space_group_symop_operation_xyz
x,y,z
-x,y,-z
1/2+x,1/2+y,z
1/2-x,1/2+y,-z
loop_
_atom_site_type_symbol
_atom_site_label
_atom_site_fract_x
_atom_site_fract_y
_atom_site_fract_z
Si Si1 0.656506 0.867720 0.261645
Si Si2 0.675272 0.806635 0.715851
Si Si3 0.111696 0.066504 0.851934
Si Si4 0.682190 0.237448 0.581298
Si Si5 0.540250 0.466428 0.352622
Si Si6 0.000000 0.532957 0.500000
O O1 0.506095 0.842316 0.217116
O O2 0.729486 0.741523 0.304164
O O3 0.780718 0.947408 0.146670
O O4 0.626338 0.951325 0.394517
O O5 0.711012 0.692629 0.803045
O O6 0.697455 0.762793 0.564749
O O7 0.779490 0.927410 0.715257
O O8 0.010114 0.051586 0.750620
O O9 0.000000 0.086382 0.000000
O O10 0.547838 0.337465 0.620812
O O11 0.595695 0.108478 0.580841
O O12 0.500000 0.533972 0.500000
#
# Coordination Sequence:
#
# PCOD8048275 Si02
#       6
#     4   4   4   4   4   2
#     4  11  23  36  60  93 122 159 206 253 307 360
#     4  11  20  38  60  90 117 158 207 252 297 360
#     4  11  25  42  60  87 128 170 199 244 310 372
#     4  10  18  34  57  93 125 154 191 255 312 353
#     4   9  20  39  64  92 122 158 201 258 307 353
#     4  12  18  34  60  86 130 154 196 260 314 350
#
# _framework density 22.478141000000001
#
# number of rings (size 3 to 8) (size 9 to 14) (size 15 to 20)
#    0.000    1.455    6.364    0.000    0.000    4.364 
#    0.000    0.000    0.000    0.000    0.000    0.000 
#    0.000    0.000    0.000    0.000    0.000    0.000 
#
# Total GULP energy -136364.331563 kJ/mol
# GULP energy per Si atom -12396.757415 kJ/mol
# Density = 2.242698 g / cm^3
# Si number density = 22.478141 Si / 1000 Ang^3
#
#
#
# Elastic Constant Matrix: (Units=GPa)
#
#
# Indices 1 2 3 4 5 6 
#
# 1 104.6338 13.3637 8.6193 0.0000 -2.7827 0.0000
# 2 13.3637 51.1732 19.7665 0.0000 1.3628 0.0000
# 3 8.6193 19.7665 79.3231 0.0000 -5.1278 0.0000
# 4 0.0000 0.0000 0.0000 23.9280 0.0000 -4.2778
# 5 -2.7827 1.3628 -5.1278 0.0000 22.1410 0.0000
# 6 0.0000 0.0000 0.0000 -4.2778 0.0000 20.2135
#
#
#
# Elastic Compliance Matrix: (Units=1/GPa)
#
#
# Indices 1 2 3 4 5 6 
#
# 1 0.009941 -0.002486 -0.000376 0.000000 0.001315 0.000000
# 2 -0.002486 0.022395 -0.005502 0.000000 -0.002965 0.000000
# 3 -0.000376 -0.005502 0.014251 0.000000 0.003592 0.000000
# 4 0.000000 0.000000 0.000000 0.043435 0.000000 0.009192
# 5 0.001315 -0.002965 0.003592 0.000000 0.046345 0.000000
# 6 0.000000 0.000000 0.000000 0.009192 0.000000 0.051417
#
#
# Mechanical properties :
#
#
# Convention : Reuss Voigt Hill
#
# Bulk Modulus (GPa) = 33.49086 35.40322 34.44704
# Shear Modulus (GPa) = 23.31393 26.14854 24.73123
#
# Velocity S-wave (km/s) = 3.22403 3.41440 3.32058
# Velocity P-wave (km/s) = 5.36570 5.59718 5.48266
#
# Compressibility (1/GPa) = 0.02985889
#
# Stress axis : x y z
#
# Youngs Moduli (GPa) = 100.59795 44.65297 70.17163
#
# Poissons Ratio (x) = 0.11100 0.02636
# Poissons Ratio (y) = 0.25007 0.38610
# Poissons Ratio (z) = 0.03779 0.24569
#
# Static dielectric constant tensor:
#      x y z
#    x 4.300430 0.000000 -0.014930 
#    y 0.000000 4.116780 0.000000 
#    z -0.014930 0.000000 3.700600 
# 
# 
# High freq. dielectric constant tensor:
#      x y z
#    x 1.895180 0.000000 -0.015910 
#    y 0.000000 1.889800 0.000000 
#    z -0.015910 0.000000 1.831800 
# 
# From -- ./inp_files/35166.got.cif
#   From: 2010.03.12/outbox.cif.g09.slc.cpg/sg5_18_cif.got.tgz:35166.got - 2010.03.31 09:47:26.
