data_PCOD8048144
_publ_section_title
;
Structure prediction by ZEFSAII (Michael W. Deem and Ramdas Pophale) SiO2 
 PCOD8048144
Probable space group: C 2
;
_chemical_formula_sum "Si O2"
_cell_formula_units_Z 26
_cell_length_a 14.285487
_cell_length_b 12.120319
_cell_length_c 22.907102
_cell_angle_alpha 90.000000
_cell_angle_beta 20.880729
_cell_angle_gamma 90.000000
_cell_volume 1413.663047
_symmetry_space_group_name_H-M "C 2"
_symmetry_group_IT_number 5
_symmetry_cell_setting 'monoclinic'
loop_
_space_group_symop_operation_xyz
x,y,z
-x,y,-z
1/2+x,1/2+y,z
1/2-x,1/2+y,-z
loop_
_atom_site_type_symbol
_atom_site_label
_atom_site_fract_x
_atom_site_fract_y
_atom_site_fract_z
Si Si1 0.855869 0.576060 0.697929
Si Si2 0.937980 0.800511 0.468113
Si Si3 0.936654 0.994871 0.387586
Si Si4 0.453212 0.736749 0.392151
Si Si5 0.268804 0.876108 0.680554
Si Si6 0.500000 0.658045 0.000000
Si Si7 0.473229 0.308302 0.750210
O O1 0.738135 0.505656 0.712659
O O2 0.887059 0.702821 0.660774
O O3 0.124459 0.515444 0.561352
O O4 0.637647 0.574759 0.875070
O O5 0.010224 0.920801 0.400993
O O6 0.637711 0.776917 0.620115
O O7 0.000000 0.802684 0.500000
O O8 0.049875 0.930217 0.265354
O O9 0.071304 0.113536 0.318235
O O10 0.679540 0.811985 0.288440
O O11 0.194741 0.740184 0.584894
O O12 0.500000 0.857780 0.500000
O O13 0.019860 0.826753 0.792152
O O14 0.289244 0.738782 0.094123
#
# Coordination Sequence:
#
# PCOD8048144 Si02
#       7
#     4   4   4   4   4   2   4
#     4  11  20  36  59  84 117 158 187 238 284 355
#     4  10  19  30  53  91 114 140 193 248 277 320
#     4  10  17  36  53  91 112 147 197 240 278 330
#     4   9  18  33  56  86 109 142 197 242 271 323
#     4  10  18  35  61  86 110 151 206 234 273 342
#     4  12  22  40  56  84 132 148 184 236 312 346
#     4  10  20  35  60  85 115 155 191 236 286 354
#
# _framework density 18.391936000000001
#
# number of rings (size 3 to 8) (size 9 to 14) (size 15 to 20)
#    0.000    1.846    9.231    0.462    2.154    1.846 
#    0.000    3.077    0.000    0.923    0.000    0.000 
#    0.000    0.000    0.000    0.000    0.000    0.000 
#
# Total GULP energy -161045.463639 kJ/mol
# GULP energy per Si atom -12388.112588 kJ/mol
# Density = 1.835008 g / cm^3
# Si number density = 18.391936 Si / 1000 Ang^3
#
#
#
# Elastic Constant Matrix: (Units=GPa)
#
#
# Indices 1 2 3 4 5 6 
#
# 1 146.1765 38.5946 13.1921 -1.0704 2.1611 0.0941
# 2 38.5946 100.2379 -7.8320 -0.4533 -1.4088 0.2376
# 3 13.1921 -7.8320 29.5235 -1.8745 -2.4660 0.4691
# 4 -1.0704 -0.4533 -1.8745 19.7274 1.4476 -0.7949
# 5 2.1611 -1.4088 -2.4660 1.4476 9.9619 0.0506
# 6 0.0941 0.2376 0.4691 -0.7949 0.0506 26.6335
#
#
#
# Elastic Compliance Matrix: (Units=1/GPa)
#
#
# Indices 1 2 3 4 5 6 
#
# 1 0.008302 -0.003634 -0.004963 0.000161 -0.003568 0.000102
# 2 -0.003634 0.011827 0.005089 0.000281 0.003681 -0.000181
# 3 -0.004963 0.005089 0.038534 0.002680 0.010949 -0.000647
# 4 0.000161 0.000281 0.002680 0.051522 -0.006827 0.001500
# 5 -0.003568 0.003681 0.010949 -0.006827 0.105382 -0.000617
# 6 0.000102 -0.000181 -0.000647 0.001500 -0.000617 0.037605
#
#
# Mechanical properties :
#
#
# Convention : Reuss Voigt Hill
#
# Bulk Modulus (GPa) = 19.36215 40.42748 29.89482
# Shear Modulus (GPa) = 18.02423 26.73009 22.37716
#
# Velocity S-wave (km/s) = 3.13390 3.81643 3.49188
# Velocity P-wave (km/s) = 4.86266 6.43809 5.70502
#
# Compressibility (1/GPa) = 0.05164715
#
# Stress axis : x y z
#
# Youngs Moduli (GPa) = 120.44823 84.55528 25.95102
#
# Poissons Ratio (x) = 0.30728 0.12880
# Poissons Ratio (y) = 0.43772 -0.13207
# Poissons Ratio (z) = 0.59781 -0.43033
#
# Static dielectric constant tensor:
#      x y z
#    x 3.816830 -0.000430 -0.163500 
#    y -0.000430 3.697300 0.000470 
#    z -0.163500 0.000470 2.874220 
# 
# 
# High freq. dielectric constant tensor:
#      x y z
#    x 1.719920 -0.000010 -0.006830 
#    y -0.000010 1.730120 0.000030 
#    z -0.006830 0.000030 1.644940 
# 
# From -- ./inp_files/42191.got.cif
#   From: 2010.03.12/outbox.cif.g09.slc.cpg/sg5_22_cif.got.tgz:42191.got - 2010.03.31 09:47:26.
