data_PCOD8048502
_publ_section_title
;
Structure prediction by ZEFSAII (Michael W. Deem and Ramdas Pophale) SiO2 
 PCOD8048502
Probable space group: C 2
;
_chemical_formula_sum "Si O2"
_cell_formula_units_Z 28
_cell_length_a 8.763683
_cell_length_b 31.517554
_cell_length_c 5.136119
_cell_angle_alpha 90.000000
_cell_angle_beta 110.034761
_cell_angle_gamma 90.000000
_cell_volume 1332.797190
_symmetry_space_group_name_H-M "C 2"
_symmetry_group_IT_number 5
_symmetry_cell_setting 'monoclinic'
loop_
_space_group_symop_operation_xyz
x,y,z
-x,y,-z
1/2+x,1/2+y,z
1/2-x,1/2+y,-z
loop_
_atom_site_type_symbol
_atom_site_label
_atom_site_fract_x
_atom_site_fract_y
_atom_site_fract_z
Si Si1 0.694495 0.870370 0.125080
Si Si2 0.188738 0.323684 0.629407
Si Si3 0.806828 0.466164 0.881499
Si Si4 0.687005 0.235579 0.110255
Si Si5 0.108242 0.099459 0.305121
Si Si6 0.689109 0.182905 0.604753
Si Si7 0.192866 0.516389 0.612105
O O1 0.763583 0.840564 0.400437
O O2 0.760686 0.918313 0.172881
O O3 0.500000 0.869337 0.000000
O O4 0.768553 0.851242 0.904958
O O5 0.211436 0.274924 0.721890
O O6 0.000000 0.333115 0.500000
O O7 0.741116 0.488049 0.584374
O O8 0.742048 0.493484 0.088597
O O9 0.000000 0.464917 0.000000
O O10 0.726403 0.198506 0.336255
O O11 0.500000 0.249210 0.000000
O O12 0.733912 0.218756 0.848779
O O13 0.199372 0.142591 0.282971
O O14 0.242343 0.063186 0.405432
O O15 0.000000 0.104135 0.500000
O O16 0.000000 0.086207 0.000000
O O17 0.500000 0.170106 0.500000
O O18 0.000000 0.519709 0.500000
#
# Coordination Sequence:
#
# PCOD8048502 Si02
#       7
#     4   4   4   4   4   4   4
#     4   9  17  30  50  80 112 141 181 231 275 315
#     4  10  19  31  51  79 112 146 178 223 280 330
#     4   9  17  31  55  83 109 143 190 235 270 315
#     4  10  21  37  58  81 108 144 186 231 274 324
#     4  12  25  40  59  86 117 148 180 230 290 340
#     4  10  22  41  61  81 108 147 191 231 273 330
#     4  10  20  36  59  84 110 147 191 231 273 330
#
# _framework density 21.008447
#
# number of rings (size 3 to 8) (size 9 to 14) (size 15 to 20)
#    0.000    2.000    0.000    3.857    0.000    5.143 
#    0.000    5.714    0.000    8.571    0.000    0.000 
#    0.000    0.000    0.000    0.000    0.000    0.000 
#
# Total GULP energy -173547.880574 kJ/mol
# GULP energy per Si atom -12396.277184 kJ/mol
# Density = 2.096063 g / cm^3
# Si number density = 21.008447 Si / 1000 Ang^3
#
#
#
# Elastic Constant Matrix: (Units=GPa)
#
#
# Indices 1 2 3 4 5 6 
#
# 1 39.8883 32.0813 39.0790 0.0000 -20.5001 0.0000
# 2 32.0813 122.4391 41.1915 0.0000 -9.4098 0.0000
# 3 39.0790 41.1915 123.3332 0.0000 -35.6748 0.0000
# 4 0.0000 0.0000 0.0000 39.1251 0.0000 -4.1565
# 5 -20.5001 -9.4098 -35.6748 0.0000 26.6669 0.0000
# 6 0.0000 0.0000 0.0000 -4.1565 0.0000 14.9419
#
#
#
# Elastic Compliance Matrix: (Units=1/GPa)
#
#
# Indices 1 2 3 4 5 6 
#
# 1 0.054126 -0.010215 -0.004479 0.000000 0.032013 0.000000
# 2 -0.010215 0.011162 -0.002648 0.000000 -0.007457 0.000000
# 3 -0.004479 -0.002648 0.014918 0.000000 0.015580 0.000000
# 4 0.000000 0.000000 0.000000 0.026337 0.000000 0.007327
# 5 0.032013 -0.007457 0.015580 0.000000 0.080322 0.000000
# 6 0.000000 0.000000 0.000000 0.007327 0.000000 0.068964
#
#
# Mechanical properties :
#
#
# Convention : Reuss Voigt Hill
#
# Bulk Modulus (GPa) = 21.96696 56.70715 39.33706
# Shear Modulus (GPa) = 16.35659 27.70068 22.02864
#
# Velocity S-wave (km/s) = 2.79332 3.63512 3.24166
# Velocity P-wave (km/s) = 4.56973 6.68356 5.72505
#
# Compressibility (1/GPa) = 0.04552290
#
# Stress axis : x y z
#
# Youngs Moduli (GPa) = 18.47531 89.59259 67.03187
#
# Poissons Ratio (x) = 0.91519 0.30021
# Poissons Ratio (y) = 0.18873 0.17750
# Poissons Ratio (z) = 0.08274 0.23724
#
# Static dielectric constant tensor:
#      x y z
#    x 3.542330 0.000000 -0.277410 
#    y 0.000000 3.761660 0.000000 
#    z -0.277410 0.000000 4.093600 
# 
# 
# High freq. dielectric constant tensor:
#      x y z
#    x 1.792100 0.000000 -0.020550 
#    y 0.000000 1.832020 0.000000 
#    z -0.020550 0.000000 1.838180 
# 
# From -- ./inp_files/3988.got.cif
#   From: 2010.03.12/outbox.cif.g09.slc.cpg/sg5_2_cif.got.tgz:3988.got - 2010.03.31 09:47:26.
