data_PCOD8048616
_publ_section_title
;
Structure prediction by ZEFSAII (Michael W. Deem and Ramdas Pophale) SiO2 
 PCOD8048616
Probable space group: C 2
;
_chemical_formula_sum "Si O2"
_cell_formula_units_Z 30
_cell_length_a 22.771083
_cell_length_b 10.136154
_cell_length_c 13.637749
_cell_angle_alpha 90.000000
_cell_angle_beta 30.005238
_cell_angle_gamma 90.000000
_cell_volume 1574.121841
_symmetry_space_group_name_H-M "C 2"
_symmetry_group_IT_number 5
_symmetry_cell_setting 'monoclinic'
loop_
_space_group_symop_operation_xyz
x,y,z
-x,y,-z
1/2+x,1/2+y,z
1/2-x,1/2+y,-z
loop_
_atom_site_type_symbol
_atom_site_label
_atom_site_fract_x
_atom_site_fract_y
_atom_site_fract_z
Si Si1 0.857973 0.030620 0.393634
Si Si2 0.838860 0.801610 0.576372
Si Si3 0.000000 0.112339 0.500000
Si Si4 0.590071 0.377787 0.248763
Si Si5 0.696839 0.755734 0.956563
Si Si6 0.883285 0.987801 0.995389
Si Si7 0.064182 0.265604 0.593175
Si Si8 0.282278 0.009111 0.597345
O O1 0.856055 0.167740 0.456450
O O2 0.759552 0.019952 0.453816
O O3 0.833103 0.907531 0.499329
O O4 0.986854 0.030261 0.158762
O O5 0.731078 0.832999 0.806563
O O6 0.827018 0.654230 0.555615
O O7 0.962578 0.813323 0.456649
O O8 0.929690 0.207485 0.526501
O O9 0.911569 0.021750 0.694361
O O10 0.699775 0.287209 0.116890
O O11 0.601788 0.383360 0.113565
O O12 0.699042 0.601164 0.930888
O O13 0.569567 0.789599 0.180909
O O14 0.819517 0.944683 0.187234
O O15 0.110395 0.411987 0.540588
#
# Coordination Sequence:
#
# PCOD8048616 Si02
#       8
#     4   4   2   4   4   4   4   4
#     4  10  19  43  63  79 114 166 201 229 299 365
#     4  10  20  38  59  85 112 154 205 233 292 357
#     4  12  20  42  60  80 124 162 192 238 290 380
#     4  11  19  37  61  82 114 164 197 229 293 368
#     4  10  19  35  57  85 114 151 195 237 285 355
#     4   9  21  35  56  86 113 153 199 234 299 348
#     4  11  24  38  60  94 118 155 197 242 304 342
#     4  11  23  37  58  90 121 145 197 267 285 331
#
# _framework density 19.058246
#
# number of rings (size 3 to 8) (size 9 to 14) (size 15 to 20)
#    0.000    1.600    5.333    1.200    1.867    1.067 
#    2.400    4.667    0.000    0.000    0.000    0.000 
#    0.000    0.000    0.000    0.000    0.000    0.000 
#
# Total GULP energy -185839.213801 kJ/mol
# GULP energy per Si atom -12389.280920 kJ/mol
# Density = 1.901487 g / cm^3
# Si number density = 19.058246 Si / 1000 Ang^3
#
#
#
# Elastic Constant Matrix: (Units=GPa)
#
#
# Indices 1 2 3 4 5 6 
#
# 1 97.8231 21.8742 16.7404 0.0000 0.4673 0.0000
# 2 21.8742 63.7509 18.0790 0.0001 -1.3536 0.0000
# 3 16.7404 18.0790 67.0518 0.0000 10.2301 0.0000
# 4 0.0000 0.0001 0.0000 25.4732 0.0000 -1.4884
# 5 0.4673 -1.3536 10.2301 0.0000 25.7601 0.0000
# 6 0.0000 0.0000 0.0000 -1.4884 0.0000 27.1452
#
#
#
# Elastic Compliance Matrix: (Units=1/GPa)
#
#
# Indices 1 2 3 4 5 6 
#
# 1 0.011300 -0.003303 -0.001994 0.000000 0.000413 0.000000
# 2 -0.003303 0.018154 -0.004497 0.000000 0.002800 0.000000
# 3 -0.001994 -0.004497 0.017729 0.000000 -0.007241 0.000000
# 4 0.000000 0.000000 0.000000 0.039383 0.000000 0.002159
# 5 0.000413 0.002800 -0.007241 0.000000 0.041835 0.000000
# 6 0.000000 0.000000 0.000000 0.002159 0.000000 0.036957
#
#
# Mechanical properties :
#
#
# Convention : Reuss Voigt Hill
#
# Bulk Modulus (GPa) = 36.23844 38.00148 37.11996
# Shear Modulus (GPa) = 25.75384 27.13785 26.44584
#
# Velocity S-wave (km/s) = 3.68002 3.77761 3.72914
# Velocity P-wave (km/s) = 6.09201 6.24580 6.16939
#
# Compressibility (1/GPa) = 0.02759501
#
# Stress axis : x y z
#
# Youngs Moduli (GPa) = 88.49267 55.08336 56.40493
#
# Poissons Ratio (x) = 0.18195 0.11245
# Poissons Ratio (y) = 0.29231 0.25367
# Poissons Ratio (z) = 0.17643 0.24773
#
# Static dielectric constant tensor:
#      x y z
#    x 3.574810 0.000000 0.138430 
#    y 0.000000 3.375500 0.000000 
#    z 0.138430 0.000000 3.695180 
# 
# 
# High freq. dielectric constant tensor:
#      x y z
#    x 1.746500 0.000000 0.011710 
#    y 0.000000 1.726730 0.000000 
#    z 0.011710 0.000000 1.742210 
# 
# From -- ./inp_files/57603.got.cif
#   From: 2010.03.12/outbox.cif.g09.slc.cpg/sg5_29_cif.got.tgz:57603.got - 2010.03.31 09:47:26.
