data_PCOD8048775
_publ_section_title
;
Structure prediction by ZEFSAII (Michael W. Deem and Ramdas Pophale) SiO2 
 PCOD8048775
Probable space group: C 2
;
_chemical_formula_sum "Si O2"
_cell_formula_units_Z 24
_cell_length_a 16.537720
_cell_length_b 9.149818
_cell_length_c 16.599865
_cell_angle_alpha 90.000000
_cell_angle_beta 26.207411
_cell_angle_gamma 90.000000
_cell_volume 1109.285291
_symmetry_space_group_name_H-M "C 2"
_symmetry_group_IT_number 5
_symmetry_cell_setting 'monoclinic'
loop_
_space_group_symop_operation_xyz
x,y,z
-x,y,-z
1/2+x,1/2+y,z
1/2-x,1/2+y,-z
loop_
_atom_site_type_symbol
_atom_site_label
_atom_site_fract_x
_atom_site_fract_y
_atom_site_fract_z
Si Si1 0.971917 0.138990 0.930035
Si Si2 0.000000 0.336085 0.500000
Si Si3 0.256881 0.678026 0.586437
Si Si4 0.699667 0.487962 0.592882
Si Si5 0.893012 0.450984 0.174783
Si Si6 0.417931 0.071136 0.691738
Si Si7 0.000000 0.823565 0.500000
O O1 0.109465 0.039615 0.756580
O O2 0.012396 0.307351 0.872568
O O3 0.764187 0.097748 0.092457
O O4 0.000000 0.113990 0.000000
O O5 0.883802 0.235187 0.544772
O O6 0.871871 0.444591 0.667205
O O7 0.374226 0.574268 0.419805
O O8 0.095033 0.581281 0.770725
O O9 0.169006 0.813081 0.614696
O O10 0.917624 0.518204 0.398537
O O11 0.678486 0.424121 0.348789
O O12 0.000000 0.503264 0.000000
O O13 0.474852 0.223470 0.600606
#
# Coordination Sequence:
#
# PCOD8048775 Si02
#       7
#     4   2   4   4   4   4   2
#     4  11  19  37  66 100 127 173 220 270 328 403
#     4   9  21  42  70  96 128 174 226 268 328 400
#     4  11  24  44  64  96 134 180 218 279 333 391
#     4  11  24  42  65  93 138 173 218 276 341 387
#     4  11  22  36  63  99 128 171 224 274 319 400
#     4  10  19  37  67  98 126 167 216 269 326 395
#     4  11  17  36  64  98 128 162 218 264 328 382
#
# _framework density 21.635553000000002
#
# number of rings (size 3 to 8) (size 9 to 14) (size 15 to 20)
#    0.000    1.333    5.000    3.500    0.000    2.000 
#    0.000    8.333    0.000    0.000    0.000    0.000 
#    0.000    0.000    0.000    0.000    0.000    0.000 
#
# Total GULP energy -148766.411502 kJ/mol
# GULP energy per Si atom -12397.200958 kJ/mol
# Density = 2.158631 g / cm^3
# Si number density = 21.635553 Si / 1000 Ang^3
#
#
#
# Elastic Constant Matrix: (Units=GPa)
#
#
# Indices 1 2 3 4 5 6 
#
# 1 63.8526 40.2214 31.0988 0.0003 11.9238 0.0001
# 2 40.2214 153.3879 59.4570 0.0012 23.9114 0.0002
# 3 31.0988 59.4570 136.8032 0.0026 0.6318 0.0005
# 4 0.0003 0.0012 0.0026 31.5030 -0.0007 2.9095
# 5 11.9238 23.9114 0.6318 -0.0007 35.2742 -0.0002
# 6 0.0001 0.0002 0.0005 2.9095 -0.0002 26.9055
#
#
#
# Elastic Compliance Matrix: (Units=1/GPa)
#
#
# Indices 1 2 3 4 5 6 
#
# 1 0.020128 -0.003390 -0.003082 0.000000 -0.004451 0.000000
# 2 -0.003390 0.009523 -0.003344 0.000000 -0.005250 0.000000
# 3 -0.003082 -0.003344 0.009449 -0.000001 0.003139 0.000000
# 4 0.000000 0.000000 -0.000001 0.032063 0.000001 -0.003467
# 5 -0.004451 -0.005250 0.003139 0.000001 0.033356 0.000000
# 6 0.000000 0.000000 0.000000 -0.003467 0.000000 0.037542
#
#
# Mechanical properties :
#
#
# Convention : Reuss Voigt Hill
#
# Bulk Modulus (GPa) = 51.36262 68.39981 59.88121
# Shear Modulus (GPa) = 29.72953 33.62096 31.67524
#
# Velocity S-wave (km/s) = 3.71091 3.94632 3.83042
# Velocity P-wave (km/s) = 6.49251 7.24208 6.87751
#
# Compressibility (1/GPa) = 0.01946941
#
# Stress axis : x y z
#
# Youngs Moduli (GPa) = 49.68099 105.01119 105.82861
#
# Poissons Ratio (x) = 0.35594 0.32616
# Poissons Ratio (y) = 0.16840 0.35389
# Poissons Ratio (z) = 0.15312 0.35116
#
# Static dielectric constant tensor:
#      x y z
#    x 3.736290 0.000000 0.086120 
#    y 0.000000 4.268380 0.000000 
#    z 0.086120 0.000000 3.960660 
# 
# 
# High freq. dielectric constant tensor:
#      x y z
#    x 1.828250 0.000000 0.014390 
#    y 0.000000 1.864480 0.000000 
#    z 0.014390 0.000000 1.836720 
# 
# From -- ./inp_files/67034.got.cif
#   From: 2010.03.12/outbox.cif.g09.slc.cpg/sg5_34_cif.got.tgz:67034.got - 2010.03.31 09:47:26.
