data_PCOD8048243
_publ_section_title
;
Structure prediction by ZEFSAII (Michael W. Deem and Ramdas Pophale) SiO2 
 PCOD8048243
Probable space group: C 2
;
_chemical_formula_sum "Si O2"
_cell_formula_units_Z 24
_cell_length_a 10.002559
_cell_length_b 14.487335
_cell_length_c 13.737966
_cell_angle_alpha 90.000000
_cell_angle_beta 138.090970
_cell_angle_gamma 90.000000
_cell_volume 1329.737512
_symmetry_space_group_name_H-M "C 2"
_symmetry_group_IT_number 5
_symmetry_cell_setting 'monoclinic'
loop_
_space_group_symop_operation_xyz
x,y,z
-x,y,-z
1/2+x,1/2+y,z
1/2-x,1/2+y,-z
loop_
_atom_site_type_symbol
_atom_site_label
_atom_site_fract_x
_atom_site_fract_y
_atom_site_fract_z
Si Si1 0.164820 0.184610 0.165727
Si Si2 0.589065 0.684068 0.346736
Si Si3 0.341218 0.997023 0.289492
Si Si4 0.929634 0.790589 0.635413
Si Si5 0.821940 0.303077 0.326043
Si Si6 0.776714 0.993877 0.554533
O O1 0.064563 0.184604 0.217585
O O2 0.344652 0.258478 0.258935
O O3 0.236521 0.080795 0.174361
O O4 0.000000 0.217891 0.000000
O O5 0.790998 0.739607 0.481717
O O6 0.391946 0.728173 0.286995
O O7 0.589621 0.583045 0.397714
O O8 0.254634 0.893351 0.226994
O O9 0.573616 0.992632 0.380846
O O10 0.303521 0.017385 0.381788
O O11 0.861085 0.764551 0.708473
O O12 0.907360 0.901529 0.610771
O O13 0.000000 0.332260 0.500000
#
# Coordination Sequence:
#
# PCOD8048243 Si02
#       6
#     4   4   4   4   4   4
#     4  11  23  35  50  78 113 147 175 207 258 320
#     4  10  18  33  56  80 104 137 177 223 264 303
#     4   9  14  30  53  76 101 132 176 220 251 304
#     4  10  18  33  57  79 106 135 173 225 266 307
#     4   9  16  31  56  85 104 123 173 232 272 300
#     4   9  15  28  54  81 103 129 172 226 265 299
#
# _framework density 18.048676
#
# number of rings (size 3 to 8) (size 9 to 14) (size 15 to 20)
#    0.000    2.333    6.667    0.500    0.000    0.000 
#    0.000   12.500    0.000    0.000    0.000    0.000 
#    0.000    0.000    0.000    0.000    0.000    0.000 
#
# Total GULP energy -148661.989251 kJ/mol
# GULP energy per Si atom -12388.499104 kJ/mol
# Density = 1.800760 g / cm^3
# Si number density = 18.048676 Si / 1000 Ang^3
#
#
#
# Elastic Constant Matrix: (Units=GPa)
#
#
# Indices 1 2 3 4 5 6 
#
# 1 66.9910 35.5643 16.6821 0.0000 -1.0921 0.0000
# 2 35.5643 121.4948 22.1498 0.0001 -2.5327 0.0001
# 3 16.6821 22.1498 50.1962 -0.0011 -7.3917 -0.0003
# 4 0.0000 0.0001 -0.0011 16.0750 -0.0004 4.2375
# 5 -1.0921 -2.5327 -7.3917 -0.0004 13.9149 -0.0001
# 6 0.0000 0.0001 -0.0003 4.2375 -0.0001 28.2379
#
#
#
# Elastic Compliance Matrix: (Units=1/GPa)
#
#
# Indices 1 2 3 4 5 6 
#
# 1 0.018444 -0.004645 -0.004330 0.000000 -0.001698 0.000000
# 2 -0.004645 0.010124 -0.002936 0.000000 -0.000081 0.000000
# 3 -0.004330 -0.002936 0.024439 0.000002 0.012108 0.000000
# 4 0.000000 0.000000 0.000002 0.064771 0.000003 -0.009720
# 5 -0.001698 -0.000081 0.012108 0.000003 0.078149 0.000000
# 6 0.000000 0.000000 0.000000 -0.009720 0.000000 0.036872
#
#
# Mechanical properties :
#
#
# Convention : Reuss Voigt Hill
#
# Bulk Modulus (GPa) = 34.26305 43.05270 38.65787
# Shear Modulus (GPa) = 18.77237 22.59793 20.68515
#
# Velocity S-wave (km/s) = 3.22855 3.54228 3.38905
# Velocity P-wave (km/s) = 5.73785 6.37462 6.06460
#
# Compressibility (1/GPa) = 0.02918596
#
# Stress axis : x y z
#
# Youngs Moduli (GPa) = 54.21858 98.77526 40.91785
#
# Poissons Ratio (x) = 0.45881 0.17717
# Poissons Ratio (y) = 0.25184 0.12012
# Poissons Ratio (z) = 0.23476 0.28997
#
# Static dielectric constant tensor:
#      x y z
#    x 3.199810 0.000000 0.107650 
#    y 0.000000 3.623000 0.000000 
#    z 0.107650 0.000000 2.846060 
# 
# 
# High freq. dielectric constant tensor:
#      x y z
#    x 1.681670 0.000000 0.011240 
#    y 0.000000 1.716490 0.000000 
#    z 0.011240 0.000000 1.641010 
# 
# From -- ./inp_files/19749.got.cif
#   From: 2010.03.12/outbox.cif.g09.slc.cpg/sg5_10_cif.got.tgz:19749.got - 2010.03.31 09:47:26.
