data_PCOD8048540
_publ_section_title
;
Structure prediction by ZEFSAII (Michael W. Deem and Ramdas Pophale) SiO2 
 PCOD8048540
Probable space group: C 2
;
_chemical_formula_sum "Si O2"
_cell_formula_units_Z 32
_cell_length_a 20.119365
_cell_length_b 9.515012
_cell_length_c 11.547504
_cell_angle_alpha 90.000000
_cell_angle_beta 129.143708
_cell_angle_gamma 90.000000
_cell_volume 1714.470327
_symmetry_space_group_name_H-M "C 2"
_symmetry_group_IT_number 5
_symmetry_cell_setting 'monoclinic'
loop_
_space_group_symop_operation_xyz
x,y,z
-x,y,-z
1/2+x,1/2+y,z
1/2-x,1/2+y,-z
loop_
_atom_site_type_symbol
_atom_site_label
_atom_site_fract_x
_atom_site_fract_y
_atom_site_fract_z
Si Si1 0.949615 0.365250 0.619628
Si Si2 0.798278 0.042802 0.593975
Si Si3 0.445960 0.539062 0.602908
Si Si4 0.377510 0.511881 0.287203
Si Si5 0.141741 0.312136 0.816526
Si Si6 0.822535 0.355352 0.671962
Si Si7 0.237232 0.296930 0.151053
Si Si8 0.807669 0.509941 0.310684
O O1 0.939400 0.204794 0.568656
O O2 0.914636 0.384445 0.713096
O O3 0.897599 0.469370 0.474459
O O4 0.051122 0.395546 0.729598
O O5 0.739878 0.983240 0.427246
O O6 0.771071 0.976786 0.687609
O O7 0.896727 0.002984 0.668908
O O8 0.784350 0.210210 0.578743
O O9 0.402459 0.464678 0.444679
O O10 0.544158 0.485821 0.717884
O O11 0.359150 0.676985 0.266142
O O12 0.295120 0.421826 0.162990
O O13 0.204681 0.419562 0.819232
O O14 0.174985 0.258053 0.977222
O O15 0.826269 0.346282 0.815210
O O16 0.300299 0.172358 0.263252
#
# Coordination Sequence:
#
# PCOD8048540 Si02
#       8
#     4   4   4   4   4   4   4   4
#     4   9  18  35  58  76 100 140 186 220 253 316
#     4   9  17  31  52  76 106 129 176 222 264 306
#     4   9  16  32  56  78  96 133 179 217 258 309
#     4  10  19  33  54  76 104 138 177 215 260 323
#     4  11  21  36  55  75 109 150 180 210 266 334
#     4   9  18  32  51  78 105 135 174 220 268 307
#     4  11  22  34  51  82 115 138 172 224 277 319
#     4  10  20  35  53  81 110 137 177 226 269 312
#
# _framework density 18.664656999999998
#
# number of rings (size 3 to 8) (size 9 to 14) (size 15 to 20)
#    0.000    2.250    2.500    1.125    0.000    0.500 
#    4.500    0.000    0.000    2.250    0.000    0.000 
#    0.000    0.000    0.000    0.000    0.000    0.000 
#
# Total GULP energy -198228.859141 kJ/mol
# GULP energy per Si atom -12389.303696 kJ/mol
# Density = 1.862218 g / cm^3
# Si number density = 18.664657 Si / 1000 Ang^3
#
#
#
# Elastic Constant Matrix: (Units=GPa)
#
#
# Indices 1 2 3 4 5 6 
#
# 1 137.5558 46.4818 41.2911 0.0000 -8.0523 0.0000
# 2 46.4818 45.9789 18.4067 0.0000 -1.7407 0.0000
# 3 41.2911 18.4067 69.4319 0.0000 -10.3843 0.0000
# 4 0.0000 0.0000 0.0000 18.7992 0.0000 -0.7121
# 5 -8.0523 -1.7407 -10.3843 0.0000 23.3616 0.0000
# 6 0.0000 0.0000 0.0000 -0.7121 0.0000 27.7951
#
#
#
# Elastic Compliance Matrix: (Units=1/GPa)
#
#
# Indices 1 2 3 4 5 6 
#
# 1 0.012206 -0.010591 -0.004220 0.000000 0.001542 0.000000
# 2 -0.010591 0.033550 -0.002965 0.000000 -0.002469 0.000000
# 3 -0.004220 -0.002965 0.018690 0.000000 0.006632 0.000000
# 4 0.000000 0.000000 0.000000 0.053245 0.000000 0.001364
# 5 0.001542 -0.002469 0.006632 0.000000 0.046101 0.000000
# 6 0.000000 0.000000 0.000000 0.001364 0.000000 0.036012
#
#
# Mechanical properties :
#
#
# Convention : Reuss Voigt Hill
#
# Bulk Modulus (GPa) = 34.61047 51.70286 43.15666
# Shear Modulus (GPa) = 20.40910 23.77699 22.09305
#
# Velocity S-wave (km/s) = 3.31034 3.57305 3.44420
# Velocity P-wave (km/s) = 5.76149 6.69204 6.24412
#
# Compressibility (1/GPa) = 0.02889299
#
# Stress axis : x y z
#
# Youngs Moduli (GPa) = 81.92769 29.80646 53.50357
#
# Poissons Ratio (x) = 0.31569 0.22580
# Poissons Ratio (y) = 0.86773 0.15862
# Poissons Ratio (z) = 0.34576 0.08837
#
# Static dielectric constant tensor:
#      x y z
#    x 3.856580 0.000000 -0.092020 
#    y 0.000000 3.248570 0.000000 
#    z -0.092020 0.000000 3.023780 
# 
# 
# High freq. dielectric constant tensor:
#      x y z
#    x 1.746450 0.000000 -0.014320 
#    y 0.000000 1.705340 0.000000 
#    z -0.014320 0.000000 1.684610 
# 
# From -- ./inp_files/44497.got.cif
#   From: 2010.03.12/outbox.cif.g09.slc.cpg/sg5_23_cif.got.tgz:44497.got - 2010.03.31 09:47:26.
