data_PCOD8048157
_publ_section_title
;
Structure prediction by ZEFSAII (Michael W. Deem and Ramdas Pophale) SiO2 
 PCOD8048157
Probable space group: C 2
;
_chemical_formula_sum "Si O2"
_cell_formula_units_Z 32
_cell_length_a 28.207204
_cell_length_b 11.715726
_cell_length_c 8.877734
_cell_angle_alpha 90.000000
_cell_angle_beta 148.379897
_cell_angle_gamma 90.000000
_cell_volume 1538.149573
_symmetry_space_group_name_H-M "C 2"
_symmetry_group_IT_number 5
_symmetry_cell_setting 'monoclinic'
loop_
_space_group_symop_operation_xyz
x,y,z
-x,y,-z
1/2+x,1/2+y,z
1/2-x,1/2+y,-z
loop_
_atom_site_type_symbol
_atom_site_label
_atom_site_fract_x
_atom_site_fract_y
_atom_site_fract_z
Si Si1 0.005900 0.768440 0.836996
Si Si2 0.692818 0.272724 0.754058
Si Si3 0.210973 0.215112 0.689917
Si Si4 0.439432 0.883735 0.690675
Si Si5 0.258111 0.972685 0.763944
Si Si6 0.425642 0.040232 0.070090
Si Si7 0.807776 0.879650 0.724540
Si Si8 0.194564 0.558288 0.551434
O O1 0.013288 0.652815 0.758114
O O2 0.910020 0.819132 0.526834
O O3 0.085851 0.854750 0.006185
O O4 0.000000 0.742744 0.000000
O O5 0.752589 0.386320 0.889124
O O6 0.711595 0.180397 0.672849
O O7 0.716692 0.222119 0.980157
O O8 0.114277 0.265977 0.483486
O O9 0.252201 0.276319 0.652931
O O10 0.192357 0.082210 0.602591
O O11 0.511747 0.926573 0.762646
O O12 0.364199 0.981984 0.495431
O O13 0.500000 0.866977 0.000000
O O14 0.234113 0.897284 0.553320
O O15 0.360475 0.021951 0.036164
O O16 0.361589 0.067830 0.753902
O O17 0.790486 0.994670 0.776443
#
# Coordination Sequence:
#
# PCOD8048157 Si02
#       8
#     4   4   4   4   4   4   4   4
#     4  12  19  38  65  99 126 170 229 270 315 386
#     4  12  25  40  67  96 141 172 210 280 339 393
#     4  11  26  43  64 101 138 168 220 271 348 390
#     4   9  18  39  66  91 120 169 218 272 313 382
#     4  11  24  41  66 100 129 174 220 268 336 393
#     4  10  17  36  68  95 115 160 237 272 296 373
#     4  10  22  41  66  91 132 170 222 278 309 394
#     4   9  18  35  65  94 123 167 215 266 328 369
#
# _framework density 20.804219
#
# number of rings (size 3 to 8) (size 9 to 14) (size 15 to 20)
#    0.000    1.500    5.000    1.125    5.250    0.500 
#    2.250    1.875    0.000    0.000    0.000    0.000 
#    0.000    0.000    0.000    0.000    0.000    0.000 
#
# Total GULP energy -198279.932357 kJ/mol
# GULP energy per Si atom -12392.495772 kJ/mol
# Density = 2.075687 g / cm^3
# Si number density = 20.804219 Si / 1000 Ang^3
#
#
#
# Elastic Constant Matrix: (Units=GPa)
#
#
# Indices 1 2 3 4 5 6 
#
# 1 75.0332 44.6154 34.9177 0.0000 18.6927 0.0000
# 2 44.6154 113.6892 24.1327 0.0000 5.8323 0.0000
# 3 34.9177 24.1327 64.8615 0.0000 9.8039 0.0000
# 4 0.0000 0.0000 0.0000 26.7083 0.0000 9.6044
# 5 18.6927 5.8323 9.8039 0.0000 30.5054 0.0000
# 6 0.0000 0.0000 0.0000 9.6044 0.0000 32.2329
#
#
#
# Elastic Compliance Matrix: (Units=1/GPa)
#
#
# Indices 1 2 3 4 5 6 
#
# 1 0.024348 -0.007130 -0.008835 0.000000 -0.010717 0.000000
# 2 -0.007130 0.011653 -0.000863 0.000000 0.002418 0.000000
# 3 -0.008835 -0.000863 0.020655 0.000000 -0.001059 0.000000
# 4 0.000000 0.000000 0.000000 0.041935 0.000000 -0.012495
# 5 -0.010717 0.002418 -0.001059 0.000000 0.039226 0.000000
# 6 0.000000 0.000000 0.000000 -0.012495 0.000000 0.034747
#
#
# Mechanical properties :
#
#
# Convention : Reuss Voigt Hill
#
# Bulk Modulus (GPa) = 43.47704 51.21283 47.34493
# Shear Modulus (GPa) = 23.37676 27.88385 25.63030
#
# Velocity S-wave (km/s) = 3.35573 3.66498 3.51376
# Velocity P-wave (km/s) = 5.99651 6.52529 6.26648
#
# Compressibility (1/GPa) = 0.02300065
#
# Stress axis : x y z
#
# Youngs Moduli (GPa) = 41.07053 85.81468 48.41459
#
# Poissons Ratio (x) = 0.61185 0.42774
# Poissons Ratio (y) = 0.29283 0.04178
# Poissons Ratio (z) = 0.36286 0.07405
#
# Static dielectric constant tensor:
#      x y z
#    x 4.000480 0.000000 0.325750 
#    y 0.000000 3.850310 0.000000 
#    z 0.325750 0.000000 3.564510 
# 
# 
# High freq. dielectric constant tensor:
#      x y z
#    x 1.812890 0.000000 0.012730 
#    y 0.000000 1.809480 0.000000 
#    z 0.012730 0.000000 1.789240 
# 
# From -- ./inp_files/32643.got.cif
#   From: 2010.03.12/outbox.cif.g09.slc.cpg/sg5_17_cif.got.tgz:32643.got - 2010.03.31 09:47:26.
