data_PCOD8048934
_publ_section_title
;
Structure prediction by ZEFSAII (Michael W. Deem and Ramdas Pophale) SiO2 
 PCOD8048934
Probable space group: C 2
;
_chemical_formula_sum "Si O2"
_cell_formula_units_Z 26
_cell_length_a 22.017623
_cell_length_b 5.156723
_cell_length_c 13.007340
_cell_angle_alpha 90.000000
_cell_angle_beta 123.097259
_cell_angle_gamma 90.000000
_cell_volume 1237.213041
_symmetry_space_group_name_H-M "C 2"
_symmetry_group_IT_number 5
_symmetry_cell_setting 'monoclinic'
loop_
_space_group_symop_operation_xyz
x,y,z
-x,y,-z
1/2+x,1/2+y,z
1/2-x,1/2+y,-z
loop_
_atom_site_type_symbol
_atom_site_label
_atom_site_fract_x
_atom_site_fract_y
_atom_site_fract_z
Si Si1 0.156442 0.364950 0.904565
Si Si2 0.852750 0.703647 0.411235
Si Si3 0.004507 0.311126 0.274112
Si Si4 0.289139 0.366694 0.156074
Si Si5 0.741262 0.416142 0.425841
Si Si6 0.000000 0.444693 0.500000
Si Si7 0.908366 0.823126 0.675511
O O1 0.181494 0.586249 0.849933
O O2 0.071388 0.386086 0.848854
O O3 0.168136 0.086132 0.864888
O O4 0.202899 0.387852 0.053128
O O5 0.807030 0.891538 0.293236
O O6 0.800515 0.458255 0.390429
O O7 0.927562 0.616945 0.426680
O O8 0.871748 0.869352 0.529680
O O9 0.059474 0.535725 0.291326
O O10 0.000227 0.278210 0.394624
O O11 0.030740 0.040134 0.249664
O O12 0.731076 0.688583 0.475665
O O13 0.659575 0.347869 0.307854
#
# Coordination Sequence:
#
# PCOD8048934 Si02
#       7
#     4   4   4   4   4   2   4
#     4  10  21  36  53  76 114 149 180 223 267 337
#     4  10  21  35  56  83 113 144 180 232 269 336
#     4  11  21  34  54  79 115 144 175 226 278 330
#     4  10  21  36  53  79 110 149 186 216 272 332
#     4  10  20  37  54  78 114 149 188 221 273 330
#     4  10  20  30  52  82 116 132 174 220 284 328
#     4  10  22  34  54  81 108 147 180 224 275 327
#
# _framework density 21.014976000000001
#
# number of rings (size 3 to 8) (size 9 to 14) (size 15 to 20)
#    0.000    1.846    1.538    3.692    4.308    3.077 
#    0.000    0.000    0.000    0.923    0.000    6.462 
#    0.000    0.000    0.000    0.000    0.000    0.000 
#
# Total GULP energy -161124.105578 kJ/mol
# GULP energy per Si atom -12394.161968 kJ/mol
# Density = 2.096714 g / cm^3
# Si number density = 21.014976 Si / 1000 Ang^3
#
#
#
# Elastic Constant Matrix: (Units=GPa)
#
#
# Indices 1 2 3 4 5 6 
#
# 1 99.7381 22.9900 18.3397 0.0000 35.9151 0.0000
# 2 22.9900 75.8130 9.8381 0.0001 6.1805 0.0000
# 3 18.3397 9.8381 92.8101 0.0000 23.5776 0.0000
# 4 0.0000 0.0001 0.0000 19.1287 0.0000 7.7651
# 5 35.9151 6.1805 23.5776 0.0000 30.6368 0.0000
# 6 0.0000 0.0000 0.0000 7.7651 0.0000 26.3364
#
#
#
# Elastic Compliance Matrix: (Units=1/GPa)
#
#
# Indices 1 2 3 4 5 6 
#
# 1 0.018917 -0.004174 0.002640 0.000000 -0.023366 0.000000
# 2 -0.004174 0.014394 -0.001500 0.000000 0.003144 0.000000
# 3 0.002640 -0.001500 0.013824 0.000000 -0.013431 0.000000
# 4 0.000000 0.000000 0.000000 0.059385 0.000000 -0.017509
# 5 -0.023366 0.003144 -0.013431 0.000000 0.069734 0.000000
# 6 0.000000 0.000000 0.000000 -0.017509 0.000000 0.043133
#
#
# Mechanical properties :
#
#
# Convention : Reuss Voigt Hill
#
# Bulk Modulus (GPa) = 24.34971 41.18853 32.76912
# Shear Modulus (GPa) = 20.90791 29.69995 25.30393
#
# Velocity S-wave (km/s) = 3.15763 3.76343 3.47377
# Velocity P-wave (km/s) = 4.99061 6.20699 5.63174
#
# Compressibility (1/GPa) = 0.04106826
#
# Stress axis : x y z
#
# Youngs Moduli (GPa) = 52.86313 69.47104 72.33775
#
# Poissons Ratio (x) = 0.28999 -0.19099
# Poissons Ratio (y) = 0.22066 0.10848
# Poissons Ratio (z) = -0.13957 0.10418
#
# Static dielectric constant tensor:
#      x y z
#    x 3.978210 0.000000 0.405520 
#    y 0.000000 3.705170 0.000000 
#    z 0.405520 0.000000 3.939700 
# 
# 
# High freq. dielectric constant tensor:
#      x y z
#    x 1.808020 0.000000 0.044240 
#    y 0.000000 1.830710 0.000000 
#    z 0.044240 0.000000 1.798500 
# 
# From -- ./inp_files/45530.got.cif
#   From: 2010.03.12/outbox.cif.g09.slc.cpg/sg5_23_cif.got.tgz:45530.got - 2010.03.31 09:47:26.
