data_PCOD8048533
_publ_section_title
;
Structure prediction by ZEFSAII (Michael W. Deem and Ramdas Pophale) SiO2 
 PCOD8048533
Probable space group: C 2
;
_chemical_formula_sum "Si O2"
_cell_formula_units_Z 28
_cell_length_a 29.612448
_cell_length_b 10.302691
_cell_length_c 15.677362
_cell_angle_alpha 90.000000
_cell_angle_beta 160.816909
_cell_angle_gamma 90.000000
_cell_volume 1571.627354
_symmetry_space_group_name_H-M "C 2"
_symmetry_group_IT_number 5
_symmetry_cell_setting 'monoclinic'
loop_
_space_group_symop_operation_xyz
x,y,z
-x,y,-z
1/2+x,1/2+y,z
1/2-x,1/2+y,-z
loop_
_atom_site_type_symbol
_atom_site_label
_atom_site_fract_x
_atom_site_fract_y
_atom_site_fract_z
Si Si1 0.070344 0.084850 0.786770
Si Si2 0.500000 0.731456 0.500000
Si Si3 0.660553 0.044637 0.293423
Si Si4 0.283353 0.297907 0.212896
Si Si5 0.350094 0.441322 0.499958
Si Si6 0.210017 0.441497 0.920130
Si Si7 0.867150 0.838052 0.706601
Si Si8 0.000000 0.651584 0.500000
O O1 0.982105 0.145135 0.552200
O O2 0.164627 0.191258 0.000017
O O3 0.970825 0.032066 0.681399
O O4 0.159514 0.967612 0.906830
O O5 0.637152 0.816633 0.749795
O O6 0.682869 0.191339 0.365758
O O7 0.727463 0.032267 0.318224
O O8 0.741594 0.941330 0.499980
O O9 0.500000 0.008462 0.000000
O O10 0.289193 0.350471 0.318298
O O11 0.429790 0.237943 0.447531
O O12 0.252146 0.415277 0.092436
O O13 0.409295 0.350466 0.681875
O O14 0.112590 0.566401 0.749740
O O15 0.000000 0.874218 0.000000
#
# Coordination Sequence:
#
# PCOD8048533 Si02
#       8
#     4   2   4   4   4   4   4   2
#     4  10  19  33  52  84 113 147 186 233 270 323
#     4   9  18  33  52  76 116 155 183 212 272 330
#     4   9  21  42  62  84 112 151 191 242 306 362
#     4  10  19  33  52  84 113 147 186 233 270 323
#     4  10  22  37  60  86 112 140 200 237 284 352
#     4   9  18  33  52  76 116 155 183 212 272 330
#     4   9  21  42  62  84 112 151 191 242 306 362
#     4   9  18  33  52  76 116 155 183 212 272 330
#
# _framework density 17.815930000000002
#
# number of rings (size 3 to 8) (size 9 to 14) (size 15 to 20)
#    0.857    1.714    0.000    1.714    0.000    2.857 
#   10.286    0.000    0.000    0.000    0.000    0.000 
#    0.000    0.000    0.000    0.000    0.000    0.000 
#
# Total GULP energy -173531.778737 kJ/mol
# GULP energy per Si atom -12395.127053 kJ/mol
# Density = 1.777538 g / cm^3
# Si number density = 17.815930 Si / 1000 Ang^3
#
#
#
# Elastic Constant Matrix: (Units=GPa)
#
#
# Indices 1 2 3 4 5 6 
#
# 1 146.7798 66.3221 66.8052 0.0000 -4.0496 0.0000
# 2 66.3221 117.3457 67.8064 0.0000 -0.2221 0.0000
# 3 66.8052 67.8064 117.2971 0.0000 0.6296 0.0000
# 4 0.0000 0.0000 0.0000 30.9109 0.0000 0.8826
# 5 -4.0496 -0.2221 0.6296 0.0000 20.3184 0.0000
# 6 0.0000 0.0000 0.0000 0.8826 0.0000 19.9273
#
#
#
# Elastic Compliance Matrix: (Units=1/GPa)
#
#
# Indices 1 2 3 4 5 6 
#
# 1 0.010200 -0.003600 -0.003739 0.000000 0.002109 0.000000
# 2 -0.003600 0.014070 -0.006081 0.000000 -0.000375 0.000000
# 3 -0.003739 -0.006081 0.014177 0.000000 -0.001251 0.000000
# 4 0.000000 0.000000 0.000000 0.032392 0.000000 -0.001435
# 5 0.002109 -0.000375 -0.001251 0.000000 0.049671 0.000000
# 6 0.000000 0.000000 0.000000 -0.001435 0.000000 0.050246
#
#
# Mechanical properties :
#
#
# Convention : Reuss Voigt Hill
#
# Bulk Modulus (GPa) = 86.16443 87.03223 86.59833
# Shear Modulus (GPa) = 24.81823 26.26391 25.54107
#
# Velocity S-wave (km/s) = 3.73639 3.84367 3.79041
# Velocity P-wave (km/s) = 8.19041 8.28585 8.23827
#
# Compressibility (1/GPa) = 0.01160572
#
# Stress axis : x y z
#
# Youngs Moduli (GPa) = 98.04197 71.07553 70.53681
#
# Poissons Ratio (x) = 0.25587 0.26376
# Poissons Ratio (y) = 0.35295 0.42893
# Poissons Ratio (z) = 0.36662 0.43220
#
# Static dielectric constant tensor:
#      x y z
#    x 3.089760 0.000000 0.027230 
#    y 0.000000 3.404230 0.000000 
#    z 0.027230 0.000000 3.401940 
# 
# 
# High freq. dielectric constant tensor:
#      x y z
#    x 1.669220 0.000000 0.002560 
#    y 0.000000 1.698940 0.000000 
#    z 0.002560 0.000000 1.698730 
# 
# From -- ./inp_files/58398.got.cif
#   From: 2010.03.12/outbox.cif.g09.slc.cpg/sg5_30_cif.got.tgz:58398.got - 2010.03.31 09:47:26.
