data_PCOD8048070
_publ_section_title
;
Structure prediction by ZEFSAII (Michael W. Deem and Ramdas Pophale) SiO2 
 PCOD8048070
Probable space group: C 2
;
_chemical_formula_sum "Si O2"
_cell_formula_units_Z 32
_cell_length_a 18.190243
_cell_length_b 15.194522
_cell_length_c 11.950341
_cell_angle_alpha 90.000000
_cell_angle_beta 151.924492
_cell_angle_gamma 90.000000
_cell_volume 1554.496827
_symmetry_space_group_name_H-M "C 2"
_symmetry_group_IT_number 5
_symmetry_cell_setting 'monoclinic'
loop_
_space_group_symop_operation_xyz
x,y,z
-x,y,-z
1/2+x,1/2+y,z
1/2-x,1/2+y,-z
loop_
_atom_site_type_symbol
_atom_site_label
_atom_site_fract_x
_atom_site_fract_y
_atom_site_fract_z
Si Si1 0.174844 0.397330 0.691638
Si Si2 0.818705 0.936558 0.457801
Si Si3 0.031692 0.072723 0.660119
Si Si4 0.917321 0.812320 0.153563
Si Si5 0.727998 0.088596 0.842221
Si Si6 0.407664 0.956479 0.651430
Si Si7 0.569593 0.134788 0.420913
Si Si8 0.735449 0.406658 0.859154
O O1 0.251004 0.485364 0.847013
O O2 0.182683 0.404622 0.568180
O O3 0.000000 0.381687 0.500000
O O4 0.284907 0.315962 0.878857
O O5 0.663815 0.932817 0.324479
O O6 0.788246 0.882742 0.302467
O O7 0.960152 0.888945 0.711074
O O8 0.869901 0.037290 0.497430
O O9 0.000000 0.126958 0.500000
O O10 0.135508 0.990645 0.759837
O O11 0.128443 0.124947 0.886857
O O12 0.828064 0.824511 0.153026
O O13 0.016363 0.722570 0.286828
O O14 0.709852 0.145537 0.702216
O O15 0.571651 0.091666 0.702689
O O16 0.383555 0.061811 0.607573
O O17 0.584646 0.926058 0.879202
#
# Coordination Sequence:
#
# PCOD8048070 Si02
#       8
#     4   4   4   4   4   4   4   4
#     4  11  17  36  64  86 117 157 209 251 297 374
#     4  10  22  32  60  89 118 164 204 249 304 375
#     4   9  16  32  56  86 115 150 212 254 281 352
#     4  11  21  37  60  95 121 149 209 263 313 351
#     4  10  16  34  58  90 111 152 204 247 295 359
#     4  11  20  38  62  85 120 164 215 242 308 379
#     4  10  21  32  61  88 115 156 198 262 305 359
#     4  10  18  35  61  86 116 157 209 255 289 379
#
# _framework density 20.585439999999998
#
# number of rings (size 3 to 8) (size 9 to 14) (size 15 to 20)
#    0.000    1.750    7.500    1.500    3.500    0.500 
#    0.000    0.625    8.250    0.000    0.000    0.000 
#    0.000    0.000    0.000    0.000    0.000    0.000 
#
# Total GULP energy -198245.919809 kJ/mol
# GULP energy per Si atom -12390.369988 kJ/mol
# Density = 2.053859 g / cm^3
# Si number density = 20.585440 Si / 1000 Ang^3
#
#
#
# Elastic Constant Matrix: (Units=GPa)
#
#
# Indices 1 2 3 4 5 6 
#
# 1 80.5420 13.5207 15.8131 0.0000 1.7544 0.0000
# 2 13.5207 49.1186 29.5596 0.0000 -5.3680 0.0000
# 3 15.8131 29.5596 121.3514 0.0000 -23.6078 0.0000
# 4 0.0000 0.0000 0.0000 29.1376 0.0000 -3.3240
# 5 1.7544 -5.3680 -23.6078 0.0000 22.3466 0.0000
# 6 0.0000 0.0000 0.0000 -3.3240 0.0000 1.2019
#
#
#
# Elastic Compliance Matrix: (Units=1/GPa)
#
#
# Indices 1 2 3 4 5 6 
#
# 1 0.013336 -0.003044 -0.001690 0.000000 -0.003563 0.000000
# 2 -0.003044 0.024555 -0.005527 0.000000 0.000299 0.000000
# 3 -0.001690 -0.005527 0.012051 0.000000 0.011536 0.000000
# 4 0.000000 0.000000 0.000000 0.050138 0.000000 0.138657
# 5 -0.003563 0.000299 0.011536 0.000000 0.057289 0.000000
# 6 0.000000 0.000000 0.000000 0.138657 0.000000 1.215452
#
#
# Mechanical properties :
#
#
# Convention : Reuss Voigt Hill
#
# Bulk Modulus (GPa) = 33.98691 40.97767 37.48229
# Shear Modulus (GPa) = 3.56342 23.34514 13.45428
#
# Velocity S-wave (km/s) = 1.31712 3.37123 2.55930
# Velocity P-wave (km/s) = 4.34270 5.92478 5.19433
#
# Compressibility (1/GPa) = 0.02942310
#
# Stress axis : x y z
#
# Youngs Moduli (GPa) = 74.98413 40.72451 82.97916
#
# Poissons Ratio (x) = 0.12395 0.14020
# Poissons Ratio (y) = 0.22822 0.45859
# Poissons Ratio (z) = 0.12669 0.22507
#
# Static dielectric constant tensor:
#      x y z
#    x 3.557760 0.000000 -0.370480 
#    y 0.000000 3.249300 0.000000 
#    z -0.370480 0.000000 4.425400 
# 
# 
# High freq. dielectric constant tensor:
#      x y z
#    x 1.779630 0.000000 -0.019650 
#    y 0.000000 1.752480 0.000000 
#    z -0.019650 0.000000 1.823620 
# 
# From -- ./inp_files/45104.got.cif
#   From: 2010.03.12/outbox.cif.g09.slc.cpg/sg5_23_cif.got.tgz:45104.got - 2010.03.31 09:47:26.
