data_PCOD8048209
_publ_section_title
;
Structure prediction by ZEFSAII (Michael W. Deem and Ramdas Pophale) SiO2 
 PCOD8048209
Probable space group: C 2
;
_chemical_formula_sum "Si O2"
_cell_formula_units_Z 28
_cell_length_a 23.064966
_cell_length_b 10.371637
_cell_length_c 19.896731
_cell_angle_alpha 90.000000
_cell_angle_beta 19.127459
_cell_angle_gamma 90.000000
_cell_volume 1559.622535
_symmetry_space_group_name_H-M "C 2"
_symmetry_group_IT_number 5
_symmetry_cell_setting 'monoclinic'
loop_
_space_group_symop_operation_xyz
x,y,z
-x,y,-z
1/2+x,1/2+y,z
1/2-x,1/2+y,-z
loop_
_atom_site_type_symbol
_atom_site_label
_atom_site_fract_x
_atom_site_fract_y
_atom_site_fract_z
Si Si1 0.816661 0.050050 0.724681
Si Si2 0.042177 0.266277 0.333859
Si Si3 0.974068 0.174693 0.261824
Si Si4 0.837896 0.716821 0.215666
Si Si5 0.077900 0.672116 0.725002
Si Si6 0.655301 0.414952 0.054011
Si Si7 0.646549 0.927119 0.031051
O O1 0.854244 0.179856 0.726151
O O2 0.702526 0.089895 0.784787
O O3 0.000000 0.986661 0.500000
O O4 0.718262 0.943954 0.877074
O O5 0.027848 0.185735 0.280877
O O6 0.842912 0.302081 0.578201
O O7 0.161890 0.392746 0.188440
O O8 0.764713 0.159711 0.483443
O O9 0.026578 0.300065 0.161899
O O10 0.071990 0.050815 0.123074
O O11 0.905741 0.666198 0.212570
O O12 0.000000 0.792708 0.000000
O O13 0.986491 0.804504 0.804513
O O14 0.964963 0.551238 0.823403
O O15 0.693237 0.411532 0.092003
#
# Coordination Sequence:
#
# PCOD8048209 Si02
#       7
#     4   4   4   4   4   4   4
#     4  10  18  33  56  83 107 144 192 232 266 324
#     4   9  18  32  52  82 112 147 188 221 276 334
#     4  10  21  32  53  83 119 149 175 235 291 332
#     4  10  18  31  55  85 111 138 185 250 269 307
#     4  11  21  35  53  85 114 145 193 232 281 327
#     4  11  19  35  54  78 118 151 184 232 278 345
#     4  11  19  35  55  82 111 149 189 230 280 335
#
# _framework density 17.953061999999999
#
# number of rings (size 3 to 8) (size 9 to 14) (size 15 to 20)
#    0.000    1.714    4.286    1.714    0.000    0.000 
#    0.000    0.000    0.000    4.286   11.143    0.000 
#    0.000    0.000    0.000    0.000    0.000    0.000 
#
# Total GULP energy -173559.575417 kJ/mol
# GULP energy per Si atom -12397.112530 kJ/mol
# Density = 1.791220 g / cm^3
# Si number density = 17.953062 Si / 1000 Ang^3
#
#
#
# Elastic Constant Matrix: (Units=GPa)
#
#
# Indices 1 2 3 4 5 6 
#
# 1 90.5412 28.6727 32.9140 -0.0006 -4.3133 0.0001
# 2 28.6727 99.9256 55.1895 -0.0022 7.3128 0.0004
# 3 32.9140 55.1895 149.3490 -0.0025 11.5489 -0.0001
# 4 -0.0006 -0.0022 -0.0025 26.9257 0.0010 0.3065
# 5 -4.3133 7.3128 11.5489 0.0010 26.3686 0.0003
# 6 0.0001 0.0004 -0.0001 0.3065 0.0003 22.6291
#
#
#
# Elastic Compliance Matrix: (Units=1/GPa)
#
#
# Indices 1 2 3 4 5 6 
#
# 1 0.012879 -0.002819 -0.002091 0.000000 0.003804 0.000000
# 2 -0.002819 0.013249 -0.004093 0.000001 -0.002343 0.000000
# 3 -0.002091 -0.004093 0.008910 0.000001 -0.003109 0.000000
# 4 0.000000 0.000001 0.000001 0.037145 -0.000002 -0.000503
# 5 0.003804 -0.002343 -0.003109 -0.000002 0.040557 -0.000001
# 6 0.000000 0.000000 0.000000 -0.000503 -0.000001 0.044198
#
#
# Mechanical properties :
#
#
# Convention : Reuss Voigt Hill
#
# Bulk Modulus (GPa) = 58.71818 63.70757 61.21288
# Shear Modulus (GPa) = 27.68242 30.05399 28.86821
#
# Velocity S-wave (km/s) = 3.93101 4.09593 4.01432
# Velocity P-wave (km/s) = 7.30625 7.61128 7.46032
#
# Compressibility (1/GPa) = 0.01703050
#
# Stress axis : x y z
#
# Youngs Moduli (GPa) = 77.64759 75.47971 112.23953
#
# Poissons Ratio (x) = 0.21279 0.23465
# Poissons Ratio (y) = 0.21890 0.45944
# Poissons Ratio (z) = 0.16233 0.30897
#
# Static dielectric constant tensor:
#      x y z
#    x 3.303320 0.000000 -0.026090 
#    y 0.000000 3.014830 0.000000 
#    z -0.026090 0.000000 3.845820 
# 
# 
# High freq. dielectric constant tensor:
#      x y z
#    x 1.691030 0.000000 -0.011420 
#    y 0.000000 1.650890 0.000000 
#    z -0.011420 0.000000 1.719500 
# 
# From -- ./inp_files/28742.got.cif
#   From: 2010.03.12/outbox.cif.g09.slc.cpg/sg5_15_cif.got.tgz:28742.got - 2010.03.31 09:47:26.
