data_PCOD8048314
_publ_section_title
;
Structure prediction by ZEFSAII (Michael W. Deem and Ramdas Pophale) SiO2 
 PCOD8048314
Probable space group: C 2
;
_chemical_formula_sum "Si O2"
_cell_formula_units_Z 18
_cell_length_a 10.316886
_cell_length_b 14.492576
_cell_length_c 6.319860
_cell_angle_alpha 90.000000
_cell_angle_beta 63.500091
_cell_angle_gamma 90.000000
_cell_volume 845.654965
_symmetry_space_group_name_H-M "C 2"
_symmetry_group_IT_number 5
_symmetry_cell_setting 'monoclinic'
loop_
_space_group_symop_operation_xyz
x,y,z
-x,y,-z
1/2+x,1/2+y,z
1/2-x,1/2+y,-z
loop_
_atom_site_type_symbol
_atom_site_label
_atom_site_fract_x
_atom_site_fract_y
_atom_site_fract_z
Si Si1 0.283947 0.772180 0.983456
Si Si2 0.500000 0.823498 0.500000
Si Si3 0.094200 0.978997 0.624493
Si Si4 0.500000 0.326510 0.000000
Si Si5 0.130080 0.437623 0.783674
Si Si6 0.500000 0.632259 0.000000
O O1 0.299201 0.868879 0.095521
O O2 0.352341 0.691649 0.080205
O O3 0.372845 0.763321 0.698383
O O4 0.112257 0.762343 0.052026
O O5 0.562865 0.882467 0.641902
O O6 0.000000 0.943278 0.500000
O O7 0.101316 0.893254 0.782299
O O8 0.251286 0.004115 0.409202
O O9 0.026392 0.070062 0.775298
O O10 0.000000 0.492855 0.000000
#
# Coordination Sequence:
#
# PCOD8048314 Si02
#       6
#     4   2   4   2   4   2
#     4  11  21  39  65 103 124 173 226 267 319 389
#     4  10  18  34  68  90 126 162 226 268 304 370
#     4  11  23  41  65  96 134 171 214 274 330 385
#     4  11  22  38  72  97 128 172 234 261 314 392
#     4  10  20  36  68  96 122 170 232 262 312 390
#     4  11  26  38  66 103 136 172 210 269 350 382
#
# _framework density 21.285274999999999
#
# number of rings (size 3 to 8) (size 9 to 14) (size 15 to 20)
#    0.000    1.333    7.778    0.000    1.556    0.000 
#    0.000    0.000    7.333    4.000    0.000    0.000 
#    0.000    0.000    0.000    0.000    0.000    0.000 
#
# Total GULP energy -111495.803911 kJ/mol
# GULP energy per Si atom -12388.422657 kJ/mol
# Density = 2.123683 g / cm^3
# Si number density = 21.285275 Si / 1000 Ang^3
#
#
#
# Elastic Constant Matrix: (Units=GPa)
#
#
# Indices 1 2 3 4 5 6 
#
# 1 137.2853 21.4017 26.8342 0.0000 -8.7340 0.0000
# 2 21.4017 51.9031 13.4537 0.0000 -9.0477 0.0000
# 3 26.8342 13.4537 122.0793 0.0000 -17.1419 0.0000
# 4 0.0000 0.0000 0.0000 35.2507 0.0000 -22.7785
# 5 -8.7340 -9.0477 -17.1419 0.0000 42.2528 0.0000
# 6 0.0000 0.0000 0.0000 -22.7785 0.0000 30.5563
#
#
#
# Elastic Compliance Matrix: (Units=1/GPa)
#
#
# Indices 1 2 3 4 5 6 
#
# 1 0.008032 -0.002869 -0.001381 0.000000 0.000486 0.000000
# 2 -0.002869 0.021377 -0.001236 0.000000 0.003483 0.000000
# 3 -0.001381 -0.001236 0.009071 0.000000 0.003130 0.000000
# 4 0.000000 0.000000 0.000000 0.054734 0.000000 0.040802
# 5 0.000486 0.003483 0.003130 0.000000 0.025783 0.000000
# 6 0.000000 0.000000 0.000000 0.040802 0.000000 0.063143
#
#
# Mechanical properties :
#
#
# Convention : Reuss Voigt Hill
#
# Bulk Modulus (GPa) = 36.35430 48.29410 42.32420
# Shear Modulus (GPa) = 24.71795 38.25051 31.48423
#
# Velocity S-wave (km/s) = 3.41144 4.24375 3.85015
# Velocity P-wave (km/s) = 5.71260 6.83745 6.30018
#
# Compressibility (1/GPa) = 0.02750706
#
# Stress axis : x y z
#
# Youngs Moduli (GPa) = 124.49775 46.77841 110.24527
#
# Poissons Ratio (x) = 0.13422 0.15227
# Poissons Ratio (y) = 0.35723 0.13627
# Poissons Ratio (z) = 0.17195 0.05782
#
# Static dielectric constant tensor:
#      x y z
#    x 4.105840 0.000000 -0.174300 
#    y 0.000000 3.248880 0.000000 
#    z -0.174300 0.000000 3.886500 
# 
# 
# High freq. dielectric constant tensor:
#      x y z
#    x 1.848220 0.000000 0.006420 
#    y 0.000000 1.771210 0.000000 
#    z 0.006420 0.000000 1.858180 
# 
# From -- ./inp_files/2320.got.cif
#   From: 2010.03.12/outbox.cif.g09.slc.cpg/sg5_2_cif.got.tgz:2320.got - 2010.03.31 09:47:26.
