data_PCOD8048387
_publ_section_title
;
Structure prediction by ZEFSAII (Michael W. Deem and Ramdas Pophale) SiO2 
 PCOD8048387
Probable space group: C 2
;
_chemical_formula_sum "Si O2"
_cell_formula_units_Z 32
_cell_length_a 14.706825
_cell_length_b 11.011206
_cell_length_c 8.969309
_cell_angle_alpha 90.000000
_cell_angle_beta 80.748138
_cell_angle_gamma 90.000000
_cell_volume 1433.593600
_symmetry_space_group_name_H-M "C 2"
_symmetry_group_IT_number 5
_symmetry_cell_setting 'monoclinic'
loop_
_space_group_symop_operation_xyz
x,y,z
-x,y,-z
1/2+x,1/2+y,z
1/2-x,1/2+y,-z
loop_
_atom_site_type_symbol
_atom_site_label
_atom_site_fract_x
_atom_site_fract_y
_atom_site_fract_z
Si Si1 0.331915 0.706180 0.095481
Si Si2 0.460580 0.764951 0.300753
Si Si3 0.698526 0.389144 0.234817
Si Si4 0.358321 0.826726 0.629101
Si Si5 0.802912 0.002264 0.338885
Si Si6 0.734135 0.116298 0.637766
Si Si7 0.554574 0.557684 0.135048
Si Si8 0.898359 0.791982 0.457641
O O1 0.405120 0.792320 0.163987
O O2 0.241512 0.791549 0.107096
O O3 0.316697 0.579267 0.186557
O O4 0.371338 0.664677 0.926217
O O5 0.395605 0.789838 0.456742
O O6 0.553880 0.844533 0.285486
O O7 0.489349 0.619690 0.279162
O O8 0.770904 0.498259 0.253434
O O9 0.604571 0.440142 0.188393
O O10 0.675472 0.317547 0.392335
O O11 0.288805 0.723263 0.708200
O O12 0.301020 0.949658 0.639043
O O13 0.802341 0.088607 0.481956
O O14 0.884047 0.900010 0.339043
O O15 0.632812 0.164342 0.611616
O O16 0.500000 0.519565 0.000000
O O17 0.000000 0.782415 0.500000
#
# Coordination Sequence:
#
# PCOD8048387 Si02
#       8
#     4   4   4   4   4   4   4   4
#     4  11  22  40  58  86 123 162 209 251 294 379
#     4  10  19  37  57  92 112 147 206 261 294 359
#     4  11  22  41  62  86 128 158 201 258 313 367
#     4  10  19  32  61  88 118 147 193 255 319 356
#     4  10  20  35  56  87 121 159 193 244 310 372
#     4  10  18  37  57  87 122 154 188 247 324 370
#     4  10  24  38  62  86 120 163 220 256 288 357
#     4  10  22  34  61  93 123 151 194 255 321 368
#
# _framework density 22.321527
#
# number of rings (size 3 to 8) (size 9 to 14) (size 15 to 20)
#    0.000    1.750    3.750    1.500    3.500    1.000 
#    4.500    0.000    0.000    0.000    0.000    0.000 
#    0.000    0.000    0.000    0.000    0.000    0.000 
#
# Total GULP energy -198225.430194 kJ/mol
# GULP energy per Si atom -12389.089387 kJ/mol
# Density = 2.227072 g / cm^3
# Si number density = 22.321527 Si / 1000 Ang^3
#
#
#
# Elastic Constant Matrix: (Units=GPa)
#
#
# Indices 1 2 3 4 5 6 
#
# 1 118.4324 37.0014 2.7638 0.0000 19.3168 0.0000
# 2 37.0014 78.0395 13.8515 0.0000 0.6663 0.0000
# 3 2.7638 13.8515 43.3468 0.0000 3.3222 0.0000
# 4 0.0000 0.0000 0.0000 21.1979 0.0000 1.6000
# 5 19.3168 0.6663 3.3222 0.0000 26.8653 0.0000
# 6 0.0000 0.0000 0.0000 1.6000 0.0000 41.0306
#
#
#
# Elastic Compliance Matrix: (Units=1/GPa)
#
#
# Indices 1 2 3 4 5 6 
#
# 1 0.011556 -0.005715 0.001732 0.000000 -0.008381 0.000000
# 2 -0.005715 0.016412 -0.005213 0.000000 0.004347 0.000000
# 3 0.001732 -0.005213 0.024947 0.000000 -0.004201 0.000000
# 4 0.000000 0.000000 0.000000 0.047314 0.000000 -0.001845
# 5 -0.008381 0.004347 -0.004201 0.000000 0.043661 0.000000
# 6 0.000000 0.000000 0.000000 -0.001845 0.000000 0.024444
#
#
# Mechanical properties :
#
#
# Convention : Reuss Voigt Hill
#
# Bulk Modulus (GPa) = 28.96683 38.56134 33.76408
# Shear Modulus (GPa) = 25.22283 30.23222 27.72753
#
# Velocity S-wave (km/s) = 3.36516 3.68421 3.52829
# Velocity P-wave (km/s) = 5.30135 5.95069 5.63538
#
# Compressibility (1/GPa) = 0.03452224
#
# Stress axis : x y z
#
# Youngs Moduli (GPa) = 86.53740 60.93167 40.08464
#
# Poissons Ratio (x) = 0.34821 -0.06942
# Poissons Ratio (y) = 0.49454 0.20897
# Poissons Ratio (z) = -0.14986 0.31765
#
# Static dielectric constant tensor:
#      x y z
#    x 4.165940 0.000000 0.099830 
#    y 0.000000 3.911220 0.000000 
#    z 0.099830 0.000000 3.756380 
# 
# 
# High freq. dielectric constant tensor:
#      x y z
#    x 1.884410 0.000000 0.011490 
#    y 0.000000 1.860590 0.000000 
#    z 0.011490 0.000000 1.853280 
# 
# From -- ./inp_files/23890.got.cif
#   From: 2010.03.12/outbox.cif.g09.slc.cpg/sg5_12_cif.got.tgz:23890.got - 2010.03.31 09:47:26.
