data_PCOD8048557
_publ_section_title
;
Structure prediction by ZEFSAII (Michael W. Deem and Ramdas Pophale) SiO2 
 PCOD8048557
Probable space group: C 2
;
_chemical_formula_sum "Si O2"
_cell_formula_units_Z 30
_cell_length_a 20.432583
_cell_length_b 8.570916
_cell_length_c 9.270550
_cell_angle_alpha 90.000000
_cell_angle_beta 101.676949
_cell_angle_gamma 90.000000
_cell_volume 1589.914169
_symmetry_space_group_name_H-M "C 2"
_symmetry_group_IT_number 5
_symmetry_cell_setting 'monoclinic'
loop_
_space_group_symop_operation_xyz
x,y,z
-x,y,-z
1/2+x,1/2+y,z
1/2-x,1/2+y,-z
loop_
_atom_site_type_symbol
_atom_site_label
_atom_site_fract_x
_atom_site_fract_y
_atom_site_fract_z
Si Si1 0.500000 0.291250 0.000000
Si Si2 0.914450 0.364636 0.827836
Si Si3 0.285024 0.610192 0.046202
Si Si4 0.046674 0.507068 0.853205
Si Si5 0.725584 0.013878 0.314523
Si Si6 0.184313 0.444033 0.818428
Si Si7 0.222996 0.866023 0.386156
Si Si8 0.385960 0.516642 0.858142
O O1 0.465837 0.186400 0.109104
O O2 0.554706 0.395479 0.101479
O O3 0.844636 0.429734 0.740935
O O4 0.915715 0.179126 0.817170
O O5 0.977640 0.430727 0.763640
O O6 0.925695 0.415659 0.996114
O O7 0.269851 0.524670 0.189978
O O8 0.299618 0.792681 0.075345
O O9 0.221083 0.590461 0.911788
O O10 0.348234 0.531165 0.995048
O O11 0.106053 0.486834 0.764127
O O12 0.769586 0.913136 0.444484
O O13 0.709781 0.182617 0.372513
O O14 0.209576 0.413678 0.668329
O O15 0.161591 0.956092 0.288721
#
# Coordination Sequence:
#
# PCOD8048557 Si02
#       8
#     2   4   4   4   4   4   4   4
#     4  10  22  32  56  82 120 142 184 230 280 336
#     4  10  19  33  59  78 114 145 185 223 285 326
#     4  10  20  32  58  80 115 137 189 228 282 318
#     4  10  19  35  53  84 113 150 176 233 279 333
#     4  11  20  39  54  85 111 157 179 235 277 336
#     4  10  20  35  55  86 109 145 184 237 273 331
#     4  10  23  35  58  81 117 143 194 225 286 327
#     4  11  20  36  55  92 105 146 185 238 275 333
#
# _framework density 18.868942000000001
#
# number of rings (size 3 to 8) (size 9 to 14) (size 15 to 20)
#    0.000    1.867    2.667    3.200    3.733    1.067 
#    0.000    0.667    0.000    0.800    0.000    0.000 
#    0.000    0.000    0.000    0.000    0.000    0.000 
#
# Total GULP energy -185983.718836 kJ/mol
# GULP energy per Si atom -12398.914589 kJ/mol
# Density = 1.882600 g / cm^3
# Si number density = 18.868942 Si / 1000 Ang^3
#
#
#
# Elastic Constant Matrix: (Units=GPa)
#
#
# Indices 1 2 3 4 5 6 
#
# 1 122.5149 46.2976 23.3612 0.0000 11.5791 0.0000
# 2 46.2976 120.6193 22.2369 0.0000 11.2764 0.0000
# 3 23.3612 22.2369 59.5870 0.0000 10.3542 0.0000
# 4 0.0000 0.0000 0.0000 25.9562 0.0000 6.4510
# 5 11.5791 11.2764 10.3542 0.0000 21.4884 0.0000
# 6 0.0000 0.0000 0.0000 6.4510 0.0000 37.8574
#
#
#
# Elastic Compliance Matrix: (Units=1/GPa)
#
#
# Indices 1 2 3 4 5 6 
#
# 1 0.010054 -0.003190 -0.002293 0.000000 -0.002639 0.000000
# 2 -0.003190 0.010142 -0.002082 0.000000 -0.002600 0.000000
# 3 -0.002293 -0.002082 0.019703 0.000000 -0.007166 0.000000
# 4 0.000000 0.000000 0.000000 0.040230 0.000000 -0.006855
# 5 -0.002639 -0.002600 -0.007166 0.000000 0.052776 0.000000
# 6 0.000000 0.000000 0.000000 -0.006855 0.000000 0.027583
#
#
# Mechanical properties :
#
#
# Convention : Reuss Voigt Hill
#
# Bulk Modulus (GPa) = 40.37237 54.05696 47.21467
# Shear Modulus (GPa) = 27.19233 31.11544 29.15388
#
# Velocity S-wave (km/s) = 3.80032 4.06523 3.93501
# Velocity P-wave (km/s) = 6.37960 7.12360 6.76184
#
# Compressibility (1/GPa) = 0.02476941
#
# Stress axis : x y z
#
# Youngs Moduli (GPa) = 99.46014 98.60139 50.75268
#
# Poissons Ratio (x) = 0.31451 0.11637
# Poissons Ratio (y) = 0.31725 0.10569
# Poissons Ratio (z) = 0.22805 0.20533
#
# Static dielectric constant tensor:
#      x y z
#    x 3.830110 0.000000 0.022200 
#    y 0.000000 3.610070 0.000000 
#    z 0.022200 0.000000 3.114180 
# 
# 
# High freq. dielectric constant tensor:
#      x y z
#    x 1.739310 0.000000 0.004270 
#    y 0.000000 1.747720 0.000000 
#    z 0.004270 0.000000 1.697050 
# 
# From -- ./inp_files/28985.got.cif
#   From: 2010.03.12/outbox.cif.g09.slc.cpg/sg5_15_cif.got.tgz:28985.got - 2010.03.31 09:47:26.
