data_PCOD8048882
_publ_section_title
;
Structure prediction by ZEFSAII (Michael W. Deem and Ramdas Pophale) SiO2 
 PCOD8048882
Probable space group: C 2
;
_chemical_formula_sum "Si O2"
_cell_formula_units_Z 26
_cell_length_a 14.462391
_cell_length_b 15.213211
_cell_length_c 8.125461
_cell_angle_alpha 90.000000
_cell_angle_beta 40.887975
_cell_angle_gamma 90.000000
_cell_volume 1170.235221
_symmetry_space_group_name_H-M "C 2"
_symmetry_group_IT_number 5
_symmetry_cell_setting 'monoclinic'
loop_
_space_group_symop_operation_xyz
x,y,z
-x,y,-z
1/2+x,1/2+y,z
1/2-x,1/2+y,-z
loop_
_atom_site_type_symbol
_atom_site_label
_atom_site_fract_x
_atom_site_fract_y
_atom_site_fract_z
Si Si1 0.501039 0.795380 0.681574
Si Si2 0.805137 0.770595 0.905307
Si Si3 0.907051 0.490041 0.396145
Si Si4 0.500000 0.103843 0.000000
Si Si5 0.000000 0.909502 0.500000
Si Si6 0.097809 0.936467 0.718847
Si Si7 0.699260 0.260849 0.707279
Si Si8 0.000000 0.626413 0.500000
O O1 0.500000 0.757416 0.500000
O O2 0.514748 0.900997 0.658188
O O3 0.641081 0.756136 0.581531
O O4 0.353565 0.760992 0.957925
O O5 0.864331 0.851265 0.722239
O O6 0.904895 0.685512 0.750549
O O7 0.796701 0.796468 0.109636
O O8 0.018506 0.538451 0.126953
O O9 0.754495 0.474857 0.521923
O O10 0.887116 0.560918 0.568141
O O11 0.363515 0.163937 0.218029
O O12 0.962864 0.963304 0.381147
O O13 0.106319 0.829197 0.724074
O O14 0.000000 0.973081 0.000000
#
# Coordination Sequence:
#
# PCOD8048882 Si02
#       8
#     4   4   4   2   2   4   4   2
#     4   9  20  39  67  91 123 170 219 267 323 391
#     4  10  20  38  67  98 128 170 228 265 322 407
#     4  11  25  40  64  97 133 170 214 278 344 379
#     4  12  22  40  62  90 134 168 216 272 326 392
#     4  11  22  36  72  98 123 172 234 267 324 392
#     4  11  23  44  66  97 132 176 226 274 324 404
#     4  10  19  40  67  91 129 179 219 266 326 394
#     4  11  22  42  64  96 131 176 218 273 342 394
#
# _framework density 22.217756000000001
#
# number of rings (size 3 to 8) (size 9 to 14) (size 15 to 20)
#    0.000    1.538    4.615    0.000    4.308    0.000 
#    2.769    0.000    1.692    0.000    0.000    0.000 
#    0.000    0.000    0.000    0.000    0.000    0.000 
#
# Total GULP energy -161062.007291 kJ/mol
# GULP energy per Si atom -12389.385176 kJ/mol
# Density = 2.216719 g / cm^3
# Si number density = 22.217756 Si / 1000 Ang^3
#
#
#
# Elastic Constant Matrix: (Units=GPa)
#
#
# Indices 1 2 3 4 5 6 
#
# 1 105.0070 17.6391 39.7086 0.0000 -1.5274 0.0000
# 2 17.6391 65.3479 21.5874 0.0000 -11.4583 0.0000
# 3 39.7086 21.5874 92.7591 0.0000 -24.2536 0.0000
# 4 0.0000 0.0000 0.0000 19.2722 0.0000 -0.2622
# 5 -1.5274 -11.4583 -24.2536 0.0000 46.8939 0.0000
# 6 0.0000 0.0000 0.0000 -0.2622 0.0000 18.9156
#
#
#
# Elastic Compliance Matrix: (Units=1/GPa)
#
#
# Indices 1 2 3 4 5 6 
#
# 1 0.011834 -0.001923 -0.005366 0.000000 -0.002860 0.000000
# 2 -0.001923 0.017122 -0.002410 0.000000 0.002875 0.000000
# 3 -0.005366 -0.002410 0.015540 0.000000 0.007274 0.000000
# 4 0.000000 0.000000 0.000000 0.051898 0.000000 0.000719
# 5 -0.002860 0.002875 0.007274 0.000000 0.025696 0.000000
# 6 0.000000 0.000000 0.000000 0.000719 0.000000 0.052876
#
#
# Mechanical properties :
#
#
# Convention : Reuss Voigt Hill
#
# Bulk Modulus (GPa) = 39.84334 46.77603 43.30969
# Shear Modulus (GPa) = 24.66327 29.29493 26.97910
#
# Velocity S-wave (km/s) = 3.33539 3.63511 3.48847
# Velocity P-wave (km/s) = 5.72757 6.22236 5.98009
#
# Compressibility (1/GPa) = 0.02509830
#
# Stress axis : x y z
#
# Youngs Moduli (GPa) = 84.50385 58.40462 64.34820
#
# Poissons Ratio (x) = 0.11231 0.34529
# Poissons Ratio (y) = 0.16250 0.15507
# Poissons Ratio (z) = 0.45345 0.14075
#
# Static dielectric constant tensor:
#      x y z
#    x 4.130150 0.000000 -0.081490 
#    y 0.000000 3.688390 0.000000 
#    z -0.081490 0.000000 4.244620 
# 
# 
# High freq. dielectric constant tensor:
#      x y z
#    x 1.873660 0.000000 -0.009140 
#    y 0.000000 1.842850 0.000000 
#    z -0.009140 0.000000 1.878180 
# 
# From -- ./inp_files/20515.got.cif
#   From: 2010.03.12/outbox.cif.g09.slc.cpg/sg5_11_cif.got.tgz:20515.got - 2010.03.31 09:47:26.
