data_PCOD8048708
_publ_section_title
;
Structure prediction by ZEFSAII (Michael W. Deem and Ramdas Pophale) SiO2 
 PCOD8048708
Probable space group: C 2
;
_chemical_formula_sum "Si O2"
_cell_formula_units_Z 18
_cell_length_a 8.079475
_cell_length_b 18.366836
_cell_length_c 5.536761
_cell_angle_alpha 90.000000
_cell_angle_beta 58.373860
_cell_angle_gamma 90.000000
_cell_volume 699.603044
_symmetry_space_group_name_H-M "C 2"
_symmetry_group_IT_number 5
_symmetry_cell_setting 'monoclinic'
loop_
_space_group_symop_operation_xyz
x,y,z
-x,y,-z
1/2+x,1/2+y,z
1/2-x,1/2+y,-z
loop_
_atom_site_type_symbol
_atom_site_label
_atom_site_fract_x
_atom_site_fract_y
_atom_site_fract_z
Si Si1 0.500000 0.645880 0.000000
Si Si2 0.795721 0.059001 0.787727
Si Si3 0.698601 0.343772 0.625754
Si Si4 0.167775 0.683683 0.563136
Si Si5 0.730693 0.398051 0.099916
O O1 0.669132 0.595920 0.981549
O O2 0.385671 0.692956 0.285564
O O3 0.655155 0.113084 0.745273
O O4 0.000000 0.047923 0.500000
O O5 0.699539 0.980797 0.908349
O O6 0.640657 0.259879 0.722645
O O7 0.807564 0.354020 0.280809
O O8 0.502079 0.391117 0.749684
O O9 0.818674 0.370216 0.773147
O O10 0.000000 0.674167 0.500000
#
# Coordination Sequence:
#
# PCOD8048708 Si02
#       5
#     2   4   4   4   4
#     4  10  24  40  68  98 146 180 240 292 366 412
#     4  10  21  39  65 105 138 185 241 292 355 436
#     4  10  20  35  66 102 133 182 245 279 351 427
#     4  11  24  42  67 112 141 187 237 303 360 432
#     4  10  19  36  65 101 132 184 240 281 349 429
#
# _framework density 25.728877000000001
#
# number of rings (size 3 to 8) (size 9 to 14) (size 15 to 20)
#    0.000    1.778    4.444    1.333    6.222    0.889 
#    0.000    0.000    0.000    6.667    0.000    0.000 
#    0.000    0.000    0.000    0.000    0.000    0.000 
#
# Total GULP energy -111526.558857 kJ/mol
# GULP energy per Si atom -12391.839873 kJ/mol
# Density = 2.567032 g / cm^3
# Si number density = 25.728877 Si / 1000 Ang^3
#
#
#
# Elastic Constant Matrix: (Units=GPa)
#
#
# Indices 1 2 3 4 5 6 
#
# 1 98.6492 66.5878 38.6666 0.0000 46.4737 0.0000
# 2 66.5878 222.3283 37.1779 0.0000 42.0600 0.0000
# 3 38.6666 37.1779 133.7032 0.0000 50.2167 0.0000
# 4 0.0000 0.0000 0.0000 -1.2249 0.0000 22.9919
# 5 46.4737 42.0600 50.2167 0.0000 52.8159 0.0000
# 6 0.0000 0.0000 0.0000 22.9919 0.0000 20.7836
#
#
#
# Elastic Compliance Matrix: (Units=1/GPa)
#
#
# Indices 1 2 3 4 5 6 
#
# 1 0.018931 -0.002949 0.001119 0.000000 -0.015374 0.000000
# 2 -0.002949 0.005758 -0.000001 0.000000 -0.001989 0.000000
# 3 0.001119 -0.000001 0.011705 0.000000 -0.012113 0.000000
# 4 0.000000 0.000000 0.000000 -0.037510 0.000000 0.041495
# 5 -0.015374 -0.001989 -0.012113 0.000000 0.045563 0.000000
# 6 0.000000 0.000000 0.000000 0.041495 0.000000 0.002211
#
#
# Mechanical properties :
#
#
# Convention : Reuss Voigt Hill
#
# Bulk Modulus (GPa) = 30.54994 82.17171 56.36083
# Shear Modulus (GPa) = 81.65898 35.29148 58.47523
#
# Velocity S-wave (km/s) = 5.63978 3.70762 4.77251
# Velocity P-wave (km/s) = 7.36947 7.09475 7.23342
#
# Compressibility (1/GPa) = 0.03273329
#
# Stress axis : x y z
#
# Youngs Moduli (GPa) = 52.82281 173.68594 85.43032
#
# Poissons Ratio (x) = 0.51214 -0.09562
# Poissons Ratio (y) = 0.15576 0.00009
# Poissons Ratio (z) = -0.05912 0.00017
#
# Static dielectric constant tensor:
#      x y z
#    x 4.651730 0.000000 1.065280 
#    y 0.000000 4.526650 0.000000 
#    z 1.065280 0.000000 5.955450 
# 
# 
# High freq. dielectric constant tensor:
#      x y z
#    x 2.011790 0.000000 0.023800 
#    y 0.000000 2.022550 0.000000 
#    z 0.023800 0.000000 2.034690 
# 
# From -- ./inp_files/2300.got.cif
#   From: 2010.03.12/outbox.cif.g09.slc.cpg/sg5_2_cif.got.tgz:2300.got - 2010.03.31 09:47:26.
