data_PCOD8048362
_publ_section_title
;
Structure prediction by ZEFSAII (Michael W. Deem and Ramdas Pophale) SiO2 
 PCOD8048362
Probable space group: C 2
;
_chemical_formula_sum "Si O2"
_cell_formula_units_Z 22
_cell_length_a 9.851568
_cell_length_b 17.049488
_cell_length_c 12.359743
_cell_angle_alpha 90.000000
_cell_angle_beta 33.395331
_cell_angle_gamma 90.000000
_cell_volume 1142.653602
_symmetry_space_group_name_H-M "C 2"
_symmetry_group_IT_number 5
_symmetry_cell_setting 'monoclinic'
loop_
_space_group_symop_operation_xyz
x,y,z
-x,y,-z
1/2+x,1/2+y,z
1/2-x,1/2+y,-z
loop_
_atom_site_type_symbol
_atom_site_label
_atom_site_fract_x
_atom_site_fract_y
_atom_site_fract_z
Si Si1 0.500000 0.905340 0.500000
Si Si2 0.980536 0.006392 0.139349
Si Si3 0.106112 0.401894 0.035312
Si Si4 0.046652 0.179253 0.131447
Si Si5 0.886569 0.306886 0.365651
Si Si6 0.156051 0.751545 0.230568
O O1 0.736352 0.960249 0.333037
O O2 0.474671 0.849544 0.414363
O O3 0.978843 0.089699 0.202756
O O4 0.000000 0.024015 0.000000
O O5 0.218291 0.958374 0.015205
O O6 0.899729 0.369495 0.257013
O O7 0.254289 0.331389 0.882973
O O8 0.000000 0.448017 0.000000
O O9 0.073893 0.232878 0.221277
O O10 0.818741 0.224754 0.224076
O O11 0.297284 0.184021 0.892377
O O12 0.622727 0.265219 0.551001
#
# Coordination Sequence:
#
# PCOD8048362 Si02
#       6
#     2   4   4   4   4   4
#     4  12  26  38  66  98 128 178 206 270 332 374
#     4  12  24  42  63  99 134 166 213 271 328 375
#     4  11  22  40  64  93 126 168 217 263 319 376
#     4  10  22  38  65  91 123 170 213 266 309 378
#     4  11  22  38  63  94 124 169 216 261 308 391
#     4  10  18  36  61  92 115 160 218 250 303 375
#
# _framework density 19.253429000000001
#
# number of rings (size 3 to 8) (size 9 to 14) (size 15 to 20)
#    0.000    1.091    9.091    0.545    2.545    0.000 
#    0.000    1.818    0.000    0.000    0.000    0.000 
#    0.000    0.000    0.000    0.000    0.000    0.000 
#
# Total GULP energy -136277.496794 kJ/mol
# GULP energy per Si atom -12388.863345 kJ/mol
# Density = 1.920961 g / cm^3
# Si number density = 19.253429 Si / 1000 Ang^3
#
#
#
# Elastic Constant Matrix: (Units=GPa)
#
#
# Indices 1 2 3 4 5 6 
#
# 1 53.8938 35.6782 41.1289 0.0183 6.0955 0.0474
# 2 35.6782 128.1367 48.6355 -0.0214 -0.4538 0.0187
# 3 41.1289 48.6355 128.2156 0.0044 3.0051 -0.0793
# 4 0.0183 -0.0214 0.0044 27.9084 -0.0252 6.0520
# 5 6.0955 -0.4538 3.0051 -0.0252 29.4407 0.0195
# 6 0.0474 0.0187 -0.0793 6.0520 0.0195 31.7457
#
#
#
# Elastic Compliance Matrix: (Units=1/GPa)
#
#
# Indices 1 2 3 4 5 6 
#
# 1 0.027760 -0.005156 -0.006829 -0.000015 -0.005130 -0.000049
# 2 -0.005156 0.010081 -0.002204 0.000014 0.001448 -0.000007
# 3 -0.006829 -0.002204 0.010820 -0.000007 0.000276 0.000040
# 4 -0.000015 0.000014 -0.000007 0.037377 0.000041 -0.007125
# 5 -0.005130 0.001448 0.000276 0.000041 0.035023 -0.000022
# 6 -0.000049 -0.000007 0.000040 -0.007125 -0.000022 0.032859
#
#
# Mechanical properties :
#
#
# Convention : Reuss Voigt Hill
#
# Bulk Modulus (GPa) = 49.30158 62.34792 55.82475
# Shear Modulus (GPa) = 26.44688 30.13919 28.29303
#
# Velocity S-wave (km/s) = 3.71026 3.96080 3.83757
# Velocity P-wave (km/s) = 6.63452 7.30550 6.97808
#
# Compressibility (1/GPa) = 0.02028332
#
# Stress axis : x y z
#
# Youngs Moduli (GPa) = 36.02333 99.19193 92.42438
#
# Poissons Ratio (x) = 0.51139 0.63116
# Poissons Ratio (y) = 0.18572 0.20373
# Poissons Ratio (z) = 0.24600 0.21865
#
# Static dielectric constant tensor:
#      x y z
#    x 3.546910 0.000320 0.278910 
#    y 0.000320 3.719990 -0.000150 
#    z 0.278910 -0.000150 3.759660 
# 
# 
# High freq. dielectric constant tensor:
#      x y z
#    x 1.725700 0.000000 0.019310 
#    y 0.000000 1.746120 0.000010 
#    z 0.019310 0.000010 1.762100 
# 
# From -- ./inp_files/36746.got.cif
#   From: 2010.03.12/outbox.cif.g09.slc.cpg/sg5_19_cif.got.tgz:36746.got - 2010.03.31 09:47:26.
