data_PCOD8048511
_publ_section_title
;
Structure prediction by ZEFSAII (Michael W. Deem and Ramdas Pophale) SiO2 
 PCOD8048511
Probable space group: C 2
;
_chemical_formula_sum "Si O2"
_cell_formula_units_Z 32
_cell_length_a 18.328871
_cell_length_b 11.965569
_cell_length_c 18.813708
_cell_angle_alpha 90.000000
_cell_angle_beta 23.636697
_cell_angle_gamma 90.000000
_cell_volume 1654.315645
_symmetry_space_group_name_H-M "C 2"
_symmetry_group_IT_number 5
_symmetry_cell_setting 'monoclinic'
loop_
_space_group_symop_operation_xyz
x,y,z
-x,y,-z
1/2+x,1/2+y,z
1/2-x,1/2+y,-z
loop_
_atom_site_type_symbol
_atom_site_label
_atom_site_fract_x
_atom_site_fract_y
_atom_site_fract_z
Si Si1 0.166544 0.084930 0.183162
Si Si2 0.776234 0.879254 0.621723
Si Si3 0.166365 0.673531 0.183346
Si Si4 0.944065 0.749636 0.874136
Si Si5 0.943899 0.008851 0.874311
Si Si6 0.209974 0.879229 0.230729
Si Si7 0.273853 0.146776 0.561136
Si Si8 0.225971 0.111715 0.439049
O O1 0.102376 0.029743 0.166626
O O2 0.988688 0.126515 0.386735
O O3 0.274254 0.990509 0.131768
O O4 0.296089 0.190191 0.056126
O O5 0.704137 0.879223 0.767254
O O6 0.702052 0.769942 0.647429
O O7 0.992726 0.879252 0.426704
O O8 0.702094 0.988614 0.647438
O O9 0.102224 0.728747 0.166790
O O10 0.274175 0.767919 0.131852
O O11 0.988511 0.631983 0.386931
O O12 0.295810 0.568220 0.056388
O O13 0.144930 0.702389 0.714729
O O14 0.939717 0.879238 0.896228
O O15 0.144676 0.056196 0.715029
O O16 0.249924 0.129152 0.500089
#
# Coordination Sequence:
#
# PCOD8048511 Si02
#       8
#     4   4   4   4   4   4   4   4
#     4   9  18  33  50  77 102 137 170 216 263 299
#     4   9  18  33  55  85 100 137 178 209 267 312
#     4   9  18  33  50  77 102 137 170 216 263 299
#     4  10  19  32  50  76 107 135 175 213 256 311
#     4  10  19  32  50  76 107 135 175 213 256 311
#     4   9  16  33  59  75 110 132 172 228 254 305
#     4   9  19  32  51  75 107 132 166 215 260 306
#     4   9  19  32  51  75 107 132 166 215 260 306
#
# _framework density 19.343347000000001
#
# number of rings (size 3 to 8) (size 9 to 14) (size 15 to 20)
#    0.000    2.750    1.250    0.000    5.250    2.000 
#   11.250    2.500    0.000    3.000    0.000    7.000 
#    0.000    0.000    0.000    0.000    0.000    0.000 
#
# Total GULP energy -198320.343694 kJ/mol
# GULP energy per Si atom -12395.021481 kJ/mol
# Density = 1.929932 g / cm^3
# Si number density = 19.343347 Si / 1000 Ang^3
#
#
#
# Elastic Constant Matrix: (Units=GPa)
#
#
# Indices 1 2 3 4 5 6 
#
# 1 65.2533 51.1818 17.4646 0.0070 12.8624 -0.0012
# 2 51.1818 200.6051 84.6021 0.0264 5.4739 -0.0075
# 3 17.4646 84.6021 110.4526 0.0118 -0.2188 -0.0038
# 4 0.0070 0.0264 0.0118 35.3630 -0.0009 6.0208
# 5 12.8624 5.4739 -0.2188 -0.0009 17.0314 -0.0010
# 6 -0.0012 -0.0075 -0.0038 6.0208 -0.0010 22.9352
#
#
#
# Elastic Compliance Matrix: (Units=1/GPa)
#
#
# Indices 1 2 3 4 5 6 
#
# 1 0.022558 -0.005648 0.000729 -0.000001 -0.015212 -0.000001
# 2 -0.005648 0.008880 -0.005906 -0.000004 0.001335 0.000003
# 3 0.000729 -0.005906 0.013465 0.000000 0.001521 0.000000
# 4 -0.000001 -0.000004 0.000000 0.029601 0.000003 -0.007771
# 5 -0.015212 0.001335 0.001521 0.000003 0.069794 0.000002
# 6 -0.000001 0.000003 0.000000 -0.007771 0.000002 0.045641
#
#
# Mechanical properties :
#
#
# Convention : Reuss Voigt Hill
#
# Bulk Modulus (GPa) = 43.00404 75.86755 59.43580
# Shear Modulus (GPa) = 22.79552 29.93673 26.36612
#
# Velocity S-wave (km/s) = 3.43661 3.93829 3.69597
# Velocity P-wave (km/s) = 6.16662 7.74511 7.00050
#
# Compressibility (1/GPa) = 0.02325363
#
# Stress axis : x y z
#
# Youngs Moduli (GPa) = 44.32990 112.60844 74.26444
#
# Poissons Ratio (x) = 0.63599 -0.05413
# Poissons Ratio (y) = 0.25036 0.43863
# Poissons Ratio (z) = -0.03231 0.66510
#
# Static dielectric constant tensor:
#      x y z
#    x 3.260990 -0.000010 0.007110 
#    y -0.000010 3.595890 0.000000 
#    z 0.007110 0.000000 3.968510 
# 
# 
# High freq. dielectric constant tensor:
#      x y z
#    x 1.706230 0.000000 0.004300 
#    y 0.000000 1.748370 0.000000 
#    z 0.004300 0.000000 1.762700 
# 
# From -- ./inp_files/67122.got.cif
#   From: 2010.03.12/outbox.cif.g09.slc.cpg/sg5_34_cif.got.tgz:67122.got - 2010.03.31 09:47:26.
