data_PCOD8048656
_publ_section_title
;
Structure prediction by ZEFSAII (Michael W. Deem and Ramdas Pophale) SiO2 
 PCOD8048656
Probable space group: C 2
;
_chemical_formula_sum "Si O2"
_cell_formula_units_Z 32
_cell_length_a 9.437969
_cell_length_b 19.155301
_cell_length_c 16.268530
_cell_angle_alpha 90.000000
_cell_angle_beta 33.542964
_cell_angle_gamma 90.000000
_cell_volume 1625.163116
_symmetry_space_group_name_H-M "C 2"
_symmetry_group_IT_number 5
_symmetry_cell_setting 'monoclinic'
loop_
_space_group_symop_operation_xyz
x,y,z
-x,y,-z
1/2+x,1/2+y,z
1/2-x,1/2+y,-z
loop_
_atom_site_type_symbol
_atom_site_label
_atom_site_fract_x
_atom_site_fract_y
_atom_site_fract_z
Si Si1 0.735183 0.173440 0.449127
Si Si2 0.569157 0.835877 0.109172
Si Si3 0.680622 0.812970 0.490330
Si Si4 0.163879 0.809144 0.166262
Si Si5 0.227113 0.651458 0.093866
Si Si6 0.209580 0.192468 0.112894
Si Si7 0.219606 0.574958 0.603069
Si Si8 0.289470 0.912161 0.379796
O O1 0.500000 0.185007 0.500000
O O2 0.760127 0.240244 0.494908
O O3 0.669656 0.107431 0.537662
O O4 0.008208 0.158135 0.273513
O O5 0.395215 0.810187 0.118109
O O6 0.609810 0.771362 0.150138
O O7 0.462805 0.899980 0.213990
O O8 0.816277 0.852220 0.931259
O O9 0.500000 0.800707 0.500000
O O10 0.589396 0.868693 0.602812
O O11 0.934320 0.844358 0.326527
O O12 0.117034 0.727883 0.167916
O O13 0.005272 0.597332 0.226016
O O14 0.500000 0.632172 0.000000
O O15 0.287410 0.644730 0.968679
O O16 0.500000 0.195740 0.000000
O O17 0.500000 0.598001 0.500000
O O18 0.205118 0.492285 0.599144
O O19 0.000000 0.886180 0.500000
#
# Coordination Sequence:
#
# PCOD8048656 Si02
#       8
#     4   4   4   4   4   4   4   4
#     4  12  23  40  67  94 122 168 213 258 317 379
#     4  10  19  36  61  91 123 154 203 246 318 373
#     4  12  24  37  64  96 127 158 209 270 309 363
#     4  10  19  35  64  96 118 154 203 261 311 372
#     4  11  20  38  61  90 122 158 200 253 314 374
#     4  11  22  33  59  96 126 147 198 268 311 356
#     4  11  25  42  63  89 127 170 211 257 314 372
#     4  11  23  42  63  87 127 172 212 254 311 384
#
# _framework density 19.690331
#
# number of rings (size 3 to 8) (size 9 to 14) (size 15 to 20)
#    0.000    1.000    6.250    3.000    3.500    0.500 
#    0.000    3.125    2.750    0.000    0.000    0.000 
#    0.000    0.000    0.000    0.000    0.000    0.000 
#
# Total GULP energy -198282.810828 kJ/mol
# GULP energy per Si atom -12392.675677 kJ/mol
# Density = 1.964552 g / cm^3
# Si number density = 19.690331 Si / 1000 Ang^3
#
#
#
# Elastic Constant Matrix: (Units=GPa)
#
#
# Indices 1 2 3 4 5 6 
#
# 1 122.6710 47.1709 37.7947 -0.0205 8.8813 0.0350
# 2 47.1709 79.6590 39.7112 0.0058 10.5587 0.0277
# 3 37.7947 39.7112 145.8388 0.0081 16.0235 0.0892
# 4 -0.0205 0.0058 0.0081 29.8235 0.0088 7.7478
# 5 8.8813 10.5587 16.0235 0.0088 34.4294 -0.0422
# 6 0.0350 0.0277 0.0892 7.7478 -0.0422 32.6198
#
#
#
# Elastic Compliance Matrix: (Units=1/GPa)
#
#
# Indices 1 2 3 4 5 6 
#
# 1 0.010746 -0.005714 -0.001177 0.000011 -0.000472 -0.000007
# 2 -0.005714 0.017816 -0.003090 -0.000005 -0.002552 -0.000003
# 3 -0.001177 -0.003090 0.008290 0.000004 -0.002607 -0.000023
# 4 0.000011 -0.000005 0.000004 0.035736 -0.000023 -0.008488
# 5 -0.000472 -0.002552 -0.002607 -0.000023 0.031162 0.000056
# 6 -0.000007 -0.000003 -0.000023 -0.008488 0.000056 0.032672
#
#
# Mechanical properties :
#
#
# Convention : Reuss Voigt Hill
#
# Bulk Modulus (GPa) = 59.20922 66.39140 62.80031
# Shear Modulus (GPa) = 30.86156 34.27400 32.56778
#
# Velocity S-wave (km/s) = 3.96327 4.17664 4.07135
# Velocity P-wave (km/s) = 7.14694 7.55315 7.35285
#
# Compressibility (1/GPa) = 0.01688926
#
# Stress axis : x y z
#
# Youngs Moduli (GPa) = 93.05860 56.13025 120.63077
#
# Poissons Ratio (x) = 0.32073 0.14200
# Poissons Ratio (y) = 0.53173 0.37275
# Poissons Ratio (z) = 0.10954 0.17344
#
# Static dielectric constant tensor:
#      x y z
#    x 3.486720 0.000030 0.301630 
#    y 0.000030 3.183470 -0.000170 
#    z 0.301630 -0.000170 3.321630 
# 
# 
# High freq. dielectric constant tensor:
#      x y z
#    x 1.773750 0.000000 0.011020 
#    y 0.000000 1.723780 0.000000 
#    z 0.011020 0.000000 1.794730 
# 
# From -- ./inp_files/51547.got.cif
#   From: 2010.03.12/outbox.cif.g09.slc.cpg/sg5_26_cif.got.tgz:51547.got - 2010.03.31 09:47:26.
