data_PCOD8048159
_publ_section_title
;
Structure prediction by ZEFSAII (Michael W. Deem and Ramdas Pophale) SiO2 
 PCOD8048159
Probable space group: C 2
;
_chemical_formula_sum "Si O2"
_cell_formula_units_Z 24
_cell_length_a 9.975719
_cell_length_b 17.042880
_cell_length_c 8.472466
_cell_angle_alpha 90.000000
_cell_angle_beta 64.338840
_cell_angle_gamma 90.000000
_cell_volume 1298.376081
_symmetry_space_group_name_H-M "C 2"
_symmetry_group_IT_number 5
_symmetry_cell_setting 'monoclinic'
loop_
_space_group_symop_operation_xyz
x,y,z
-x,y,-z
1/2+x,1/2+y,z
1/2-x,1/2+y,-z
loop_
_atom_site_type_symbol
_atom_site_label
_atom_site_fract_x
_atom_site_fract_y
_atom_site_fract_z
Si Si1 0.635158 0.914560 0.227665
Si Si2 0.646860 0.580492 0.333444
Si Si3 0.909579 0.834035 0.404772
Si Si4 0.162616 0.251647 0.341316
Si Si5 0.687153 0.961315 0.557678
Si Si6 0.093006 0.951004 0.105139
O O1 0.664290 0.821299 0.213762
O O2 0.679050 0.957542 0.370768
O O3 0.464204 0.934055 0.280984
O O4 0.735032 0.941930 0.031554
O O5 0.500000 0.602241 0.500000
O O6 0.701077 0.666661 0.245171
O O7 0.770486 0.545716 0.391070
O O8 0.597423 0.523852 0.219770
O O9 0.795676 0.769956 0.396289
O O10 0.819680 0.903409 0.540288
O O11 0.000000 0.792225 0.500000
O O12 0.017679 0.872636 0.216820
O O13 0.000000 0.256892 0.500000
O O14 0.000000 0.976209 0.000000
#
# Coordination Sequence:
#
# PCOD8048159 Si02
#       6
#     4   4   4   4   4   4
#     4  10  20  35  61  83 115 157 196 235 283 354
#     4  11  21  36  61  87 117 151 193 246 295 339
#     4  11  19  37  61  87 112 153 202 234 282 360
#     4  10  20  37  62  85 118 152 192 242 298 337
#     4  10  17  37  57  84 112 150 200 228 284 352
#     4  12  20  34  62  87 113 154 200 241 281 349
#
# _framework density 18.484629000000002
#
# number of rings (size 3 to 8) (size 9 to 14) (size 15 to 20)
#    0.000    1.333   10.000    0.000    0.000    0.667 
#    3.000    3.333   11.000    0.000    0.000    0.000 
#    0.000    0.000    0.000    0.000    0.000    0.000 
#
# Total GULP energy -148679.671827 kJ/mol
# GULP energy per Si atom -12389.972652 kJ/mol
# Density = 1.844256 g / cm^3
# Si number density = 18.484629 Si / 1000 Ang^3
#
#
#
# Elastic Constant Matrix: (Units=GPa)
#
#
# Indices 1 2 3 4 5 6 
#
# 1 97.0910 23.7183 31.9737 0.0000 -7.7505 0.0000
# 2 23.7183 94.0123 19.5401 0.0000 11.8729 0.0000
# 3 31.9737 19.5401 70.8242 0.0000 -13.3577 0.0000
# 4 0.0000 0.0000 0.0000 6.8488 0.0000 -13.8795
# 5 -7.7505 11.8729 -13.3577 0.0000 31.5366 0.0000
# 6 0.0000 0.0000 0.0000 -13.8795 0.0000 -17.8019
#
#
#
# Elastic Compliance Matrix: (Units=1/GPa)
#
#
# Indices 1 2 3 4 5 6 
#
# 1 0.012589 -0.002481 -0.004607 0.000000 0.002076 0.000000
# 2 -0.002481 0.012945 -0.003788 0.000000 -0.007088 0.000000
# 3 -0.004607 -0.003788 0.018802 0.000000 0.008258 0.000000
# 4 0.000000 0.000000 0.000000 0.056593 0.000000 -0.044123
# 5 0.002076 -0.007088 0.008258 0.000000 0.038386 0.000000
# 6 0.000000 0.000000 0.000000 -0.044123 0.000000 -0.021772
#
#
# Mechanical properties :
#
#
# Convention : Reuss Voigt Hill
#
# Bulk Modulus (GPa) = 44.28025 45.82132 45.05078
# Shear Modulus (GPa) = 34.05478 16.56304 25.30891
#
# Velocity S-wave (km/s) = 4.29689 2.99665 3.70427
# Velocity P-wave (km/s) = 6.97316 6.06761 6.53608
#
# Compressibility (1/GPa) = 0.02258343
#
# Stress axis : x y z
#
# Youngs Moduli (GPa) = 79.43721 77.24810 53.18566
#
# Poissons Ratio (x) = 0.19162 0.24503
# Poissons Ratio (y) = 0.19705 0.20149
# Poissons Ratio (z) = 0.36598 0.29265
#
# Static dielectric constant tensor:
#      x y z
#    x 3.657940 0.000000 -0.151950 
#    y 0.000000 3.393490 0.000000 
#    z -0.151950 0.000000 3.316200 
# 
# 
# High freq. dielectric constant tensor:
#      x y z
#    x 1.734630 0.000000 -0.013330 
#    y 0.000000 1.697590 0.000000 
#    z -0.013330 0.000000 1.698050 
# 
# From -- ./inp_files/20891.got.cif
#   From: 2010.03.12/outbox.cif.g09.slc.cpg/sg5_11_cif.got.tgz:20891.got - 2010.03.31 09:47:26.
