data_PCOD8048484
_publ_section_title
;
Structure prediction by ZEFSAII (Michael W. Deem and Ramdas Pophale) SiO2 
 PCOD8048484
Probable space group: C 2
;
_chemical_formula_sum "Si O2"
_cell_formula_units_Z 24
_cell_length_a 10.132399
_cell_length_b 9.276239
_cell_length_c 10.704391
_cell_angle_alpha 90.000000
_cell_angle_beta 74.507423
_cell_angle_gamma 90.000000
_cell_volume 969.554650
_symmetry_space_group_name_H-M "C 2"
_symmetry_group_IT_number 5
_symmetry_cell_setting 'monoclinic'
loop_
_space_group_symop_operation_xyz
x,y,z
-x,y,-z
1/2+x,1/2+y,z
1/2-x,1/2+y,-z
loop_
_atom_site_type_symbol
_atom_site_label
_atom_site_fract_x
_atom_site_fract_y
_atom_site_fract_z
Si Si1 0.395090 0.611220 0.695818
Si Si2 0.094918 0.332545 0.723771
Si Si3 0.712288 0.502339 0.035976
Si Si4 0.000000 0.861493 0.500000
Si Si5 0.108267 0.652288 0.668008
Si Si6 0.000000 0.440041 0.000000
Si Si7 0.312684 0.215766 0.840344
O O1 0.523729 0.719186 0.646941
O O2 0.397356 0.566459 0.840891
O O3 0.415440 0.465048 0.613101
O O4 0.252225 0.690508 0.698247
O O5 0.109754 0.480421 0.641208
O O6 0.246925 0.281060 0.729986
O O7 0.998471 0.346020 0.872238
O O8 0.866160 0.540083 0.046860
O O9 0.698387 0.328668 0.040282
O O10 0.713858 0.578129 0.899579
O O11 0.103213 0.754077 0.547410
O O12 0.971655 0.678777 0.784331
#
# Coordination Sequence:
#
# PCOD8048484 Si02
#       7
#     4   4   4   2   4   2   4
#     4  12  26  47  74 107 144 188 249 302 356 428
#     4  11  24  44  73 108 148 189 229 297 366 434
#     4  11  20  41  72 110 148 189 228 296 358 439
#     4  12  30  50  70 106 142 192 260 302 348 430
#     4  12  25  51  76 101 145 194 243 306 362 425
#     4  10  18  42  70 106 154 182 224 288 364 446
#     4  11  23  45  75 112 153 188 235 292 369 441
#
# _framework density 24.753634000000002
#
# number of rings (size 3 to 8) (size 9 to 14) (size 15 to 20)
#    0.000    0.667    6.667    2.000    0.000    6.000 
#    0.000    3.333    0.000    0.000    0.000    0.000 
#    0.000    0.000    0.000    0.000    0.000    0.000 
#
# Total GULP energy -148659.426837 kJ/mol
# GULP energy per Si atom -12388.285570 kJ/mol
# Density = 2.469729 g / cm^3
# Si number density = 24.753634 Si / 1000 Ang^3
#
#
#
# Elastic Constant Matrix: (Units=GPa)
#
#
# Indices 1 2 3 4 5 6 
#
# 1 120.8151 58.9445 11.0988 0.0000 -2.1481 0.0000
# 2 58.9445 151.6767 30.6788 0.0000 15.6493 0.0000
# 3 11.0988 30.6788 57.8403 0.0000 4.7624 0.0000
# 4 0.0000 0.0000 0.0000 46.4407 0.0000 5.1699
# 5 -2.1481 15.6493 4.7624 0.0000 23.4574 0.0000
# 6 0.0000 0.0000 0.0000 5.1699 0.0000 44.1444
#
#
#
# Elastic Compliance Matrix: (Units=1/GPa)
#
#
# Indices 1 2 3 4 5 6 
#
# 1 0.010548 -0.004518 0.000045 0.000000 0.003971 0.000000
# 2 -0.004518 0.009751 -0.003799 0.000000 -0.006148 0.000000
# 3 0.000045 -0.003799 0.019411 0.000000 -0.001402 0.000000
# 4 0.000000 0.000000 0.000000 0.021817 0.000000 -0.002555
# 5 0.003971 -0.006148 -0.001402 0.000000 0.047380 0.000000
# 6 0.000000 0.000000 0.000000 -0.002555 0.000000 0.022952
#
#
# Mechanical properties :
#
#
# Convention : Reuss Voigt Hill
#
# Bulk Modulus (GPa) = 43.16522 59.08628 51.12575
# Shear Modulus (GPa) = 32.02552 38.11581 35.07066
#
# Velocity S-wave (km/s) = 3.60080 3.92829 3.76811
# Velocity P-wave (km/s) = 5.89606 6.67060 6.29525
#
# Compressibility (1/GPa) = 0.02316680
#
# Stress axis : x y z
#
# Youngs Moduli (GPa) = 94.80643 102.54851 51.51774
#
# Poissons Ratio (x) = 0.46331 -0.00234
# Poissons Ratio (y) = 0.42833 0.19572
# Poissons Ratio (z) = -0.00431 0.38959
#
# Static dielectric constant tensor:
#      x y z
#    x 4.322940 0.000000 -0.118850 
#    y 0.000000 4.635980 0.000000 
#    z -0.118850 0.000000 4.393680 
# 
# 
# High freq. dielectric constant tensor:
#      x y z
#    x 1.980730 0.000000 -0.023640 
#    y 0.000000 1.991240 0.000000 
#    z -0.023640 0.000000 1.964600 
# 
# From -- ./inp_files/38294.got.cif
#   From: 2010.03.12/outbox.cif.g09.slc.cpg/sg5_20_cif.got.tgz:38294.got - 2010.03.31 09:47:26.
