data_PCOD8048234
_publ_section_title
;
Structure prediction by ZEFSAII (Michael W. Deem and Ramdas Pophale) SiO2 
 PCOD8048234
Probable space group: C 2
;
_chemical_formula_sum "Si O2"
_cell_formula_units_Z 32
_cell_length_a 16.001794
_cell_length_b 9.279737
_cell_length_c 22.683166
_cell_angle_alpha 90.000000
_cell_angle_beta 149.119157
_cell_angle_gamma 90.000000
_cell_volume 1728.783598
_symmetry_space_group_name_H-M "C 2"
_symmetry_group_IT_number 5
_symmetry_cell_setting 'monoclinic'
loop_
_space_group_symop_operation_xyz
x,y,z
-x,y,-z
1/2+x,1/2+y,z
1/2-x,1/2+y,-z
loop_
_atom_site_type_symbol
_atom_site_label
_atom_site_fract_x
_atom_site_fract_y
_atom_site_fract_z
Si Si1 0.964298 0.160450 0.541242
Si Si2 0.158700 0.847089 0.328960
Si Si3 0.807446 0.333688 0.169676
Si Si4 0.810514 0.784193 0.779813
Si Si5 0.990243 0.058292 0.312734
Si Si6 0.135009 0.638497 0.974331
Si Si7 0.861259 0.642542 0.156621
Si Si8 0.183333 0.401630 0.091063
O O1 0.836222 0.289853 0.454703
O O2 0.000000 0.080613 0.500000
O O3 0.131716 0.224497 0.664875
O O4 0.916880 0.054442 0.567013
O O5 0.151886 0.886375 0.254517
O O6 0.035068 0.718318 0.268330
O O7 0.110002 0.987117 0.337044
O O8 0.691439 0.360222 0.157086
O O9 0.955609 0.222485 0.271357
O O10 0.882922 0.485997 0.197488
O O11 0.700881 0.274928 0.050909
O O12 0.938879 0.652213 0.857439
O O13 0.817097 0.974674 0.215144
O O14 0.200501 0.638438 0.947766
O O15 0.198571 0.487485 0.038694
O O16 0.723770 0.733727 0.107919
O O17 0.000000 0.423969 0.000000
#
# Coordination Sequence:
#
# PCOD8048234 Si02
#       8
#     4   4   4   4   4   4   4   4
#     4   9  17  31  53  77  97 128 169 209 248 297
#     4   9  19  35  54  74 101 132 167 213 254 292
#     4  10  19  33  52  75 100 133 171 209 247 301
#     4   9  18  32  53  76  98 130 174 206 243 300
#     4   9  19  34  54  77 101 132 171 206 252 307
#     4  10  18  33  52  72 102 138 170 203 244 300
#     4  10  21  33  48  76 104 131 169 208 250 296
#     4  10  19  33  51  73 104 136 163 204 252 293
#
# _framework density 18.510126
#
# number of rings (size 3 to 8) (size 9 to 14) (size 15 to 20)
#    0.000    2.500    0.000    3.375    0.000    4.000 
#    0.000    1.250    0.000    3.000    0.000    8.750 
#    0.000    0.000    0.000    0.000    0.000    0.000 
#
# Total GULP energy -198236.194912 kJ/mol
# GULP energy per Si atom -12389.762182 kJ/mol
# Density = 1.846800 g / cm^3
# Si number density = 18.510126 Si / 1000 Ang^3
#
#
#
# Elastic Constant Matrix: (Units=GPa)
#
#
# Indices 1 2 3 4 5 6 
#
# 1 98.3559 47.5290 24.5148 0.0005 -32.1262 0.0000
# 2 47.5290 107.4348 26.6765 -0.0001 -15.9972 0.0000
# 3 24.5148 26.6765 72.0924 -0.0016 -13.0203 0.0003
# 4 0.0005 -0.0001 -0.0016 15.1213 0.0001 0.0368
# 5 -32.1262 -15.9972 -13.0203 0.0001 34.0121 0.0001
# 6 0.0000 0.0000 0.0003 0.0368 0.0001 25.9965
#
#
#
# Elastic Compliance Matrix: (Units=1/GPa)
#
#
# Indices 1 2 3 4 5 6 
#
# 1 0.017543 -0.005374 -0.001548 -0.000001 0.013450 0.000000
# 2 -0.005374 0.012328 -0.002797 0.000000 -0.000348 0.000000
# 3 -0.001548 -0.002797 0.016040 0.000002 0.003363 0.000000
# 4 -0.000001 0.000000 0.000002 0.066132 0.000000 -0.000094
# 5 0.013450 -0.000348 0.003363 0.000000 0.043229 0.000000
# 6 0.000000 0.000000 0.000000 -0.000094 0.000000 0.038467
#
#
# Mechanical properties :
#
#
# Convention : Reuss Voigt Hill
#
# Bulk Modulus (GPa) = 37.77432 52.81372 45.29402
# Shear Modulus (GPa) = 22.52237 26.97016 24.74626
#
# Velocity S-wave (km/s) = 3.49199 3.82127 3.66034
# Velocity P-wave (km/s) = 6.05891 6.93280 6.51054
#
# Compressibility (1/GPa) = 0.02647301
#
# Stress axis : x y z
#
# Youngs Moduli (GPa) = 57.00237 81.11547 62.34486
#
# Poissons Ratio (x) = 0.43591 0.09649
# Poissons Ratio (y) = 0.30633 0.17440
# Poissons Ratio (z) = 0.08822 0.22691
#
# Static dielectric constant tensor:
#      x y z
#    x 3.808110 0.000000 -0.328560 
#    y 0.000000 3.146850 0.000000 
#    z -0.328560 0.000000 3.591480 
# 
# 
# High freq. dielectric constant tensor:
#      x y z
#    x 1.727630 0.000000 -0.010480 
#    y 0.000000 1.679810 0.000000 
#    z -0.010480 0.000000 1.723600 
# 
# From -- ./inp_files/47884.got.cif
#   From: 2010.03.12/outbox.cif.g09.slc.cpg/sg5_24_cif.got.tgz:47884.got - 2010.03.31 09:47:26.
