data_PCOD8048286
_publ_section_title
;
Structure prediction by ZEFSAII (Michael W. Deem and Ramdas Pophale) SiO2 
 PCOD8048286
Probable space group: C 2
;
_chemical_formula_sum "Si O2"
_cell_formula_units_Z 32
_cell_length_a 28.137092
_cell_length_b 9.457573
_cell_length_c 19.657716
_cell_angle_alpha 90.000000
_cell_angle_beta 159.506514
_cell_angle_gamma 90.000000
_cell_volume 1831.408314
_symmetry_space_group_name_H-M "C 2"
_symmetry_group_IT_number 5
_symmetry_cell_setting 'monoclinic'
loop_
_space_group_symop_operation_xyz
x,y,z
-x,y,-z
1/2+x,1/2+y,z
1/2-x,1/2+y,-z
loop_
_atom_site_type_symbol
_atom_site_label
_atom_site_fract_x
_atom_site_fract_y
_atom_site_fract_z
Si Si1 0.254696 0.712170 0.078952
Si Si2 0.493909 0.525616 0.419279
Si Si3 0.830771 0.003632 0.077318
Si Si4 0.493926 0.546250 0.815648
Si Si5 0.188009 0.539746 0.359666
Si Si6 0.517221 0.804606 0.945486
Si Si7 0.044176 0.730071 0.911054
Si Si8 0.708501 0.057676 0.229101
O O1 0.126474 0.677325 0.954840
O O2 0.263653 0.879688 0.077739
O O3 0.397438 0.663678 0.303920
O O4 0.236358 0.626926 0.982784
O O5 0.500000 0.441833 0.500000
O O6 0.426575 0.437623 0.266702
O O7 0.640327 0.576284 0.593594
O O8 0.928203 0.071353 0.150908
O O9 0.333163 0.536562 0.589707
O O10 0.540686 0.669306 0.929491
O O11 0.537433 0.398066 0.905918
O O12 0.103219 0.656632 0.288075
O O13 0.201493 0.582002 0.299542
O O14 0.113068 0.387438 0.260026
O O15 0.500000 0.752236 0.000000
O O16 0.647754 0.908443 0.120945
O O17 0.120380 0.684799 0.081369
#
# Coordination Sequence:
#
# PCOD8048286 Si02
#       8
#     4   4   4   4   4   4   4   4
#     4   9  19  34  53  80 105 137 171 219 267 306
#     4  10  18  34  60  76 101 139 180 215 251 328
#     4   9  20  34  56  79 105 136 175 221 266 308
#     4  11  20  35  54  81 111 137 173 226 271 301
#     4  10  19  35  55  79 104 144 184 215 251 321
#     4   9  21  34  54  77 112 143 172 219 266 314
#     4  10  20  32  54  79 108 139 175 219 263 313
#     4  10  18  37  54  79 102 142 185 209 258 319
#
# _framework density 17.472891000000001
#
# number of rings (size 3 to 8) (size 9 to 14) (size 15 to 20)
#    0.750    1.500    2.500    1.875    0.000    4.000 
#    0.000    0.000    2.750    0.750    0.000    0.000 
#    0.000    0.000    0.000    0.000    0.000    0.000 
#
# Total GULP energy -198252.270183 kJ/mol
# GULP energy per Si atom -12390.766886 kJ/mol
# Density = 1.743312 g / cm^3
# Si number density = 17.472891 Si / 1000 Ang^3
#
#
#
# Elastic Constant Matrix: (Units=GPa)
#
#
# Indices 1 2 3 4 5 6 
#
# 1 115.6216 54.5048 34.1651 0.0000 9.6774 0.0000
# 2 54.5048 81.8854 32.6664 0.0000 3.7585 0.0000
# 3 34.1651 32.6664 81.3714 0.0000 9.8101 0.0000
# 4 0.0000 0.0000 0.0000 11.4605 0.0000 2.9222
# 5 9.6774 3.7585 9.8101 0.0000 32.8493 0.0000
# 6 0.0000 0.0000 0.0000 2.9222 0.0000 29.7171
#
#
#
# Elastic Compliance Matrix: (Units=1/GPa)
#
#
# Indices 1 2 3 4 5 6 
#
# 1 0.013146 -0.007803 -0.002103 0.000000 -0.002352 0.000000
# 2 -0.007803 0.019173 -0.004599 0.000000 0.001478 0.000000
# 3 -0.002103 -0.004599 0.015436 0.000000 -0.003464 0.000000
# 4 0.000000 0.000000 0.000000 0.089500 0.000000 -0.008801
# 5 -0.002352 0.001478 -0.003464 0.000000 0.032000 0.000000
# 6 0.000000 0.000000 0.000000 -0.008801 0.000000 0.034516
#
#
# Mechanical properties :
#
#
# Convention : Reuss Voigt Hill
#
# Bulk Modulus (GPa) = 53.34991 57.95011 55.65001
# Shear Modulus (GPa) = 20.91787 25.30819 23.11303
#
# Velocity S-wave (km/s) = 3.46376 3.80995 3.64097
# Velocity P-wave (km/s) = 6.82613 7.25203 7.04230
#
# Compressibility (1/GPa) = 0.01874418
#
# Stress axis : x y z
#
# Youngs Moduli (GPa) = 76.07070 52.15713 64.78228
#
# Poissons Ratio (x) = 0.40698 0.13626
# Poissons Ratio (y) = 0.59358 0.29793
# Poissons Ratio (z) = 0.16001 0.23987
#
# Static dielectric constant tensor:
#      x y z
#    x 3.482110 0.000000 0.086160 
#    y 0.000000 3.016310 0.000000 
#    z 0.086160 0.000000 3.202940 
# 
# 
# High freq. dielectric constant tensor:
#      x y z
#    x 1.692400 0.000000 0.006540 
#    y 0.000000 1.648650 0.000000 
#    z 0.006540 0.000000 1.670090 
# 
# From -- ./inp_files/44173.got.cif
#   From: 2010.03.12/outbox.cif.g09.slc.cpg/sg5_23_cif.got.tgz:44173.got - 2010.03.31 09:47:26.
