data_PCOD8048302
_publ_section_title
;
Structure prediction by ZEFSAII (Michael W. Deem and Ramdas Pophale) SiO2 
 PCOD8048302
Probable space group: C 2
;
_chemical_formula_sum "Si O2"
_cell_formula_units_Z 32
_cell_length_a 12.556422
_cell_length_b 19.638794
_cell_length_c 8.797580
_cell_angle_alpha 90.000000
_cell_angle_beta 49.856360
_cell_angle_gamma 90.000000
_cell_volume 1658.372134
_symmetry_space_group_name_H-M "C 2"
_symmetry_group_IT_number 5
_symmetry_cell_setting 'monoclinic'
loop_
_space_group_symop_operation_xyz
x,y,z
-x,y,-z
1/2+x,1/2+y,z
1/2-x,1/2+y,-z
loop_
_atom_site_type_symbol
_atom_site_label
_atom_site_fract_x
_atom_site_fract_y
_atom_site_fract_z
Si Si1 0.471702 0.947340 0.846752
Si Si2 0.959765 0.048860 0.362765
Si Si3 0.691749 0.478057 0.978873
Si Si4 0.423931 0.700417 0.410749
Si Si5 0.757362 0.455131 0.573166
Si Si6 0.318668 0.302409 0.317802
Si Si7 0.911059 0.299964 0.931147
Si Si8 0.872982 0.824368 0.922352
O O1 0.332637 0.990018 0.943489
O O2 0.592107 0.977320 0.628865
O O3 0.443234 0.870239 0.812462
O O4 0.500000 0.951848 0.000000
O O5 0.894888 0.123059 0.386348
O O6 0.000000 0.044063 0.500000
O O7 0.849048 0.989495 0.443747
O O8 0.088840 0.037532 0.128583
O O9 0.726471 0.484056 0.768814
O O10 0.616473 0.406283 0.084581
O O11 0.500000 0.703468 0.500000
O O12 0.278759 0.741315 0.534376
O O13 0.538063 0.732387 0.195605
O O14 0.747242 0.373792 0.570379
O O15 0.472439 0.295006 0.252291
O O16 0.323585 0.297835 0.131760
O O17 0.740254 0.297834 0.099181
O O18 0.000000 0.306275 0.000000
#
# Coordination Sequence:
#
# PCOD8048302 Si02
#       8
#     4   4   4   4   4   4   4   4
#     4  10  20  34  58  90 125 153 202 262 317 360
#     4  11  24  39  57  86 131 168 205 251 319 376
#     4  10  20  36  59  91 119 160 209 258 310 367
#     4  11  22  39  60  85 121 170 212 248 303 386
#     4  11  20  36  62  90 118 162 211 263 306 367
#     4  10  18  34  62  90 116 153 214 265 300 360
#     4  10  20  34  55  88 124 159 199 252 315 361
#     4   9  18  33  59  91 118 147 205 270 307 352
#
# _framework density 19.296030999999999
#
# number of rings (size 3 to 8) (size 9 to 14) (size 15 to 20)
#    0.000    1.750    3.750    1.500    0.000    1.000 
#    0.000    1.875    2.750    1.500    0.000    0.000 
#    0.000    0.000    0.000    0.000    0.000    0.000 
#
# Total GULP energy -198320.933138 kJ/mol
# GULP energy per Si atom -12395.058321 kJ/mol
# Density = 1.925211 g / cm^3
# Si number density = 19.296031 Si / 1000 Ang^3
#
#
#
# Elastic Constant Matrix: (Units=GPa)
#
#
# Indices 1 2 3 4 5 6 
#
# 1 123.4123 42.3732 38.9869 0.0000 -25.5711 0.0000
# 2 42.3732 87.6906 53.3602 0.0000 -8.1198 0.0000
# 3 38.9869 53.3602 100.7312 0.0000 -21.6390 0.0000
# 4 0.0000 0.0000 0.0000 28.5808 0.0000 -4.9261
# 5 -25.5711 -8.1198 -21.6390 0.0000 32.2242 0.0000
# 6 0.0000 0.0000 0.0000 -4.9261 0.0000 23.4640
#
#
#
# Elastic Compliance Matrix: (Units=1/GPa)
#
#
# Indices 1 2 3 4 5 6 
#
# 1 0.011364 -0.004584 -0.000329 0.000000 0.007642 0.000000
# 2 -0.004584 0.018793 -0.009284 0.000000 -0.005137 0.000000
# 3 -0.000329 -0.009284 0.016844 0.000000 0.008711 0.000000
# 4 0.000000 0.000000 0.000000 0.036302 0.000000 0.007621
# 5 0.007642 -0.005137 0.008711 0.000000 0.041652 0.000000
# 6 0.000000 0.000000 0.000000 0.007621 0.000000 0.044219
#
#
# Mechanical properties :
#
#
# Convention : Reuss Voigt Hill
#
# Bulk Modulus (GPa) = 53.74182 64.58607 59.16395
# Shear Modulus (GPa) = 24.53762 28.66139 26.59950
#
# Velocity S-wave (km/s) = 3.56988 3.85821 3.71684
# Velocity P-wave (km/s) = 6.70102 7.30695 7.01054
#
# Compressibility (1/GPa) = 0.01860748
#
# Stress axis : x y z
#
# Youngs Moduli (GPa) = 87.99764 53.21258 59.36831
#
# Poissons Ratio (x) = 0.24391 0.01950
# Poissons Ratio (y) = 0.40335 0.55120
# Poissons Ratio (z) = 0.02891 0.49404
#
# Static dielectric constant tensor:
#      x y z
#    x 3.639150 0.000000 -0.195870 
#    y 0.000000 3.484480 0.000000 
#    z -0.195870 0.000000 3.370070 
# 
# 
# High freq. dielectric constant tensor:
#      x y z
#    x 1.763060 0.000000 -0.012040 
#    y 0.000000 1.719180 0.000000 
#    z -0.012040 0.000000 1.744510 
# 
# From -- ./inp_files/21930.got.cif
#   From: 2010.03.12/outbox.cif.g09.slc.cpg/sg5_11_cif.got.tgz:21930.got - 2010.03.31 09:47:26.
