data_PCOD8048676
_publ_section_title
;
Structure prediction by ZEFSAII (Michael W. Deem and Ramdas Pophale) SiO2 
 PCOD8048676
Probable space group: C 2
;
_chemical_formula_sum "Si O2"
_cell_formula_units_Z 32
_cell_length_a 8.808654
_cell_length_b 15.385827
_cell_length_c 14.545222
_cell_angle_alpha 90.000000
_cell_angle_beta 55.389411
_cell_angle_gamma 90.000000
_cell_volume 1622.434453
_symmetry_space_group_name_H-M "C 2"
_symmetry_group_IT_number 5
_symmetry_cell_setting 'monoclinic'
loop_
_space_group_symop_operation_xyz
x,y,z
-x,y,-z
1/2+x,1/2+y,z
1/2-x,1/2+y,-z
loop_
_atom_site_type_symbol
_atom_site_label
_atom_site_fract_x
_atom_site_fract_y
_atom_site_fract_z
Si Si1 0.614519 0.101280 0.718491
Si Si2 0.827060 0.853987 0.498808
Si Si3 0.321040 0.035877 0.500645
Si Si4 0.892446 0.272280 0.269980
Si Si5 0.050149 0.778821 0.258039
Si Si6 0.538743 0.594069 0.269558
Si Si7 0.199420 0.939864 0.113352
Si Si8 0.962548 0.439890 0.863717
O O1 0.659104 0.095575 0.595651
O O2 0.517586 0.193343 0.772053
O O3 0.802673 0.093217 0.709328
O O4 0.473582 0.025013 0.796076
O O5 0.708093 0.784948 0.597450
O O6 0.000000 0.887484 0.500000
O O7 0.893402 0.808786 0.383158
O O8 0.699769 0.935857 0.520554
O O9 0.500000 0.049315 0.500000
O O10 0.149078 0.067575 0.617873
O O11 0.741408 0.258281 0.242965
O O12 0.022612 0.188470 0.229277
O O13 0.023440 0.354351 0.204053
O O14 0.076751 0.854258 0.173342
O O15 0.579781 0.525912 0.173888
O O16 0.370941 0.939665 0.122527
O O17 0.268058 0.940329 0.984425
#
# Coordination Sequence:
#
# PCOD8048676 Si02
#       8
#     4   4   4   4   4   4   4   4
#     4  11  22  38  60  87 119 155 194 236 288 346
#     4  10  19  36  59  84 114 152 189 233 294 353
#     4  12  23  36  59  88 118 150 191 241 292 347
#     4  10  20  36  59  86 118 153 192 238 288 344
#     4  10  20  36  59  86 118 153 192 238 288 344
#     4  11  22  38  60  87 119 155 194 236 288 346
#     4   9  19  37  60  84 115 158 199 235 284 344
#     4   9  19  37  60  84 115 158 199 235 284 344
#
# _framework density 19.723447
#
# number of rings (size 3 to 8) (size 9 to 14) (size 15 to 20)
#    0.000    1.750    2.500    2.625    0.000    3.000 
#    0.000    0.000    0.000    5.250    0.000    0.000 
#    0.000    0.000    0.000    0.000    0.000    0.000 
#
# Total GULP energy -198463.782518 kJ/mol
# GULP energy per Si atom -12403.986407 kJ/mol
# Density = 1.967856 g / cm^3
# Si number density = 19.723447 Si / 1000 Ang^3
#
#
#
# Elastic Constant Matrix: (Units=GPa)
#
#
# Indices 1 2 3 4 5 6 
#
# 1 68.2802 42.7832 32.9330 0.0000 -7.0484 0.0000
# 2 42.7832 153.7608 61.3803 0.0000 -21.3433 0.0000
# 3 32.9330 61.3803 142.4913 0.0000 -25.0094 0.0000
# 4 0.0000 0.0000 0.0000 16.1244 0.0000 -2.5887
# 5 -7.0484 -21.3433 -25.0094 0.0000 11.6505 0.0000
# 6 0.0000 0.0000 0.0000 -2.5887 0.0000 35.3853
#
#
#
# Elastic Compliance Matrix: (Units=1/GPa)
#
#
# Indices 1 2 3 4 5 6 
#
# 1 0.018500 -0.004421 -0.002934 0.000000 -0.003205 0.000000
# 2 -0.004421 0.009991 -0.000865 0.000000 0.013771 0.000000
# 3 -0.002934 -0.000865 0.012000 0.000000 0.022401 0.000000
# 4 0.000000 0.000000 0.000000 0.062755 0.000000 0.004591
# 5 -0.003205 0.013771 0.022401 0.000000 0.157210 0.000000
# 6 0.000000 0.000000 0.000000 0.004591 0.000000 0.028596
#
#
# Mechanical properties :
#
#
# Convention : Reuss Voigt Hill
#
# Bulk Modulus (GPa) = 41.57756 70.96950 56.27353
# Shear Modulus (GPa) = 15.94854 27.79444 21.87149
#
# Velocity S-wave (km/s) = 2.84669 3.75801 3.33364
# Velocity P-wave (km/s) = 5.65074 7.40882 6.58868
#
# Compressibility (1/GPa) = 0.02405144
#
# Stress axis : x y z
#
# Youngs Moduli (GPa) = 54.05405 100.09447 83.33149
#
# Poissons Ratio (x) = 0.44255 0.24448
# Poissons Ratio (y) = 0.23899 0.07205
# Poissons Ratio (z) = 0.15858 0.08654
#
# Static dielectric constant tensor:
#      x y z
#    x 3.356560 0.000000 -0.108210 
#    y 0.000000 3.770680 0.000000 
#    z -0.108210 0.000000 3.751000 
# 
# 
# High freq. dielectric constant tensor:
#      x y z
#    x 1.739540 0.000000 -0.007390 
#    y 0.000000 1.783110 0.000000 
#    z -0.007390 0.000000 1.768940 
# 
# From -- ./inp_files/50919.got.cif
#   From: 2010.03.12/outbox.cif.g09.slc.cpg/sg5_26_cif.got.tgz:50919.got - 2010.03.31 09:47:26.
