data_PCOD8048164
_publ_section_title
;
Structure prediction by ZEFSAII (Michael W. Deem and Ramdas Pophale) SiO2 
 PCOD8048164
Probable space group: C 2
;
_chemical_formula_sum "Si O2"
_cell_formula_units_Z 32
_cell_length_a 9.221356
_cell_length_b 19.716965
_cell_length_c 15.661470
_cell_angle_alpha 90.000000
_cell_angle_beta 34.615769
_cell_angle_gamma 90.000000
_cell_volume 1617.593662
_symmetry_space_group_name_H-M "C 2"
_symmetry_group_IT_number 5
_symmetry_cell_setting 'monoclinic'
loop_
_space_group_symop_operation_xyz
x,y,z
-x,y,-z
1/2+x,1/2+y,z
1/2-x,1/2+y,-z
loop_
_atom_site_type_symbol
_atom_site_label
_atom_site_fract_x
_atom_site_fract_y
_atom_site_fract_z
Si Si1 0.711486 0.013480 0.154130
Si Si2 0.284927 0.628562 0.369605
Si Si3 0.426666 0.264365 0.392403
Si Si4 0.069112 0.388373 0.108596
Si Si5 0.768030 0.616154 0.416749
Si Si6 0.743623 0.990351 0.324586
Si Si7 0.115064 0.268133 0.708486
Si Si8 0.115053 0.883629 0.208820
O O1 0.496012 0.073019 0.261161
O O2 0.657501 0.959761 0.105096
O O3 0.697787 0.970046 0.248634
O O4 0.000000 0.042894 0.000000
O O5 0.289713 0.590893 0.458937
O O6 0.319366 0.570442 0.282785
O O7 0.488247 0.690288 0.258258
O O8 0.000000 0.663654 0.500000
O O9 0.343709 0.195233 0.385820
O O10 0.244195 0.289665 0.557121
O O11 0.711055 0.259554 0.291664
O O12 0.419857 0.322411 0.323135
O O13 0.086825 0.327131 0.170227
O O14 0.783710 0.399073 0.211079
O O15 0.234725 0.363269 0.948954
O O16 0.500000 0.606011 0.500000
O O17 0.500000 0.976884 0.500000
O O18 0.973675 0.952714 0.257255
#
# Coordination Sequence:
#
# PCOD8048164 Si02
#       8
#     4   4   4   4   4   4   4   4
#     4  12  24  43  61  92 128 168 203 256 318 371
#     4  10  17  38  61  88 120 157 204 253 306 366
#     4   9  18  37  60  91 121 153 204 257 300 358
#     4  10  23  39  59  88 127 162 202 251 304 366
#     4  11  23  40  63  97 125 154 208 270 306 361
#     4  11  22  38  63  88 117 166 209 251 311 372
#     4   9  16  35  63  85 115 160 205 239 300 370
#     4  10  22  41  58  90 124 164 203 251 306 367
#
# _framework density 19.782471000000001
#
# number of rings (size 3 to 8) (size 9 to 14) (size 15 to 20)
#    0.000    1.750    6.250    0.000    3.500    0.500 
#   11.250    0.000    0.000    0.000    3.250    0.000 
#    0.000    0.000    0.000    0.000    0.000    0.000 
#
# Total GULP energy -198220.395203 kJ/mol
# GULP energy per Si atom -12388.774700 kJ/mol
# Density = 1.973744 g / cm^3
# Si number density = 19.782471 Si / 1000 Ang^3
#
#
#
# Elastic Constant Matrix: (Units=GPa)
#
#
# Indices 1 2 3 4 5 6 
#
# 1 81.1302 29.8896 39.9465 -0.0048 2.2509 0.0000
# 2 29.8896 105.2123 42.7261 -0.0048 -3.0836 0.0004
# 3 39.9465 42.7261 88.5163 -0.0445 2.3194 -0.0148
# 4 -0.0048 -0.0048 -0.0445 16.7155 0.0141 -0.5130
# 5 2.2509 -3.0836 2.3194 0.0141 29.7626 0.0033
# 6 0.0000 0.0004 -0.0148 -0.5130 0.0033 23.6410
#
#
#
# Elastic Compliance Matrix: (Units=1/GPa)
#
#
# Indices 1 2 3 4 5 6 
#
# 1 0.016215 -0.002081 -0.006288 -0.000012 -0.000952 -0.000004
# 2 -0.002081 0.012173 -0.004984 -0.000012 0.001807 -0.000004
# 3 -0.006288 -0.004984 0.016576 0.000042 -0.001333 0.000012
# 4 -0.000012 -0.000012 0.000042 0.059865 -0.000032 0.001299
# 5 -0.000952 0.001807 -0.001333 -0.000032 0.033962 -0.000006
# 6 -0.000004 -0.000004 0.000012 0.001299 -0.000006 0.042328
#
#
# Mechanical properties :
#
#
# Convention : Reuss Voigt Hill
#
# Bulk Modulus (GPa) = 54.77228 55.55366 55.16297
# Shear Modulus (GPa) = 23.37428 24.84358 24.10893
#
# Velocity S-wave (km/s) = 3.44112 3.54763 3.49478
# Velocity P-wave (km/s) = 6.59817 6.70254 6.65056
#
# Compressibility (1/GPa) = 0.01825741
#
# Stress axis : x y z
#
# Youngs Moduli (GPa) = 61.67087 82.15154 60.32846
#
# Poissons Ratio (x) = 0.17094 0.37937
# Poissons Ratio (y) = 0.12832 0.30068
# Poissons Ratio (z) = 0.38781 0.40944
#
# Static dielectric constant tensor:
#      x y z
#    x 3.735550 0.000000 0.172890 
#    y 0.000000 3.667180 0.000040 
#    z 0.172890 0.000040 3.606400 
# 
# 
# High freq. dielectric constant tensor:
#      x y z
#    x 1.760400 0.000000 0.022790 
#    y 0.000000 1.774820 0.000000 
#    z 0.022790 0.000000 1.753730 
# 
# From -- ./inp_files/51556.got.cif
#   From: 2010.03.12/outbox.cif.g09.slc.cpg/sg5_26_cif.got.tgz:51556.got - 2010.03.31 09:47:26.
