data_PCOD8048084
_publ_section_title
;
Structure prediction by ZEFSAII (Michael W. Deem and Ramdas Pophale) SiO2 
 PCOD8048084
Probable space group: C 2
;
_chemical_formula_sum "Si O2"
_cell_formula_units_Z 24
_cell_length_a 20.305629
_cell_length_b 9.353856
_cell_length_c 9.140578
_cell_angle_alpha 90.000000
_cell_angle_beta 46.897440
_cell_angle_gamma 90.000000
_cell_volume 1267.599380
_symmetry_space_group_name_H-M "C 2"
_symmetry_group_IT_number 5
_symmetry_cell_setting 'monoclinic'
loop_
_space_group_symop_operation_xyz
x,y,z
-x,y,-z
1/2+x,1/2+y,z
1/2-x,1/2+y,-z
loop_
_atom_site_type_symbol
_atom_site_label
_atom_site_fract_x
_atom_site_fract_y
_atom_site_fract_z
Si Si1 0.681197 0.163520 0.464147
Si Si2 0.000000 0.998231 0.500000
Si Si3 0.694511 0.248506 0.129538
Si Si4 0.500000 0.414637 0.000000
Si Si5 0.318762 0.479352 0.425397
Si Si6 0.507549 0.259997 0.272007
Si Si7 0.685799 0.564201 0.240832
O O1 0.718751 0.167658 0.242041
O O2 0.697825 0.311326 0.525622
O O3 0.734042 0.034763 0.459488
O O4 0.571586 0.140896 0.625014
O O5 0.915033 0.096446 0.668139
O O6 0.037065 0.898074 0.577663
O O7 0.590846 0.211193 0.245061
O O8 0.715530 0.415335 0.120637
O O9 0.753719 0.193657 0.905601
O O10 0.584652 0.505979 0.805221
O O11 0.458240 0.312216 0.938062
O O12 0.313334 0.565416 0.585381
#
# Coordination Sequence:
#
# PCOD8048084 Si02
#       7
#     4   2   4   2   4   4   4
#     4  10  20  37  58  84 113 147 186 235 273 331
#     4  10  16  38  58  76 114 144 190 236 258 326
#     4  10  21  35  61  83 111 146 193 229 277 326
#     4  10  20  34  58  84 106 154 190 224 274 336
#     4  10  22  36  57  86 116 141 190 230 280 331
#     4  10  18  36  58  82 108 149 193 228 266 333
#     4  10  21  36  58  87 112 144 188 236 272 331
#
# _framework density 18.933427999999999
#
# number of rings (size 3 to 8) (size 9 to 14) (size 15 to 20)
#    0.000    2.000    6.667    0.000    9.333    0.000 
#    0.000    0.000   14.667    0.000    0.000    0.000 
#    0.000    0.000    0.000    0.000    0.000    0.000 
#
# Total GULP energy -148690.886859 kJ/mol
# GULP energy per Si atom -12390.907238 kJ/mol
# Density = 1.889033 g / cm^3
# Si number density = 18.933428 Si / 1000 Ang^3
#
#
#
# Elastic Constant Matrix: (Units=GPa)
#
#
# Indices 1 2 3 4 5 6 
#
# 1 99.7531 29.0099 33.2229 0.0000 -2.4244 0.0000
# 2 29.0099 33.9226 28.1663 0.0000 -1.5228 0.0000
# 3 33.2229 28.1663 116.8594 0.0000 1.9065 0.0000
# 4 0.0000 0.0000 0.0000 31.7851 0.0000 0.0655
# 5 -2.4244 -1.5228 1.9065 0.0000 35.8400 0.0000
# 6 0.0000 0.0000 0.0000 0.0655 0.0000 31.1250
#
#
#
# Elastic Compliance Matrix: (Units=1/GPa)
#
#
# Indices 1 2 3 4 5 6 
#
# 1 0.013515 -0.010421 -0.001339 0.000000 0.000543 0.000000
# 2 -0.010421 0.045040 -0.007920 0.000000 0.001630 0.000000
# 3 -0.001339 -0.007920 0.010863 0.000000 -0.001005 0.000000
# 4 0.000000 0.000000 0.000000 0.031461 0.000000 -0.000066
# 5 0.000543 0.001630 -0.001005 0.000000 0.028061 0.000000
# 6 0.000000 0.000000 0.000000 -0.000066 0.000000 0.032129
#
#
# Mechanical properties :
#
#
# Convention : Reuss Voigt Hill
#
# Bulk Modulus (GPa) = 33.26945 47.92591 40.59768
# Shear Modulus (GPa) = 23.75881 30.42576 27.09229
#
# Velocity S-wave (km/s) = 3.54624 4.01307 3.78686
# Velocity P-wave (km/s) = 5.86325 6.84403 6.37254
#
# Compressibility (1/GPa) = 0.03005761
#
# Stress axis : x y z
#
# Youngs Moduli (GPa) = 73.99407 22.20259 92.05292
#
# Poissons Ratio (x) = 0.23137 0.12328
# Poissons Ratio (y) = 0.77109 0.72904
# Poissons Ratio (z) = 0.09910 0.17584
#
# Static dielectric constant tensor:
#      x y z
#    x 3.566510 0.000000 0.123350 
#    y 0.000000 2.936310 0.000000 
#    z 0.123350 0.000000 3.757860 
# 
# 
# High freq. dielectric constant tensor:
#      x y z
#    x 1.753800 0.000000 0.010230 
#    y 0.000000 1.673870 0.000000 
#    z 0.010230 0.000000 1.749900 
# 
# From -- ./inp_files/22816.got.cif
#   From: 2010.03.12/outbox.cif.g09.slc.cpg/sg5_12_cif.got.tgz:22816.got - 2010.03.31 09:47:26.
