data_PCOD8048170
_publ_section_title
;
Structure prediction by ZEFSAII (Michael W. Deem and Ramdas Pophale) SiO2 
 PCOD8048170
Probable space group: C 2
;
_chemical_formula_sum "Si O2"
_cell_formula_units_Z 30
_cell_length_a 8.576806
_cell_length_b 16.941025
_cell_length_c 11.455407
_cell_angle_alpha 90.000000
_cell_angle_beta 57.300426
_cell_angle_gamma 90.000000
_cell_volume 1400.675563
_symmetry_space_group_name_H-M "C 2"
_symmetry_group_IT_number 5
_symmetry_cell_setting 'monoclinic'
loop_
_space_group_symop_operation_xyz
x,y,z
-x,y,-z
1/2+x,1/2+y,z
1/2-x,1/2+y,-z
loop_
_atom_site_type_symbol
_atom_site_label
_atom_site_fract_x
_atom_site_fract_y
_atom_site_fract_z
Si Si1 0.641359 0.025170 0.546368
Si Si2 0.058260 0.955433 0.726121
Si Si3 0.693139 0.021881 0.192317
Si Si4 0.676712 0.590398 0.099084
Si Si5 0.194651 0.190048 0.483874
Si Si6 0.180758 0.178895 0.759853
Si Si7 0.500000 0.199852 0.000000
Si Si8 0.464955 0.278884 0.769925
O O1 0.500000 0.047261 0.500000
O O2 0.516255 0.988321 0.703186
O O3 0.748243 0.099741 0.556543
O O4 0.792171 0.962184 0.438975
O O5 0.955839 0.872790 0.760390
O O6 0.155867 0.962203 0.814398
O O7 0.912712 0.028321 0.773539
O O8 0.691132 0.102209 0.271392
O O9 0.735287 0.039959 0.041653
O O10 0.523618 0.652643 0.113173
O O11 0.830139 0.642265 0.101586
O O12 0.172343 0.206762 0.629923
O O13 0.354104 0.246587 0.368776
O O14 0.000000 0.208646 0.500000
O O15 0.269939 0.249871 0.796469
O O16 0.463453 0.255198 0.905399
#
# Coordination Sequence:
#
# PCOD8048170 Si02
#       8
#     4   4   4   4   4   4   2   4
#     4  10  17  39  66  96 129 184 225 269 331 435
#     4  10  23  39  70  98 138 172 236 283 355 401
#     4  10  19  37  73  96 128 185 233 265 338 427
#     4  11  22  43  72 103 128 193 234 282 332 442
#     4  12  22  38  67  99 136 177 236 287 341 411
#     4  11  20  41  71  94 131 182 236 268 352 417
#     4  12  26  42  68 106 144 172 244 282 350 406
#     4  12  26  41  66 105 144 179 225 309 350 406
#
# _framework density 21.418236
#
# number of rings (size 3 to 8) (size 9 to 14) (size 15 to 20)
#    0.000    1.067    6.667    2.800    1.867    1.600 
#    0.000    2.667    2.933    0.000    0.000    0.000 
#    0.000    0.000    0.000    0.000    0.000    0.000 
#
# Total GULP energy -185918.452228 kJ/mol
# GULP energy per Si atom -12394.563482 kJ/mol
# Density = 2.136949 g / cm^3
# Si number density = 21.418236 Si / 1000 Ang^3
#
#
#
# Elastic Constant Matrix: (Units=GPa)
#
#
# Indices 1 2 3 4 5 6 
#
# 1 82.0370 47.3562 22.2042 0.0000 -10.1121 0.0000
# 2 47.3562 114.8077 14.7880 0.0000 -13.3089 0.0000
# 3 22.2042 14.7880 99.7617 0.0000 -9.5630 0.0000
# 4 0.0000 0.0000 0.0000 26.1456 0.0000 0.1489
# 5 -10.1121 -13.3089 -9.5630 0.0000 38.5815 0.0000
# 6 0.0000 0.0000 0.0000 0.1489 0.0000 16.3715
#
#
#
# Elastic Compliance Matrix: (Units=1/GPa)
#
#
# Indices 1 2 3 4 5 6 
#
# 1 0.016793 -0.006409 -0.002640 0.000000 0.001536 0.000000
# 2 -0.006409 0.011632 -0.000076 0.000000 0.002314 0.000000
# 3 -0.002640 -0.000076 0.010811 0.000000 0.001961 0.000000
# 4 0.000000 0.000000 0.000000 0.038249 0.000000 -0.000348
# 5 0.001536 0.002314 0.001961 0.000000 0.027606 0.000000
# 6 0.000000 0.000000 0.000000 -0.000348 0.000000 0.061085
#
#
# Mechanical properties :
#
#
# Convention : Reuss Voigt Hill
#
# Bulk Modulus (GPa) = 47.65210 51.70033 49.67622
# Shear Modulus (GPa) = 26.12041 30.37027 28.24534
#
# Velocity S-wave (km/s) = 3.49598 3.76967 3.63540
# Velocity P-wave (km/s) = 6.21229 6.56796 6.39260
#
# Compressibility (1/GPa) = 0.02098543
#
# Stress axis : x y z
#
# Youngs Moduli (GPa) = 59.54841 85.97200 92.49963
#
# Poissons Ratio (x) = 0.55096 0.24424
# Poissons Ratio (y) = 0.38162 0.00703
# Poissons Ratio (z) = 0.15723 0.00653
#
# Static dielectric constant tensor:
#      x y z
#    x 3.889600 0.000000 -0.262240 
#    y 0.000000 3.498140 0.000000 
#    z -0.262240 0.000000 4.228960 
# 
# 
# High freq. dielectric constant tensor:
#      x y z
#    x 1.832930 0.000000 -0.016020 
#    y 0.000000 1.799680 0.000000 
#    z -0.016020 0.000000 1.858350 
# 
# From -- ./inp_files/36997.got.cif
#   From: 2010.03.12/outbox.cif.g09.slc.cpg/sg5_19_cif.got.tgz:36997.got - 2010.03.31 09:47:26.
