data_PCOD8048821
_publ_section_title
;
Structure prediction by ZEFSAII (Michael W. Deem and Ramdas Pophale) SiO2 
 PCOD8048821
Probable space group: C 2
;
_chemical_formula_sum "Si O2"
_cell_formula_units_Z 26
_cell_length_a 9.659506
_cell_length_b 11.624671
_cell_length_c 12.823285
_cell_angle_alpha 90.000000
_cell_angle_beta 105.309649
_cell_angle_gamma 90.000000
_cell_volume 1388.810375
_symmetry_space_group_name_H-M "C 2"
_symmetry_group_IT_number 5
_symmetry_cell_setting 'monoclinic'
loop_
_space_group_symop_operation_xyz
x,y,z
-x,y,-z
1/2+x,1/2+y,z
1/2-x,1/2+y,-z
loop_
_atom_site_type_symbol
_atom_site_label
_atom_site_fract_x
_atom_site_fract_y
_atom_site_fract_z
Si Si1 0.500000 0.476440 0.000000
Si Si2 0.301438 0.214715 0.623107
Si Si3 0.001019 0.077405 0.790016
Si Si4 0.983478 0.342126 0.726169
Si Si5 0.000000 0.832973 0.500000
Si Si6 0.281042 0.475404 0.327060
Si Si7 0.788894 0.899089 0.800062
Si Si8 0.500000 0.796113 0.500000
O O1 0.442175 0.562373 0.079557
O O2 0.621332 0.391990 0.073538
O O3 0.433178 0.252324 0.576283
O O4 0.308771 0.286650 0.732141
O O5 0.145012 0.221523 0.537718
O O6 0.315668 0.080198 0.649700
O O7 0.990102 0.207005 0.750637
O O8 0.845614 0.012794 0.748823
O O9 0.113161 0.010837 0.742223
O O10 0.836163 0.388359 0.745626
O O11 0.984068 0.370274 0.602007
O O12 0.122085 0.408017 0.799899
O O13 0.871011 0.913318 0.435315
#
# Coordination Sequence:
#
# PCOD8048821 Si02
#       8
#     2   4   4   4   2   4   4   2
#     4   8  20  44  66  88 112 166 202 258 314 358
#     4  11  22  39  61  92 126 166 204 246 300 364
#     4  10  21  43  64  82 125 159 202 252 316 352
#     4  11  23  40  62  95 126 159 203 250 297 371
#     4  12  23  39  58  90 128 173 201 240 298 364
#     4  12  24  37  62  92 124 162 207 246 302 366
#     4   9  20  42  64  86 122 158 202 256 306 350
#     4  10  19  39  58  86 132 165 185 248 298 346
#
# _framework density 18.721059
#
# number of rings (size 3 to 8) (size 9 to 14) (size 15 to 20)
#    0.923    0.615    6.154    0.462    0.000    1.846 
#    2.769    1.538    0.000    0.000    0.000    0.000 
#    0.000    0.000    0.000    0.000    0.000    0.000 
#
# Total GULP energy -161068.311026 kJ/mol
# GULP energy per Si atom -12389.870079 kJ/mol
# Density = 1.867845 g / cm^3
# Si number density = 18.721059 Si / 1000 Ang^3
#
#
#
# Elastic Constant Matrix: (Units=GPa)
#
#
# Indices 1 2 3 4 5 6 
#
# 1 121.4328 64.5850 29.7595 0.0000 21.0150 0.0000
# 2 64.5850 72.3414 34.6514 0.0000 2.7963 0.0000
# 3 29.7595 34.6514 89.4872 0.0000 17.4215 0.0000
# 4 0.0000 0.0000 0.0000 2.9705 0.0000 3.1403
# 5 21.0150 2.7963 17.4215 0.0000 28.6493 0.0000
# 6 0.0000 0.0000 0.0000 3.1403 0.0000 37.2561
#
#
#
# Elastic Compliance Matrix: (Units=1/GPa)
#
#
# Indices 1 2 3 4 5 6 
#
# 1 0.020143 -0.019154 0.003664 0.000000 -0.015134 0.000000
# 2 -0.019154 0.035364 -0.010648 0.000000 0.017073 0.000000
# 3 0.003664 -0.010648 0.016334 0.000000 -0.011581 0.000000
# 4 0.000000 0.000000 0.000000 0.369572 0.000000 -0.031151
# 5 -0.015134 0.017073 -0.011581 0.000000 0.051382 0.000000
# 6 0.000000 0.000000 0.000000 -0.031151 0.000000 0.029467
#
#
# Mechanical properties :
#
#
# Convention : Reuss Voigt Hill
#
# Bulk Modulus (GPa) = 51.10730 60.13927 55.62328
# Shear Modulus (GPa) = 8.60500 24.05955 16.33227
#
# Velocity S-wave (km/s) = 2.14625 3.58880 2.95685
# Velocity P-wave (km/s) = 5.78796 7.02611 6.43688
#
# Compressibility (1/GPa) = 0.01956668
#
# Stress axis : x y z
#
# Youngs Moduli (GPa) = 49.64483 28.27771 61.22267
#
# Poissons Ratio (x) = 0.54162 -0.22434
# Poissons Ratio (y) = 0.95088 0.65188
# Poissons Ratio (z) = -0.18191 0.30109
#
# Static dielectric constant tensor:
#      x y z
#    x 3.661680 0.000000 0.054660 
#    y 0.000000 3.292420 0.000000 
#    z 0.054660 0.000000 3.384700 
# 
# 
# High freq. dielectric constant tensor:
#      x y z
#    x 1.736940 0.000000 -0.000630 
#    y 0.000000 1.715250 0.000000 
#    z -0.000630 0.000000 1.710910 
# 
# From -- ./inp_files/50164.got.cif
#   From: 2010.03.12/outbox.cif.g09.slc.cpg/sg5_26_cif.got.tgz:50164.got - 2010.03.31 09:47:26.
