data_PCOD8048293
_publ_section_title
;
Structure prediction by ZEFSAII (Michael W. Deem and Ramdas Pophale) SiO2 
 PCOD8048293
Probable space group: C 2
;
_chemical_formula_sum "Si O2"
_cell_formula_units_Z 30
_cell_length_a 12.909145
_cell_length_b 17.116908
_cell_length_c 12.735574
_cell_angle_alpha 90.000000
_cell_angle_beta 32.124203
_cell_angle_gamma 90.000000
_cell_volume 1496.421793
_symmetry_space_group_name_H-M "C 2"
_symmetry_group_IT_number 5
_symmetry_cell_setting 'monoclinic'
loop_
_space_group_symop_operation_xyz
x,y,z
-x,y,-z
1/2+x,1/2+y,z
1/2-x,1/2+y,-z
loop_
_atom_site_type_symbol
_atom_site_label
_atom_site_fract_x
_atom_site_fract_y
_atom_site_fract_z
Si Si1 0.130984 0.546310 0.536041
Si Si2 0.682557 0.729659 0.910287
Si Si3 0.060890 0.945642 0.826349
Si Si4 0.766154 0.154049 0.587344
Si Si5 0.500000 0.173723 0.500000
Si Si6 0.933235 0.776131 0.877107
Si Si7 0.709245 0.666063 0.195902
Si Si8 0.229416 0.069947 0.977657
O O1 0.219721 0.472321 0.395339
O O2 0.249723 0.572765 0.537882
O O3 0.138189 0.620092 0.452787
O O4 0.910480 0.529358 0.762305
O O5 0.753587 0.782445 0.947824
O O6 0.641420 0.641020 0.984242
O O7 0.865523 0.732711 0.677513
O O8 0.500000 0.763013 0.000000
O O9 0.034283 0.858027 0.810991
O O10 0.000000 0.955983 0.000000
O O11 0.929180 0.003315 0.870717
O O12 0.600460 0.215882 0.692695
O O13 0.740784 0.134051 0.732023
O O14 0.981227 0.187832 0.380167
O O15 0.833007 0.745312 0.070621
O O16 0.784215 0.602842 0.045717
#
# Coordination Sequence:
#
# PCOD8048293 Si02
#       8
#     4   4   4   4   2   4   4   4
#     4  11  21  36  63  92 121 160 210 257 310 368
#     4  10  20  35  63  87 116 158 210 258 301 363
#     4  12  24  39  61  90 131 163 201 263 322 376
#     4  11  20  38  63  94 122 166 210 260 300 374
#     4  10  18  34  60  90 114 150 206 264 302 354
#     4  11  24  40  61  93 131 165 206 257 319 378
#     4  10  21  36  65  92 124 164 214 253 307 365
#     4  10  20  37  61  95 120 160 210 261 308 370
#
# _framework density 20.047823999999999
#
# number of rings (size 3 to 8) (size 9 to 14) (size 15 to 20)
#    0.000    1.333    5.333    4.000    1.867    1.067 
#    0.000    1.333    5.867    0.000    0.000    0.000 
#    0.000    0.000    0.000    0.000    0.000    0.000 
#
# Total GULP energy -185911.991230 kJ/mol
# GULP energy per Si atom -12394.132749 kJ/mol
# Density = 2.000219 g / cm^3
# Si number density = 20.047824 Si / 1000 Ang^3
#
#
#
# Elastic Constant Matrix: (Units=GPa)
#
#
# Indices 1 2 3 4 5 6 
#
# 1 107.3018 17.9866 31.8734 -0.0220 5.3597 0.0138
# 2 17.9866 60.8175 32.9660 -0.0161 4.8758 0.0230
# 3 31.8734 32.9660 100.3549 -0.0474 12.1968 0.0271
# 4 -0.0220 -0.0161 -0.0474 19.7421 0.0239 0.5949
# 5 5.3597 4.8758 12.1968 0.0239 33.5252 -0.0074
# 6 0.0138 0.0230 0.0271 0.5949 -0.0074 15.4129
#
#
#
# Elastic Compliance Matrix: (Units=1/GPa)
#
#
# Indices 1 2 3 4 5 6 
#
# 1 0.010418 -0.001559 -0.002743 0.000004 -0.000441 -0.000003
# 2 -0.001559 0.020247 -0.006098 0.000001 -0.000477 -0.000018
# 3 -0.002743 -0.006098 0.013264 0.000029 -0.003500 -0.000015
# 4 0.000004 0.000001 0.000029 0.050712 -0.000048 -0.001958
# 5 -0.000441 -0.000477 -0.003500 -0.000048 0.031242 0.000024
# 6 -0.000003 -0.000018 -0.000015 -0.001958 0.000024 0.064956
#
#
# Mechanical properties :
#
#
# Convention : Reuss Voigt Hill
#
# Bulk Modulus (GPa) = 43.23466 48.23624 45.73545
# Shear Modulus (GPa) = 22.79468 26.11260 24.45364
#
# Velocity S-wave (km/s) = 3.37562 3.61295 3.49630
# Velocity P-wave (km/s) = 6.06677 6.44340 6.25792
#
# Compressibility (1/GPa) = 0.02312959
#
# Stress axis : x y z
#
# Youngs Moduli (GPa) = 95.99106 49.38928 75.38938
#
# Poissons Ratio (x) = 0.07699 0.20680
# Poissons Ratio (y) = 0.14963 0.45973
# Poissons Ratio (z) = 0.26331 0.30118
#
# Static dielectric constant tensor:
#      x y z
#    x 3.801700 -0.000090 0.065070 
#    y -0.000090 3.188520 0.000060 
#    z 0.065070 0.000060 4.012040 
# 
# 
# High freq. dielectric constant tensor:
#      x y z
#    x 1.792940 0.000000 0.001720 
#    y 0.000000 1.721670 0.000010 
#    z 0.001720 0.000010 1.805290 
# 
# From -- ./inp_files/40441.got.cif
#   From: 2010.03.12/outbox.cif.g09.slc.cpg/sg5_21_cif.got.tgz:40441.got - 2010.03.31 09:47:26.
