data_PCOD8048269
_publ_section_title
;
Structure prediction by ZEFSAII (Michael W. Deem and Ramdas Pophale) SiO2 
 PCOD8048269
Probable space group: C 2
;
_chemical_formula_sum "Si O2"
_cell_formula_units_Z 30
_cell_length_a 12.584705
_cell_length_b 18.340471
_cell_length_c 8.845087
_cell_angle_alpha 90.000000
_cell_angle_beta 121.109698
_cell_angle_gamma 90.000000
_cell_volume 1747.915891
_symmetry_space_group_name_H-M "C 2"
_symmetry_group_IT_number 5
_symmetry_cell_setting 'monoclinic'
loop_
_space_group_symop_operation_xyz
x,y,z
-x,y,-z
1/2+x,1/2+y,z
1/2-x,1/2+y,-z
loop_
_atom_site_type_symbol
_atom_site_label
_atom_site_fract_x
_atom_site_fract_y
_atom_site_fract_z
Si Si1 0.361752 0.843080 0.852970
Si Si2 0.442943 0.007268 0.622229
Si Si3 0.646186 0.274191 0.850999
Si Si4 0.000000 0.861705 0.500000
Si Si5 0.730837 0.402715 0.494837
Si Si6 0.859465 0.889430 0.901328
Si Si7 0.832139 0.471148 0.043764
Si Si8 0.061208 0.621111 0.890056
O O1 0.280602 0.781016 0.873677
O O2 0.327189 0.846466 0.648626
O O3 0.500000 0.821877 0.000000
O O4 0.322023 0.923517 0.884885
O O5 0.500000 0.013223 0.500000
O O6 0.301248 0.979701 0.521042
O O7 0.533568 0.951542 0.781943
O O8 0.451510 0.087435 0.704449
O O9 0.543129 0.310644 0.668766
O O10 0.621876 0.189018 0.851203
O O11 0.646154 0.313301 0.013633
O O12 0.110420 0.912477 0.515202
O O13 0.691956 0.371837 0.303453
O O14 0.779389 0.952173 0.924350
O O15 0.000000 0.919247 0.000000
O O16 0.833291 0.557939 0.006146
O O17 0.000000 0.647492 0.000000
#
# Coordination Sequence:
#
# PCOD8048269 Si02
#       8
#     4   4   4   2   4   4   4   4
#     4  10  18  34  56  82 110 143 189 236 278 329
#     4  10  19  33  57  87 107 137 187 241 282 320
#     4  10  22  34  54  80 115 148 188 227 282 343
#     4  10  22  34  50  82 114 152 178 234 278 340
#     4  11  19  33  55  82 113 145 185 234 286 319
#     4  11  20  35  53  81 116 147 186 230 286 336
#     4   9  19  33  54  82 108 134 187 233 279 329
#     4  10  20  35  55  79 108 148 181 233 284 330
#
# _framework density 17.163298000000001
#
# number of rings (size 3 to 8) (size 9 to 14) (size 15 to 20)
#    0.800    1.067    4.000    1.600    0.933    0.000 
#    0.000    0.667    0.000    0.000    0.000    1.867 
#    0.000    0.000    0.000    0.000    0.000    0.000 
#
# Total GULP energy -185872.894248 kJ/mol
# GULP energy per Si atom -12391.526283 kJ/mol
# Density = 1.712423 g / cm^3
# Si number density = 17.163298 Si / 1000 Ang^3
#
#
#
# Elastic Constant Matrix: (Units=GPa)
#
#
# Indices 1 2 3 4 5 6 
#
# 1 111.9177 47.8769 44.0407 0.0000 7.3776 0.0000
# 2 47.8769 99.2343 33.2284 0.0000 -1.5812 0.0000
# 3 44.0407 33.2284 126.3343 0.0000 -1.6676 0.0000
# 4 0.0000 0.0000 0.0000 14.8202 0.0000 2.5201
# 5 7.3776 -1.5812 -1.6676 0.0000 28.6874 0.0000
# 6 0.0000 0.0000 0.0000 2.5201 0.0000 18.1111
#
#
#
# Elastic Compliance Matrix: (Units=1/GPa)
#
#
# Indices 1 2 3 4 5 6 
#
# 1 0.012573 -0.005089 -0.003093 0.000000 -0.003694 0.000000
# 2 -0.005089 0.013116 -0.001650 0.000000 0.001936 0.000000
# 3 -0.003093 -0.001650 0.009444 0.000000 0.001254 0.000000
# 4 0.000000 0.000000 0.000000 0.069111 0.000000 -0.009616
# 5 -0.003694 0.001936 0.001254 0.000000 0.035988 0.000000
# 6 0.000000 0.000000 0.000000 -0.009616 0.000000 0.056553
#
#
# Mechanical properties :
#
#
# Convention : Reuss Voigt Hill
#
# Bulk Modulus (GPa) = 64.64811 65.30870 64.97841
# Shear Modulus (GPa) = 22.56261 26.47975 24.52118
#
# Velocity S-wave (km/s) = 3.62965 3.93213 3.78391
# Velocity P-wave (km/s) = 7.43735 7.66482 7.55194
#
# Compressibility (1/GPa) = 0.01546836
#
# Stress axis : x y z
#
# Youngs Moduli (GPa) = 79.53638 76.24382 105.88324
#
# Poissons Ratio (x) = 0.38801 0.32752
# Poissons Ratio (y) = 0.40476 0.17472
# Poissons Ratio (z) = 0.24602 0.12581
#
# Static dielectric constant tensor:
#      x y z
#    x 3.290240 0.000000 -0.006610 
#    y 0.000000 2.799530 0.000000 
#    z -0.006610 0.000000 3.435480 
# 
# 
# High freq. dielectric constant tensor:
#      x y z
#    x 1.667160 0.000000 -0.010630 
#    y 0.000000 1.617360 0.000000 
#    z -0.010630 0.000000 1.678120 
# 
# From -- ./inp_files/21647.got.cif
#   From: 2010.03.12/outbox.cif.g09.slc.cpg/sg5_11_cif.got.tgz:21647.got - 2010.03.31 09:47:26.
