data_PCOD8048188
_publ_section_title
;
Structure prediction by ZEFSAII (Michael W. Deem and Ramdas Pophale) SiO2 
 PCOD8048188
Probable space group: C 2
;
_chemical_formula_sum "Si O2"
_cell_formula_units_Z 32
_cell_length_a 9.458310
_cell_length_b 24.121169
_cell_length_c 7.749785
_cell_angle_alpha 90.000000
_cell_angle_beta 90.000121
_cell_angle_gamma 90.000000
_cell_volume 1768.078527
_symmetry_space_group_name_H-M "C 2"
_symmetry_group_IT_number 5
_symmetry_cell_setting 'monoclinic'
loop_
_space_group_symop_operation_xyz
x,y,z
-x,y,-z
1/2+x,1/2+y,z
1/2-x,1/2+y,-z
loop_
_atom_site_type_symbol
_atom_site_label
_atom_site_fract_x
_atom_site_fract_y
_atom_site_fract_z
Si Si1 0.663397 0.303830 0.202052
Si Si2 0.663399 0.303830 0.797953
Si Si3 0.662248 0.906635 0.307467
Si Si4 0.330916 0.107343 0.999997
Si Si5 0.832052 0.683074 0.307600
Si Si6 0.667785 0.983168 0.000002
Si Si7 0.162251 0.406635 0.692534
Si Si8 0.167952 0.683074 0.307605
O O1 0.499998 0.309991 0.254437
O O2 0.750440 0.350208 0.301553
O O3 0.723548 0.244234 0.259994
O O4 0.685980 0.311374 0.000002
O O5 0.750448 0.350206 0.698451
O O6 0.723548 0.244233 0.740009
O O7 0.722189 0.951303 0.170828
O O8 0.675866 0.931960 0.499999
O O9 0.499998 0.892566 0.262652
O O10 0.272634 0.138587 0.170488
O O11 0.500000 0.107136 0.000000
O O12 0.272633 0.138585 0.829500
O O13 0.268687 0.045136 0.999997
O O14 0.780826 0.666610 0.499996
O O15 0.000002 0.683738 0.295945
O O16 0.500000 0.987257 0.000000
O O17 0.722192 0.951303 0.829178
#
# Coordination Sequence:
#
# PCOD8048188 Si02
#       8
#     4   4   4   4   4   4   4   4
#     4  10  18  30  50  74  99 126 156 193 239 286
#     4  10  18  30  50  74  99 126 156 193 239 286
#     4  10  20  33  49  70  97 129 161 193 235 283
#     4   9  16  27  42  63  91 123 156 189 232 280
#     4   9  16  26  42  66  95 122 150 190 236 279
#     4   9  18  31  45  63  93 127 160 199 232 270
#     4  10  20  33  49  70  97 129 161 193 235 283
#     4   9  16  26  42  66  95 122 150 190 236 279
#
# _framework density 18.098742999999999
#
# number of rings (size 3 to 8) (size 9 to 14) (size 15 to 20)
#    0.000    2.500    2.500    0.750    0.000    2.500 
#    0.000    5.000    0.000    0.000    0.000    3.500 
#    0.000    0.000    0.000    0.000    0.000    0.000 
#
# Total GULP energy -198372.395600 kJ/mol
# GULP energy per Si atom -12398.274725 kJ/mol
# Density = 1.805755 g / cm^3
# Si number density = 18.098743 Si / 1000 Ang^3
#
#
#
# Elastic Constant Matrix: (Units=GPa)
#
#
# Indices 1 2 3 4 5 6 
#
# 1 21.2278 22.7191 20.6886 0.0000 -0.0003 0.0000
# 2 22.7191 156.4109 77.4862 0.0000 -0.0006 0.0000
# 3 20.6886 77.4862 145.5588 0.0000 -0.0006 0.0000
# 4 0.0000 0.0000 0.0000 18.3328 0.0000 -0.0001
# 5 -0.0003 -0.0006 -0.0006 0.0000 13.6981 0.0000
# 6 0.0000 0.0000 0.0000 -0.0001 0.0000 17.8468
#
#
#
# Elastic Compliance Matrix: (Units=1/GPa)
#
#
# Indices 1 2 3 4 5 6 
#
# 1 0.058488 -0.005945 -0.005148 0.000000 0.000001 0.000000
# 2 -0.005945 0.009288 -0.004099 0.000000 0.000000 0.000000
# 3 -0.005148 -0.004099 0.009784 0.000000 0.000000 0.000000
# 4 0.000000 0.000000 0.000000 0.054547 0.000000 0.000000
# 5 0.000001 0.000000 0.000000 0.000000 0.073003 0.000000
# 6 0.000000 0.000000 0.000000 0.000000 0.000000 0.056033
#
#
# Mechanical properties :
#
#
# Convention : Reuss Voigt Hill
#
# Bulk Modulus (GPa) = 21.19774 62.77615 41.98695
# Shear Modulus (GPa) = 16.27326 23.46244 19.86785
#
# Velocity S-wave (km/s) = 3.00182 3.60440 3.31682
# Velocity P-wave (km/s) = 4.87363 7.21685 6.15773
#
# Compressibility (1/GPa) = 0.04717483
#
# Stress axis : x y z
#
# Youngs Moduli (GPa) = 17.09741 107.66916 102.20810
#
# Poissons Ratio (x) = 0.64011 0.52620
# Poissons Ratio (y) = 0.10165 0.41897
# Poissons Ratio (z) = 0.08802 0.44136
#
# Static dielectric constant tensor:
#      x y z
#    x 2.772890 0.000000 0.000000 
#    y 0.000000 3.456930 0.000000 
#    z 0.000000 0.000000 3.611470 
# 
# 
# High freq. dielectric constant tensor:
#      x y z
#    x 1.632380 0.000000 0.000000 
#    y 0.000000 1.699040 0.000000 
#    z 0.000000 0.000000 1.723160 
# 
# From -- ./inp_files/21629.got.cif
#   From: 2010.03.12/outbox.cif.g09.slc.cpg/sg5_11_cif.got.tgz:21629.got - 2010.03.31 09:47:26.
