data_PCOD8048536
_publ_section_title
;
Structure prediction by ZEFSAII (Michael W. Deem and Ramdas Pophale) SiO2 
 PCOD8048536
Probable space group: C 2
;
_chemical_formula_sum "Si O2"
_cell_formula_units_Z 22
_cell_length_a 24.009382
_cell_length_b 8.715504
_cell_length_c 5.636360
_cell_angle_alpha 90.000000
_cell_angle_beta 114.902923
_cell_angle_gamma 90.000000
_cell_volume 1069.769690
_symmetry_space_group_name_H-M "C 2"
_symmetry_group_IT_number 5
_symmetry_cell_setting 'monoclinic'
loop_
_space_group_symop_operation_xyz
x,y,z
-x,y,-z
1/2+x,1/2+y,z
1/2-x,1/2+y,-z
loop_
_atom_site_type_symbol
_atom_site_label
_atom_site_fract_x
_atom_site_fract_y
_atom_site_fract_z
Si Si1 0.500000 0.097031 0.000000
Si Si2 0.341112 0.320710 0.504069
Si Si3 0.369260 0.012252 0.803422
Si Si4 0.213972 0.614925 0.974933
Si Si5 0.236517 0.375914 0.650423
Si Si6 0.973251 0.892928 0.706141
O O1 0.557653 0.982360 0.055745
O O2 0.513035 0.208523 0.250556
O O3 0.360771 0.190438 0.724151
O O4 0.322342 0.250585 0.219957
O O5 0.282582 0.408465 0.512443
O O6 0.400223 0.429084 0.570867
O O7 0.334323 0.899656 0.557697
O O8 0.335978 0.999234 0.998188
O O9 0.253981 0.508549 0.872157
O O10 0.258287 0.702239 0.241763
O O11 0.000000 0.953194 0.500000
O O12 0.000000 0.971126 0.000000
#
# Coordination Sequence:
#
# PCOD8048536 Si02
#       6
#     2   4   4   4   4   4
#     4   8  16  28  48  72 112 144 176 232 280 334
#     4   9  18  30  49  72 112 143 181 222 284 334
#     4   9  17  31  47  78 109 139 181 223 284 333
#     4  10  19  33  53  75 117 143 178 231 279 332
#     4  10  20  32  50  79 115 145 182 228 271 343
#     4   9  17  28  47  76 108 148 173 225 287 339
#
# _framework density 20.565172
#
# number of rings (size 3 to 8) (size 9 to 14) (size 15 to 20)
#    0.545    2.182    0.000    2.182    2.545    0.000 
#    0.000    0.000    0.000    0.000    0.000    0.000 
#  111.818    0.000    0.000    0.000    0.000    0.000 
#
# Total GULP energy -136269.999016 kJ/mol
# GULP energy per Si atom -12388.181729 kJ/mol
# Density = 2.051836 g / cm^3
# Si number density = 20.565172 Si / 1000 Ang^3
#
#
#
# Elastic Constant Matrix: (Units=GPa)
#
#
# Indices 1 2 3 4 5 6 
#
# 1 136.1684 27.3641 47.8501 0.0000 12.6541 0.0000
# 2 27.3641 29.6939 18.7560 0.0000 4.6521 0.0000
# 3 47.8501 18.7560 80.4543 0.0000 -14.7197 0.0000
# 4 0.0000 0.0000 0.0000 28.2303 0.0000 -3.0714
# 5 12.6541 4.6521 -14.7197 0.0000 35.4104 0.0000
# 6 0.0000 0.0000 0.0000 -3.0714 0.0000 22.6863
#
#
#
# Elastic Compliance Matrix: (Units=1/GPa)
#
#
# Indices 1 2 3 4 5 6 
#
# 1 0.011288 -0.005285 -0.006594 0.000000 -0.006081 0.000000
# 2 -0.005285 0.045348 -0.008846 0.000000 -0.007746 0.000000
# 3 -0.006594 -0.008846 0.020626 0.000000 0.012093 0.000000
# 4 0.000000 0.000000 0.000000 0.035953 0.000000 0.004868
# 5 -0.006081 -0.007746 0.012093 0.000000 0.036458 0.000000
# 6 0.000000 0.000000 0.000000 0.004868 0.000000 0.044739
#
#
# Mechanical properties :
#
#
# Convention : Reuss Voigt Hill
#
# Bulk Modulus (GPa) = 27.92312 48.25076 38.08694
# Shear Modulus (GPa) = 20.17771 27.42182 23.79977
#
# Velocity S-wave (km/s) = 3.13574 3.65555 3.40558
# Velocity P-wave (km/s) = 5.16893 6.42890 5.83303
#
# Compressibility (1/GPa) = 0.03581262
#
# Stress axis : x y z
#
# Youngs Moduli (GPa) = 88.58889 22.05156 48.48274
#
# Poissons Ratio (x) = 0.11654 0.31970
# Poissons Ratio (y) = 0.46816 0.42888
# Poissons Ratio (z) = 0.58416 0.19507
#
# Static dielectric constant tensor:
#      x y z
#    x 3.986290 0.000000 -0.071260 
#    y 0.000000 3.052370 0.000000 
#    z -0.071260 0.000000 3.744380 
# 
# 
# High freq. dielectric constant tensor:
#      x y z
#    x 1.804770 0.000000 -0.006980 
#    y 0.000000 1.730050 0.000000 
#    z -0.006980 0.000000 1.810590 
# 
# From -- ./inp_files/10099.got.cif
#   From: 2010.03.12/outbox.cif.g09.slc.cpg/sg5_6_cif.got.tgz:10099.got - 2010.03.31 09:47:26.
