data_PCOD8048552
_publ_section_title
;
Structure prediction by ZEFSAII (Michael W. Deem and Ramdas Pophale) SiO2 
 PCOD8048552
Probable space group: C 2
;
_chemical_formula_sum "Si O2"
_cell_formula_units_Z 32
_cell_length_a 16.878011
_cell_length_b 10.195999
_cell_length_c 12.000517
_cell_angle_alpha 90.000000
_cell_angle_beta 53.719677
_cell_angle_gamma 90.000000
_cell_volume 1664.780286
_symmetry_space_group_name_H-M "C 2"
_symmetry_group_IT_number 5
_symmetry_cell_setting 'monoclinic'
loop_
_space_group_symop_operation_xyz
x,y,z
-x,y,-z
1/2+x,1/2+y,z
1/2-x,1/2+y,-z
loop_
_atom_site_type_symbol
_atom_site_label
_atom_site_fract_x
_atom_site_fract_y
_atom_site_fract_z
Si Si1 0.930945 0.949810 0.851272
Si Si2 0.097875 0.818523 0.354632
Si Si3 0.064684 0.153323 0.838782
Si Si4 0.602993 0.033248 0.393305
Si Si5 0.324369 0.095695 0.427222
Si Si6 0.772007 0.324181 0.383504
Si Si7 0.303505 0.437325 0.163532
Si Si8 0.935314 0.729002 0.151652
O O1 0.893998 0.912744 0.759472
O O2 0.001960 0.839511 0.840059
O O3 0.834841 0.960344 0.009507
O O4 0.992899 0.086502 0.805785
O O5 0.088768 0.664210 0.328588
O O6 0.196333 0.835777 0.344585
O O7 0.000000 0.864655 0.500000
O O8 0.118240 0.284672 0.749761
O O9 0.152487 0.053383 0.797021
O O10 0.000000 0.189524 0.000000
O O11 0.500000 0.956094 0.500000
O O12 0.627028 0.087595 0.494212
O O13 0.684968 0.939795 0.271163
O O14 0.253945 0.222091 0.495940
O O15 0.404652 0.117645 0.263744
O O16 0.266771 0.963995 0.447522
O O17 0.339385 0.296383 0.176794
O O18 0.000000 0.662551 0.000000
#
# Coordination Sequence:
#
# PCOD8048552 Si02
#       8
#     4   4   4   4   4   4   4   4
#     4   9  18  33  61  87 112 154 200 248 300 353
#     4  10  20  33  56  88 114 146 202 254 288 353
#     4   9  18  35  60  84 112 152 198 248 299 361
#     4  10  19  33  56  83 113 151 198 245 295 357
#     4  11  22  36  60  83 118 159 195 248 303 353
#     4  11  23  37  60  88 118 157 204 249 301 367
#     4   9  16  34  57  85 115 153 202 243 291 371
#     4   9  18  33  58  86 112 150 203 247 293 358
#
# _framework density 19.221757
#
# number of rings (size 3 to 8) (size 9 to 14) (size 15 to 20)
#    0.000    2.250    2.500    4.500    3.500    0.500 
#    0.000    5.000    5.500    0.000    0.000    0.000 
#    0.000    0.000    0.000    0.000    0.000    0.000 
#
# Total GULP energy -198299.164118 kJ/mol
# GULP energy per Si atom -12393.697757 kJ/mol
# Density = 1.917801 g / cm^3
# Si number density = 19.221757 Si / 1000 Ang^3
#
#
#
# Elastic Constant Matrix: (Units=GPa)
#
#
# Indices 1 2 3 4 5 6 
#
# 1 75.5438 37.9701 54.4229 0.0000 -11.1808 0.0000
# 2 37.9701 70.7258 51.8637 0.0000 -1.6996 0.0000
# 3 54.4229 51.8637 129.8352 0.0000 -12.3028 0.0000
# 4 0.0000 0.0000 0.0000 31.3128 0.0000 -1.4426
# 5 -11.1808 -1.6996 -12.3028 0.0000 36.3809 0.0000
# 6 0.0000 0.0000 0.0000 -1.4426 0.0000 16.3594
#
#
#
# Elastic Compliance Matrix: (Units=1/GPa)
#
#
# Indices 1 2 3 4 5 6 
#
# 1 0.021722 -0.007332 -0.005761 0.000000 0.004385 0.000000
# 2 -0.007332 0.022589 -0.006265 0.000000 -0.003316 0.000000
# 3 -0.005761 -0.006265 0.012835 0.000000 0.002277 0.000000
# 4 0.000000 0.000000 0.000000 0.032066 0.000000 0.002828
# 5 0.004385 -0.003316 0.002277 0.000000 0.029450 0.000000
# 6 0.000000 0.000000 0.000000 0.002828 0.000000 0.061376
#
#
# Mechanical properties :
#
#
# Convention : Reuss Voigt Hill
#
# Bulk Modulus (GPa) = 54.25375 62.73534 58.49454
# Shear Modulus (GPa) = 22.23250 25.60050 23.91650
#
# Velocity S-wave (km/s) = 3.40462 3.65341 3.53121
# Velocity P-wave (km/s) = 6.61375 7.10669 6.86465
#
# Compressibility (1/GPa) = 0.01843191
#
# Stress axis : x y z
#
# Youngs Moduli (GPa) = 46.03715 44.26871 77.91187
#
# Poissons Ratio (x) = 0.32456 0.44883
# Poissons Ratio (y) = 0.33753 0.48808
# Poissons Ratio (z) = 0.26521 0.27732
#
# Static dielectric constant tensor:
#      x y z
#    x 3.407350 0.000000 -0.042990 
#    y 0.000000 3.332110 0.000000 
#    z -0.042990 0.000000 3.836020 
# 
# 
# High freq. dielectric constant tensor:
#      x y z
#    x 1.726930 0.000000 -0.009060 
#    y 0.000000 1.714990 0.000000 
#    z -0.009060 0.000000 1.760800 
# 
# From -- ./inp_files/44589.got.cif
#   From: 2010.03.12/outbox.cif.g09.slc.cpg/sg5_23_cif.got.tgz:44589.got - 2010.03.31 09:47:26.
