data_PCOD8048914
_publ_section_title
;
Structure prediction by ZEFSAII (Michael W. Deem and Ramdas Pophale) SiO2 
 PCOD8048914
Probable space group: C 2
;
_chemical_formula_sum "Si O2"
_cell_formula_units_Z 28
_cell_length_a 10.980834
_cell_length_b 11.348855
_cell_length_c 11.083088
_cell_angle_alpha 90.000000
_cell_angle_beta 77.544010
_cell_angle_gamma 90.000000
_cell_volume 1348.663143
_symmetry_space_group_name_H-M "C 2"
_symmetry_group_IT_number 5
_symmetry_cell_setting 'monoclinic'
loop_
_space_group_symop_operation_xyz
x,y,z
-x,y,-z
1/2+x,1/2+y,z
1/2-x,1/2+y,-z
loop_
_atom_site_type_symbol
_atom_site_label
_atom_site_fract_x
_atom_site_fract_y
_atom_site_fract_z
Si Si1 0.899625 0.204930 0.693891
Si Si2 0.081312 0.893199 0.228462
Si Si3 0.187731 0.639200 0.193862
Si Si4 0.372454 0.550175 0.342305
Si Si5 0.259792 0.509984 0.612004
Si Si6 0.486644 0.962360 0.638762
Si Si7 0.125584 0.096797 0.050905
O O1 0.918188 0.336958 0.645899
O O2 0.018874 0.129642 0.623620
O O3 0.779009 0.144935 0.655199
O O4 0.885849 0.195632 0.841915
O O5 0.103289 0.755975 0.203465
O O6 0.143989 0.923385 0.343106
O O7 0.143964 0.968011 0.107107
O O8 0.935221 0.934470 0.264547
O O9 0.300445 0.636561 0.265644
O O10 0.094991 0.537118 0.252169
O O11 0.248753 0.619395 0.050401
O O12 0.279172 0.503801 0.464064
O O13 0.122703 0.460657 0.670043
O O14 0.500000 0.014801 0.500000
O O15 0.000000 0.102393 0.000000
#
# Coordination Sequence:
#
# PCOD8048914 Si02
#       7
#     4   4   4   4   4   4   4
#     4  10  22  41  67  93 122 175 221 269 323 388
#     4  10  23  40  67  95 123 172 224 268 327 390
#     4  12  24  40  63  99 131 167 219 270 334 388
#     4  10  19  42  66  90 126 168 216 268 319 399
#     4  10  21  42  63  94 131 168 219 261 333 390
#     4  12  25  40  61 103 139 167 212 271 335 401
#     4  10  21  45  67  89 124 174 229 267 326 395
#
# _framework density 20.761299999999999
#
# number of rings (size 3 to 8) (size 9 to 14) (size 15 to 20)
#    0.000    1.714    4.286    3.429    2.000    2.286 
#    2.571    2.857    0.000    0.000    0.000    0.000 
#    0.000    0.000    0.000    0.000    0.000    0.000 
#
# Total GULP energy -173531.245822 kJ/mol
# GULP energy per Si atom -12395.088987 kJ/mol
# Density = 2.071405 g / cm^3
# Si number density = 20.761300 Si / 1000 Ang^3
#
#
#
# Elastic Constant Matrix: (Units=GPa)
#
#
# Indices 1 2 3 4 5 6 
#
# 1 66.1048 30.5969 22.3645 0.0000 -14.1090 0.0000
# 2 30.5969 118.5806 25.6495 0.0000 -20.6450 0.0000
# 3 22.3645 25.6495 104.9788 0.0000 -19.0280 0.0000
# 4 0.0000 0.0000 0.0000 22.1891 0.0000 -0.4041
# 5 -14.1090 -20.6450 -19.0280 0.0000 33.9590 0.0000
# 6 0.0000 0.0000 0.0000 -0.4041 0.0000 29.1385
#
#
#
# Elastic Compliance Matrix: (Units=1/GPa)
#
#
# Indices 1 2 3 4 5 6 
#
# 1 0.018440 -0.003524 -0.002301 0.000000 0.004230 0.000000
# 2 -0.003524 0.010296 -0.000997 0.000000 0.004236 0.000000
# 3 -0.002301 -0.000997 0.011104 0.000000 0.004660 0.000000
# 4 0.000000 0.000000 0.000000 0.045079 0.000000 0.000625
# 5 0.004230 0.004236 0.004660 0.000000 0.036391 0.000000
# 6 0.000000 0.000000 0.000000 0.000625 0.000000 0.034328
#
#
# Mechanical properties :
#
#
# Convention : Reuss Voigt Hill
#
# Bulk Modulus (GPa) = 38.17329 49.65400 43.91365
# Shear Modulus (GPa) = 28.08805 31.12753 29.60779
#
# Velocity S-wave (km/s) = 3.68217 3.87629 3.78048
# Velocity P-wave (km/s) = 6.04190 6.63345 6.34457
#
# Compressibility (1/GPa) = 0.02619633
#
# Stress axis : x y z
#
# Youngs Moduli (GPa) = 54.23089 97.12954 90.05693
#
# Poissons Ratio (x) = 0.34227 0.20719
# Poissons Ratio (y) = 0.19110 0.08978
# Poissons Ratio (z) = 0.12477 0.09683
#
# Static dielectric constant tensor:
#      x y z
#    x 3.883230 0.000000 -0.090920 
#    y 0.000000 3.624770 0.000000 
#    z -0.090920 0.000000 3.850240 
# 
# 
# High freq. dielectric constant tensor:
#      x y z
#    x 1.811940 0.000000 -0.005300 
#    y 0.000000 1.791790 0.000000 
#    z -0.005300 0.000000 1.819150 
# 
# From -- ./inp_files/38812.got.cif
#   From: 2010.03.12/outbox.cif.g09.slc.cpg/sg5_20_cif.got.tgz:38812.got - 2010.03.31 09:47:26.
