data_PCOD8048828
_publ_section_title
;
Structure prediction by ZEFSAII (Michael W. Deem and Ramdas Pophale) SiO2 
 PCOD8048828
Probable space group: C 2
;
_chemical_formula_sum "Si O2"
_cell_formula_units_Z 28
_cell_length_a 10.293494
_cell_length_b 9.722324
_cell_length_c 13.351827
_cell_angle_alpha 90.000000
_cell_angle_beta 75.257945
_cell_angle_gamma 90.000000
_cell_volume 1292.220297
_symmetry_space_group_name_H-M "C 2"
_symmetry_group_IT_number 5
_symmetry_cell_setting 'monoclinic'
loop_
_space_group_symop_operation_xyz
x,y,z
-x,y,-z
1/2+x,1/2+y,z
1/2-x,1/2+y,-z
loop_
_atom_site_type_symbol
_atom_site_label
_atom_site_fract_x
_atom_site_fract_y
_atom_site_fract_z
Si Si1 0.845503 0.814230 0.059762
Si Si2 0.861126 0.523260 0.982232
Si Si3 0.199458 0.324627 0.289853
Si Si4 0.512538 0.046481 0.243451
Si Si5 0.581442 0.261147 0.387423
Si Si6 0.836288 0.509009 0.532434
Si Si7 0.228811 0.023769 0.329850
O O1 0.751377 0.905753 0.005504
O O2 0.816330 0.844208 0.183067
O O3 0.806870 0.653752 0.054577
O O4 0.000000 0.843722 0.000000
O O5 0.894609 0.588729 0.867058
O O6 0.000000 0.460338 0.000000
O O7 0.067026 0.407319 0.283008
O O8 0.241338 0.390900 0.388655
O O9 0.155690 0.167079 0.318637
O O10 0.494927 0.175622 0.322817
O O11 0.362156 0.013896 0.235053
O O12 0.500000 0.312717 0.500000
O O13 0.636451 0.394994 0.319630
O O14 0.695413 0.154738 0.405638
O O15 0.772222 0.508384 0.436549
O O16 0.000000 0.491674 0.500000
#
# Coordination Sequence:
#
# PCOD8048828 Si02
#       7
#     4   4   4   4   4   4   4
#     4  10  22  43  66  94 129 163 210 269 324 372
#     4  10  22  41  68  94 124 167 213 263 321 378
#     4  10  22  39  62  91 120 165 205 252 314 372
#     4  10  22  43  60  85 127 160 204 259 309 366
#     4  10  21  39  54  89 119 163 207 247 302 367
#     4  10  19  39  61  82 128 166 199 251 308 364
#     4  12  20  36  64  81 121 162 206 250 307 364
#
# _framework density 21.668133000000001
#
# number of rings (size 3 to 8) (size 9 to 14) (size 15 to 20)
#    0.000    1.714    4.286    2.571    0.000    3.429 
#    2.571    7.143    0.000    0.000    0.000    0.000 
#    0.000    0.000    0.000    0.000    0.000    0.000 
#
# Total GULP energy -173475.757214 kJ/mol
# GULP energy per Si atom -12391.125515 kJ/mol
# Density = 2.161882 g / cm^3
# Si number density = 21.668133 Si / 1000 Ang^3
#
#
#
# Elastic Constant Matrix: (Units=GPa)
#
#
# Indices 1 2 3 4 5 6 
#
# 1 86.5530 60.8494 23.1065 0.0000 -5.4197 0.0000
# 2 60.8494 156.6295 37.7635 0.0000 -21.0645 0.0000
# 3 23.1065 37.7635 79.0105 0.0000 -7.4552 0.0000
# 4 0.0000 0.0000 0.0000 33.3484 0.0000 -1.4060
# 5 -5.4197 -21.0645 -7.4552 0.0000 23.4827 0.0000
# 6 0.0000 0.0000 0.0000 -1.4060 0.0000 26.9958
#
#
#
# Elastic Compliance Matrix: (Units=1/GPa)
#
#
# Indices 1 2 3 4 5 6 
#
# 1 0.016275 -0.006154 -0.002046 0.000000 -0.002414 0.000000
# 2 -0.006154 0.010318 -0.002467 0.000000 0.007052 0.000000
# 3 -0.002046 -0.002467 0.014618 0.000000 0.001956 0.000000
# 4 0.000000 0.000000 0.000000 0.030052 0.000000 0.001565
# 5 -0.002414 0.007052 0.001956 0.000000 0.048975 0.000000
# 6 0.000000 0.000000 0.000000 0.001565 0.000000 0.037124
#
#
# Mechanical properties :
#
#
# Convention : Reuss Voigt Hill
#
# Bulk Modulus (GPa) = 50.30514 62.84799 56.57656
# Shear Modulus (GPa) = 26.97990 30.13030 28.55510
#
# Velocity S-wave (km/s) = 3.53248 3.73303 3.63414
# Velocity P-wave (km/s) = 6.31700 6.90279 6.61638
#
# Compressibility (1/GPa) = 0.01987869
#
# Stress axis : x y z
#
# Youngs Moduli (GPa) = 61.44310 96.91364 68.40702
#
# Poissons Ratio (x) = 0.59642 0.13996
# Poissons Ratio (y) = 0.37813 0.16873
# Poissons Ratio (z) = 0.12571 0.23904
#
# Static dielectric constant tensor:
#      x y z
#    x 3.700950 0.000000 0.046790 
#    y 0.000000 4.030450 0.000000 
#    z 0.046790 0.000000 4.259220 
# 
# 
# High freq. dielectric constant tensor:
#      x y z
#    x 1.817980 0.000000 0.005050 
#    y 0.000000 1.850250 0.000000 
#    z 0.005050 0.000000 1.868620 
# 
# From -- ./inp_files/52227.got.cif
#   From: 2010.03.12/outbox.cif.g09.slc.cpg/sg5_27_cif.got.tgz:52227.got - 2010.03.31 09:47:26.
