data_PCOD8048244
_publ_section_title
;
Structure prediction by ZEFSAII (Michael W. Deem and Ramdas Pophale) SiO2 
 PCOD8048244
Probable space group: C 2
;
_chemical_formula_sum "Si O2"
_cell_formula_units_Z 32
_cell_length_a 14.361092
_cell_length_b 8.255433
_cell_length_c 23.505540
_cell_angle_alpha 90.000000
_cell_angle_beta 32.815535
_cell_angle_gamma 90.000000
_cell_volume 1510.238840
_symmetry_space_group_name_H-M "C 2"
_symmetry_group_IT_number 5
_symmetry_cell_setting 'monoclinic'
loop_
_space_group_symop_operation_xyz
x,y,z
-x,y,-z
1/2+x,1/2+y,z
1/2-x,1/2+y,-z
loop_
_atom_site_type_symbol
_atom_site_label
_atom_site_fract_x
_atom_site_fract_y
_atom_site_fract_z
Si Si1 0.160125 0.863090 0.461924
Si Si2 0.969577 0.860526 0.275252
Si Si3 0.198418 0.133368 0.037657
Si Si4 0.815809 0.225938 0.084096
Si Si5 0.497449 0.309951 0.138192
Si Si6 0.193169 0.436457 0.220045
Si Si7 0.515465 0.725055 0.750702
Si Si8 0.641192 0.126850 0.575331
O O1 0.322374 0.845666 0.336145
O O2 0.153175 0.701138 0.505364
O O3 0.000000 0.886239 0.500000
O O4 0.196749 0.015750 0.486198
O O5 0.937186 0.761260 0.232940
O O6 0.860525 0.778405 0.380745
O O7 0.174673 0.849503 0.181613
O O8 0.915419 0.046153 0.298748
O O9 0.069995 0.237239 0.143417
O O10 0.190890 0.200787 0.978839
O O11 0.402978 0.165792 0.947381
O O12 0.145631 0.947789 0.069576
O O13 0.793315 0.052347 0.125594
O O14 0.000000 0.304648 0.000000
O O15 0.328612 0.375867 0.195939
O O16 0.125655 0.277786 0.222834
O O17 0.035605 0.526123 0.332217
#
# Coordination Sequence:
#
# PCOD8048244 Si02
#       8
#     4   4   4   4   4   4   4   4
#     4  11  25  45  73  99 129 175 220 278 348 390
#     4   9  21  39  59  86 132 160 206 274 324 387
#     4  10  20  33  55  83 126 158 212 257 303 385
#     4  10  18  33  56  82 118 172 209 253 317 379
#     4  10  20  37  57  91 119 176 207 253 329 380
#     4  10  21  38  64  87 125 166 217 264 325 392
#     4  10  22  39  58  94 125 163 216 270 321 398
#     4  10  23  47  67  97 131 162 222 283 325 416
#
# _framework density 21.188701999999999
#
# number of rings (size 3 to 8) (size 9 to 14) (size 15 to 20)
#    0.000    2.000    1.250    1.500    3.500    1.000 
#   13.500    0.625    0.000    0.000    0.000    0.000 
#    0.000    0.000    0.000    0.000    0.000    0.000 
#
# Total GULP energy -198225.911257 kJ/mol
# GULP energy per Si atom -12389.119454 kJ/mol
# Density = 2.114048 g / cm^3
# Si number density = 21.188702 Si / 1000 Ang^3
#
#
#
# Elastic Constant Matrix: (Units=GPa)
#
#
# Indices 1 2 3 4 5 6 
#
# 1 96.7857 11.6768 43.7136 0.0000 -18.4875 0.0002
# 2 11.6768 5.7738 3.8437 -0.0001 -17.1219 0.0004
# 3 43.7136 3.8437 73.2217 -0.0003 -4.6377 0.0000
# 4 0.0000 -0.0001 -0.0003 26.4499 0.0000 0.3024
# 5 -18.4875 -17.1219 -4.6377 0.0000 35.4250 0.0000
# 6 0.0002 0.0004 0.0000 0.3024 0.0000 31.4483
#
#
#
# Elastic Compliance Matrix: (Units=1/GPa)
#
#
# Indices 1 2 3 4 5 6 
#
# 1 0.015390 0.011102 -0.008997 0.000000 0.012220 0.000000
# 2 0.011102 -0.386147 0.002206 -0.000001 -0.180553 0.000005
# 3 -0.008997 0.002206 0.018839 0.000000 -0.001163 0.000000
# 4 0.000000 -0.000001 0.000000 0.037812 -0.000001 -0.000364
# 5 0.012220 -0.180553 -0.001163 -0.000001 -0.052812 0.000002
# 6 0.000000 0.000005 0.000000 -0.000364 0.000002 0.031802
#
#
# Mechanical properties :
#
#
# Convention : Reuss Voigt Hill
#
# Bulk Modulus (GPa) = -2.91295 32.69438 14.89071
# Shear Modulus (GPa) = -10.91292 26.43445 7.76077
#
# Velocity S-wave (km/s) = -2.27190 3.53593 1.91589
# Velocity P-wave (km/s) = 2.87398 5.66869 3.45501
#
# Compressibility (1/GPa) = -0.34329416
#
# Stress axis : x y z
#
# Youngs Moduli (GPa) = 64.97586 -2.58969 53.08178
#
# Poissons Ratio (x) = 0.02875 0.47757
# Poissons Ratio (y) = -0.72139 -0.11712
# Poissons Ratio (z) = 0.58458 0.00571
#
# Static dielectric constant tensor:
#      x y z
#    x 3.928730 0.000000 -0.222870 
#    y 0.000000 3.993630 0.000000 
#    z -0.222870 0.000000 4.560150 
# 
# 
# High freq. dielectric constant tensor:
#      x y z
#    x 1.822110 0.000000 0.009950 
#    y 0.000000 1.822320 0.000000 
#    z 0.009950 0.000000 1.837200 
# 
# From -- ./inp_files/70601.got.cif
#   From: 2010.03.12/outbox.cif.g09.slc.cpg/sg5_36_cif.got.tgz:70601.got - 2010.03.31 09:47:26.
