data_PCOD8048345
_publ_section_title
;
Structure prediction by ZEFSAII (Michael W. Deem and Ramdas Pophale) SiO2 
 PCOD8048345
Probable space group: C 2
;
_chemical_formula_sum "Si O2"
_cell_formula_units_Z 22
_cell_length_a 15.649873
_cell_length_b 8.756149
_cell_length_c 26.806642
_cell_angle_alpha 90.000000
_cell_angle_beta 18.218480
_cell_angle_gamma 90.000000
_cell_volume 1148.451680
_symmetry_space_group_name_H-M "C 2"
_symmetry_group_IT_number 5
_symmetry_cell_setting 'monoclinic'
loop_
_space_group_symop_operation_xyz
x,y,z
-x,y,-z
1/2+x,1/2+y,z
1/2-x,1/2+y,-z
loop_
_atom_site_type_symbol
_atom_site_label
_atom_site_fract_x
_atom_site_fract_y
_atom_site_fract_z
Si Si1 0.500000 0.809620 0.000000
Si Si2 0.647416 0.244698 0.798153
Si Si3 0.486808 0.148590 0.779720
Si Si4 0.882299 0.396035 0.514669
Si Si5 0.732808 0.344895 0.906237
Si Si6 0.384147 0.565313 0.754624
O O1 0.316260 0.711233 0.064027
O O2 0.301783 0.915908 0.141883
O O3 0.534751 0.159371 0.812130
O O4 0.832816 0.134726 0.729132
O O5 0.859991 0.374210 0.664067
O O6 0.391967 0.316046 0.969574
O O7 0.720865 0.238080 0.618798
O O8 0.482316 0.966678 0.769674
O O9 0.696774 0.516296 0.588303
O O10 0.000000 0.470797 0.500000
O O11 0.821043 0.182318 0.834585
O O12 0.500000 0.416948 0.000000
#
# Coordination Sequence:
#
# PCOD8048345 Si02
#       6
#     2   4   4   4   4   4
#     4  10  18  36  56  82 110 156 182 228 278 338
#     4  10  21  35  59  85 113 142 191 234 274 334
#     4  10  21  35  60  81 115 149 188 229 284 330
#     4   9  21  40  56  77 115 154 185 227 286 336
#     4  10  20  37  57  83 114 143 190 235 276 326
#     4  10  20  38  59  79 116 150 187 232 283 330
#
# _framework density 19.156224999999999
#
# number of rings (size 3 to 8) (size 9 to 14) (size 15 to 20)
#    0.000    2.182    3.636    0.000    2.545    4.364 
#    0.000    4.545    0.000    0.000    0.000    0.000 
#    0.000    0.000    0.000    0.000    0.000    0.000 
#
# Total GULP energy -136326.743552 kJ/mol
# GULP energy per Si atom -12393.340323 kJ/mol
# Density = 1.911262 g / cm^3
# Si number density = 19.156225 Si / 1000 Ang^3
#
#
#
# Elastic Constant Matrix: (Units=GPa)
#
#
# Indices 1 2 3 4 5 6 
#
# 1 115.6170 32.3699 28.3471 -0.1379 -3.1478 0.2408
# 2 32.3699 69.2949 17.6518 -0.1119 -2.3469 0.0537
# 3 28.3471 17.6518 52.5890 -0.9404 2.0613 -0.0306
# 4 -0.1379 -0.1119 -0.9404 19.3759 0.3828 -19.0620
# 5 -3.1478 -2.3469 2.0613 0.3828 34.9219 0.0906
# 6 0.2408 0.0537 -0.0306 -19.0620 0.0906 25.4288
#
#
#
# Elastic Compliance Matrix: (Units=1/GPa)
#
#
# Indices 1 2 3 4 5 6 
#
# 1 0.010899 -0.003878 -0.004633 -0.001113 0.001010 -0.000938
# 2 -0.003878 0.017231 -0.003744 -0.000526 0.001036 -0.000402
# 3 -0.004633 -0.003744 0.022934 0.004514 -0.002081 0.003471
# 4 -0.001113 -0.000526 0.004514 0.197716 -0.002954 0.148240
# 5 0.001010 0.001036 -0.002081 -0.002954 0.028957 -0.002332
# 6 -0.000938 -0.000402 0.003471 0.148240 -0.002332 0.150472
#
#
# Mechanical properties :
#
#
# Convention : Reuss Voigt Hill
#
# Bulk Modulus (GPa) = 37.65906 43.80427 40.73167
# Shear Modulus (GPa) = 10.83260 26.55412 18.69336
#
# Velocity S-wave (km/s) = 2.38058 3.72719 3.12723
# Velocity P-wave (km/s) = 5.22090 6.43732 5.86076
#
# Compressibility (1/GPa) = 0.02655404
#
# Stress axis : x y z
#
# Youngs Moduli (GPa) = 91.75062 58.03577 43.60378
#
# Poissons Ratio (x) = 0.22506 0.20203
# Poissons Ratio (y) = 0.35580 0.16323
# Poissons Ratio (z) = 0.42511 0.21726
#
# Static dielectric constant tensor:
#      x y z
#    x 3.675000 0.000650 -0.204970 
#    y 0.000650 3.397290 -0.000030 
#    z -0.204970 -0.000030 3.416120 
# 
# 
# High freq. dielectric constant tensor:
#      x y z
#    x 1.755780 0.000020 -0.009400 
#    y 0.000020 1.733390 0.000000 
#    z -0.009400 0.000000 1.734410 
# 
# From -- ./inp_files/26839.got.cif
#   From: 2010.03.12/outbox.cif.g09.slc.cpg/sg5_14_cif.got.tgz:26839.got - 2010.03.31 09:47:26.
