data_PCOD8048718
_publ_section_title
;
Structure prediction by ZEFSAII (Michael W. Deem and Ramdas Pophale) SiO2 
 PCOD8048718
Probable space group: C 2
;
_chemical_formula_sum "Si O2"
_cell_formula_units_Z 30
_cell_length_a 25.802194
_cell_length_b 9.093505
_cell_length_c 8.206684
_cell_angle_alpha 90.000000
_cell_angle_beta 130.114607
_cell_angle_gamma 90.000000
_cell_volume 1472.581061
_symmetry_space_group_name_H-M "C 2"
_symmetry_group_IT_number 5
_symmetry_cell_setting 'monoclinic'
loop_
_space_group_symop_operation_xyz
x,y,z
-x,y,-z
1/2+x,1/2+y,z
1/2-x,1/2+y,-z
loop_
_atom_site_type_symbol
_atom_site_label
_atom_site_fract_x
_atom_site_fract_y
_atom_site_fract_z
Si Si1 0.184003 0.178000 0.025508
Si Si2 0.235029 0.465835 0.986615
Si Si3 0.709192 0.263237 0.501064
Si Si4 0.378263 0.090525 0.443507
Si Si5 0.406515 0.797634 0.692262
Si Si6 0.049965 0.299628 0.859281
Si Si7 0.500000 0.026266 0.500000
Si Si8 0.216618 0.077719 0.572436
O O1 0.210567 0.295365 0.939209
O O2 0.102574 0.183531 0.885446
O O3 0.219570 0.224348 0.265670
O O4 0.204017 0.010614 0.015314
O O5 0.174129 0.573246 0.810711
O O6 0.264021 0.507733 0.218438
O O7 0.717133 0.167298 0.353324
O O8 0.703044 0.432750 0.433990
O O9 0.644450 0.219964 0.480647
O O10 0.379762 0.939433 0.545269
O O11 0.450640 0.128332 0.508835
O O12 0.474991 0.735379 0.743527
O O13 0.351643 0.670982 0.561605
O O14 0.419387 0.849457 0.904324
O O15 0.044712 0.430614 0.717197
#
# Coordination Sequence:
#
# PCOD8048718 Si02
#       8
#     4   4   4   4   4   4   2   4
#     4  10  19  37  54  84 114 145 188 238 288 345
#     4  10  21  33  57  81 119 142 192 235 292 336
#     4  10  22  34  58  83 116 148 192 238 292 340
#     4  10  20  36  57  87 112 152 191 240 288 346
#     4  10  21  37  63  84 117 152 198 235 293 340
#     4  10  20  36  59  89 113 151 195 242 279 356
#     4  10  20  34  64  84 116 150 194 244 290 342
#     4  11  21  37  57  86 115 155 190 245 288 347
#
# _framework density 20.372392999999999
#
# number of rings (size 3 to 8) (size 9 to 14) (size 15 to 20)
#    0.000    1.867    2.667    1.600    3.733    1.067 
#    0.000    0.000    8.800    6.400    0.000    0.000 
#    0.000    0.000    0.000    0.000    0.000    0.000 
#
# Total GULP energy -185832.733142 kJ/mol
# GULP energy per Si atom -12388.848876 kJ/mol
# Density = 2.032602 g / cm^3
# Si number density = 20.372393 Si / 1000 Ang^3
#
#
#
# Elastic Constant Matrix: (Units=GPa)
#
#
# Indices 1 2 3 4 5 6 
#
# 1 140.9918 44.2645 15.6432 0.0000 21.6640 0.0000
# 2 44.2645 84.8381 5.4933 0.0000 4.8955 0.0000
# 3 15.6432 5.4933 51.4209 0.0000 2.9592 0.0000
# 4 0.0000 0.0000 0.0000 15.0334 0.0000 3.3229
# 5 21.6640 4.8955 2.9592 0.0000 21.3872 0.0000
# 6 0.0000 0.0000 0.0000 3.3229 0.0000 37.8679
#
#
#
# Elastic Compliance Matrix: (Units=1/GPa)
#
#
# Indices 1 2 3 4 5 6 
#
# 1 0.010156 -0.004649 -0.002079 0.000000 -0.008935 0.000000
# 2 -0.004649 0.014138 -0.000182 0.000000 0.001498 0.000000
# 3 -0.002079 -0.000182 0.020136 0.000000 -0.000639 0.000000
# 4 0.000000 0.000000 0.000000 0.067834 0.000000 -0.005953
# 5 -0.008935 0.001498 -0.000639 0.000000 0.055554 0.000000
# 6 0.000000 0.000000 0.000000 -0.005953 0.000000 0.026930
#
#
# Mechanical properties :
#
#
# Convention : Reuss Voigt Hill
#
# Bulk Modulus (GPa) = 32.66879 45.33922 39.00400
# Shear Modulus (GPa) = 22.85503 28.98100 25.91802
#
# Velocity S-wave (km/s) = 3.35306 3.77578 3.57068
# Velocity P-wave (km/s) = 5.57326 6.42746 6.01554
#
# Compressibility (1/GPa) = 0.03061026
#
# Stress axis : x y z
#
# Youngs Moduli (GPa) = 98.46772 70.73187 49.66242
#
# Poissons Ratio (x) = 0.32880 0.10323
# Poissons Ratio (y) = 0.45773 0.00906
# Poissons Ratio (z) = 0.20468 0.01290
#
# Static dielectric constant tensor:
#      x y z
#    x 4.005380 0.000000 -0.073580 
#    y 0.000000 3.680510 0.000000 
#    z -0.073580 0.000000 3.754280 
# 
# 
# High freq. dielectric constant tensor:
#      x y z
#    x 1.812660 0.000000 -0.009270 
#    y 0.000000 1.757700 0.000000 
#    z -0.009270 0.000000 1.793550 
# 
# From -- ./inp_files/28930.got.cif
#   From: 2010.03.12/outbox.cif.g09.slc.cpg/sg5_15_cif.got.tgz:28930.got - 2010.03.31 09:47:26.
