data_PCOD8048290
_publ_section_title
;
Structure prediction by ZEFSAII (Michael W. Deem and Ramdas Pophale) SiO2 
 PCOD8048290
Probable space group: C 2
;
_chemical_formula_sum "Si O2"
_cell_formula_units_Z 30
_cell_length_a 12.366076
_cell_length_b 13.066582
_cell_length_c 10.383656
_cell_angle_alpha 90.000000
_cell_angle_beta 122.901244
_cell_angle_gamma 90.000000
_cell_volume 1408.707433
_symmetry_space_group_name_H-M "C 2"
_symmetry_group_IT_number 5
_symmetry_cell_setting 'monoclinic'
loop_
_space_group_symop_operation_xyz
x,y,z
-x,y,-z
1/2+x,1/2+y,z
1/2-x,1/2+y,-z
loop_
_atom_site_type_symbol
_atom_site_label
_atom_site_fract_x
_atom_site_fract_y
_atom_site_fract_z
Si Si1 0.500000 0.140340 0.000000
Si Si2 0.682195 0.509458 0.530182
Si Si3 0.289474 0.143214 0.226704
Si Si4 0.636631 0.461079 0.032451
Si Si5 0.372307 0.282617 0.495572
Si Si6 0.245124 0.748178 0.065904
Si Si7 0.414593 0.575525 0.260937
Si Si8 0.555368 0.103067 0.309133
O O1 0.626192 0.207805 0.070895
O O2 0.518229 0.071695 0.139376
O O3 0.688894 0.389412 0.505077
O O4 0.567509 0.568674 0.382537
O O5 0.667613 0.533745 0.671696
O O6 0.820348 0.541550 0.562693
O O7 0.276989 0.211720 0.347198
O O8 0.429532 0.086717 0.316435
O O9 0.184684 0.052376 0.157583
O O10 0.273138 0.220273 0.095770
O O11 0.742737 0.370194 0.089466
O O12 0.500000 0.422325 0.000000
O O13 0.624375 0.503347 0.881115
O O14 0.500000 0.310523 0.500000
O O15 0.407401 0.223739 0.650715
O O16 0.374920 0.693697 0.204732
#
# Coordination Sequence:
#
# PCOD8048290 Si02
#       8
#     2   4   4   4   4   4   4   4
#     4  10  18  34  60  88 108 150 202 244 290 360
#     4  11  21  39  64  89 119 165 207 258 314 369
#     4   9  22  41  58  91 124 158 209 257 300 375
#     4  11  23  38  65  91 125 168 203 253 317 372
#     4  10  20  39  63  84 119 163 204 247 309 372
#     4  10  19  37  61  87 123 155 205 252 300 363
#     4  10  22  38  60  94 122 153 215 259 296 377
#     4  10  22  38  62  87 122 155 205 262 302 368
#
# _framework density 21.296118
#
# number of rings (size 3 to 8) (size 9 to 14) (size 15 to 20)
#    0.000    1.867    3.333    0.800    5.600    0.000 
#    2.400    0.000    5.867    0.000    0.000    0.000 
#    0.000    0.000    0.000    0.000    0.000    0.000 
#
# Total GULP energy -185902.945100 kJ/mol
# GULP energy per Si atom -12393.529673 kJ/mol
# Density = 2.124765 g / cm^3
# Si number density = 21.296118 Si / 1000 Ang^3
#
#
#
# Elastic Constant Matrix: (Units=GPa)
#
#
# Indices 1 2 3 4 5 6 
#
# 1 48.4709 30.9910 25.1048 0.0000 19.0239 0.0000
# 2 30.9910 123.9749 43.5498 0.0000 18.5204 0.0000
# 3 25.1048 43.5498 99.2874 0.0000 17.4517 0.0000
# 4 0.0000 0.0000 0.0000 28.1255 0.0000 6.0377
# 5 19.0239 18.5204 17.4517 0.0000 26.6659 0.0000
# 6 0.0000 0.0000 0.0000 6.0377 0.0000 25.4091
#
#
#
# Elastic Compliance Matrix: (Units=1/GPa)
#
#
# Indices 1 2 3 4 5 6 
#
# 1 0.031930 -0.004237 -0.003083 0.000000 -0.017819 0.000000
# 2 -0.004237 0.010575 -0.003172 0.000000 -0.002246 0.000000
# 3 -0.003083 -0.003172 0.012960 0.000000 -0.004079 0.000000
# 4 0.000000 0.000000 0.000000 0.037466 0.000000 -0.008903
# 5 -0.017819 -0.002246 -0.004079 0.000000 0.054443 0.000000
# 6 0.000000 0.000000 0.000000 -0.008903 0.000000 0.041471
#
#
# Mechanical properties :
#
#
# Convention : Reuss Voigt Hill
#
# Bulk Modulus (GPa) = 29.00189 52.33604 40.66896
# Shear Modulus (GPa) = 22.59128 27.51260 25.05194
#
# Velocity S-wave (km/s) = 3.26055 3.59821 3.43353
# Velocity P-wave (km/s) = 5.27474 6.47237 5.90400
#
# Compressibility (1/GPa) = 0.03448051
#
# Stress axis : x y z
#
# Youngs Moduli (GPa) = 31.31805 94.56063 77.16186
#
# Poissons Ratio (x) = 0.40064 0.23790
# Poissons Ratio (y) = 0.13269 0.24479
# Poissons Ratio (z) = 0.09656 0.29999
#
# Static dielectric constant tensor:
#      x y z
#    x 3.686250 0.000000 0.083130 
#    y 0.000000 3.709840 0.000000 
#    z 0.083130 0.000000 4.067070 
# 
# 
# High freq. dielectric constant tensor:
#      x y z
#    x 1.821210 0.000000 -0.004020 
#    y 0.000000 1.813680 0.000000 
#    z -0.004020 0.000000 1.844320 
# 
# From -- ./inp_files/42679.got.cif
#   From: 2010.03.12/outbox.cif.g09.slc.cpg/sg5_22_cif.got.tgz:42679.got - 2010.03.31 09:47:26.
