data_PCOD8048668
_publ_section_title
;
Structure prediction by ZEFSAII (Michael W. Deem and Ramdas Pophale) SiO2 
 PCOD8048668
Probable space group: C 2
;
_chemical_formula_sum "Si O2"
_cell_formula_units_Z 28
_cell_length_a 15.936093
_cell_length_b 11.813454
_cell_length_c 7.712153
_cell_angle_alpha 90.000000
_cell_angle_beta 72.116494
_cell_angle_gamma 90.000000
_cell_volume 1381.740946
_symmetry_space_group_name_H-M "C 2"
_symmetry_group_IT_number 5
_symmetry_cell_setting 'monoclinic'
loop_
_space_group_symop_operation_xyz
x,y,z
-x,y,-z
1/2+x,1/2+y,z
1/2-x,1/2+y,-z
loop_
_atom_site_type_symbol
_atom_site_label
_atom_site_fract_x
_atom_site_fract_y
_atom_site_fract_z
Si Si1 0.500000 0.413800 0.000000
Si Si2 0.764770 0.491914 0.837987
Si Si3 0.500000 0.793883 0.000000
Si Si4 0.147788 0.853386 0.675980
Si Si5 0.321497 0.899761 0.159473
Si Si6 0.818552 0.047107 0.575519
Si Si7 0.402061 0.596555 0.876225
Si Si8 0.774102 0.691341 0.623215
O O1 0.426252 0.333554 0.130794
O O2 0.531134 0.492754 0.138960
O O3 0.736734 0.393717 0.720169
O O4 0.821360 0.589717 0.702306
O O5 0.817515 0.434484 0.959709
O O6 0.680232 0.566337 0.949391
O O7 0.575476 0.873416 0.862521
O O8 0.448106 0.715624 0.894422
O O9 0.159288 0.736579 0.566098
O O10 0.123876 0.946683 0.545469
O O11 0.261045 0.789287 0.227536
O O12 0.278313 0.000295 0.300823
O O13 0.873134 0.103127 0.695728
O O14 0.808059 0.140416 0.432695
#
# Coordination Sequence:
#
# PCOD8048668 Si02
#       8
#     2   4   2   4   4   4   4   4
#     4   9  18  34  51  86 118 144 191 254 293 338
#     4   9  18  35  57  83 117 158 198 235 288 364
#     4  11  20  34  59  90 120 148 201 252 293 350
#     4   9  19  33  57  82 116 148 200 246 290 349
#     4  10  21  36  59  86 117 158 201 241 296 354
#     4   9  20  36  57  83 116 161 192 243 289 359
#     4   9  18  33  57  83 117 153 190 245 304 336
#     4  10  19  36  58  83 115 156 208 235 284 365
#
# _framework density 20.264289000000002
#
# number of rings (size 3 to 8) (size 9 to 14) (size 15 to 20)
#    0.000    2.571    1.429    0.000    4.000    0.571 
#    0.000    0.714    0.000    6.857    0.000    0.000 
#    0.000    0.000    0.000    0.000    0.000    0.000 
#
# Total GULP energy -173457.686499 kJ/mol
# GULP energy per Si atom -12389.834750 kJ/mol
# Density = 2.021817 g / cm^3
# Si number density = 20.264289 Si / 1000 Ang^3
#
#
#
# Elastic Constant Matrix: (Units=GPa)
#
#
# Indices 1 2 3 4 5 6 
#
# 1 67.5560 30.7155 28.8213 0.0000 2.5961 0.0000
# 2 30.7155 82.6329 43.1501 0.0000 6.0856 0.0000
# 3 28.8213 43.1501 97.7504 0.0000 10.7008 0.0000
# 4 0.0000 0.0000 0.0000 32.2203 0.0000 3.5132
# 5 2.5961 6.0856 10.7008 0.0000 41.5220 0.0000
# 6 0.0000 0.0000 0.0000 3.5132 0.0000 27.6206
#
#
#
# Elastic Compliance Matrix: (Units=1/GPa)
#
#
# Indices 1 2 3 4 5 6 
#
# 1 0.018538 -0.005255 -0.003194 0.000000 0.000434 0.000000
# 2 -0.005255 0.017228 -0.005984 0.000000 -0.000654 0.000000
# 3 -0.003194 -0.005984 0.014093 0.000000 -0.002555 0.000000
# 4 0.000000 0.000000 0.000000 0.031473 0.000000 -0.004003
# 5 0.000434 -0.000654 -0.002555 0.000000 0.024811 0.000000
# 6 0.000000 0.000000 0.000000 -0.004003 0.000000 0.036714
#
#
# Mechanical properties :
#
#
# Convention : Reuss Voigt Hill
#
# Bulk Modulus (GPa) = 47.63350 50.36811 49.00080
# Shear Modulus (GPa) = 27.97687 29.95607 28.96647
#
# Velocity S-wave (km/s) = 3.71967 3.84900 3.78489
# Velocity P-wave (km/s) = 6.48114 6.68301 6.58285
#
# Compressibility (1/GPa) = 0.02099363
#
# Stress axis : x y z
#
# Youngs Moduli (GPa) = 53.94451 58.04514 70.95739
#
# Poissons Ratio (x) = 0.30502 0.22661
# Poissons Ratio (y) = 0.28347 0.42460
# Poissons Ratio (z) = 0.17228 0.34734
#
# Static dielectric constant tensor:
#      x y z
#    x 3.396780 0.000000 0.017580 
#    y 0.000000 3.689400 0.000000 
#    z 0.017580 0.000000 3.832940 
# 
# 
# High freq. dielectric constant tensor:
#      x y z
#    x 1.746810 0.000000 0.010300 
#    y 0.000000 1.781730 0.000000 
#    z 0.010300 0.000000 1.802210 
# 
# From -- ./inp_files/23604.got.cif
#   From: 2010.03.12/outbox.cif.g09.slc.cpg/sg5_12_cif.got.tgz:23604.got - 2010.03.31 09:47:26.
