data_PCOD8048053
_publ_section_title
;
Structure prediction by ZEFSAII (Michael W. Deem and Ramdas Pophale) SiO2 
 PCOD8048053
Probable space group: C 2
;
_chemical_formula_sum "Si O2"
_cell_formula_units_Z 24
_cell_length_a 27.300653
_cell_length_b 5.241042
_cell_length_c 8.145841
_cell_angle_alpha 90.000000
_cell_angle_beta 84.492738
_cell_angle_gamma 90.000000
_cell_volume 1160.158370
_symmetry_space_group_name_H-M "C 2"
_symmetry_group_IT_number 5
_symmetry_cell_setting 'monoclinic'
loop_
_space_group_symop_operation_xyz
x,y,z
-x,y,-z
1/2+x,1/2+y,z
1/2-x,1/2+y,-z
loop_
_atom_site_type_symbol
_atom_site_label
_atom_site_fract_x
_atom_site_fract_y
_atom_site_fract_z
Si Si1 0.035498 0.927820 0.832894
Si Si2 0.686855 0.873076 0.470437
Si Si3 0.994890 0.427900 0.806723
Si Si4 0.136759 0.911943 0.979243
Si Si5 0.380803 0.911943 0.811383
Si Si6 0.296549 0.372967 0.335854
O O1 0.018301 0.688799 0.726063
O O2 0.027633 0.189270 0.732216
O O3 0.000000 0.968219 0.000000
O O4 0.091384 0.892485 0.868703
O O5 0.641870 0.886580 0.360440
O O6 0.681564 0.612157 0.572528
O O7 0.737592 0.880128 0.352537
O O8 0.683387 0.111803 0.593413
O O9 0.939093 0.393192 0.770246
O O10 0.000000 0.468236 0.000000
O O11 0.137985 0.182880 0.068667
O O12 0.134788 0.683544 0.109729
O O13 0.186469 0.887354 0.858132
#
# Coordination Sequence:
#
# PCOD8048053 Si02
#       6
#     4   4   4   4   4   4
#     4  10  16  30  49  80 112 148 173 221 279 342
#     4  10  23  43  60  78 116 160 185 223 296 354
#     4  10  16  30  49  80 112 148 173 221 279 342
#     4  12  21  33  61  93 109 143 197 244 271 323
#     4  12  21  33  61  93 109 143 197 244 271 323
#     4  10  23  43  60  78 116 160 185 223 296 354
#
# _framework density 20.686831000000002
#
# number of rings (size 3 to 8) (size 9 to 14) (size 15 to 20)
#    0.000    1.333    6.667    2.000    0.000    1.333 
#    0.000    0.000    0.000    6.000    0.000    0.000 
#    0.000    0.000    0.000    0.000    0.000    0.000 
#
# Total GULP energy -148802.686752 kJ/mol
# GULP energy per Si atom -12400.223896 kJ/mol
# Density = 2.063975 g / cm^3
# Si number density = 20.686831 Si / 1000 Ang^3
#
#
#
# Elastic Constant Matrix: (Units=GPa)
#
#
# Indices 1 2 3 4 5 6 
#
# 1 40.1143 -0.9374 8.9017 0.0000 25.0991 0.0000
# 2 -0.9374 127.8946 -1.4585 0.0000 0.4647 0.0000
# 3 8.9017 -1.4585 21.0103 0.0000 12.9473 0.0000
# 4 0.0000 0.0000 0.0000 8.6571 0.0000 0.5174
# 5 25.0991 0.4647 12.9473 0.0000 30.3768 0.0000
# 6 0.0000 0.0000 0.0000 0.5174 0.0000 18.1933
#
#
#
# Elastic Compliance Matrix: (Units=1/GPa)
#
#
# Indices 1 2 3 4 5 6 
#
# 1 0.052220 0.000619 0.006121 0.000000 -0.045765 0.000000
# 2 0.000619 0.007838 0.000910 0.000000 -0.001019 0.000000
# 3 0.006121 0.000910 0.065357 0.000000 -0.032928 0.000000
# 4 0.000000 0.000000 0.000000 0.115708 0.000000 -0.003290
# 5 -0.045765 -0.001019 -0.032928 0.000000 0.084784 0.000000
# 6 0.000000 0.000000 0.000000 -0.003290 0.000000 0.055059
#
#
# Mechanical properties :
#
#
# Convention : Reuss Voigt Hill
#
# Bulk Modulus (GPa) = 7.10666 22.44786 14.77726
# Shear Modulus (GPa) = 12.11911 23.61301 17.86606
#
# Velocity S-wave (km/s) = 2.42303 3.38220 2.94197
# Velocity P-wave (km/s) = 3.35722 5.11148 4.32424
#
# Compressibility (1/GPa) = 0.14071310
#
# Stress axis : x y z
#
# Youngs Moduli (GPa) = 19.14978 127.59081 15.30057
#
# Poissons Ratio (x) = -0.07896 -0.09365
# Poissons Ratio (y) = -0.01185 -0.01392
# Poissons Ratio (z) = -0.11721 -0.11609
#
# Static dielectric constant tensor:
#      x y z
#    x 3.811590 0.000000 -0.004880 
#    y 0.000000 5.004240 0.000000 
#    z -0.004880 0.000000 3.228710 
# 
# 
# High freq. dielectric constant tensor:
#      x y z
#    x 1.809620 0.000000 0.005880 
#    y 0.000000 1.848120 0.000000 
#    z 0.005880 0.000000 1.758940 
# 
# From -- ./inp_files/31284.got.cif
#   From: 2010.03.12/outbox.cif.g09.slc.cpg/sg5_16_cif.got.tgz:31284.got - 2010.03.31 09:47:26.
