data_PCOD8048480
_publ_section_title
;
Structure prediction by ZEFSAII (Michael W. Deem and Ramdas Pophale) SiO2 
 PCOD8048480
Probable space group: C 2
;
_chemical_formula_sum "Si O2"
_cell_formula_units_Z 26
_cell_length_a 13.427278
_cell_length_b 11.864235
_cell_length_c 11.524320
_cell_angle_alpha 90.000000
_cell_angle_beta 132.077033
_cell_angle_gamma 90.000000
_cell_volume 1362.667917
_symmetry_space_group_name_H-M "C 2"
_symmetry_group_IT_number 5
_symmetry_cell_setting 'monoclinic'
loop_
_space_group_symop_operation_xyz
x,y,z
-x,y,-z
1/2+x,1/2+y,z
1/2-x,1/2+y,-z
loop_
_atom_site_type_symbol
_atom_site_label
_atom_site_fract_x
_atom_site_fract_y
_atom_site_fract_z
Si Si1 0.592545 0.932910 0.307489
Si Si2 0.013153 0.224002 0.643104
Si Si3 0.159283 0.030264 0.402532
Si Si4 0.679158 0.217583 0.104270
Si Si5 0.547934 0.312728 0.219476
Si Si6 0.077436 0.638065 0.440905
Si Si7 0.500000 0.013269 0.000000
O O1 0.565519 0.812182 0.340238
O O2 0.752776 0.956742 0.437407
O O3 0.516022 0.031787 0.320682
O O4 0.545868 0.931722 0.138572
O O5 0.165646 0.219874 0.805833
O O6 0.000000 0.261510 0.500000
O O7 0.947609 0.102095 0.608980
O O8 0.263572 0.110989 0.412221
O O9 0.078629 0.945522 0.255502
O O10 0.659099 0.258481 0.221193
O O11 0.599509 0.298454 0.952478
O O12 0.622376 0.090979 0.050870
O O13 0.557737 0.251199 0.350940
O O14 0.000000 0.653915 0.500000
#
# Coordination Sequence:
#
# PCOD8048480 Si02
#       7
#     4   4   4   4   4   4   2
#     4  10  21  36  64  85 116 157 197 245 290 353
#     4  12  23  38  61  91 118 157 203 241 294 358
#     4  10  22  38  59  89 118 154 200 243 292 352
#     4  10  20  39  64  84 119 161 198 240 296 358
#     4  10  20  41  59  89 119 156 200 243 296 349
#     4  10  20  36  61  88 114 156 196 244 293 343
#     4  10  18  42  62  84 122 160 196 240 300 348
#
# _framework density 19.080217000000001
#
# number of rings (size 3 to 8) (size 9 to 14) (size 15 to 20)
#    0.923    0.923    3.077    4.154    2.154    1.846 
#    0.000    6.154    0.000    0.000    0.000    0.000 
#    0.000    0.000    0.000    0.000    0.000    0.000 
#
# Total GULP energy -161154.583844 kJ/mol
# GULP energy per Si atom -12396.506450 kJ/mol
# Density = 1.903679 g / cm^3
# Si number density = 19.080217 Si / 1000 Ang^3
#
#
#
# Elastic Constant Matrix: (Units=GPa)
#
#
# Indices 1 2 3 4 5 6 
#
# 1 96.5563 42.1277 68.6459 0.0000 9.7244 0.0000
# 2 42.1277 81.8007 54.7050 0.0000 3.3878 0.0000
# 3 68.6459 54.7050 123.1457 0.0000 -1.2076 0.0000
# 4 0.0000 0.0000 0.0000 32.1845 0.0000 -3.9152
# 5 9.7244 3.3878 -1.2076 0.0000 37.4218 0.0000
# 6 0.0000 0.0000 0.0000 -3.9152 0.0000 22.1041
#
#
#
# Elastic Compliance Matrix: (Units=1/GPa)
#
#
# Indices 1 2 3 4 5 6 
#
# 1 0.018708 -0.003455 -0.008941 0.000000 -0.004837 0.000000
# 2 -0.003455 0.018155 -0.006148 0.000000 -0.000944 0.000000
# 3 -0.008941 -0.006148 0.015869 0.000000 0.003392 0.000000
# 4 0.000000 0.000000 0.000000 0.031755 0.000000 0.005625
# 5 -0.004837 -0.000944 0.003392 0.000000 0.028174 0.000000
# 6 0.000000 0.000000 0.000000 0.005625 0.000000 0.046237
#
#
# Mechanical properties :
#
#
# Convention : Reuss Voigt Hill
#
# Bulk Modulus (GPa) = 63.92535 70.27332 67.09934
# Shear Modulus (GPa) = 24.85077 27.41035 26.13056
#
# Velocity S-wave (km/s) = 3.61284 3.79434 3.70471
# Velocity P-wave (km/s) = 7.14001 7.49043 7.31731
#
# Compressibility (1/GPa) = 0.01564325
#
# Stress axis : x y z
#
# Youngs Moduli (GPa) = 53.45379 55.08135 63.01552
#
# Poissons Ratio (x) = 0.19030 0.56343
# Poissons Ratio (y) = 0.18467 0.38744
# Poissons Ratio (z) = 0.47793 0.33866
#
# Static dielectric constant tensor:
#      x y z
#    x 3.235440 0.000000 0.099730 
#    y 0.000000 3.320720 0.000000 
#    z 0.099730 0.000000 3.463620 
# 
# 
# High freq. dielectric constant tensor:
#      x y z
#    x 1.721450 0.000000 0.006030 
#    y 0.000000 1.734870 0.000000 
#    z 0.006030 0.000000 1.739040 
# 
# From -- ./inp_files/42513.got.cif
#   From: 2010.03.12/outbox.cif.g09.slc.cpg/sg5_22_cif.got.tgz:42513.got - 2010.03.31 09:47:26.
