data_PCOD8048959
_publ_section_title
;
Structure prediction by ZEFSAII (Michael W. Deem and Ramdas Pophale) SiO2 
 PCOD8048959
Probable space group: C 2
;
_chemical_formula_sum "Si O2"
_cell_formula_units_Z 32
_cell_length_a 13.365054
_cell_length_b 24.423802
_cell_length_c 5.074426
_cell_angle_alpha 90.000000
_cell_angle_beta 76.027651
_cell_angle_gamma 90.000000
_cell_volume 1607.412102
_symmetry_space_group_name_H-M "C 2"
_symmetry_group_IT_number 5
_symmetry_cell_setting 'monoclinic'
loop_
_space_group_symop_operation_xyz
x,y,z
-x,y,-z
1/2+x,1/2+y,z
1/2-x,1/2+y,-z
loop_
_atom_site_type_symbol
_atom_site_label
_atom_site_fract_x
_atom_site_fract_y
_atom_site_fract_z
Si Si1 0.292000 0.181850 0.184438
Si Si2 0.940461 0.162484 0.786861
Si Si3 0.617887 0.126019 0.368947
Si Si4 0.119885 0.866904 0.424702
Si Si5 0.880329 0.498009 0.597066
Si Si6 0.618771 0.298206 0.926356
Si Si7 0.559235 0.532888 0.211995
Si Si8 0.742714 0.968511 0.838127
O O1 0.176449 0.180720 0.152336
O O2 0.307276 0.151027 0.453943
O O3 0.317305 0.245442 0.197503
O O4 0.362932 0.153049 0.924362
O O5 0.946344 0.097527 0.791406
O O6 0.000000 0.186675 0.500000
O O7 0.000000 0.187409 0.000000
O O8 0.500000 0.140117 0.500000
O O9 0.636582 0.061593 0.325011
O O10 0.146321 0.846345 0.701422
O O11 0.193771 0.915748 0.290537
O O12 0.000000 0.885516 0.500000
O O13 0.143749 0.818064 0.205191
O O14 0.830888 0.486880 0.347780
O O15 0.000000 0.482464 0.500000
O O16 0.827672 0.460372 0.856568
O O17 0.500000 0.281558 0.000000
O O18 0.500000 0.508404 0.500000
O O19 0.678215 0.516661 0.139260
O O20 0.500000 0.507089 0.000000
#
# Coordination Sequence:
#
# PCOD8048959 Si02
#       8
#     4   4   4   4   4   4   4   4
#     4  12  22  37  62  85 116 160 197 231 288 348
#     4  10  21  36  53  79 115 152 190 232 273 326
#     4  11  22  36  57  90 123 151 190 236 287 350
#     4  10  22  39  60  88 117 144 184 241 299 350
#     4  11  24  39  57  85 121 157 196 239 279 334
#     4  10  21  38  59  86 117 146 185 240 297 348
#     4  10  20  33  53  84 117 146 184 230 281 343
#     4  12  22  38  62  83 114 158 197 233 291 349
#
# _framework density 19.907775000000001
#
# number of rings (size 3 to 8) (size 9 to 14) (size 15 to 20)
#    0.000    1.250    0.000    7.125    0.000    6.500 
#    0.000    0.000    0.000    7.500    0.000    0.000 
#    0.000    0.000    0.000    0.000    0.000    0.000 
#
# Total GULP energy -198439.435201 kJ/mol
# GULP energy per Si atom -12402.464700 kJ/mol
# Density = 1.986246 g / cm^3
# Si number density = 19.907775 Si / 1000 Ang^3
#
#
#
# Elastic Constant Matrix: (Units=GPa)
#
#
# Indices 1 2 3 4 5 6 
#
# 1 127.0162 22.3792 46.6750 0.0000 4.7612 0.0000
# 2 22.3792 45.8947 21.6224 0.0000 -7.4542 0.0000
# 3 46.6750 21.6224 127.3341 0.0000 1.7499 0.0000
# 4 0.0000 0.0000 0.0000 38.6378 0.0000 -11.0411
# 5 4.7612 -7.4542 1.7499 0.0000 40.8062 0.0000
# 6 0.0000 0.0000 0.0000 -11.0411 0.0000 17.6123
#
#
#
# Elastic Compliance Matrix: (Units=1/GPa)
#
#
# Indices 1 2 3 4 5 6 
#
# 1 0.009634 -0.003602 -0.002897 0.000000 -0.001658 0.000000
# 2 -0.003602 0.025887 -0.003148 0.000000 0.005284 0.000000
# 3 -0.002897 -0.003148 0.009459 0.000000 -0.000643 0.000000
# 4 0.000000 0.000000 0.000000 0.031530 0.000000 0.019766
# 5 -0.001658 0.005284 -0.000643 0.000000 0.025692 0.000000
# 6 0.000000 0.000000 0.000000 0.019766 0.000000 0.069170
#
#
# Mechanical properties :
#
#
# Convention : Reuss Voigt Hill
#
# Bulk Modulus (GPa) = 38.93278 53.51093 46.22186
# Shear Modulus (GPa) = 25.09680 33.38246 29.23963
#
# Velocity S-wave (km/s) = 3.55442 4.09939 3.83659
# Velocity P-wave (km/s) = 6.03691 7.02456 6.54937
#
# Compressibility (1/GPa) = 0.02568530
#
# Stress axis : x y z
#
# Youngs Moduli (GPa) = 103.79407 38.62946 105.72303
#
# Poissons Ratio (x) = 0.13916 0.30629
# Poissons Ratio (y) = 0.37390 0.33281
# Poissons Ratio (z) = 0.30070 0.12160
#
# Static dielectric constant tensor:
#      x y z
#    x 3.717960 0.000000 0.086490 
#    y 0.000000 3.358410 0.000000 
#    z 0.086490 0.000000 3.933730 
# 
# 
# High freq. dielectric constant tensor:
#      x y z
#    x 1.779680 0.000000 0.005820 
#    y 0.000000 1.752360 0.000000 
#    z 0.005820 0.000000 1.799660 
# 
# From -- ./inp_files/6026.got.cif
#   From: 2010.03.12/outbox.cif.g09.slc.cpg/sg5_4_cif.got.tgz:6026.got - 2010.03.31 09:47:26.
