data_PCOD8048534
_publ_section_title
;
Structure prediction by ZEFSAII (Michael W. Deem and Ramdas Pophale) SiO2 
 PCOD8048534
Probable space group: C 2
;
_chemical_formula_sum "Si O2"
_cell_formula_units_Z 30
_cell_length_a 24.723984
_cell_length_b 8.080784
_cell_length_c 9.706354
_cell_angle_alpha 90.000000
_cell_angle_beta 123.152276
_cell_angle_gamma 90.000000
_cell_volume 1623.557710
_symmetry_space_group_name_H-M "C 2"
_symmetry_group_IT_number 5
_symmetry_cell_setting 'monoclinic'
loop_
_space_group_symop_operation_xyz
x,y,z
-x,y,-z
1/2+x,1/2+y,z
1/2-x,1/2+y,-z
loop_
_atom_site_type_symbol
_atom_site_label
_atom_site_fract_x
_atom_site_fract_y
_atom_site_fract_z
Si Si1 0.818166 0.958560 0.456878
Si Si2 0.447641 0.422521 0.772278
Si Si3 0.500000 0.122188 0.000000
Si Si4 0.761694 0.587008 0.891892
Si Si5 0.420433 0.556373 0.035484
Si Si6 0.217611 0.202549 0.366842
Si Si7 0.786553 0.961667 0.895560
Si Si8 0.379578 0.907816 0.928736
O O1 0.894865 0.928000 0.577449
O O2 0.785774 0.795173 0.475998
O O3 0.794260 0.985470 0.267127
O O4 0.797102 0.123053 0.507496
O O5 0.470016 0.236005 0.837698
O O6 0.510521 0.516787 0.801516
O O7 0.420653 0.514893 0.871294
O O8 0.441442 0.011792 0.971186
O O9 0.757171 0.779213 0.845552
O O10 0.832978 0.516791 0.959855
O O11 0.748467 0.566514 0.034653
O O12 0.363993 0.448751 0.028808
O O13 0.405918 0.748144 0.046484
O O14 0.162520 0.340048 0.258540
O O15 0.223582 0.061124 0.259636
#
# Coordination Sequence:
#
# PCOD8048534 Si02
#       8
#     4   4   2   4   4   4   4   4
#     4  11  21  35  52  87 114 146 179 235 285 323
#     4  10  19  33  53  80 113 148 180 233 275 328
#     4  10  20  30  54  80 116 144 192 228 272 328
#     4  11  23  35  60  80 116 141 191 226 285 329
#     4   9  18  34  56  76 109 145 186 222 274 327
#     4  10  22  33  58  78 119 143 186 228 285 327
#     4  11  20  41  57  82 107 153 186 229 270 347
#     4  10  19  33  52  86 106 146 186 231 268 330
#
# _framework density 18.477938999999999
#
# number of rings (size 3 to 8) (size 9 to 14) (size 15 to 20)
#    0.000    1.867    2.667    5.600    3.733    0.000 
#    0.000    0.667    0.000    0.000    0.000    0.000 
#    0.000    0.000    0.000    0.000    0.000    0.000 
#
# Total GULP energy -185953.979306 kJ/mol
# GULP energy per Si atom -12396.931954 kJ/mol
# Density = 1.843588 g / cm^3
# Si number density = 18.477939 Si / 1000 Ang^3
#
#
#
# Elastic Constant Matrix: (Units=GPa)
#
#
# Indices 1 2 3 4 5 6 
#
# 1 106.1994 24.7435 28.1164 0.0000 21.0852 0.0000
# 2 24.7435 85.6112 11.4805 0.0000 11.3412 0.0000
# 3 28.1164 11.4805 42.6846 0.0000 17.1736 0.0000
# 4 0.0000 0.0000 0.0000 23.8847 0.0000 4.0388
# 5 21.0852 11.3412 17.1736 0.0000 36.2877 0.0000
# 6 0.0000 0.0000 0.0000 4.0388 0.0000 40.1230
#
#
#
# Elastic Compliance Matrix: (Units=1/GPa)
#
#
# Indices 1 2 3 4 5 6 
#
# 1 0.012244 -0.002260 -0.006027 0.000000 -0.003556 0.000000
# 2 -0.002260 0.012765 -0.001072 0.000000 -0.002169 0.000000
# 3 -0.006027 -0.001072 0.032291 0.000000 -0.011445 0.000000
# 4 0.000000 0.000000 0.000000 0.042593 0.000000 -0.004287
# 5 -0.003556 -0.002169 -0.011445 0.000000 0.035718 0.000000
# 6 0.000000 0.000000 0.000000 -0.004287 0.000000 0.025355
#
#
# Mechanical properties :
#
#
# Convention : Reuss Voigt Hill
#
# Bulk Modulus (GPa) = 25.91827 40.35288 33.13557
# Shear Modulus (GPa) = 25.96806 31.40272 28.68539
#
# Velocity S-wave (km/s) = 3.75287 4.12694 3.94434
# Velocity P-wave (km/s) = 5.73025 6.67792 6.22215
#
# Compressibility (1/GPa) = 0.03858282
#
# Stress axis : x y z
#
# Youngs Moduli (GPa) = 81.67008 78.33975 30.96866
#
# Poissons Ratio (x) = 0.17702 0.18664
# Poissons Ratio (y) = 0.18454 0.03320
# Poissons Ratio (z) = 0.49222 0.08399
#
# Static dielectric constant tensor:
#      x y z
#    x 3.533920 0.000000 0.256850 
#    y 0.000000 3.568900 0.000000 
#    z 0.256850 0.000000 3.093690 
# 
# 
# High freq. dielectric constant tensor:
#      x y z
#    x 1.719000 0.000000 0.021180 
#    y 0.000000 1.732970 0.000000 
#    z 0.021180 0.000000 1.678480 
# 
# From -- ./inp_files/30602.got.cif
#   From: 2010.03.12/outbox.cif.g09.slc.cpg/sg5_16_cif.got.tgz:30602.got - 2010.03.31 09:47:26.
