data_PCOD8048881
_publ_section_title
;
Structure prediction by ZEFSAII (Michael W. Deem and Ramdas Pophale) SiO2 
 PCOD8048881
Probable space group: C 2
;
_chemical_formula_sum "Si O2"
_cell_formula_units_Z 22
_cell_length_a 12.760473
_cell_length_b 9.662152
_cell_length_c 11.170806
_cell_angle_alpha 90.000000
_cell_angle_beta 51.798423
_cell_angle_gamma 90.000000
_cell_volume 1082.328783
_symmetry_space_group_name_H-M "C 2"
_symmetry_group_IT_number 5
_symmetry_cell_setting 'monoclinic'
loop_
_space_group_symop_operation_xyz
x,y,z
-x,y,-z
1/2+x,1/2+y,z
1/2-x,1/2+y,-z
loop_
_atom_site_type_symbol
_atom_site_label
_atom_site_fract_x
_atom_site_fract_y
_atom_site_fract_z
Si Si1 0.773881 0.895670 0.785042
Si Si2 0.024025 0.674132 0.344249
Si Si3 0.000000 0.248524 0.000000
Si Si4 0.956601 0.106238 0.785275
Si Si5 0.171232 0.907638 0.528012
Si Si6 0.473390 0.881251 0.381266
O O1 0.829125 0.935105 0.614522
O O2 0.838783 0.751338 0.781426
O O3 0.824827 0.017179 0.839805
O O4 0.617713 0.860286 0.891727
O O5 0.902422 0.766386 0.382242
O O6 0.029196 0.522636 0.280656
O O7 0.000000 0.646637 0.500000
O O8 0.033815 0.139227 0.080830
O O9 0.947570 0.257574 0.735126
O O10 0.093651 0.034291 0.645125
O O11 0.316035 0.885554 0.476363
O O12 0.500000 0.867122 0.500000
#
# Coordination Sequence:
#
# PCOD8048881 Si02
#       6
#     4   4   2   4   4   4
#     4  10  22  45  66  91 133 180 227 269 342 402
#     4   8  18  33  60  91 125 162 213 281 326 382
#     4  12  26  44  68  98 144 186 210 278 352 402
#     4  11  24  42  69  95 133 179 229 275 332 407
#     4  10  19  40  66  97 129 175 228 282 331 392
#     4  11  20  32  63 104 130 165 230 287 327 388
#
# _framework density 20.326540000000001
#
# number of rings (size 3 to 8) (size 9 to 14) (size 15 to 20)
#    0.000    1.818    1.818    3.818    5.091    1.455 
#    0.000    0.000    0.000    2.182    0.000    0.000 
#    0.000    0.000    0.000    0.000    0.000    0.000 
#
# Total GULP energy -136304.619421 kJ/mol
# GULP energy per Si atom -12391.329038 kJ/mol
# Density = 2.028028 g / cm^3
# Si number density = 20.326540 Si / 1000 Ang^3
#
#
#
# Elastic Constant Matrix: (Units=GPa)
#
#
# Indices 1 2 3 4 5 6 
#
# 1 117.0074 45.8303 30.7127 0.0000 -1.5965 0.0000
# 2 45.8303 162.5586 41.5759 0.0000 2.5709 0.0000
# 3 30.7127 41.5759 72.1349 0.0000 4.9456 0.0000
# 4 0.0000 0.0000 0.0000 24.6567 0.0000 10.0396
# 5 -1.5965 2.5709 4.9456 0.0000 40.2150 0.0000
# 6 0.0000 0.0000 0.0000 10.0396 0.0000 41.1602
#
#
#
# Elastic Compliance Matrix: (Units=1/GPa)
#
#
# Indices 1 2 3 4 5 6 
#
# 1 0.010216 -0.002071 -0.003220 0.000000 0.000934 0.000000
# 2 -0.002071 0.007635 -0.003509 0.000000 -0.000139 0.000000
# 3 -0.003220 -0.003509 0.017396 0.000000 -0.002043 0.000000
# 4 0.000000 0.000000 0.000000 0.045029 0.000000 -0.010983
# 5 0.000934 -0.000139 -0.002043 0.000000 0.025164 0.000000
# 6 0.000000 0.000000 0.000000 -0.010983 0.000000 0.026974
#
#
# Mechanical properties :
#
#
# Convention : Reuss Voigt Hill
#
# Bulk Modulus (GPa) = 56.66761 65.32650 60.99706
# Shear Modulus (GPa) = 32.07241 36.77851 34.42546
#
# Velocity S-wave (km/s) = 3.97654 4.25830 4.11983
# Velocity P-wave (km/s) = 7.00164 7.50905 7.25978
#
# Compressibility (1/GPa) = 0.01764676
#
# Stress axis : x y z
#
# Youngs Moduli (GPa) = 97.88881 130.96975 57.48315
#
# Poissons Ratio (x) = 0.27130 0.18507
# Poissons Ratio (y) = 0.20277 0.20172
# Poissons Ratio (z) = 0.31517 0.45961
#
# Static dielectric constant tensor:
#      x y z
#    x 3.783040 0.000000 0.120630 
#    y 0.000000 4.155800 0.000000 
#    z 0.120630 0.000000 3.346250 
# 
# 
# High freq. dielectric constant tensor:
#      x y z
#    x 1.803970 0.000000 -0.004080 
#    y 0.000000 1.809030 0.000000 
#    z -0.004080 0.000000 1.765060 
# 
# From -- ./inp_files/41414.got.cif
#   From: 2010.03.12/outbox.cif.g09.slc.cpg/sg5_21_cif.got.tgz:41414.got - 2010.03.31 09:47:26.
