data_PCOD8048463
_publ_section_title
;
Structure prediction by ZEFSAII (Michael W. Deem and Ramdas Pophale) SiO2 
 PCOD8048463
Probable space group: C 2
;
_chemical_formula_sum "Si O2"
_cell_formula_units_Z 24
_cell_length_a 18.548131
_cell_length_b 5.372723
_cell_length_c 12.109969
_cell_angle_alpha 90.000000
_cell_angle_beta 121.765065
_cell_angle_gamma 90.000000
_cell_volume 1026.043573
_symmetry_space_group_name_H-M "C 2"
_symmetry_group_IT_number 5
_symmetry_cell_setting 'monoclinic'
loop_
_space_group_symop_operation_xyz
x,y,z
-x,y,-z
1/2+x,1/2+y,z
1/2-x,1/2+y,-z
loop_
_atom_site_type_symbol
_atom_site_label
_atom_site_fract_x
_atom_site_fract_y
_atom_site_fract_z
Si Si1 0.087640 0.029880 0.914997
Si Si2 0.387118 0.799838 0.274401
Si Si3 0.344837 0.032418 0.751473
Si Si4 0.000000 0.983949 0.500000
Si Si5 0.000000 0.389859 0.000000
Si Si6 0.222074 0.017792 0.215623
Si Si7 0.478295 0.159328 0.693847
O O1 0.141215 0.128828 0.852143
O O2 0.033272 0.787782 0.836462
O O3 0.018443 0.224218 0.906160
O O4 0.156922 0.979357 0.063800
O O5 0.414591 0.637005 0.401878
O O6 0.318199 0.013233 0.246729
O O7 0.475011 0.915053 0.307022
O O8 0.282576 0.266939 0.714945
O O9 0.386977 0.066026 0.664965
O O10 0.295296 0.768828 0.728023
O O11 0.418174 0.054425 0.904224
O O12 0.033206 0.831137 0.421790
#
# Coordination Sequence:
#
# PCOD8048463 Si02
#       7
#     4   4   4   2   2   4   4
#     4  10  22  36  68 106 148 184 229 282 360 433
#     4  11  25  44  71 103 140 187 243 293 358 423
#     4  11  23  42  68 102 145 188 230 286 351 433
#     4  10  26  46  78  96 134 190 266 302 342 414
#     4  10  18  40  62 106 140 188 226 274 342 440
#     4  11  27  40  69 109 155 177 223 295 372 423
#     4  11  22  44  74  97 136 194 248 287 345 426
#
# _framework density 23.390816999999998
#
# number of rings (size 3 to 8) (size 9 to 14) (size 15 to 20)
#    0.000    1.333    1.667    3.500   11.667    0.667 
#    0.000    0.000    7.333    0.000    0.000    0.000 
#    0.000    0.000    0.000    0.000    0.000    0.000 
#
# Total GULP energy -148750.776292 kJ/mol
# GULP energy per Si atom -12395.898024 kJ/mol
# Density = 2.333758 g / cm^3
# Si number density = 23.390817 Si / 1000 Ang^3
#
#
#
# Elastic Constant Matrix: (Units=GPa)
#
#
# Indices 1 2 3 4 5 6 
#
# 1 121.1100 46.4405 34.5931 0.0000 -20.3506 0.0000
# 2 46.4405 126.7619 28.7912 0.0001 -13.2647 0.0000
# 3 34.5931 28.7912 85.3365 0.0000 -21.5630 0.0000
# 4 0.0000 0.0001 0.0000 21.1866 0.0000 -4.3761
# 5 -20.3506 -13.2647 -21.5630 0.0000 21.1546 0.0000
# 6 0.0000 0.0000 0.0000 -4.3761 0.0000 49.7957
#
#
#
# Elastic Compliance Matrix: (Units=1/GPa)
#
#
# Indices 1 2 3 4 5 6 
#
# 1 0.011052 -0.002922 -0.001712 0.000000 0.007055 0.000000
# 2 -0.002922 0.009486 -0.001648 0.000000 0.001458 0.000000
# 3 -0.001712 -0.001648 0.016555 0.000000 0.014195 0.000000
# 4 0.000000 0.000000 0.000000 0.048072 0.000000 0.004225
# 5 0.007055 0.001458 0.014195 0.000000 0.069441 0.000000
# 6 0.000000 0.000000 0.000000 0.004225 0.000000 0.020453
#
#
# Mechanical properties :
#
#
# Convention : Reuss Voigt Hill
#
# Bulk Modulus (GPa) = 40.76598 61.42866 51.09732
# Shear Modulus (GPa) = 25.53655 33.31963 29.42809
#
# Velocity S-wave (km/s) = 3.30772 3.77832 3.55082
# Velocity P-wave (km/s) = 5.66163 6.73447 6.22122
#
# Compressibility (1/GPa) = 0.02453026
#
# Stress axis : x y z
#
# Youngs Moduli (GPa) = 90.48351 105.41800 60.40548
#
# Poissons Ratio (x) = 0.30802 0.10339
# Poissons Ratio (y) = 0.26439 0.09953
# Poissons Ratio (z) = 0.15487 0.17369
#
# Static dielectric constant tensor:
#      x y z
#    x 4.134420 0.000000 -0.298790 
#    y 0.000000 4.241940 0.000000 
#    z -0.298790 0.000000 4.107350 
# 
# 
# High freq. dielectric constant tensor:
#      x y z
#    x 1.920950 0.000000 -0.020270 
#    y 0.000000 1.934150 0.000000 
#    z -0.020270 0.000000 1.908740 
# 
# From -- ./inp_files/43727.got.cif
#   From: 2010.03.12/outbox.cif.g09.slc.cpg/sg5_22_cif.got.tgz:43727.got - 2010.03.31 09:47:26.
