data_PCOD8048173
_publ_section_title
;
Structure prediction by ZEFSAII (Michael W. Deem and Ramdas Pophale) SiO2 
 PCOD8048173
Probable space group: C 2
;
_chemical_formula_sum "Si O2"
_cell_formula_units_Z 32
_cell_length_a 18.928432
_cell_length_b 5.352625
_cell_length_c 15.308717
_cell_angle_alpha 90.000000
_cell_angle_beta 96.136503
_cell_angle_gamma 90.000000
_cell_volume 1542.142855
_symmetry_space_group_name_H-M "C 2"
_symmetry_group_IT_number 5
_symmetry_cell_setting 'monoclinic'
loop_
_space_group_symop_operation_xyz
x,y,z
-x,y,-z
1/2+x,1/2+y,z
1/2-x,1/2+y,-z
loop_
_atom_site_type_symbol
_atom_site_label
_atom_site_fract_x
_atom_site_fract_y
_atom_site_fract_z
Si Si1 0.058235 0.215150 0.432058
Si Si2 0.109273 0.730245 0.758446
Si Si3 0.504205 0.215072 0.396294
Si Si4 0.779809 0.226003 0.785381
Si Si5 0.256175 0.225562 0.725395
Si Si6 0.291649 0.746354 0.985684
Si Si7 0.786658 0.200012 0.472940
Si Si8 0.873567 0.230037 0.161300
O O1 0.043648 0.460421 0.370405
O O2 0.134692 0.241640 0.483961
O O3 0.000000 0.195842 0.500000
O O4 0.050391 0.959126 0.374752
O O5 0.194123 0.734353 0.764634
O O6 0.083766 0.481421 0.806793
O O7 0.074000 0.729449 0.657572
O O8 0.083422 0.980602 0.805640
O O9 0.500000 0.199341 0.500000
O O10 0.806501 0.479344 0.740903
O O11 0.810774 0.216933 0.886798
O O12 0.804911 0.976763 0.736974
O O13 0.211131 0.217737 0.631214
O O14 0.203414 0.233941 0.801514
O O15 0.239521 0.521994 0.004557
O O16 0.361610 0.725098 0.055218
O O17 0.738727 0.423919 0.503724
#
# Coordination Sequence:
#
# PCOD8048173 Si02
#       8
#     4   4   4   4   4   4   4   4
#     4  10  23  38  58  83 105 148 192 251 294 342
#     4  10  18  28  42  69 102 139 184 212 285 322
#     4  10  21  31  50  76 106 138 184 245 277 330
#     4  10  19  28  50  72 108 152 180 236 274 371
#     4  10  20  32  51  72 100 147 199 224 277 348
#     4  12  16  30  40  74 108 150 188 216 296 346
#     4  12  26  43  61  82 117 158 205 257 297 345
#     4  10  19  28  48  70 106 152 178 232 270 371
#
# _framework density 20.750349
#
# number of rings (size 3 to 8) (size 9 to 14) (size 15 to 20)
#    0.000    1.500    5.000    2.250   14.000    0.000 
#    0.000    0.000    0.000    0.000    0.000    0.000 
#    0.000    0.000    0.000  130.500    0.000    0.000 
#
# Total GULP energy -198247.351695 kJ/mol
# GULP energy per Si atom -12390.459481 kJ/mol
# Density = 2.070312 g / cm^3
# Si number density = 20.750349 Si / 1000 Ang^3
#
#
#
# Elastic Constant Matrix: (Units=GPa)
#
#
# Indices 1 2 3 4 5 6 
#
# 1 30.2390 0.6257 14.4668 0.0000 10.5212 0.0000
# 2 0.6257 214.9736 33.7676 0.0000 11.2823 0.0000
# 3 14.4668 33.7676 133.8731 0.0000 35.0537 0.0000
# 4 0.0000 0.0000 0.0000 33.7296 0.0000 9.2489
# 5 10.5212 11.2823 35.0537 0.0000 19.6817 0.0000
# 6 0.0000 0.0000 0.0000 9.2489 0.0000 14.9917
#
#
#
# Elastic Compliance Matrix: (Units=1/GPa)
#
#
# Indices 1 2 3 4 5 6 
#
# 1 0.041225 0.000919 0.002289 0.000000 -0.026641 0.000000
# 2 0.000919 0.004877 -0.000879 0.000000 -0.001722 0.000000
# 3 0.002289 -0.000879 0.014302 0.000000 -0.026193 0.000000
# 4 0.000000 0.000000 0.000000 0.035684 0.000000 -0.022015
# 5 -0.026641 -0.001722 -0.026193 0.000000 0.112688 0.000000
# 6 0.000000 0.000000 0.000000 -0.022015 0.000000 0.080285
#
#
# Mechanical properties :
#
#
# Convention : Reuss Voigt Hill
#
# Bulk Modulus (GPa) = 15.36958 52.97844 34.17401
# Shear Modulus (GPa) = 16.33496 35.69564 26.01530
#
# Velocity S-wave (km/s) = 2.80878 4.15208 3.54464
# Velocity P-wave (km/s) = 4.23579 6.96944 5.76694
#
# Compressibility (1/GPa) = 0.06506358
#
# Stress axis : x y z
#
# Youngs Moduli (GPa) = 24.25702 205.02501 69.91792
#
# Poissons Ratio (x) = -0.18834 -0.16005
# Poissons Ratio (y) = -0.02228 0.06143
# Poissons Ratio (z) = -0.05553 0.18013
#
# Static dielectric constant tensor:
#      x y z
#    x 2.943330 0.000000 0.281100 
#    y 0.000000 6.851830 0.000000 
#    z 0.281100 0.000000 3.848420 
# 
# 
# High freq. dielectric constant tensor:
#      x y z
#    x 1.714750 0.000000 0.031040 
#    y 0.000000 1.867990 0.000000 
#    z 0.031040 0.000000 1.811370 
# 
# From -- ./inp_files/56552.got.cif
#   From: 2010.03.12/outbox.cif.g09.slc.cpg/sg5_29_cif.got.tgz:56552.got - 2010.03.31 09:47:26.
