data_PCOD8048651
_publ_section_title
;
Structure prediction by ZEFSAII (Michael W. Deem and Ramdas Pophale) SiO2 
 PCOD8048651
Probable space group: C 2
;
_chemical_formula_sum "Si O2"
_cell_formula_units_Z 30
_cell_length_a 16.527170
_cell_length_b 8.501748
_cell_length_c 11.027663
_cell_angle_alpha 90.000000
_cell_angle_beta 107.015037
_cell_angle_gamma 90.000000
_cell_volume 1481.670590
_symmetry_space_group_name_H-M "C 2"
_symmetry_group_IT_number 5
_symmetry_cell_setting 'monoclinic'
loop_
_space_group_symop_operation_xyz
x,y,z
-x,y,-z
1/2+x,1/2+y,z
1/2-x,1/2+y,-z
loop_
_atom_site_type_symbol
_atom_site_label
_atom_site_fract_x
_atom_site_fract_y
_atom_site_fract_z
Si Si1 0.050173 0.428280 0.871729
Si Si2 0.000000 0.147640 0.000000
Si Si3 0.414682 0.419494 0.784670
Si Si4 0.253053 0.848122 0.425787
Si Si5 0.455721 0.514743 0.360916
Si Si6 0.072415 0.379883 0.616350
Si Si7 0.731785 0.500771 0.660538
Si Si8 0.887806 0.575163 0.872478
O O1 0.085280 0.457162 0.753330
O O2 0.056150 0.251829 0.930190
O O3 0.950505 0.463662 0.825179
O O4 0.099196 0.553523 0.977880
O O5 0.929058 0.045876 0.897661
O O6 0.326726 0.438530 0.671348
O O7 0.495155 0.438986 0.730804
O O8 0.409473 0.252338 0.847081
O O9 0.340037 0.914877 0.411241
O O10 0.257228 0.662818 0.407274
O O11 0.251308 0.867204 0.570199
O O12 0.500000 0.445728 0.500000
O O13 0.457960 0.703469 0.366181
O O14 0.358052 0.464121 0.317721
O O15 0.000000 0.458460 0.500000
O O16 0.795311 0.510648 0.800799
#
# Coordination Sequence:
#
# PCOD8048651 Si02
#       8
#     4   2   4   4   4   4   4   4
#     4  10  20  40  60  84 116 160 202 245 294 368
#     4  10  20  34  66  80 110 160 214 234 292 364
#     4  11  20  39  57  90 117 161 199 253 298 354
#     4  10  22  36  61  86 125 151 208 245 302 351
#     4  10  19  35  63  88 121 148 204 250 291 350
#     4  10  20  37  62  91 114 156 199 251 291 356
#     4  10  20  38  58  90 117 165 192 254 299 356
#     4   9  21  36  60  80 127 156 190 249 309 344
#
# _framework density 20.247416999999999
#
# number of rings (size 3 to 8) (size 9 to 14) (size 15 to 20)
#    0.000    2.133    2.667    1.600    0.000    2.133 
#    4.800    0.667    0.000    0.000    0.000    0.000 
#    0.000    0.000    0.000    0.000    0.000    0.000 
#
# Total GULP energy -185890.907859 kJ/mol
# GULP energy per Si atom -12392.727191 kJ/mol
# Density = 2.020133 g / cm^3
# Si number density = 20.247417 Si / 1000 Ang^3
#
#
#
# Elastic Constant Matrix: (Units=GPa)
#
#
# Indices 1 2 3 4 5 6 
#
# 1 143.6723 27.7175 68.7947 0.0000 15.5105 0.0000
# 2 27.7175 52.4687 36.5116 0.0000 10.1104 0.0000
# 3 68.7947 36.5116 130.4973 0.0000 3.6975 0.0000
# 4 0.0000 0.0000 0.0000 28.4588 0.0000 3.9083
# 5 15.5105 10.1104 3.6975 0.0000 30.5601 0.0000
# 6 0.0000 0.0000 0.0000 3.9083 0.0000 18.5284
#
#
#
# Elastic Compliance Matrix: (Units=1/GPa)
#
#
# Indices 1 2 3 4 5 6 
#
# 1 0.009914 -0.001110 -0.004800 0.000000 -0.004084 0.000000
# 2 -0.001110 0.025410 -0.006324 0.000000 -0.007078 0.000000
# 3 -0.004800 -0.006324 0.011875 0.000000 0.003091 0.000000
# 4 0.000000 0.000000 0.000000 0.036187 0.000000 -0.007633
# 5 -0.004084 -0.007078 0.003091 0.000000 0.036763 0.000000
# 6 0.000000 0.000000 0.000000 -0.007633 0.000000 0.055581
#
#
# Mechanical properties :
#
#
# Convention : Reuss Voigt Hill
#
# Bulk Modulus (GPa) = 43.99224 65.85402 54.92313
# Shear Modulus (GPa) = 24.06468 28.41709 26.24089
#
# Velocity S-wave (km/s) = 3.45125 3.75039 3.60392
# Velocity P-wave (km/s) = 6.13645 7.16583 6.67102
#
# Compressibility (1/GPa) = 0.02273128
#
# Stress axis : x y z
#
# Youngs Moduli (GPa) = 100.87113 39.35499 84.20996
#
# Poissons Ratio (x) = 0.04369 0.40420
# Poissons Ratio (y) = 0.11197 0.53251
# Poissons Ratio (z) = 0.48417 0.24887
#
# Static dielectric constant tensor:
#      x y z
#    x 3.604240 0.000000 0.145630 
#    y 0.000000 3.519110 0.000000 
#    z 0.145630 0.000000 3.920340 
# 
# 
# High freq. dielectric constant tensor:
#      x y z
#    x 1.781720 0.000000 0.007610 
#    y 0.000000 1.772750 0.000000 
#    z 0.007610 0.000000 1.804370 
# 
# From -- ./inp_files/42003.got.cif
#   From: 2010.03.12/outbox.cif.g09.slc.cpg/sg5_22_cif.got.tgz:42003.got - 2010.03.31 09:47:26.
