data_PCOD8048231
_publ_section_title
;
Structure prediction by ZEFSAII (Michael W. Deem and Ramdas Pophale) SiO2 
 PCOD8048231
Probable space group: C 2
;
_chemical_formula_sum "Si O2"
_cell_formula_units_Z 30
_cell_length_a 15.749722
_cell_length_b 17.620217
_cell_length_c 12.441823
_cell_angle_alpha 90.000000
_cell_angle_beta 152.644607
_cell_angle_gamma 90.000000
_cell_volume 1586.578857
_symmetry_space_group_name_H-M "C 2"
_symmetry_group_IT_number 5
_symmetry_cell_setting 'monoclinic'
loop_
_space_group_symop_operation_xyz
x,y,z
-x,y,-z
1/2+x,1/2+y,z
1/2-x,1/2+y,-z
loop_
_atom_site_type_symbol
_atom_site_label
_atom_site_fract_x
_atom_site_fract_y
_atom_site_fract_z
Si Si1 0.516503 0.061470 0.641600
Si Si2 0.927984 0.946930 0.301698
Si Si3 0.573688 0.902391 0.798517
Si Si4 0.122197 0.110953 0.839012
Si Si5 0.336333 0.762425 0.241583
Si Si6 0.500000 0.299129 0.000000
Si Si7 0.108408 0.072733 0.230762
Si Si8 0.347410 0.405457 0.645565
O O1 0.500000 0.084777 0.500000
O O2 0.325212 0.089886 0.476859
O O3 0.558166 0.971358 0.695343
O O4 0.674079 0.106285 0.881539
O O5 0.000000 0.925486 0.500000
O O6 0.048384 0.898158 0.351304
O O7 0.943105 0.037164 0.300111
O O8 0.711931 0.925060 0.050198
O O9 0.671816 0.829282 0.855610
O O10 0.370661 0.892323 0.621007
O O11 0.112809 0.182289 0.751504
O O12 0.979555 0.124578 0.775685
O O13 0.500000 0.790821 0.500000
O O14 0.152779 0.750383 0.107607
O O15 0.401555 0.345795 0.796239
O O16 0.084233 0.984421 0.228340
O O17 0.000000 0.092272 0.000000
#
# Coordination Sequence:
#
# PCOD8048231 Si02
#       8
#     4   4   4   4   4   2   4   4
#     4  10  19  33  60  90 118 150 203 261 297 341
#     4  10  21  40  62  86 122 161 203 248 302 363
#     4  10  21  36  61  93 116 151 205 257 301 351
#     4  10  23  38  55  88 124 164 199 236 308 372
#     4  12  24  39  61  88 126 158 195 252 309 365
#     4  12  22  36  64  96 120 152 198 260 304 350
#     4  10  18  32  61  88 117 151 197 253 296 345
#     4  10  20  34  62  97 116 147 202 257 304 345
#
# _framework density 18.908609999999999
#
# number of rings (size 3 to 8) (size 9 to 14) (size 15 to 20)
#    0.000    1.600    4.667    0.800    1.867    1.600 
#    0.000    3.333    2.933    0.000    0.000    0.000 
#    0.000    0.000    0.000    0.000    0.000    0.000 
#
# Total GULP energy -185933.578452 kJ/mol
# GULP energy per Si atom -12395.571897 kJ/mol
# Density = 1.886557 g / cm^3
# Si number density = 18.908610 Si / 1000 Ang^3
#
#
#
# Elastic Constant Matrix: (Units=GPa)
#
#
# Indices 1 2 3 4 5 6 
#
# 1 128.6796 35.9872 57.6171 0.0000 10.5850 0.0000
# 2 35.9872 60.9957 14.1911 0.0000 2.9817 0.0000
# 3 57.6171 14.1911 112.4190 0.0000 6.1235 0.0000
# 4 0.0000 0.0000 0.0000 11.0731 0.0000 2.5378
# 5 10.5850 2.9817 6.1235 0.0000 40.6662 0.0000
# 6 0.0000 0.0000 0.0000 2.5378 0.0000 10.9502
#
#
#
# Elastic Compliance Matrix: (Units=1/GPa)
#
#
# Indices 1 2 3 4 5 6 
#
# 1 0.011875 -0.005689 -0.005265 0.000000 -0.001881 0.000000
# 2 -0.005689 0.019651 0.000437 0.000000 -0.000026 0.000000
# 3 -0.005265 0.000437 0.011561 0.000000 -0.000402 0.000000
# 4 0.000000 0.000000 0.000000 0.095375 0.000000 -0.022105
# 5 -0.001881 -0.000026 -0.000402 0.000000 0.025142 0.000000
# 6 0.000000 0.000000 0.000000 -0.022105 0.000000 0.096446
#
#
# Mechanical properties :
#
#
# Convention : Reuss Voigt Hill
#
# Bulk Modulus (GPa) = 45.35065 57.52060 51.43562
# Shear Modulus (GPa) = 17.33489 25.49114 21.41302
#
# Velocity S-wave (km/s) = 3.03111 3.67566 3.36884
# Velocity P-wave (km/s) = 6.02382 6.96422 6.51102
#
# Compressibility (1/GPa) = 0.02205040
#
# Stress axis : x y z
#
# Youngs Moduli (GPa) = 84.21356 50.88858 86.49982
#
# Poissons Ratio (x) = 0.28950 0.45545
# Poissons Ratio (y) = 0.47909 -0.03776
# Poissons Ratio (z) = 0.44342 -0.02221
#
# Static dielectric constant tensor:
#      x y z
#    x 3.597330 0.000000 0.279020 
#    y 0.000000 3.093950 0.000000 
#    z 0.279020 0.000000 3.647320 
# 
# 
# High freq. dielectric constant tensor:
#      x y z
#    x 1.735430 0.000000 0.013000 
#    y 0.000000 1.700310 0.000000 
#    z 0.013000 0.000000 1.749610 
# 
# From -- ./inp_files/40472.got.cif
#   From: 2010.03.12/outbox.cif.g09.slc.cpg/sg5_21_cif.got.tgz:40472.got - 2010.03.31 09:47:26.
