data_PCOD8048505
_publ_section_title
;
Structure prediction by ZEFSAII (Michael W. Deem and Ramdas Pophale) SiO2 
 PCOD8048505
Probable space group: C 2
;
_chemical_formula_sum "Si O2"
_cell_formula_units_Z 28
_cell_length_a 7.654171
_cell_length_b 35.184965
_cell_length_c 5.194884
_cell_angle_alpha 90.000000
_cell_angle_beta 61.172473
_cell_angle_gamma 90.000000
_cell_volume 1225.666986
_symmetry_space_group_name_H-M "C 2"
_symmetry_group_IT_number 5
_symmetry_cell_setting 'monoclinic'
loop_
_space_group_symop_operation_xyz
x,y,z
-x,y,-z
1/2+x,1/2+y,z
1/2-x,1/2+y,-z
loop_
_atom_site_type_symbol
_atom_site_label
_atom_site_fract_x
_atom_site_fract_y
_atom_site_fract_z
Si Si1 0.275696 0.980590 0.152287
Si Si2 0.000000 0.744282 0.500000
Si Si3 0.739686 0.941769 0.333388
Si Si4 0.132946 0.143933 0.151363
Si Si5 0.762965 0.311689 0.175248
Si Si6 0.627967 0.559612 0.156108
Si Si7 0.500000 0.197060 0.000000
Si Si8 0.262773 0.855652 0.670819
O O1 0.174015 0.967852 0.493651
O O2 0.284269 0.025925 0.097278
O O3 0.500000 0.965365 0.000000
O O4 0.167275 0.958845 0.994918
O O5 0.819839 0.769082 0.747104
O O6 0.926184 0.720377 0.304082
O O7 0.500000 0.944237 0.500000
O O8 0.815534 0.898591 0.297530
O O9 0.224350 0.101299 0.045255
O O10 0.316931 0.172057 0.033117
O O11 0.000000 0.146929 0.500000
O O12 0.000000 0.155229 0.000000
O O13 0.680048 0.332820 0.486145
O O14 0.681835 0.335122 0.986258
O O15 0.000000 0.309148 0.000000
O O16 0.500000 0.562889 0.500000
O O17 0.500000 0.547919 0.000000
O O18 0.500000 0.855335 0.500000
#
# Coordination Sequence:
#
# PCOD8048505 Si02
#       8
#     4   2   4   4   4   4   2   4
#     4  10  19  31  54  84 115 153 200 252 300 354
#     4  12  26  42  64  98 130 160 204 268 322 384
#     4   9  17  30  51  84 115 149 202 253 299 351
#     4  10  23  44  68  97 129 169 220 260 314 387
#     4  10  21  38  61  87 118 161 207 249 311 375
#     4  10  21  38  59  82 118 163 199 251 302 362
#     4  12  26  44  70  98 132 172 204 266 334 384
#     4   9  17  33  59  83 112 159 206 252 300 366
#
# _framework density 22.844702999999999
#
# number of rings (size 3 to 8) (size 9 to 14) (size 15 to 20)
#    0.000    2.000    0.000    3.429    1.000    5.143 
#    0.000    0.000   15.714    0.000    0.000    0.000 
#    0.000    0.000    0.000    0.000    0.000    0.000 
#
# Total GULP energy -173585.534508 kJ/mol
# GULP energy per Si atom -12398.966751 kJ/mol
# Density = 2.279271 g / cm^3
# Si number density = 22.844703 Si / 1000 Ang^3
#
#
#
# Elastic Constant Matrix: (Units=GPa)
#
#
# Indices 1 2 3 4 5 6 
#
# 1 85.0818 59.9896 48.5595 0.0000 39.4723 0.0000
# 2 59.9896 165.1880 57.5650 0.0000 26.9768 0.0000
# 3 48.5595 57.5650 152.9816 0.0000 46.2109 0.0000
# 4 0.0000 0.0000 0.0000 30.5165 0.0000 2.5818
# 5 39.4723 26.9768 46.2109 0.0000 38.5245 0.0000
# 6 0.0000 0.0000 0.0000 2.5818 0.0000 21.7226
#
#
#
# Elastic Compliance Matrix: (Units=1/GPa)
#
#
# Indices 1 2 3 4 5 6 
#
# 1 0.026823 -0.006147 0.001255 0.000000 -0.024684 0.000000
# 2 -0.006147 0.008563 -0.002136 0.000000 0.002865 0.000000
# 3 0.001255 -0.002136 0.010787 0.000000 -0.012730 0.000000
# 4 0.000000 0.000000 0.000000 0.033102 0.000000 -0.003934
# 5 -0.024684 0.002865 -0.012730 0.000000 0.064512 0.000000
# 6 0.000000 0.000000 0.000000 -0.003934 0.000000 0.046503
#
#
# Mechanical properties :
#
#
# Convention : Reuss Voigt Hill
#
# Bulk Modulus (GPa) = 31.13646 81.71997 56.42821
# Shear Modulus (GPa) = 23.25014 33.96189 28.60602
#
# Velocity S-wave (km/s) = 3.19368 3.85988 3.54248
# Velocity P-wave (km/s) = 5.22098 7.46422 6.44101
#
# Compressibility (1/GPa) = 0.03211669
#
# Stress axis : x y z
#
# Youngs Moduli (GPa) = 37.28129 116.78536 92.70062
#
# Poissons Ratio (x) = 0.71792 -0.11636
# Poissons Ratio (y) = 0.22918 0.19802
# Poissons Ratio (z) = -0.04680 0.24947
#
# Static dielectric constant tensor:
#      x y z
#    x 3.938570 0.000000 0.383660 
#    y 0.000000 4.378940 0.000000 
#    z 0.383660 0.000000 4.285780 
# 
# 
# High freq. dielectric constant tensor:
#      x y z
#    x 1.904150 0.000000 0.016450 
#    y 0.000000 1.904900 0.000000 
#    z 0.016450 0.000000 1.917140 
# 
# From -- ./inp_files/3897.got.cif
#   From: 2010.03.12/outbox.cif.g09.slc.cpg/sg5_2_cif.got.tgz:3897.got - 2010.03.31 09:47:26.
