data_PCOD8048516
_publ_section_title
;
Structure prediction by ZEFSAII (Michael W. Deem and Ramdas Pophale) SiO2 
 PCOD8048516
Probable space group: C 2
;
_chemical_formula_sum "Si O2"
_cell_formula_units_Z 32
_cell_length_a 15.623390
_cell_length_b 21.287846
_cell_length_c 9.281978
_cell_angle_alpha 90.000000
_cell_angle_beta 31.218075
_cell_angle_gamma 90.000000
_cell_volume 1600.022449
_symmetry_space_group_name_H-M "C 2"
_symmetry_group_IT_number 5
_symmetry_cell_setting 'monoclinic'
loop_
_space_group_symop_operation_xyz
x,y,z
-x,y,-z
1/2+x,1/2+y,z
1/2-x,1/2+y,-z
loop_
_atom_site_type_symbol
_atom_site_label
_atom_site_fract_x
_atom_site_fract_y
_atom_site_fract_z
Si Si1 0.889177 0.914270 0.968236
Si Si2 0.181161 0.304413 0.785849
Si Si3 0.764870 0.947984 0.640728
Si Si4 0.332285 0.980091 0.911161
Si Si5 0.322120 0.230165 0.824160
Si Si6 0.200772 0.499042 0.439461
Si Si7 0.992523 0.773736 0.849218
Si Si8 0.308347 0.096830 0.763283
O O1 0.739168 0.919204 0.069130
O O2 0.924541 0.843918 0.962365
O O3 0.041378 0.945383 0.665494
O O4 0.843672 0.951348 0.180613
O O5 0.184736 0.379187 0.761665
O O6 0.210520 0.284993 0.911411
O O7 0.323215 0.271840 0.483398
O O8 0.000000 0.280367 0.000000
O O9 0.727310 0.984037 0.840308
O O10 0.682026 0.991695 0.636986
O O11 0.529515 0.978860 0.610295
O O12 0.253694 0.042200 0.951113
O O13 0.500000 0.238432 0.500000
O O14 0.355248 0.237570 0.948555
O O15 0.228861 0.164152 0.919202
O O16 0.237810 0.570905 0.331988
O O17 0.000000 0.744294 0.000000
O O18 0.500000 0.111743 0.500000
#
# Coordination Sequence:
#
# PCOD8048516 Si02
#       8
#     4   4   4   4   4   4   4   4
#     4  10  19  33  50  74 108 140 166 202 263 328
#     4  10  20  35  55  80 108 139 174 215 262 320
#     4  11  20  31  50  80 109 130 164 216 267 308
#     4  10  19  32  52  77 102 134 173 214 255 302
#     4   9  18  36  57  74 102 145 183 213 257 319
#     4  10  19  33  53  76 105 137 171 213 257 311
#     4  10  20  34  55  80 105 136 178 221 263 310
#     4   8  17  34  53  73 100 137 178 210 251 312
#
# _framework density 19.999718000000001
#
# number of rings (size 3 to 8) (size 9 to 14) (size 15 to 20)
#    0.000    2.250    0.000    5.250    0.000    2.000 
#    0.000    9.375    0.000    3.000    0.000    0.000 
#    0.000    0.000    0.000    0.000    0.000    0.000 
#
# Total GULP energy -198275.225025 kJ/mol
# GULP energy per Si atom -12392.201564 kJ/mol
# Density = 1.995420 g / cm^3
# Si number density = 19.999718 Si / 1000 Ang^3
#
#
#
# Elastic Constant Matrix: (Units=GPa)
#
#
# Indices 1 2 3 4 5 6 
#
# 1 140.9997 45.7320 24.8527 -0.0022 19.4804 0.0003
# 2 45.7320 82.6370 15.3711 -0.0081 6.2898 -0.0025
# 3 24.8527 15.3711 58.2691 -0.0217 2.2081 -0.0043
# 4 -0.0022 -0.0081 -0.0217 10.1586 0.0081 -3.2381
# 5 19.4804 6.2898 2.2081 0.0081 35.7066 0.0027
# 6 0.0003 -0.0025 -0.0043 -3.2381 0.0027 23.2867
#
#
#
# Elastic Compliance Matrix: (Units=1/GPa)
#
#
# Indices 1 2 3 4 5 6 
#
# 1 0.009627 -0.004488 -0.002760 -0.000004 -0.004291 -0.000001
# 2 -0.004488 0.014967 -0.002032 0.000007 -0.000062 0.000002
# 3 -0.002760 -0.002032 0.018848 0.000040 0.000698 0.000009
# 4 -0.000004 0.000007 0.000040 0.103005 -0.000026 0.014323
# 5 -0.004291 -0.000062 0.000698 -0.000026 0.030315 -0.000007
# 6 -0.000001 0.000002 0.000009 0.014323 -0.000007 0.044935
#
#
# Mechanical properties :
#
#
# Convention : Reuss Voigt Hill
#
# Bulk Modulus (GPa) = 40.18603 50.42416 45.30510
# Shear Modulus (GPa) = 20.11667 26.89372 23.50519
#
# Velocity S-wave (km/s) = 3.17495 3.67100 3.43195
# Velocity P-wave (km/s) = 5.79460 6.57537 6.19729
#
# Compressibility (1/GPa) = 0.02488427
#
# Stress axis : x y z
#
# Youngs Moduli (GPa) = 103.87408 66.81198 53.05508
#
# Poissons Ratio (x) = 0.29984 0.14641
# Poissons Ratio (y) = 0.46616 0.10780
# Poissons Ratio (z) = 0.28665 0.13575
#
# Static dielectric constant tensor:
#      x y z
#    x 3.953730 -0.000010 0.054640 
#    y -0.000010 3.569780 0.000010 
#    z 0.054640 0.000010 3.502290 
# 
# 
# High freq. dielectric constant tensor:
#      x y z
#    x 1.792300 0.000000 0.003670 
#    y 0.000000 1.751860 0.000000 
#    z 0.003670 0.000000 1.761350 
# 
# From -- ./inp_files/25600.got.cif
#   From: 2010.03.12/outbox.cif.g09.slc.cpg/sg5_13_cif.got.tgz:25600.got - 2010.03.31 09:47:26.
