data_PCOD8048475
_publ_section_title
;
Structure prediction by ZEFSAII (Michael W. Deem and Ramdas Pophale) SiO2 
 PCOD8048475
Probable space group: C 2
;
_chemical_formula_sum "Si O2"
_cell_formula_units_Z 28
_cell_length_a 12.732266
_cell_length_b 13.241547
_cell_length_c 8.559856
_cell_angle_alpha 90.000000
_cell_angle_beta 77.978975
_cell_angle_gamma 90.000000
_cell_volume 1411.501608
_symmetry_space_group_name_H-M "C 2"
_symmetry_group_IT_number 5
_symmetry_cell_setting 'monoclinic'
loop_
_space_group_symop_operation_xyz
x,y,z
-x,y,-z
1/2+x,1/2+y,z
1/2-x,1/2+y,-z
loop_
_atom_site_type_symbol
_atom_site_label
_atom_site_fract_x
_atom_site_fract_y
_atom_site_fract_z
Si Si1 0.000000 0.840950 0.500000
Si Si2 0.500000 0.862467 0.500000
Si Si3 0.428642 0.182999 0.273207
Si Si4 0.436348 0.834701 0.859777
Si Si5 0.626566 0.067614 0.147469
Si Si6 0.270435 0.667890 0.864862
Si Si7 0.114042 0.031206 0.415778
Si Si8 0.171145 0.528702 0.471343
O O1 0.051223 0.776345 0.620825
O O2 0.089506 0.912687 0.388357
O O3 0.493567 0.805539 0.672872
O O4 0.614011 0.920475 0.471750
O O5 0.530597 0.146906 0.139415
O O6 0.329015 0.214910 0.198483
O O7 0.399900 0.082942 0.377489
O O8 0.332137 0.764870 0.909478
O O9 0.407158 0.952658 0.873198
O O10 0.500000 0.810475 0.000000
O O11 0.662104 0.088765 0.313236
O O12 0.729017 0.095430 0.013725
O O13 0.345560 0.593627 0.743096
O O14 0.203430 0.028052 0.524385
O O15 0.000000 0.083145 0.500000
#
# Coordination Sequence:
#
# PCOD8048475 Si02
#       8
#     2   2   4   4   4   4   4   4
#     4  10  21  39  68  92 126 170 223 253 320 394
#     4  10  21  39  72  96 124 170 227 277 316 392
#     4  11  19  41  66  97 124 166 222 274 311 394
#     4  11  25  44  66  97 132 176 223 273 336 396
#     4  11  22  42  65  95 131 167 217 282 327 382
#     4  11  26  41  64  96 134 169 214 273 343 387
#     4   9  24  41  61  91 136 173 204 266 332 397
#     4  10  18  40  68  94 121 170 220 267 327 379
#
# _framework density 19.837029000000001
#
# number of rings (size 3 to 8) (size 9 to 14) (size 15 to 20)
#    0.429    1.143    4.286    1.286    7.000    2.286 
#    2.571    0.000    0.000    0.000    0.000    0.000 
#    0.000    0.000    0.000    0.000    0.000    0.000 
#
# Total GULP energy -173439.292075 kJ/mol
# GULP energy per Si atom -12388.520862 kJ/mol
# Density = 1.979188 g / cm^3
# Si number density = 19.837029 Si / 1000 Ang^3
#
#
#
# Elastic Constant Matrix: (Units=GPa)
#
#
# Indices 1 2 3 4 5 6 
#
# 1 138.1238 35.4215 50.3842 0.0000 -0.6160 0.0000
# 2 35.4215 65.6885 4.6256 0.0000 -1.5670 0.0000
# 3 50.3842 4.6256 100.8183 0.0000 -0.5265 0.0000
# 4 0.0000 0.0000 0.0000 10.8868 0.0000 -3.8369
# 5 -0.6160 -1.5670 -0.5265 0.0000 37.9478 0.0000
# 6 0.0000 0.0000 0.0000 -3.8369 0.0000 28.3852
#
#
#
# Elastic Compliance Matrix: (Units=1/GPa)
#
#
# Indices 1 2 3 4 5 6 
#
# 1 0.010395 -0.005259 -0.004954 0.000000 -0.000117 0.000000
# 2 -0.005259 0.017948 0.001809 0.000000 0.000681 0.000000
# 3 -0.004954 0.001809 0.012313 0.000000 0.000165 0.000000
# 4 0.000000 0.000000 0.000000 0.096449 0.000000 0.013037
# 5 -0.000117 0.000681 0.000165 0.000000 0.026380 0.000000
# 6 0.000000 0.000000 0.000000 0.013037 0.000000 0.036992
#
#
# Mechanical properties :
#
#
# Convention : Reuss Voigt Hill
#
# Bulk Modulus (GPa) = 41.93631 53.94369 47.94000
# Shear Modulus (GPa) = 22.19879 29.72392 25.96136
#
# Velocity S-wave (km/s) = 3.34886 3.87512 3.62156
# Velocity P-wave (km/s) = 6.01161 6.87565 6.45810
#
# Compressibility (1/GPa) = 0.02384568
#
# Stress axis : x y z
#
# Youngs Moduli (GPa) = 96.19638 55.71539 81.21687
#
# Poissons Ratio (x) = 0.29303 0.40238
# Poissons Ratio (y) = 0.50594 -0.14688
# Poissons Ratio (z) = 0.47660 -0.10076
#
# Static dielectric constant tensor:
#      x y z
#    x 3.778960 0.000000 0.053490 
#    y 0.000000 3.392150 0.000000 
#    z 0.053490 0.000000 3.846350 
# 
# 
# High freq. dielectric constant tensor:
#      x y z
#    x 1.780220 0.000000 0.005310 
#    y 0.000000 1.758240 0.000000 
#    z 0.005310 0.000000 1.776630 
# 
# From -- ./inp_files/20365.got.cif
#   From: 2010.03.12/outbox.cif.g09.slc.cpg/sg5_11_cif.got.tgz:20365.got - 2010.03.31 09:47:26.
