data_PCOD8048761
_publ_section_title
;
Structure prediction by ZEFSAII (Michael W. Deem and Ramdas Pophale) SiO2 
 PCOD8048761
Probable space group: C 2
;
_chemical_formula_sum "Si O2"
_cell_formula_units_Z 30
_cell_length_a 26.017632
_cell_length_b 8.562309
_cell_length_c 16.487887
_cell_angle_alpha 90.000000
_cell_angle_beta 21.232938
_cell_angle_gamma 90.000000
_cell_volume 1330.223833
_symmetry_space_group_name_H-M "C 2"
_symmetry_group_IT_number 5
_symmetry_cell_setting 'monoclinic'
loop_
_space_group_symop_operation_xyz
x,y,z
-x,y,-z
1/2+x,1/2+y,z
1/2-x,1/2+y,-z
loop_
_atom_site_type_symbol
_atom_site_label
_atom_site_fract_x
_atom_site_fract_y
_atom_site_fract_z
Si Si1 0.000000 0.564570 0.000000
Si Si2 0.443120 0.418869 0.396834
Si Si3 0.709072 0.721177 0.407811
Si Si4 0.250215 0.244631 0.808069
Si Si5 0.363829 0.497585 0.751305
Si Si6 0.080836 0.443697 0.462807
Si Si7 0.535308 0.879021 0.792085
Si Si8 0.076675 0.618852 0.164391
O O1 0.875036 0.680725 0.153954
O O2 0.932334 0.446709 0.166450
O O3 0.375580 0.562149 0.448377
O O4 0.324111 0.348040 0.630388
O O5 0.585192 0.477086 0.232336
O O6 0.499619 0.281269 0.256369
O O7 0.651179 0.800220 0.409707
O O8 0.677890 0.829204 0.533188
O O9 0.293928 0.331252 0.827464
O O10 0.297019 0.065143 0.742745
O O11 0.081425 0.239907 0.037475
O O12 0.500000 0.549289 0.500000
O O13 0.247645 0.635868 0.917807
O O14 0.000000 0.384480 0.500000
O O15 0.973433 0.538280 0.678434
O O16 0.456469 0.019133 0.864659
#
# Coordination Sequence:
#
# PCOD8048761 Si02
#       8
#     2   4   4   4   4   4   4   4
#     4  12  26  54  74  94 150 188 236 330 346 402
#     4  10  19  37  64  92 135 181 228 278 351 416
#     4  11  26  46  71 108 133 184 249 287 362 434
#     4   9  17  39  66  98 137 186 218 276 353 423
#     4   9  18  32  60  97 138 186 224 259 340 430
#     4  10  21  40  69 106 152 177 221 286 354 435
#     4  10  23  47  72  97 136 179 245 294 361 419
#     4   9  20  38  66  99 138 186 229 283 342 438
#
# _framework density 22.552595
#
# number of rings (size 3 to 8) (size 9 to 14) (size 15 to 20)
#    0.000    2.133    1.333    2.000    0.000    6.933 
#    9.600    0.000    0.000    0.000    0.000    0.000 
#    0.000    0.000    0.000    0.000    0.000    0.000 
#
# Total GULP energy -185901.290353 kJ/mol
# GULP energy per Si atom -12393.419357 kJ/mol
# Density = 2.250126 g / cm^3
# Si number density = 22.552595 Si / 1000 Ang^3
#
#
#
# Elastic Constant Matrix: (Units=GPa)
#
#
# Indices 1 2 3 4 5 6 
#
# 1 91.0345 33.5273 31.2972 0.0000 5.2301 0.0000
# 2 33.5273 95.5126 48.1190 0.0001 -13.2550 0.0000
# 3 31.2972 48.1190 87.5367 0.0001 -16.6516 0.0000
# 4 0.0000 0.0001 0.0001 43.0043 -0.0001 -0.8958
# 5 5.2301 -13.2550 -16.6516 -0.0001 28.2086 0.0000
# 6 0.0000 0.0000 0.0000 -0.8958 0.0000 22.5034
#
#
#
# Elastic Compliance Matrix: (Units=1/GPa)
#
#
# Indices 1 2 3 4 5 6 
#
# 1 0.014279 -0.003791 -0.004353 0.000000 -0.006998 0.000000
# 2 -0.003791 0.015628 -0.006427 0.000000 0.004253 0.000000
# 3 -0.004353 -0.006427 0.018127 0.000000 0.008488 0.000000
# 4 0.000000 0.000000 0.000000 0.023273 0.000000 0.000926
# 5 -0.006998 0.004253 0.008488 0.000000 0.043756 0.000000
# 6 0.000000 0.000000 0.000000 0.000926 0.000000 0.044475
#
#
# Mechanical properties :
#
#
# Convention : Reuss Voigt Hill
#
# Bulk Modulus (GPa) = 52.92450 55.55231 54.23840
# Shear Modulus (GPa) = 25.64395 29.48594 27.56495
#
# Velocity S-wave (km/s) = 3.37571 3.61976 3.49986
# Velocity P-wave (km/s) = 6.22190 6.49277 6.35877
#
# Compressibility (1/GPa) = 0.01889484
#
# Stress axis : x y z
#
# Youngs Moduli (GPa) = 70.03053 63.98623 55.16518
#
# Poissons Ratio (x) = 0.24255 0.24013
# Poissons Ratio (y) = 0.26546 0.35453
# Poissons Ratio (z) = 0.30483 0.41122
#
# Static dielectric constant tensor:
#      x y z
#    x 3.867330 0.000000 -0.007090 
#    y 0.000000 4.038440 0.000000 
#    z -0.007090 0.000000 4.155020 
# 
# 
# High freq. dielectric constant tensor:
#      x y z
#    x 1.864260 0.000000 0.000720 
#    y 0.000000 1.881040 0.000000 
#    z 0.000720 0.000000 1.892910 
# 
# From -- ./inp_files/63796.got.cif
#   From: 2010.03.12/outbox.cif.g09.slc.cpg/sg5_32_cif.got.tgz:63796.got - 2010.03.31 09:47:26.
