data_PCOD8048745
_publ_section_title
;
Structure prediction by ZEFSAII (Michael W. Deem and Ramdas Pophale) SiO2 
 PCOD8048745
Probable space group: C 2
;
_chemical_formula_sum "Si O2"
_cell_formula_units_Z 28
_cell_length_a 13.291251
_cell_length_b 9.013553
_cell_length_c 13.726968
_cell_angle_alpha 90.000000
_cell_angle_beta 53.978036
_cell_angle_gamma 90.000000
_cell_volume 1330.065827
_symmetry_space_group_name_H-M "C 2"
_symmetry_group_IT_number 5
_symmetry_cell_setting 'monoclinic'
loop_
_space_group_symop_operation_xyz
x,y,z
-x,y,-z
1/2+x,1/2+y,z
1/2-x,1/2+y,-z
loop_
_atom_site_type_symbol
_atom_site_label
_atom_site_fract_x
_atom_site_fract_y
_atom_site_fract_z
Si Si1 0.919495 0.827990 0.953345
Si Si2 0.852675 0.836258 0.435979
Si Si3 0.435108 0.145790 0.757658
Si Si4 0.028533 0.081359 0.760030
Si Si5 0.358878 0.873494 0.582785
Si Si6 0.213408 0.698595 0.337962
Si Si7 0.659670 0.826868 0.196643
O O1 0.914719 0.693737 0.880077
O O2 0.778083 0.861429 0.063070
O O3 0.981110 0.972948 0.871456
O O4 0.000000 0.776559 0.000000
O O5 0.716566 0.812240 0.466360
O O6 0.833663 0.831888 0.564101
O O7 0.930773 0.694153 0.357273
O O8 0.918761 0.987951 0.362464
O O9 0.330241 0.225445 0.748471
O O10 0.432174 0.968121 0.754638
O O11 0.137372 0.182217 0.743876
O O12 0.912854 0.180737 0.794515
O O13 0.500000 0.816339 0.500000
O O14 0.294962 0.808768 0.717430
O O15 0.353639 0.050962 0.585094
#
# Coordination Sequence:
#
# PCOD8048745 Si02
#       7
#     4   4   4   4   4   4   4
#     4  11  22  42  64  85 119 160 203 254 305 359
#     4  10  20  37  60  88 122 159 197 244 301 361
#     4  10  21  38  62  88 116 159 203 245 303 364
#     4  10  23  39  61  94 122 157 206 250 302 360
#     4  10  20  36  60  88 117 157 201 243 297 358
#     4  10  19  37  61  86 119 157 196 245 299 356
#     4  11  21  39  63  89 121 159 202 253 303 358
#
# _framework density 21.051589
#
# number of rings (size 3 to 8) (size 9 to 14) (size 15 to 20)
#    0.000    1.714    0.000    7.286    0.000    1.143 
#    0.000   20.714    0.000    0.000    0.000    0.000 
#    0.000    0.000    0.000    0.000    0.000    0.000 
#
# Total GULP energy -173599.594027 kJ/mol
# GULP energy per Si atom -12399.971002 kJ/mol
# Density = 2.100368 g / cm^3
# Si number density = 21.051589 Si / 1000 Ang^3
#
#
#
# Elastic Constant Matrix: (Units=GPa)
#
#
# Indices 1 2 3 4 5 6 
#
# 1 124.6833 42.6301 44.1463 0.0000 11.9083 0.0000
# 2 42.6301 53.5755 26.8827 0.0000 7.3816 0.0000
# 3 44.1463 26.8827 102.2175 0.0000 7.4466 0.0000
# 4 0.0000 0.0000 0.0000 29.6055 0.0000 1.1943
# 5 11.9083 7.3816 7.4466 0.0000 49.8121 0.0000
# 6 0.0000 0.0000 0.0000 1.1943 0.0000 33.1296
#
#
#
# Elastic Compliance Matrix: (Units=1/GPa)
#
#
# Indices 1 2 3 4 5 6 
#
# 1 0.011849 -0.007759 -0.002987 0.000000 -0.001236 0.000000
# 2 -0.007759 0.026864 -0.003598 0.000000 -0.001588 0.000000
# 3 -0.002987 -0.003598 0.012060 0.000000 -0.000556 0.000000
# 4 0.000000 0.000000 0.000000 0.033827 0.000000 -0.001219
# 5 -0.001236 -0.001588 -0.000556 0.000000 0.020689 0.000000
# 6 0.000000 0.000000 0.000000 -0.001219 0.000000 0.030228
#
#
# Mechanical properties :
#
#
# Convention : Reuss Voigt Hill
#
# Bulk Modulus (GPa) = 45.28160 56.42163 50.85162
# Shear Modulus (GPa) = 29.14332 33.63059 31.38695
#
# Velocity S-wave (km/s) = 3.72476 4.00125 3.86548
# Velocity P-wave (km/s) = 6.32890 6.94309 6.64309
#
# Compressibility (1/GPa) = 0.02208402
#
# Stress axis : x y z
#
# Youngs Moduli (GPa) = 84.39697 37.22521 82.92053
#
# Poissons Ratio (x) = 0.28884 0.24765
# Poissons Ratio (y) = 0.65485 0.29837
# Poissons Ratio (z) = 0.25206 0.13394
#
# Static dielectric constant tensor:
#      x y z
#    x 4.055820 0.000000 0.095200 
#    y 0.000000 3.511690 0.000000 
#    z 0.095200 0.000000 3.891390 
# 
# 
# High freq. dielectric constant tensor:
#      x y z
#    x 1.835390 0.000000 -0.000950 
#    y 0.000000 1.797420 0.000000 
#    z -0.000950 0.000000 1.830390 
# 
# From -- ./inp_files/54117.got.cif
#   From: 2010.03.12/outbox.cif.g09.slc.cpg/sg5_28_cif.got.tgz:54117.got - 2010.03.31 09:47:26.
