data_PCOD8048891
_publ_section_title
;
Structure prediction by ZEFSAII (Michael W. Deem and Ramdas Pophale) SiO2 
 PCOD8048891
Probable space group: C 2
;
_chemical_formula_sum "Si O2"
_cell_formula_units_Z 28
_cell_length_a 12.248287
_cell_length_b 14.496674
_cell_length_c 8.898183
_cell_angle_alpha 90.000000
_cell_angle_beta 128.630190
_cell_angle_gamma 90.000000
_cell_volume 1234.248599
_symmetry_space_group_name_H-M "C 2"
_symmetry_group_IT_number 5
_symmetry_cell_setting 'monoclinic'
loop_
_space_group_symop_operation_xyz
x,y,z
-x,y,-z
1/2+x,1/2+y,z
1/2-x,1/2+y,-z
loop_
_atom_site_type_symbol
_atom_site_label
_atom_site_fract_x
_atom_site_fract_y
_atom_site_fract_z
Si Si1 0.338847 0.208680 0.497036
Si Si2 0.287579 0.988847 0.944299
Si Si3 0.349550 0.173128 0.178668
Si Si4 0.150231 0.916028 0.553647
Si Si5 0.587413 0.801884 0.928239
Si Si6 0.002954 0.998479 0.828863
Si Si7 0.058920 0.174118 0.390219
O O1 0.331885 0.144352 0.340345
O O2 0.491764 0.210898 0.704452
O O3 0.295030 0.311240 0.402344
O O4 0.227870 0.173507 0.525946
O O5 0.257719 0.982885 0.737466
O O6 0.404621 0.912440 0.078854
O O7 0.146735 0.952325 0.900483
O O8 0.332573 0.088106 0.047889
O O9 0.240100 0.254101 0.049315
O O10 0.000000 0.921789 0.500000
O O11 0.132795 0.953997 0.368909
O O12 0.500448 0.773900 0.704868
O O13 0.500000 0.771148 0.000000
O O14 0.007506 0.106697 0.792203
O O15 0.000000 0.981186 0.000000
O O16 0.000000 0.141362 0.500000
#
# Coordination Sequence:
#
# PCOD8048891 Si02
#       7
#     4   4   4   4   4   4   4
#     4  11  22  45  72 102 143 202 242 299 376 443
#     4  11  22  40  69 110 139 182 248 311 361 436
#     4  11  21  42  74 105 143 190 249 304 368 443
#     4  10  19  40  71 101 138 183 244 298 365 445
#     4  12  23  46  75 102 144 196 246 298 375 447
#     4  11  23  41  70 100 138 194 246 298 370 447
#     4  12  25  44  67 101 143 192 242 300 367 449
#
# _framework density 22.685867999999999
#
# number of rings (size 3 to 8) (size 9 to 14) (size 15 to 20)
#    0.000    0.857    5.714    3.429    0.000    1.143 
#   10.286    0.714    0.000    0.000    0.000    0.000 
#    0.000    0.000    0.000    0.000    0.000    0.000 
#
# Total GULP energy -173508.013732 kJ/mol
# GULP energy per Si atom -12393.429552 kJ/mol
# Density = 2.263423 g / cm^3
# Si number density = 22.685868 Si / 1000 Ang^3
#
#
#
# Elastic Constant Matrix: (Units=GPa)
#
#
# Indices 1 2 3 4 5 6 
#
# 1 122.0304 24.3107 46.2414 0.0000 8.4384 0.0000
# 2 24.3107 99.6746 42.7302 0.0000 -7.9984 0.0000
# 3 46.2414 42.7302 121.5617 0.0000 -15.6990 0.0000
# 4 0.0000 0.0000 0.0000 45.4291 0.0000 2.6079
# 5 8.4384 -7.9984 -15.6990 0.0000 34.1398 0.0000
# 6 0.0000 0.0000 0.0000 2.6079 0.0000 23.3791
#
#
#
# Elastic Compliance Matrix: (Units=1/GPa)
#
#
# Indices 1 2 3 4 5 6 
#
# 1 0.010312 -0.001119 -0.004138 0.000000 -0.004714 0.000000
# 2 -0.001119 0.011961 -0.003594 0.000000 0.001426 0.000000
# 3 -0.004138 -0.003594 0.011787 0.000000 0.005601 0.000000
# 4 0.000000 0.000000 0.000000 0.022154 0.000000 -0.002471
# 5 -0.004714 0.001426 0.005601 0.000000 0.033366 0.000000
# 6 0.000000 0.000000 0.000000 -0.002471 0.000000 0.043049
#
#
# Mechanical properties :
#
#
# Convention : Reuss Voigt Hill
#
# Bulk Modulus (GPa) = 61.13787 63.31459 62.22623
# Shear Modulus (GPa) = 32.09568 35.92187 34.00877
#
# Velocity S-wave (km/s) = 3.76545 3.98357 3.87604
# Velocity P-wave (km/s) = 6.77592 7.00916 6.89352
#
# Compressibility (1/GPa) = 0.01635648
#
# Stress axis : x y z
#
# Youngs Moduli (GPa) = 96.97852 83.60480 84.83896
#
# Poissons Ratio (x) = 0.09359 0.35104
# Poissons Ratio (y) = 0.10856 0.30495
# Poissons Ratio (z) = 0.40127 0.30051
#
# Static dielectric constant tensor:
#      x y z
#    x 3.999150 0.000000 0.132950 
#    y 0.000000 3.966180 0.000000 
#    z 0.132950 0.000000 4.261740 
# 
# 
# High freq. dielectric constant tensor:
#      x y z
#    x 1.881830 0.000000 0.014870 
#    y 0.000000 1.882500 0.000000 
#    z 0.014870 0.000000 1.897130 
# 
# From -- ./inp_files/20725.got.cif
#   From: 2010.03.12/outbox.cif.g09.slc.cpg/sg5_11_cif.got.tgz:20725.got - 2010.03.31 09:47:26.
