data_PCOD8048939
_publ_section_title
;
Structure prediction by ZEFSAII (Michael W. Deem and Ramdas Pophale) SiO2 
 PCOD8048939
Probable space group: C 2
;
_chemical_formula_sum "Si O2"
_cell_formula_units_Z 28
_cell_length_a 19.268068
_cell_length_b 17.164658
_cell_length_c 14.660704
_cell_angle_alpha 90.000000
_cell_angle_beta 19.029990
_cell_angle_gamma 90.000000
_cell_volume 1580.992076
_symmetry_space_group_name_H-M "C 2"
_symmetry_group_IT_number 5
_symmetry_cell_setting 'monoclinic'
loop_
_space_group_symop_operation_xyz
x,y,z
-x,y,-z
1/2+x,1/2+y,z
1/2-x,1/2+y,-z
loop_
_atom_site_type_symbol
_atom_site_label
_atom_site_fract_x
_atom_site_fract_y
_atom_site_fract_z
Si Si1 0.878150 0.740430 0.243919
Si Si2 0.064530 0.298551 0.155656
Si Si3 0.494546 0.298521 0.725734
Si Si4 0.875880 0.411689 0.247888
Si Si5 0.170017 0.134789 0.948015
Si Si6 0.093291 0.634640 0.524986
Si Si7 0.773955 0.577886 0.452175
O O1 0.645242 0.779333 0.524808
O O2 0.856911 0.648366 0.286704
O O3 0.015064 0.779596 0.154843
O O4 0.000000 0.757598 0.000000
O O5 0.020142 0.371783 0.146127
O O6 0.258615 0.317706 0.982533
O O7 0.115485 0.225707 0.027163
O O8 0.646833 0.371675 0.519157
O O9 0.598631 0.225509 0.544463
O O10 0.839508 0.500267 0.320378
O O11 0.000000 0.408610 0.000000
O O12 0.369123 0.110387 0.761506
O O13 0.217950 0.120272 0.781914
O O14 0.979474 0.080838 0.219063
O O15 0.122723 0.580548 0.576006
#
# Coordination Sequence:
#
# PCOD8048939 Si02
#       7
#     4   4   4   4   4   4   4
#     4   9  18  34  55  76 100 134 173 209 247 295
#     4   9  19  35  55  78 101 128 170 217 254 294
#     4   9  19  35  55  78 101 128 170 217 254 294
#     4  11  22  34  51  76 106 136 163 201 257 311
#     4   9  17  32  55  77  96 126 170 215 253 288
#     4   9  17  32  55  77  96 126 170 215 253 288
#     4  10  20  32  48  74 108 136 164 200 246 304
#
# _framework density 17.710398999999999
#
# number of rings (size 3 to 8) (size 9 to 14) (size 15 to 20)
#    0.000    2.571    0.000    2.571    0.000    3.429 
#    0.000    5.714    0.000    5.143    0.000    0.000 
#    0.000    0.000    0.000    0.000    0.000    0.000 
#
# Total GULP energy -173605.614945 kJ/mol
# GULP energy per Si atom -12400.401068 kJ/mol
# Density = 1.767009 g / cm^3
# Si number density = 17.710399 Si / 1000 Ang^3
#
#
#
# Elastic Constant Matrix: (Units=GPa)
#
#
# Indices 1 2 3 4 5 6 
#
# 1 124.0699 50.4652 81.5579 0.0383 -4.4052 -0.0623
# 2 50.4652 94.2668 51.7028 0.1414 2.0221 -0.1264
# 3 81.5579 51.7028 126.3317 0.1353 8.3941 -0.0774
# 4 0.0383 0.1414 0.1353 18.2492 -0.0587 3.5058
# 5 -4.4052 2.0221 8.3941 -0.0587 39.2483 0.0450
# 6 -0.0623 -0.1264 -0.0774 3.5058 0.0450 16.1900
#
#
#
# Elastic Compliance Matrix: (Units=1/GPa)
#
#
# Indices 1 2 3 4 5 6 
#
# 1 0.015363 -0.003518 -0.008729 0.000079 0.003773 -0.000038
# 2 -0.003518 0.014494 -0.003636 -0.000099 -0.000364 0.000105
# 3 -0.008729 -0.003636 0.015310 -0.000088 -0.004067 0.000042
# 4 0.000079 -0.000099 -0.000088 0.057177 0.000133 -0.012382
# 5 0.003773 -0.000364 -0.004067 0.000133 0.026791 -0.000111
# 6 -0.000038 0.000105 0.000042 -0.012382 -0.000111 0.064449
#
#
# Mechanical properties :
#
#
# Convention : Reuss Voigt Hill
#
# Bulk Modulus (GPa) = 74.62797 79.12446 76.87622
# Shear Modulus (GPa) = 21.75643 25.46701 23.61172
#
# Velocity S-wave (km/s) = 3.50873 3.79617 3.65528
# Velocity P-wave (km/s) = 7.65796 7.99927 7.83048
#
# Compressibility (1/GPa) = 0.01339980
#
# Stress axis : x y z
#
# Youngs Moduli (GPa) = 65.09197 68.99392 65.31830
#
# Poissons Ratio (x) = 0.24271 0.57017
# Poissons Ratio (y) = 0.22898 0.23753
# Poissons Ratio (z) = 0.56819 0.25089
#
# Static dielectric constant tensor:
#      x y z
#    x 3.491470 -0.000070 -0.214130 
#    y -0.000070 3.033890 0.000080 
#    z -0.214130 0.000080 3.349180 
# 
# 
# High freq. dielectric constant tensor:
#      x y z
#    x 1.692750 0.000000 -0.005750 
#    y 0.000000 1.663800 0.000010 
#    z -0.005750 0.000010 1.688910 
# 
# From -- ./inp_files/57226.got.cif
#   From: 2010.03.12/outbox.cif.g09.slc.cpg/sg5_29_cif.got.tgz:57226.got - 2010.03.31 09:47:26.
