data_PCOD8048498
_publ_section_title
;
Structure prediction by ZEFSAII (Michael W. Deem and Ramdas Pophale) SiO2 
 PCOD8048498
Probable space group: C 2
;
_chemical_formula_sum "Si O2"
_cell_formula_units_Z 32
_cell_length_a 18.813723
_cell_length_b 13.376777
_cell_length_c 18.493618
_cell_angle_alpha 90.000000
_cell_angle_beta 156.471578
_cell_angle_gamma 90.000000
_cell_volume 1857.988100
_symmetry_space_group_name_H-M "C 2"
_symmetry_group_IT_number 5
_symmetry_cell_setting 'monoclinic'
loop_
_space_group_symop_operation_xyz
x,y,z
-x,y,-z
1/2+x,1/2+y,z
1/2-x,1/2+y,-z
loop_
_atom_site_type_symbol
_atom_site_label
_atom_site_fract_x
_atom_site_fract_y
_atom_site_fract_z
Si Si1 0.798710 0.228170 0.308035
Si Si2 0.368967 0.492186 0.620707
Si Si3 0.895720 0.406458 0.735869
Si Si4 0.269209 0.485376 0.120085
Si Si5 0.303735 0.010246 0.792111
Si Si6 0.886676 0.220806 0.636211
Si Si7 0.743815 0.218085 0.092452
Si Si8 0.381982 0.306879 0.724167
O O1 0.729246 0.246745 0.162841
O O2 0.679311 0.293235 0.250616
O O3 0.000000 0.265847 0.500000
O O4 0.792207 0.110994 0.324989
O O5 0.195808 0.478323 0.408795
O O6 0.544792 0.455962 0.742183
O O7 0.385339 0.606461 0.661535
O O8 0.353143 0.422924 0.676680
O O9 0.809189 0.428575 0.733450
O O10 0.859368 0.291116 0.680775
O O11 0.108209 0.422400 0.935517
O O12 0.294687 0.463458 0.229792
O O13 0.218319 0.600213 0.059685
O O14 0.500000 0.043189 0.000000
O O15 0.729579 0.235201 0.432476
O O16 0.069136 0.251716 0.766712
O O17 0.587310 0.276083 0.905417
#
# Coordination Sequence:
#
# PCOD8048498 Si02
#       8
#     4   4   4   4   4   4   4   4
#     4  11  19  30  51  77 100 124 159 208 255 293
#     4  10  21  32  50  73  98 134 167 200 239 294
#     4  10  19  31  50  73 104 132 159 203 247 291
#     4   9  18  32  49  77  99 125 161 203 251 291
#     4   9  18  30  49  77 101 127 156 202 255 295
#     4  10  20  34  49  75 101 133 168 199 241 290
#     4  10  19  32  53  74 104 125 157 209 251 294
#     4  11  20  33  50  76 100 132 164 199 252 296
#
# _framework density 17.222932
#
# number of rings (size 3 to 8) (size 9 to 14) (size 15 to 20)
#    0.000    2.000    1.250    4.875    3.500    0.000 
#    0.000    0.000    0.000    4.500    6.500    0.000 
#    0.000    0.000    0.000    0.000    0.000    0.000 
#
# Total GULP energy -198414.072671 kJ/mol
# GULP energy per Si atom -12400.879542 kJ/mol
# Density = 1.718373 g / cm^3
# Si number density = 17.222932 Si / 1000 Ang^3
#
#
#
# Elastic Constant Matrix: (Units=GPa)
#
#
# Indices 1 2 3 4 5 6 
#
# 1 83.3849 47.4807 29.5783 -0.0032 -2.0790 0.0002
# 2 47.4807 82.6387 34.2510 0.0035 -4.2000 0.0024
# 3 29.5783 34.2510 89.2279 0.0054 -1.1096 0.0043
# 4 -0.0032 0.0035 0.0054 19.2828 0.0026 -3.3030
# 5 -2.0790 -4.2000 -1.1096 0.0026 21.7541 0.0018
# 6 0.0002 0.0024 0.0043 -3.3030 0.0018 25.2668
#
#
#
# Elastic Compliance Matrix: (Units=1/GPa)
#
#
# Indices 1 2 3 4 5 6 
#
# 1 0.018250 -0.009499 -0.002406 0.000006 -0.000213 0.000002
# 2 -0.009499 0.019472 -0.004293 -0.000005 0.002633 -0.000002
# 3 -0.002406 -0.004293 0.013648 -0.000004 -0.000363 -0.000002
# 4 0.000006 -0.000005 -0.000004 0.053048 -0.000008 0.006935
# 5 -0.000213 0.002633 -0.000363 -0.000008 0.046438 -0.000004
# 6 0.000002 -0.000002 -0.000002 0.006935 -0.000004 0.040484
#
#
# Mechanical properties :
#
#
# Convention : Reuss Voigt Hill
#
# Bulk Modulus (GPa) = 52.70419 53.09681 52.90050
# Shear Modulus (GPa) = 21.73353 22.85683 22.29518
#
# Velocity S-wave (km/s) = 3.55617 3.64691 3.60183
# Velocity P-wave (km/s) = 6.89416 6.97348 6.93393
#
# Compressibility (1/GPa) = 0.01897382
#
# Stress axis : x y z
#
# Youngs Moduli (GPa) = 54.79556 51.35668 73.27017
#
# Poissons Ratio (x) = 0.48784 0.17628
# Poissons Ratio (y) = 0.52051 0.31453
# Poissons Ratio (z) = 0.13183 0.22046
#
# Static dielectric constant tensor:
#      x y z
#    x 3.263870 0.000000 0.071590 
#    y 0.000000 2.968610 0.000000 
#    z 0.071590 0.000000 3.326280 
# 
# 
# High freq. dielectric constant tensor:
#      x y z
#    x 1.655410 0.000000 0.005070 
#    y 0.000000 1.634130 0.000000 
#    z 0.005070 0.000000 1.683230 
# 
# From -- ./inp_files/63036.got.cif
#   From: 2010.03.12/outbox.cif.g09.slc.cpg/sg5_32_cif.got.tgz:63036.got - 2010.03.31 09:47:26.
