data_PCOD8048101
_publ_section_title
;
Structure prediction by ZEFSAII (Michael W. Deem and Ramdas Pophale) SiO2 
 PCOD8048101
Probable space group: C 2
;
_chemical_formula_sum "Si O2"
_cell_formula_units_Z 20
_cell_length_a 19.368700
_cell_length_b 5.260994
_cell_length_c 18.071174
_cell_angle_alpha 90.000000
_cell_angle_beta 146.663099
_cell_angle_gamma 90.000000
_cell_volume 1011.976791
_symmetry_space_group_name_H-M "C 2"
_symmetry_group_IT_number 5
_symmetry_cell_setting 'monoclinic'
loop_
_space_group_symop_operation_xyz
x,y,z
-x,y,-z
1/2+x,1/2+y,z
1/2-x,1/2+y,-z
loop_
_atom_site_type_symbol
_atom_site_label
_atom_site_fract_x
_atom_site_fract_y
_atom_site_fract_z
Si Si1 0.408647 0.925270 0.658952
Si Si2 0.128211 0.433190 0.068261
Si Si3 0.829353 0.485811 0.061048
Si Si4 0.192238 0.925656 0.358561
Si Si5 0.148843 0.932882 0.148525
O O1 0.336232 0.944913 0.515883
O O2 0.388093 0.648865 0.676141
O O3 0.362773 0.149839 0.671923
O O4 0.557726 0.957270 0.778677
O O5 0.104804 0.458424 0.960140
O O6 0.209066 0.674045 0.169675
O O7 0.204580 0.173284 0.153265
O O8 0.000000 0.407731 0.000000
O O9 0.771960 0.766037 0.016973
O O10 0.186854 0.966258 0.266867
O O11 0.000000 0.906588 0.000000
#
# Coordination Sequence:
#
# PCOD8048101 Si02
#       5
#     4   4   4   4   4
#     4  10  20  35  54  83 117 152 191 232 291 337
#     4  10  20  34  56  81 108 143 191 237 273 326
#     4  12  24  39  59  85 121 155 188 234 290 349
#     4  10  19  33  58  86 114 145 191 250 280 326
#     4  10  17  29  52  81 108 133 178 235 285 320
#
# _framework density 19.763297999999999
#
# number of rings (size 3 to 8) (size 9 to 14) (size 15 to 20)
#    0.000    1.600    0.000    8.400    0.000    0.000 
#    0.000    0.000    0.000    7.200    0.000    0.000 
#    0.000    0.000    0.000    0.000    0.000    0.000 
#
# Total GULP energy -123946.871696 kJ/mol
# GULP energy per Si atom -12394.687170 kJ/mol
# Density = 1.971832 g / cm^3
# Si number density = 19.763298 Si / 1000 Ang^3
#
#
#
# Elastic Constant Matrix: (Units=GPa)
#
#
# Indices 1 2 3 4 5 6 
#
# 1 51.1687 -3.4938 18.1338 0.0000 -11.0959 -0.0001
# 2 -3.4938 130.6484 8.7820 0.0011 -3.5300 0.0004
# 3 18.1338 8.7820 119.7496 0.0005 -10.5017 0.0003
# 4 0.0000 0.0011 0.0005 24.0951 0.0001 -6.6039
# 5 -11.0959 -3.5300 -10.5017 0.0001 29.6455 0.0001
# 6 -0.0001 0.0004 0.0003 -6.6039 0.0001 28.8903
#
#
#
# Elastic Compliance Matrix: (Units=1/GPa)
#
#
# Indices 1 2 3 4 5 6 
#
# 1 0.022211 0.000982 -0.002783 0.000000 0.007444 0.000000
# 2 0.000982 0.007751 -0.000623 0.000000 0.001070 0.000000
# 3 -0.002783 -0.000623 0.009000 0.000000 0.002072 0.000000
# 4 0.000000 0.000000 0.000000 0.044276 0.000000 0.010121
# 5 0.007444 0.001070 0.002072 0.000000 0.037380 0.000000
# 6 0.000000 0.000000 0.000000 0.010121 0.000000 0.036927
#
#
# Mechanical properties :
#
#
# Convention : Reuss Voigt Hill
#
# Bulk Modulus (GPa) = 29.31357 38.71229 34.01293
# Shear Modulus (GPa) = 28.77478 35.06916 31.92197
#
# Velocity S-wave (km/s) = 3.81986 4.21700 4.02333
# Velocity P-wave (km/s) = 5.85829 6.58341 6.23141
#
# Compressibility (1/GPa) = 0.03411389
#
# Stress axis : x y z
#
# Youngs Moduli (GPa) = 45.02338 129.01226 111.11639
#
# Poissons Ratio (x) = -0.12671 0.30919
# Poissons Ratio (y) = -0.04422 0.06927
# Poissons Ratio (z) = 0.12528 0.08042
#
# Static dielectric constant tensor:
#      x y z
#    x 3.222520 0.000000 -0.263770 
#    y 0.000000 5.129250 0.000000 
#    z -0.263770 0.000000 3.620740 
# 
# 
# High freq. dielectric constant tensor:
#      x y z
#    x 1.730190 0.000000 -0.031840 
#    y 0.000000 1.814980 0.000000 
#    z -0.031840 0.000000 1.751060 
# 
# From -- ./inp_files/25932.got.cif
#   From: 2010.03.12/outbox.cif.g09.slc.cpg/sg5_13_cif.got.tgz:25932.got - 2010.03.31 09:47:26.
