data_PCOD8048826
_publ_section_title
;
Structure prediction by ZEFSAII (Michael W. Deem and Ramdas Pophale) SiO2 
 PCOD8048826
Probable space group: C 2
;
_chemical_formula_sum "Si O2"
_cell_formula_units_Z 32
_cell_length_a 18.775174
_cell_length_b 9.168179
_cell_length_c 27.401128
_cell_angle_alpha 90.000000
_cell_angle_beta 159.953763
_cell_angle_gamma 90.000000
_cell_volume 1616.772386
_symmetry_space_group_name_H-M "C 2"
_symmetry_group_IT_number 5
_symmetry_cell_setting 'monoclinic'
loop_
_space_group_symop_operation_xyz
x,y,z
-x,y,-z
1/2+x,1/2+y,z
1/2-x,1/2+y,-z
loop_
_atom_site_type_symbol
_atom_site_label
_atom_site_fract_x
_atom_site_fract_y
_atom_site_fract_z
Si Si1 0.813074 0.017500 0.796115
Si Si2 0.683762 0.690674 0.010630
Si Si3 0.408101 0.016653 0.077874
Si Si4 0.402872 0.667261 0.566727
Si Si5 0.770319 0.420737 0.361573
Si Si6 0.385722 0.126311 0.704730
Si Si7 0.146351 0.505992 0.481403
Si Si8 0.385451 0.193573 0.875590
O O1 0.590730 0.064675 0.675418
O O2 0.987862 0.139961 0.917497
O O3 0.801246 0.015089 0.729972
O O4 0.888951 0.864903 0.866737
O O5 0.665122 0.860767 0.987515
O O6 0.713736 0.601921 0.978380
O O7 0.887909 0.652069 0.175352
O O8 0.591458 0.003371 0.237772
O O9 0.488510 0.107519 0.083829
O O10 0.296509 0.591168 0.450710
O O11 0.301330 0.600231 0.549182
O O12 0.647690 0.635928 0.724036
O O13 0.350648 0.837550 0.532645
O O14 0.634958 0.276909 0.279006
O O15 0.767501 0.520650 0.408221
O O16 0.000000 0.358767 0.500000
O O17 0.500000 0.163158 0.000000
#
# Coordination Sequence:
#
# PCOD8048826 Si02
#       8
#     4   4   4   4   4   4   4   4
#     4  10  19  39  60  86 121 153 208 250 307 357
#     4  10  21  36  62  91 118 159 203 258 297 359
#     4  10  21  39  60  92 120 156 212 251 305 355
#     4  10  22  41  57  89 122 163 203 245 309 365
#     4   9  16  34  63  82 109 163 206 244 293 365
#     4   9  20  34  62  83 118 160 202 245 301 355
#     4   9  21  37  60  84 119 163 201 249 299 358
#     4  11  24  39  62  92 122 161 199 257 313 366
#
# _framework density 19.792521000000001
#
# number of rings (size 3 to 8) (size 9 to 14) (size 15 to 20)
#    0.750    1.500    1.250    2.250    0.000    6.000 
#    2.250    0.625    2.750    0.000    0.000    0.000 
#    0.000    0.000    0.000    0.000    0.000    0.000 
#
# Total GULP energy -198223.485311 kJ/mol
# GULP energy per Si atom -12388.967832 kJ/mol
# Density = 1.974747 g / cm^3
# Si number density = 19.792521 Si / 1000 Ang^3
#
#
#
# Elastic Constant Matrix: (Units=GPa)
#
#
# Indices 1 2 3 4 5 6 
#
# 1 84.5424 11.2861 28.7208 -0.0222 1.6895 -0.0036
# 2 11.2861 32.5071 10.4742 -0.0308 8.5881 0.0038
# 3 28.7208 10.4742 108.5674 0.0441 -5.6892 -0.0291
# 4 -0.0222 -0.0308 0.0441 23.2928 0.0421 13.5390
# 5 1.6895 8.5881 -5.6892 0.0421 37.7298 -0.0109
# 6 -0.0036 0.0038 -0.0291 13.5390 -0.0109 28.4413
#
#
#
# Elastic Compliance Matrix: (Units=1/GPa)
#
#
# Indices 1 2 3 4 5 6 
#
# 1 0.013400 -0.003542 -0.003218 0.000021 -0.000279 -0.000011
# 2 -0.003542 0.035105 -0.002883 0.000097 -0.008267 -0.000057
# 3 -0.003218 -0.002883 0.010465 -0.000052 0.002378 0.000036
# 4 0.000021 0.000097 -0.000052 0.059356 -0.000105 -0.028256
# 5 -0.000279 -0.008267 0.002378 -0.000105 0.028757 0.000065
# 6 -0.000011 -0.000057 0.000036 -0.028256 0.000065 0.048611
#
#
# Mechanical properties :
#
#
# Convention : Reuss Voigt Hill
#
# Bulk Modulus (GPa) = 25.19859 36.28659 30.74259
# Shear Modulus (GPa) = 21.90985 29.56847 25.73916
#
# Velocity S-wave (km/s) = 3.33073 3.86932 3.61009
# Velocity P-wave (km/s) = 5.24888 6.19157 5.73961
#
# Compressibility (1/GPa) = 0.03968477
#
# Stress axis : x y z
#
# Youngs Moduli (GPa) = 74.62729 28.48573 95.55707
#
# Poissons Ratio (x) = 0.10089 0.30748
# Poissons Ratio (y) = 0.26431 0.27551
# Poissons Ratio (z) = 0.24014 0.08213
#
# Static dielectric constant tensor:
#      x y z
#    x 3.625230 0.000010 0.040090 
#    y 0.000010 3.226370 -0.000030 
#    z 0.040090 -0.000030 3.977090 
# 
# 
# High freq. dielectric constant tensor:
#      x y z
#    x 1.769430 0.000000 0.009550 
#    y 0.000000 1.741180 -0.000010 
#    z 0.009550 -0.000010 1.782340 
# 
# From -- ./inp_files/72255.got.cif
#   From: 2010.03.12/outbox.cif.g09.slc.cpg/sg5_37_cif.got.tgz:72255.got - 2010.03.31 09:47:26.
