data_PCOD8048333
_publ_section_title
;
Structure prediction by ZEFSAII (Michael W. Deem and Ramdas Pophale) SiO2 
 PCOD8048333
Probable space group: C 2
;
_chemical_formula_sum "Si O2"
_cell_formula_units_Z 26
_cell_length_a 32.390402
_cell_length_b 4.996813
_cell_length_c 8.212609
_cell_angle_alpha 90.000000
_cell_angle_beta 115.821344
_cell_angle_gamma 90.000000
_cell_volume 1196.488806
_symmetry_space_group_name_H-M "C 2"
_symmetry_group_IT_number 5
_symmetry_cell_setting 'monoclinic'
loop_
_space_group_symop_operation_xyz
x,y,z
-x,y,-z
1/2+x,1/2+y,z
1/2-x,1/2+y,-z
loop_
_atom_site_type_symbol
_atom_site_label
_atom_site_fract_x
_atom_site_fract_y
_atom_site_fract_z
Si Si1 0.870745 0.105730 0.852870
Si Si2 0.091239 0.647816 0.584695
Si Si3 0.072369 0.146052 0.351259
Si Si4 0.919857 0.600377 0.065303
Si Si5 0.500000 0.906082 0.000000
Si Si6 0.709225 0.729561 0.083075
Si Si7 0.692237 0.231268 0.844428
O O1 0.882214 0.162381 0.684293
O O2 0.898642 0.303497 0.020941
O O3 0.816554 0.156525 0.792266
O O4 0.884890 0.803764 0.919370
O O5 0.077937 0.352463 0.507125
O O6 0.072586 0.686411 0.735278
O O7 0.145975 0.686038 0.664672
O O8 0.066353 0.854698 0.420652
O O9 0.028075 0.209421 0.166594
O O10 0.967793 0.601949 0.050589
O O11 0.691104 0.530377 0.912060
O O12 0.696054 0.027239 0.002561
O O13 0.764009 0.695735 0.200680
#
# Coordination Sequence:
#
# PCOD8048333 Si02
#       7
#     4   4   4   4   2   4   4
#     4  11  20  41  62  94 119 180 200 253 298 395
#     4  12  22  42  62 101 119 167 194 278 306 369
#     4  11  26  40  66  85 133 156 215 251 332 358
#     4  11  23  40  71  85 128 153 222 252 320 359
#     4  10  26  50  60  94 114 178 208 266 302 410
#     4  10  18  35  61  94 124 169 208 247 290 376
#     4  10  20  33  62  95 129 156 211 255 299 360
#
# _framework density 21.730249000000001
#
# number of rings (size 3 to 8) (size 9 to 14) (size 15 to 20)
#    0.000    1.231    3.077    3.692    0.000    6.154 
#    0.000    4.615    0.000    0.000    0.000    0.000 
#    0.000    0.000    0.000    0.000    0.000    0.000 
#
# Total GULP energy -161237.333344 kJ/mol
# GULP energy per Si atom -12402.871796 kJ/mol
# Density = 2.168079 g / cm^3
# Si number density = 21.730249 Si / 1000 Ang^3
#
#
#
# Elastic Constant Matrix: (Units=GPa)
#
#
# Indices 1 2 3 4 5 6 
#
# 1 143.2818 18.2012 32.5642 0.0000 -19.1868 0.0000
# 2 18.2012 83.1782 14.7350 0.0000 -5.1278 0.0000
# 3 32.5642 14.7350 76.7719 0.0000 -4.6118 0.0000
# 4 0.0000 0.0000 0.0000 34.1639 0.0000 0.4250
# 5 -19.1868 -5.1278 -4.6118 0.0000 36.1984 0.0000
# 6 0.0000 0.0000 0.0000 0.4250 0.0000 29.1879
#
#
#
# Elastic Compliance Matrix: (Units=1/GPa)
#
#
# Indices 1 2 3 4 5 6 
#
# 1 0.008335 -0.001035 -0.003104 0.000000 0.003876 0.000000
# 2 -0.001035 0.012652 -0.001929 0.000000 0.000998 0.000000
# 3 -0.003104 -0.001929 0.014710 0.000000 -0.000045 0.000000
# 4 0.000000 0.000000 0.000000 0.029276 0.000000 -0.000426
# 5 0.003876 0.000998 -0.000045 0.000000 0.029816 0.000000
# 6 0.000000 0.000000 0.000000 -0.000426 0.000000 0.034267
#
#
# Mechanical properties :
#
#
# Convention : Reuss Voigt Hill
#
# Bulk Modulus (GPa) = 42.44431 48.24808 45.34619
# Shear Modulus (GPa) = 33.54661 35.75880 34.65270
#
# Velocity S-wave (km/s) = 3.93335 4.06097 3.99767
# Velocity P-wave (km/s) = 6.34059 6.65132 6.49781
#
# Compressibility (1/GPa) = 0.02356028
#
# Stress axis : x y z
#
# Youngs Moduli (GPa) = 119.97258 79.03768 67.98152
#
# Poissons Ratio (x) = 0.08181 0.21102
# Poissons Ratio (y) = 0.12418 0.13116
# Poissons Ratio (z) = 0.37240 0.15249
#
# Static dielectric constant tensor:
#      x y z
#    x 4.367400 0.000000 -0.090380 
#    y 0.000000 3.997370 0.000000 
#    z -0.090380 0.000000 3.471140 
# 
# 
# High freq. dielectric constant tensor:
#      x y z
#    x 1.867880 0.000000 -0.008840 
#    y 0.000000 1.871500 0.000000 
#    z -0.008840 0.000000 1.812660 
# 
# From -- ./inp_files/32079.got.cif
#   From: 2010.03.12/outbox.cif.g09.slc.cpg/sg5_17_cif.got.tgz:32079.got - 2010.03.31 09:47:26.
