data_PCOD8048397
_publ_section_title
;
Structure prediction by ZEFSAII (Michael W. Deem and Ramdas Pophale) SiO2 
 PCOD8048397
Probable space group: C 2
;
_chemical_formula_sum "Si O2"
_cell_formula_units_Z 30
_cell_length_a 19.782017
_cell_length_b 8.824751
_cell_length_c 16.136179
_cell_angle_alpha 90.000000
_cell_angle_beta 31.171044
_cell_angle_gamma 90.000000
_cell_volume 1458.020137
_symmetry_space_group_name_H-M "C 2"
_symmetry_group_IT_number 5
_symmetry_cell_setting 'monoclinic'
loop_
_space_group_symop_operation_xyz
x,y,z
-x,y,-z
1/2+x,1/2+y,z
1/2-x,1/2+y,-z
loop_
_atom_site_type_symbol
_atom_site_label
_atom_site_fract_x
_atom_site_fract_y
_atom_site_fract_z
Si Si1 0.593139 0.255600 0.331785
Si Si2 0.000000 0.212754 0.000000
Si Si3 0.068252 0.954397 0.604993
Si Si4 0.506411 0.749288 0.591729
Si Si5 0.288697 0.285230 0.263294
Si Si6 0.766980 0.446941 0.258345
Si Si7 0.011646 0.963093 0.846639
Si Si8 0.269928 0.956261 0.836735
O O1 0.500000 0.179151 0.500000
O O2 0.512003 0.302729 0.335012
O O3 0.655935 0.405243 0.308007
O O4 0.700218 0.134321 0.191437
O O5 0.877458 0.323242 0.130673
O O6 0.993964 0.112732 0.090051
O O7 0.209177 0.944577 0.412438
O O8 0.092639 0.980922 0.676816
O O9 0.978926 0.091839 0.665309
O O10 0.500000 0.728666 0.500000
O O11 0.656081 0.795376 0.457977
O O12 0.396276 0.866677 0.738723
O O13 0.418384 0.325354 0.178690
O O14 0.269817 0.414324 0.214790
O O15 0.311564 0.120768 0.196399
O O16 0.863310 0.921902 0.972834
#
# Coordination Sequence:
#
# PCOD8048397 Si02
#       8
#     4   2   4   4   4   4   4   4
#     4  10  18  37  63  91 122 162 209 260 313 371
#     4  12  24  42  66  92 126 166 212 260 312 374
#     4  10  23  40  61  91 131 162 206 261 312 371
#     4   9  19  39  66  89 115 165 216 252 308 375
#     4  10  20  39  63  89 116 165 212 250 307 378
#     4  10  22  40  67  92 119 166 214 256 309 375
#     4  12  24  40  61  92 133 165 202 261 318 370
#     4  11  20  36  62  94 121 165 206 258 305 376
#
# _framework density 20.575847
#
# number of rings (size 3 to 8) (size 9 to 14) (size 15 to 20)
#    0.000    1.600    2.667    4.000    1.867    4.267 
#    0.000    1.333    0.000    0.000    0.000    0.000 
#    0.000    0.000    0.000    0.000    0.000    0.000 
#
# Total GULP energy -185888.956489 kJ/mol
# GULP energy per Si atom -12392.597099 kJ/mol
# Density = 2.052902 g / cm^3
# Si number density = 20.575847 Si / 1000 Ang^3
#
#
#
# Elastic Constant Matrix: (Units=GPa)
#
#
# Indices 1 2 3 4 5 6 
#
# 1 58.1086 33.2265 25.5967 0.0000 6.4386 0.0000
# 2 33.2265 95.9032 22.7783 -0.0002 -6.9587 0.0001
# 3 25.5967 22.7783 70.7867 -0.0001 -11.9466 0.0001
# 4 0.0000 -0.0002 -0.0001 33.8088 0.0001 -12.8774
# 5 6.4386 -6.9587 -11.9466 0.0001 34.3079 0.0000
# 6 0.0000 0.0001 0.0001 -12.8774 0.0000 20.0018
#
#
#
# Elastic Compliance Matrix: (Units=1/GPa)
#
#
# Indices 1 2 3 4 5 6 
#
# 1 0.026600 -0.007843 -0.008718 0.000000 -0.009619 0.000000
# 2 -0.007843 0.013641 -0.000890 0.000000 0.003929 0.000000
# 3 -0.008718 -0.000890 0.018924 0.000000 0.008045 0.000000
# 4 0.000000 0.000000 0.000000 0.039188 0.000000 0.025229
# 5 -0.009619 0.003929 0.008045 0.000000 0.034551 0.000000
# 6 0.000000 0.000000 0.000000 0.025229 0.000000 0.066238
#
#
# Mechanical properties :
#
#
# Convention : Reuss Voigt Hill
#
# Bulk Modulus (GPa) = 41.21757 43.11127 42.16442
# Shear Modulus (GPa) = 20.64986 27.17018 23.91002
#
# Velocity S-wave (km/s) = 3.17140 3.63780 3.41257
# Velocity P-wave (km/s) = 5.78670 6.21632 6.00535
#
# Compressibility (1/GPa) = 0.02426150
#
# Stress axis : x y z
#
# Youngs Moduli (GPa) = 37.59411 73.30833 52.84363
#
# Poissons Ratio (x) = 0.57496 0.46070
# Poissons Ratio (y) = 0.29485 0.04705
# Poissons Ratio (z) = 0.32775 0.06527
#
# Static dielectric constant tensor:
#      x y z
#    x 3.467590 0.000000 -0.282610 
#    y 0.000000 3.719440 0.000000 
#    z -0.282610 0.000000 4.026800 
# 
# 
# High freq. dielectric constant tensor:
#      x y z
#    x 1.773970 0.000000 -0.024050 
#    y 0.000000 1.806880 0.000000 
#    z -0.024050 0.000000 1.805310 
# 
# From -- ./inp_files/44334.got.cif
#   From: 2010.03.12/outbox.cif.g09.slc.cpg/sg5_23_cif.got.tgz:44334.got - 2010.03.31 09:47:26.
