data_PCOD8048371
_publ_section_title
;
Structure prediction by ZEFSAII (Michael W. Deem and Ramdas Pophale) SiO2 
 PCOD8048371
Probable space group: C 2
;
_chemical_formula_sum "Si O2"
_cell_formula_units_Z 28
_cell_length_a 14.107236
_cell_length_b 13.086057
_cell_length_c 9.412097
_cell_angle_alpha 90.000000
_cell_angle_beta 51.008080
_cell_angle_gamma 90.000000
_cell_volume 1350.483606
_symmetry_space_group_name_H-M "C 2"
_symmetry_group_IT_number 5
_symmetry_cell_setting 'monoclinic'
loop_
_space_group_symop_operation_xyz
x,y,z
-x,y,-z
1/2+x,1/2+y,z
1/2-x,1/2+y,-z
loop_
_atom_site_type_symbol
_atom_site_label
_atom_site_fract_x
_atom_site_fract_y
_atom_site_fract_z
Si Si1 0.409383 0.156970 0.950652
Si Si2 0.358422 0.932760 0.635002
Si Si3 0.366434 0.882254 0.177493
Si Si4 0.025602 0.878202 0.135014
Si Si5 0.244454 0.979871 0.042393
Si Si6 0.871865 0.574676 0.372851
Si Si7 0.772416 0.789644 0.442911
O O1 0.385763 0.278014 0.960444
O O2 0.488764 0.115057 0.741797
O O3 0.500000 0.137052 0.000000
O O4 0.282680 0.092402 0.067210
O O5 0.500000 0.908500 0.500000
O O6 0.294503 0.831804 0.633018
O O7 0.325832 0.029402 0.565133
O O8 0.314279 0.956513 0.832226
O O9 0.282217 0.893322 0.118973
O O10 0.306018 0.800025 0.339440
O O11 0.370815 0.989673 0.252862
O O12 0.500000 0.846300 0.000000
O O13 0.098969 0.966952 0.151102
O O14 0.902028 0.849355 0.335161
O O15 0.000000 0.918946 0.000000
O O16 0.788150 0.669188 0.401620
#
# Coordination Sequence:
#
# PCOD8048371 Si02
#       7
#     4   4   4   4   4   4   4
#     4  10  18  36  63  90 115 164 219 257 306 386
#     4  11  21  36  64  94 122 161 216 267 312 376
#     4  11  21  40  68  96 127 166 216 272 318 375
#     4  10  22  38  61  92 128 170 205 263 323 377
#     4  12  20  34  63  93 126 157 216 265 315 371
#     4  10  19  39  65  87 121 168 208 258 316 376
#     4  10  23  41  65  91 133 165 213 262 326 380
#
# _framework density 20.733315000000001
#
# number of rings (size 3 to 8) (size 9 to 14) (size 15 to 20)
#    0.000    1.429    5.714    0.857    0.000    1.714 
#    0.000    0.000   25.143    0.857    0.000    0.000 
#    0.000    0.000    0.000    0.000    0.000    0.000 
#
# Total GULP energy -173503.451452 kJ/mol
# GULP energy per Si atom -12393.103675 kJ/mol
# Density = 2.068612 g / cm^3
# Si number density = 20.733315 Si / 1000 Ang^3
#
#
#
# Elastic Constant Matrix: (Units=GPa)
#
#
# Indices 1 2 3 4 5 6 
#
# 1 107.7949 33.9204 16.5919 0.0000 -7.7748 0.0000
# 2 33.9204 72.0509 2.0756 0.0000 -11.7323 0.0000
# 3 16.5919 2.0756 99.8724 0.0000 -3.9294 0.0000
# 4 0.0000 0.0000 0.0000 26.2250 0.0000 -7.6148
# 5 -7.7748 -11.7323 -3.9294 0.0000 36.2666 0.0000
# 6 0.0000 0.0000 0.0000 -7.6148 0.0000 35.3123
#
#
#
# Elastic Compliance Matrix: (Units=1/GPa)
#
#
# Indices 1 2 3 4 5 6 
#
# 1 0.011198 -0.005132 -0.001732 0.000000 0.000553 0.000000
# 2 -0.005132 0.017004 0.000675 0.000000 0.004474 0.000000
# 3 -0.001732 0.000675 0.010324 0.000000 0.000966 0.000000
# 4 0.000000 0.000000 0.000000 0.040679 0.000000 0.008772
# 5 0.000553 0.004474 0.000966 0.000000 0.029244 0.000000
# 6 0.000000 0.000000 0.000000 0.008772 0.000000 0.030210
#
#
# Mechanical properties :
#
#
# Convention : Reuss Voigt Hill
#
# Bulk Modulus (GPa) = 38.24187 42.76600 40.50393
# Shear Modulus (GPa) = 31.29810 34.70279 33.00045
#
# Velocity S-wave (km/s) = 3.88952 4.09561 3.99389
# Velocity P-wave (km/s) = 6.21738 6.56025 6.39111
#
# Compressibility (1/GPa) = 0.02614935
#
# Stress axis : x y z
#
# Youngs Moduli (GPa) = 89.29953 58.80891 96.85717
#
# Poissons Ratio (x) = 0.30181 0.16775
# Poissons Ratio (y) = 0.45829 -0.06540
# Poissons Ratio (z) = 0.15466 -0.03971
#
# Static dielectric constant tensor:
#      x y z
#    x 3.913470 0.000000 -0.005500 
#    y 0.000000 3.759300 0.000000 
#    z -0.005500 0.000000 4.203500 
# 
# 
# High freq. dielectric constant tensor:
#      x y z
#    x 1.801130 0.000000 0.008010 
#    y 0.000000 1.790760 0.000000 
#    z 0.008010 0.000000 1.818210 
# 
# From -- ./inp_files/20542.got.cif
#   From: 2010.03.12/outbox.cif.g09.slc.cpg/sg5_11_cif.got.tgz:20542.got - 2010.03.31 09:47:26.
