data_PCOD8048385
_publ_section_title
;
Structure prediction by ZEFSAII (Michael W. Deem and Ramdas Pophale) SiO2 
 PCOD8048385
Probable space group: C 2
;
_chemical_formula_sum "Si O2"
_cell_formula_units_Z 30
_cell_length_a 15.562696
_cell_length_b 11.817985
_cell_length_c 9.100079
_cell_angle_alpha 90.000000
_cell_angle_beta 92.681959
_cell_angle_gamma 90.000000
_cell_volume 1671.850615
_symmetry_space_group_name_H-M "C 2"
_symmetry_group_IT_number 5
_symmetry_cell_setting 'monoclinic'
loop_
_space_group_symop_operation_xyz
x,y,z
-x,y,-z
1/2+x,1/2+y,z
1/2-x,1/2+y,-z
loop_
_atom_site_type_symbol
_atom_site_label
_atom_site_fract_x
_atom_site_fract_y
_atom_site_fract_z
Si Si1 0.378108 0.123550 0.368668
Si Si2 0.807120 0.058881 0.688241
Si Si3 0.500000 0.940619 0.500000
Si Si4 0.781485 0.704804 0.645091
Si Si5 0.118436 0.865373 0.136079
Si Si6 0.076467 0.839538 0.805127
Si Si7 0.205058 0.973250 0.635611
Si Si8 0.842960 0.298517 0.589177
O O1 0.293119 0.076024 0.284450
O O2 0.351911 0.176813 0.524345
O O3 0.419288 0.217566 0.269209
O O4 0.446016 0.021431 0.387316
O O5 0.854952 0.180048 0.676376
O O6 0.845927 0.990579 0.827455
O O7 0.816420 0.986379 0.538963
O O8 0.434845 0.859864 0.583767
O O9 0.825218 0.770367 0.780378
O O10 0.742319 0.588856 0.706111
O O11 0.701170 0.775516 0.572901
O O12 0.022410 0.867949 0.186905
O O13 0.124652 0.838531 0.964951
O O14 0.117690 0.937300 0.708442
O O15 0.276807 0.877722 0.672509
#
# Coordination Sequence:
#
# PCOD8048385 Si02
#       8
#     4   4   2   4   4   4   4   4
#     4  10  19  34  60  83 111 147 177 236 284 333
#     4  10  20  37  59  78 115 148 185 226 285 338
#     4  12  18  30  58  94 112 136 180 246 284 322
#     4  10  19  37  59  83 112 141 187 227 286 339
#     4  11  23  37  53  86 111 151 191 232 269 332
#     4  11  23  36  55  81 116 148 193 230 272 328
#     4  10  18  37  56  81 110 143 182 229 278 336
#     4  10  19  33  56  89 109 136 181 230 280 334
#
# _framework density 17.944185000000001
#
# number of rings (size 3 to 8) (size 9 to 14) (size 15 to 20)
#    0.000    1.867    6.667    0.800    0.000    4.800 
#    0.000    0.000    0.000    0.000    0.000    0.000 
#    0.000    0.000    0.000    0.000    0.000    0.000 
#
# Total GULP energy -185978.245039 kJ/mol
# GULP energy per Si atom -12398.549669 kJ/mol
# Density = 1.790334 g / cm^3
# Si number density = 17.944185 Si / 1000 Ang^3
#
#
#
# Elastic Constant Matrix: (Units=GPa)
#
#
# Indices 1 2 3 4 5 6 
#
# 1 76.4914 43.0665 14.6263 0.0000 -0.0994 0.0000
# 2 43.0665 128.5834 29.4574 0.0000 7.4773 0.0000
# 3 14.6263 29.4574 17.7600 0.0000 4.3869 0.0000
# 4 0.0000 0.0000 0.0000 5.0582 0.0000 6.4922
# 5 -0.0994 7.4773 4.3869 0.0000 25.6786 0.0000
# 6 0.0000 0.0000 0.0000 6.4922 0.0000 38.9009
#
#
#
# Elastic Compliance Matrix: (Units=1/GPa)
#
#
# Indices 1 2 3 4 5 6 
#
# 1 0.016825 -0.003976 -0.007898 0.000000 0.002572 0.000000
# 2 -0.003976 0.013483 -0.018914 0.000000 -0.000710 0.000000
# 3 -0.007898 -0.018914 0.096918 0.000000 -0.011081 0.000000
# 4 0.000000 0.000000 0.000000 0.251592 0.000000 -0.041989
# 5 0.002572 -0.000710 -0.011081 0.000000 0.041053 0.000000
# 6 0.000000 0.000000 0.000000 -0.041989 0.000000 0.032714
#
#
# Mechanical properties :
#
#
# Convention : Reuss Voigt Hill
#
# Bulk Modulus (GPa) = 15.23173 44.12613 29.67893
# Shear Modulus (GPa) = 9.32762 22.97318 16.15040
#
# Velocity S-wave (km/s) = 2.28241 3.58195 3.00331
# Velocity P-wave (km/s) = 3.93099 6.46153 5.34808
#
# Compressibility (1/GPa) = 0.06565243
#
# Stress axis : x y z
#
# Youngs Moduli (GPa) = 59.43467 74.16848 10.31799
#
# Poissons Ratio (x) = 0.29486 0.08149
# Poissons Ratio (y) = 0.23628 0.19515
# Poissons Ratio (z) = 0.46940 1.40279
#
# Static dielectric constant tensor:
#      x y z
#    x 3.350180 0.000000 0.026700 
#    y 0.000000 3.586240 0.000000 
#    z 0.026700 0.000000 3.016300 
# 
# 
# High freq. dielectric constant tensor:
#      x y z
#    x 1.698260 0.000000 0.000880 
#    y 0.000000 1.715900 0.000000 
#    z 0.000880 0.000000 1.653170 
# 
# From -- ./inp_files/23654.got.cif
#   From: 2010.03.12/outbox.cif.g09.slc.cpg/sg5_12_cif.got.tgz:23654.got - 2010.03.31 09:47:26.
