data_PCOD8048351
_publ_section_title
;
Structure prediction by ZEFSAII (Michael W. Deem and Ramdas Pophale) SiO2 
 PCOD8048351
Probable space group: C 2
;
_chemical_formula_sum "Si O2"
_cell_formula_units_Z 24
_cell_length_a 11.719294
_cell_length_b 13.557815
_cell_length_c 7.660657
_cell_angle_alpha 90.000000
_cell_angle_beta 107.687679
_cell_angle_gamma 90.000000
_cell_volume 1159.646363
_symmetry_space_group_name_H-M "C 2"
_symmetry_group_IT_number 5
_symmetry_cell_setting 'monoclinic'
loop_
_space_group_symop_operation_xyz
x,y,z
-x,y,-z
1/2+x,1/2+y,z
1/2-x,1/2+y,-z
loop_
_atom_site_type_symbol
_atom_site_label
_atom_site_fract_x
_atom_site_fract_y
_atom_site_fract_z
Si Si1 0.194806 0.652240 0.599727
Si Si2 0.184488 0.875159 0.602657
Si Si3 0.436093 0.557973 0.634557
Si Si4 0.599450 0.438801 0.923345
Si Si5 0.397057 0.008993 0.732750
Si Si6 0.340377 0.035848 0.089134
O O1 0.170669 0.763954 0.529129
O O2 0.335429 0.631667 0.651848
O O3 0.119127 0.583356 0.435517
O O4 0.159318 0.631990 0.785729
O O5 0.113603 0.949794 0.445259
O O6 0.130998 0.872049 0.773009
O O7 0.323387 0.908281 0.670322
O O8 0.500000 0.609484 0.500000
O O9 0.533803 0.540220 0.830884
O O10 0.500000 0.384221 0.000000
O O11 0.723039 0.469154 0.080563
O O12 0.535919 0.977373 0.812571
O O13 0.344410 0.062615 0.884431
#
# Coordination Sequence:
#
# PCOD8048351 Si02
#       6
#     4   4   4   4   4   4
#     4  11  20  39  63  88 117 157 198 242 298 349
#     4   9  21  38  61  88 116 155 197 246 294 347
#     4   9  19  37  60  82 117 156 192 243 293 348
#     4  10  18  36  58  83 117 153 197 238 295 348
#     4   9  21  40  58  87 127 151 197 246 294 348
#     4  10  20  37  61  87 113 162 194 239 298 351
#
# _framework density 20.695965999999999
#
# number of rings (size 3 to 8) (size 9 to 14) (size 15 to 20)
#    0.000    2.333    1.667    1.500    0.000    4.000 
#    6.000   10.000    0.000    0.000    0.000    0.000 
#    0.000    0.000    0.000    0.000    0.000    0.000 
#
# Total GULP energy -148692.992935 kJ/mol
# GULP energy per Si atom -12391.082745 kJ/mol
# Density = 2.064886 g / cm^3
# Si number density = 20.695966 Si / 1000 Ang^3
#
#
#
# Elastic Constant Matrix: (Units=GPa)
#
#
# Indices 1 2 3 4 5 6 
#
# 1 140.0636 27.3630 29.5027 0.0000 17.7725 0.0000
# 2 27.3630 70.7562 16.6308 0.0000 -5.7479 0.0000
# 3 29.5027 16.6308 79.6354 0.0000 -1.3852 0.0000
# 4 0.0000 0.0000 0.0000 15.4117 0.0000 -5.5743
# 5 17.7725 -5.7479 -1.3852 0.0000 38.4798 0.0000
# 6 0.0000 0.0000 0.0000 -5.5743 0.0000 14.2825
#
#
#
# Elastic Compliance Matrix: (Units=1/GPa)
#
#
# Indices 1 2 3 4 5 6 
#
# 1 0.008935 -0.003197 -0.002724 0.000000 -0.004702 0.000000
# 2 -0.003197 0.016180 -0.002128 0.000000 0.003817 0.000000
# 3 -0.002724 -0.002128 0.014036 0.000000 0.001446 0.000000
# 4 0.000000 0.000000 0.000000 0.075551 0.000000 0.029487
# 5 -0.004702 0.003817 0.001446 0.000000 0.028782 0.000000
# 6 0.000000 0.000000 0.000000 0.029487 0.000000 0.081524
#
#
# Mechanical properties :
#
#
# Convention : Reuss Voigt Hill
#
# Bulk Modulus (GPa) = 43.38056 48.60536 45.99296
# Shear Modulus (GPa) = 20.09734 28.09871 24.09803
#
# Velocity S-wave (km/s) = 3.11959 3.68868 3.41601
# Velocity P-wave (km/s) = 5.82942 6.45587 6.15063
#
# Compressibility (1/GPa) = 0.02305180
#
# Stress axis : x y z
#
# Youngs Moduli (GPa) = 111.92394 61.80621 71.24512
#
# Poissons Ratio (x) = 0.19759 0.19409
# Poissons Ratio (y) = 0.35781 0.15162
# Poissons Ratio (z) = 0.30490 0.13153
#
# Static dielectric constant tensor:
#      x y z
#    x 4.261720 0.000000 0.004830 
#    y 0.000000 3.036090 0.000000 
#    z 0.004830 0.000000 3.920180 
# 
# 
# High freq. dielectric constant tensor:
#      x y z
#    x 1.841370 0.000000 0.001240 
#    y 0.000000 1.736150 0.000000 
#    z 0.001240 0.000000 1.822130 
# 
# From -- ./inp_files/19439.got.cif
#   From: 2010.03.12/outbox.cif.g09.slc.cpg/sg5_10_cif.got.tgz:19439.got - 2010.03.31 09:47:26.
