data_PCOD8048716
_publ_section_title
;
Structure prediction by ZEFSAII (Michael W. Deem and Ramdas Pophale) SiO2 
 PCOD8048716
Probable space group: C 2
;
_chemical_formula_sum "Si O2"
_cell_formula_units_Z 22
_cell_length_a 16.424850
_cell_length_b 11.004832
_cell_length_c 14.428931
_cell_angle_alpha 90.000000
_cell_angle_beta 151.462207
_cell_angle_gamma 90.000000
_cell_volume 1245.974279
_symmetry_space_group_name_H-M "C 2"
_symmetry_group_IT_number 5
_symmetry_cell_setting 'monoclinic'
loop_
_space_group_symop_operation_xyz
x,y,z
-x,y,-z
1/2+x,1/2+y,z
1/2-x,1/2+y,-z
loop_
_atom_site_type_symbol
_atom_site_label
_atom_site_fract_x
_atom_site_fract_y
_atom_site_fract_z
Si Si1 0.685148 0.689190 0.344766
Si Si2 0.687985 0.346981 0.687967
Si Si3 0.500000 0.580406 0.500000
Si Si4 0.499968 0.032443 0.391572
Si Si5 0.685053 0.689184 0.025477
Si Si6 0.000001 0.259265 0.670925
O O1 0.717651 0.803630 0.310190
O O2 0.669041 0.740979 0.433834
O O3 0.831138 0.588552 0.485474
O O4 0.500057 0.631052 0.131963
O O5 0.500000 0.285116 0.500000
O O6 0.668778 0.493752 0.668770
O O7 0.782451 0.303598 0.874918
O O8 0.500043 0.659923 0.591319
O O9 0.500000 0.058886 0.500000
O O10 0.331013 0.088524 0.176715
O O11 0.499993 0.890158 0.374645
O O12 0.668995 0.741004 0.904250
#
# Coordination Sequence:
#
# PCOD8048716 Si02
#       6
#     4   4   2   4   4   4
#     4  10  22  38  64  93 112 162 204 243 286 368
#     4  10  19  36  67  85 123 157 197 243 297 351
#     4  10  22  42  58  90 128 164 180 260 314 334
#     4  12  21  42  63  86 127 156 196 254 298 349
#     4  10  22  38  64  93 112 162 204 243 286 368
#     4  10  26  36  62  91 126 151 206 241 312 348
#
# _framework density 17.656863999999999
#
# number of rings (size 3 to 8) (size 9 to 14) (size 15 to 20)
#    1.636    0.000    4.545    0.545    5.091    0.000 
#    3.273    0.000    0.000    0.000    0.000    0.000 
#    0.000    0.000    0.000    0.000    0.000    0.000 
#
# Total GULP energy -136284.056031 kJ/mol
# GULP energy per Si atom -12389.459639 kJ/mol
# Density = 1.761668 g / cm^3
# Si number density = 17.656864 Si / 1000 Ang^3
#
#
#
# Elastic Constant Matrix: (Units=GPa)
#
#
# Indices 1 2 3 4 5 6 
#
# 1 97.5936 47.9108 51.9547 -0.0006 -12.2429 -0.0005
# 2 47.9108 131.5583 44.9410 -0.0003 -2.9419 -0.0002
# 3 51.9547 44.9410 97.3829 -0.0002 12.2728 -0.0002
# 4 -0.0006 -0.0003 -0.0002 21.8447 -0.0007 -4.6417
# 5 -12.2429 -2.9419 12.2728 -0.0007 41.8337 -0.0005
# 6 -0.0005 -0.0002 -0.0002 -4.6417 -0.0005 26.4073
#
#
#
# Elastic Compliance Matrix: (Units=1/GPa)
#
#
# Indices 1 2 3 4 5 6 
#
# 1 0.017400 -0.003181 -0.008753 0.000001 0.007436 0.000001
# 2 -0.003181 0.009757 -0.002882 0.000000 0.000601 0.000000
# 3 -0.008753 -0.002882 0.017255 0.000000 -0.007826 0.000000
# 4 0.000001 0.000000 0.000000 0.047554 0.000001 0.008359
# 5 0.007436 0.000601 -0.007826 0.000001 0.028419 0.000001
# 6 0.000001 0.000000 0.000000 0.008359 0.000001 0.039337
#
#
# Mechanical properties :
#
#
# Convention : Reuss Voigt Hill
#
# Bulk Modulus (GPa) = 67.64836 68.46088 68.05462
# Shear Modulus (GPa) = 25.73609 30.13238 27.93423
#
# Velocity S-wave (km/s) = 3.82195 4.13553 3.98183
# Velocity P-wave (km/s) = 7.60739 7.85242 7.73088
#
# Compressibility (1/GPa) = 0.01478232
#
# Stress axis : x y z
#
# Youngs Moduli (GPa) = 57.46984 102.48680 57.95573
#
# Poissons Ratio (x) = 0.32597 0.50727
# Poissons Ratio (y) = 0.18279 0.16701
# Poissons Ratio (z) = 0.50301 0.29534
#
# Static dielectric constant tensor:
#      x y z
#    x 3.250240 0.000000 -0.012220 
#    y 0.000000 3.062950 0.000000 
#    z -0.012220 0.000000 3.238050 
# 
# 
# High freq. dielectric constant tensor:
#      x y z
#    x 1.685010 0.000000 -0.006820 
#    y 0.000000 1.673610 0.000000 
#    z -0.006820 0.000000 1.678320 
# 
# From -- ./inp_files/55834.got.cif
#   From: 2010.03.12/outbox.cif.g09.slc.cpg/sg5_28_cif.got.tgz:55834.got - 2010.03.31 09:47:26.
