data_PCOD8048582
_publ_section_title
;
Structure prediction by ZEFSAII (Michael W. Deem and Ramdas Pophale) SiO2 
 PCOD8048582
Probable space group: C 2
;
_chemical_formula_sum "Si O2"
_cell_formula_units_Z 28
_cell_length_a 13.689664
_cell_length_b 10.498621
_cell_length_c 19.232403
_cell_angle_alpha 90.000000
_cell_angle_beta 149.449883
_cell_angle_gamma 90.000000
_cell_volume 1404.985158
_symmetry_space_group_name_H-M "C 2"
_symmetry_group_IT_number 5
_symmetry_cell_setting 'monoclinic'
loop_
_space_group_symop_operation_xyz
x,y,z
-x,y,-z
1/2+x,1/2+y,z
1/2-x,1/2+y,-z
loop_
_atom_site_type_symbol
_atom_site_label
_atom_site_fract_x
_atom_site_fract_y
_atom_site_fract_z
Si Si1 0.988698 0.871450 0.827074
Si Si2 0.052982 0.917413 0.357022
Si Si3 0.713470 0.673480 0.514251
Si Si4 0.644491 0.001123 0.149179
Si Si5 0.012636 0.600448 0.204394
Si Si6 0.799244 0.277814 0.247894
Si Si7 0.184774 0.978541 0.072037
O O1 0.971330 0.930915 0.740500
O O2 0.076266 0.728855 0.882298
O O3 0.781964 0.864344 0.739041
O O4 0.130809 0.959227 0.958359
O O5 0.142469 0.778955 0.432455
O O6 0.188326 0.038931 0.458777
O O7 0.845226 0.924135 0.267511
O O8 0.783839 0.638502 0.635115
O O9 0.517673 0.751022 0.399486
O O10 0.549241 0.989718 0.168555
O O11 0.682343 0.149625 0.164267
O O12 0.500000 0.952787 0.000000
O O13 0.870434 0.567984 0.181253
O O14 0.761999 0.349510 0.153056
O O15 0.000000 0.036389 0.000000
#
# Coordination Sequence:
#
# PCOD8048582 Si02
#       7
#     4   4   4   4   4   4   4
#     4   9  19  34  55  83 108 143 190 231 276 324
#     4  10  21  35  58  84 114 147 186 236 275 333
#     4  10  21  38  57  83 114 151 192 225 279 333
#     4  10  19  34  57  84 109 142 190 235 275 323
#     4  10  20  34  55  80 112 148 183 228 276 338
#     4   9  18  33  58  81 107 146 192 233 261 328
#     4  10  19  35  57  82 109 140 183 232 283 327
#
# _framework density 19.929037000000001
#
# number of rings (size 3 to 8) (size 9 to 14) (size 15 to 20)
#    0.000    2.286    0.000    3.857    0.000   10.286 
#    0.000    5.714    0.000   24.000    0.000    0.000 
#    0.000    0.000    0.000    0.000    0.000    0.000 
#
# Total GULP energy -173432.753538 kJ/mol
# GULP energy per Si atom -12388.053824 kJ/mol
# Density = 1.988368 g / cm^3
# Si number density = 19.929037 Si / 1000 Ang^3
#
#
#
# Elastic Constant Matrix: (Units=GPa)
#
#
# Indices 1 2 3 4 5 6 
#
# 1 102.9562 31.4643 39.8363 -0.0003 5.2018 0.0000
# 2 31.4643 60.7711 18.2783 0.0000 7.5034 0.0003
# 3 39.8363 18.2783 83.7458 -0.0002 11.7569 0.0009
# 4 -0.0003 0.0000 -0.0002 27.3500 0.0002 0.2541
# 5 5.2018 7.5034 11.7569 0.0002 30.4309 0.0004
# 6 0.0000 0.0003 0.0009 0.2541 0.0004 30.7520
#
#
#
# Elastic Compliance Matrix: (Units=1/GPa)
#
#
# Indices 1 2 3 4 5 6 
#
# 1 0.013391 -0.005467 -0.005334 0.000000 0.001120 0.000000
# 2 -0.005467 0.020110 -0.001294 0.000000 -0.003524 0.000000
# 3 -0.005334 -0.001294 0.015424 0.000000 -0.004728 0.000000
# 4 0.000000 0.000000 0.000000 0.036566 0.000000 -0.000302
# 5 0.001120 -0.003524 -0.004728 0.000000 0.035366 0.000000
# 6 0.000000 0.000000 0.000000 -0.000302 0.000000 0.032521
#
#
# Mechanical properties :
#
#
# Convention : Reuss Voigt Hill
#
# Bulk Modulus (GPa) = 40.42728 47.40343 43.91535
# Shear Modulus (GPa) = 26.90890 28.23286 27.57088
#
# Velocity S-wave (km/s) = 3.67854 3.76795 3.72351
# Velocity P-wave (km/s) = 6.19450 6.53970 6.36944
#
# Compressibility (1/GPa) = 0.02473577
#
# Stress axis : x y z
#
# Youngs Moduli (GPa) = 74.67788 49.72628 64.83304
#
# Poissons Ratio (x) = 0.27186 0.34580
# Poissons Ratio (y) = 0.40827 0.08388
# Poissons Ratio (z) = 0.39831 0.06434
#
# Static dielectric constant tensor:
#      x y z
#    x 3.784760 0.000000 0.060590 
#    y 0.000000 3.483590 0.000000 
#    z 0.060590 0.000000 3.680390 
# 
# 
# High freq. dielectric constant tensor:
#      x y z
#    x 1.773580 0.000000 0.001070 
#    y 0.000000 1.754390 0.000000 
#    z 0.001070 0.000000 1.785630 
# 
# From -- ./inp_files/54447.got.cif
#   From: 2010.03.12/outbox.cif.g09.slc.cpg/sg5_28_cif.got.tgz:54447.got - 2010.03.31 09:47:26.
