data_PCOD8048973
_publ_section_title
;
Structure prediction by ZEFSAII (Michael W. Deem and Ramdas Pophale) SiO2 
 PCOD8048973
Probable space group: C 2
;
_chemical_formula_sum "Si O2"
_cell_formula_units_Z 32
_cell_length_a 9.202952
_cell_length_b 14.084370
_cell_length_c 26.910315
_cell_angle_alpha 90.000000
_cell_angle_beta 148.755651
_cell_angle_gamma 90.000000
_cell_volume 1809.215705
_symmetry_space_group_name_H-M "C 2"
_symmetry_group_IT_number 5
_symmetry_cell_setting 'monoclinic'
loop_
_space_group_symop_operation_xyz
x,y,z
-x,y,-z
1/2+x,1/2+y,z
1/2-x,1/2+y,-z
loop_
_atom_site_type_symbol
_atom_site_label
_atom_site_fract_x
_atom_site_fract_y
_atom_site_fract_z
Si Si1 0.439517 0.795850 0.108093
Si Si2 0.000450 0.147266 0.732021
Si Si3 0.399051 0.295848 0.891907
Si Si4 0.325081 0.784287 0.598003
Si Si5 0.340345 0.147266 0.267978
Si Si6 0.335065 0.784284 0.401997
Si Si7 0.572826 0.433084 0.761949
Si Si8 0.736927 0.933084 0.761951
O O1 0.280184 0.817902 0.112074
O O2 0.634985 0.703404 0.170613
O O3 0.618948 0.888912 0.148376
O O4 0.222120 0.776085 1.000000
O O5 0.870743 0.190004 0.643946
O O6 0.767553 0.153601 0.707021
O O7 0.281915 0.203402 0.829386
O O8 0.086768 0.039740 0.745423
O O9 0.377078 0.388911 0.851627
O O10 0.450157 0.766606 0.580063
O O11 0.466263 0.874050 0.666004
O O12 0.000000 0.808526 0.500000
O O13 0.651017 0.190000 0.356054
O O14 0.359639 0.039740 0.254572
O O15 0.500000 0.808522 0.500000
O O16 0.136250 0.874049 0.333999
O O17 0.474684 0.432249 0.789873
#
# Coordination Sequence:
#
# PCOD8048973 Si02
#       8
#     4   4   4   4   4   4   4   4
#     4   9  18  32  50  73 101 132 165 202 245 291
#     4   9  18  34  53  73  99 130 165 204 245 289
#     4   9  18  32  50  73 101 132 165 202 245 291
#     4  10  20  34  51  73 100 129 163 202 246 293
#     4   9  18  34  53  73  99 130 165 204 245 289
#     4  10  20  34  51  73 100 129 163 202 246 293
#     4   9  19  34  52  74  99 129 165 204 245 290
#     4   9  19  34  52  74  99 129 165 204 245 290
#
# _framework density 17.687224000000001
#
# number of rings (size 3 to 8) (size 9 to 14) (size 15 to 20)
#    0.000    2.750    0.000    0.750    0.000    4.500 
#    0.000    5.000    0.000    0.000    0.000    0.000 
#    0.000    0.000    0.000    0.000    0.000    0.000 
#
# Total GULP energy -198443.977948 kJ/mol
# GULP energy per Si atom -12402.748622 kJ/mol
# Density = 1.764697 g / cm^3
# Si number density = 17.687224 Si / 1000 Ang^3
#
#
#
# Elastic Constant Matrix: (Units=GPa)
#
#
# Indices 1 2 3 4 5 6 
#
# 1 59.6800 41.1222 46.9322 -0.0007 -1.6594 0.0001
# 2 41.1222 138.2217 43.9018 -0.0021 -0.0910 0.0002
# 3 46.9322 43.9018 112.7350 -0.0047 -0.0682 0.0007
# 4 -0.0007 -0.0021 -0.0047 14.3288 0.0001 0.4535
# 5 -1.6594 -0.0910 -0.0682 0.0001 31.8237 0.0002
# 6 0.0001 0.0002 0.0007 0.4535 0.0002 28.2544
#
#
#
# Elastic Compliance Matrix: (Units=1/GPa)
#
#
# Indices 1 2 3 4 5 6 
#
# 1 0.027972 -0.005275 -0.009590 -0.000003 0.001423 0.000000
# 2 -0.005275 0.009251 -0.001407 0.000001 -0.000252 0.000000
# 3 -0.009590 -0.001407 0.013410 0.000004 -0.000475 0.000000
# 4 -0.000003 0.000001 0.000004 0.069825 0.000000 -0.001121
# 5 0.001423 -0.000252 -0.000475 0.000000 0.031496 0.000000
# 6 0.000000 0.000000 0.000000 -0.001121 0.000000 0.035411
#
#
# Mechanical properties :
#
#
# Convention : Reuss Voigt Hill
#
# Bulk Modulus (GPa) = 55.27961 63.83879 59.55920
# Shear Modulus (GPa) = 22.13018 26.79344 24.46181
#
# Velocity S-wave (km/s) = 3.54106 3.89633 3.72293
# Velocity P-wave (km/s) = 6.93114 7.51088 7.22682
#
# Compressibility (1/GPa) = 0.01808985
#
# Stress axis : x y z
#
# Youngs Moduli (GPa) = 35.75060 108.09985 74.57087
#
# Poissons Ratio (x) = 0.57023 0.71511
# Poissons Ratio (y) = 0.18858 0.10489
# Poissons Ratio (z) = 0.34284 0.15205
#
# Static dielectric constant tensor:
#      x y z
#    x 3.272170 0.000000 -0.002400 
#    y 0.000000 3.321420 0.000000 
#    z -0.002400 0.000000 3.346310 
# 
# 
# High freq. dielectric constant tensor:
#      x y z
#    x 1.683060 0.000000 -0.000080 
#    y 0.000000 1.683940 0.000000 
#    z -0.000080 0.000000 1.685420 
# 
# From -- ./inp_files/50730.got.cif
#   From: 2010.03.12/outbox.cif.g09.slc.cpg/sg5_26_cif.got.tgz:50730.got - 2010.03.31 09:47:26.
