data_PCOD8048646
_publ_section_title
;
Structure prediction by ZEFSAII (Michael W. Deem and Ramdas Pophale) SiO2 
 PCOD8048646
Probable space group: C 2
;
_chemical_formula_sum "Si O2"
_cell_formula_units_Z 32
_cell_length_a 11.090619
_cell_length_b 8.692506
_cell_length_c 30.044343
_cell_angle_alpha 90.000000
_cell_angle_beta 31.543949
_cell_angle_gamma 90.000000
_cell_volume 1515.276004
_symmetry_space_group_name_H-M "C 2"
_symmetry_group_IT_number 5
_symmetry_cell_setting 'monoclinic'
loop_
_space_group_symop_operation_xyz
x,y,z
-x,y,-z
1/2+x,1/2+y,z
1/2-x,1/2+y,-z
loop_
_atom_site_type_symbol
_atom_site_label
_atom_site_fract_x
_atom_site_fract_y
_atom_site_fract_z
Si Si1 0.321922 0.895850 0.695271
Si Si2 0.414983 0.710282 0.976770
Si Si3 0.506296 0.010780 0.897269
Si Si4 0.757243 0.061178 0.194463
Si Si5 0.020138 0.128277 0.739256
Si Si6 0.727337 0.360652 0.404737
Si Si7 0.125352 0.327461 0.783696
Si Si8 0.240130 0.560338 0.684329
O O1 0.594187 0.932610 0.615509
O O2 0.304802 0.727186 0.680157
O O3 0.203273 0.919484 0.782285
O O4 0.211157 0.003954 0.693101
O O5 0.534186 0.590463 0.905006
O O6 0.460984 0.891118 0.952178
O O7 0.500000 0.678872 0.000000
O O8 0.145835 0.665812 0.054340
O O9 0.776122 0.049785 0.806252
O O10 0.443458 0.916431 0.872348
O O11 0.716671 0.211726 0.237618
O O12 0.534050 0.038644 0.234795
O O13 0.130529 0.222749 0.663647
O O14 0.969071 0.239024 0.796942
O O15 0.500000 0.294312 0.500000
O O16 0.644335 0.498672 0.397713
O O17 0.306950 0.442287 0.702733
#
# Coordination Sequence:
#
# PCOD8048646 Si02
#       8
#     4   4   4   4   4   4   4   4
#     4  10  20  37  63  86 115 156 198 246 300 360
#     4  11  25  39  57  87 124 159 205 260 307 352
#     4  11  24  39  58  87 119 160 209 253 300 358
#     4   9  20  37  54  81 114 150 198 244 289 355
#     4  10  22  41  63  86 119 163 202 243 302 365
#     4  10  23  40  60  92 125 154 198 252 307 371
#     4   9  19  36  56  79 110 148 193 239 290 351
#     4  10  19  35  62  86 111 152 195 241 300 358
#
# _framework density 21.118265000000001
#
# number of rings (size 3 to 8) (size 9 to 14) (size 15 to 20)
#    0.000    2.000    0.000    3.000    0.000   11.000 
#    0.000    0.625    0.000    0.000    0.000    0.000 
#    0.000    0.000    0.000    0.000    0.000    0.000 
#
# Total GULP energy -198214.467622 kJ/mol
# GULP energy per Si atom -12388.404226 kJ/mol
# Density = 2.107020 g / cm^3
# Si number density = 21.118265 Si / 1000 Ang^3
#
#
#
# Elastic Constant Matrix: (Units=GPa)
#
#
# Indices 1 2 3 4 5 6 
#
# 1 94.0146 44.7953 56.3094 0.0068 0.5405 0.0055
# 2 44.7953 116.0263 53.0500 0.0320 6.2941 0.0070
# 3 56.3094 53.0500 113.3789 -0.0685 -7.1182 0.0459
# 4 0.0068 0.0320 -0.0685 30.2030 0.0163 3.9333
# 5 0.5405 6.2941 -7.1182 0.0163 22.6090 0.0032
# 6 0.0055 0.0070 0.0459 3.9333 0.0032 25.5866
#
#
#
# Elastic Compliance Matrix: (Units=1/GPa)
#
#
# Indices 1 2 3 4 5 6 
#
# 1 0.016102 -0.003086 -0.006655 -0.000016 -0.001621 0.000012
# 2 -0.003086 0.012082 -0.004415 -0.000021 -0.004680 0.000009
# 3 -0.006655 -0.004415 0.014566 0.000040 0.005974 -0.000030
# 4 -0.000016 -0.000021 0.000040 0.033786 -0.000005 -0.005194
# 5 -0.001621 -0.004680 0.005974 -0.000005 0.047453 -0.000014
# 6 0.000012 0.000009 -0.000030 -0.005194 -0.000014 0.039881
#
#
# Mechanical properties :
#
#
# Convention : Reuss Voigt Hill
#
# Bulk Modulus (GPa) = 69.25452 70.19213 69.72333
# Shear Modulus (GPa) = 25.38136 26.96405 26.17270
#
# Velocity S-wave (km/s) = 3.47056 3.57713 3.52424
# Velocity P-wave (km/s) = 6.99461 7.09725 7.04611
#
# Compressibility (1/GPa) = 0.01443949
#
# Stress axis : x y z
#
# Youngs Moduli (GPa) = 62.10272 82.76444 68.65358
#
# Poissons Ratio (x) = 0.25541 0.45689
# Poissons Ratio (y) = 0.19165 0.30308
# Poissons Ratio (z) = 0.41330 0.36537
#
# Static dielectric constant tensor:
#      x y z
#    x 4.022680 -0.000010 0.237780 
#    y -0.000010 4.044900 -0.000040 
#    z 0.237780 -0.000040 3.532650 
# 
# 
# High freq. dielectric constant tensor:
#      x y z
#    x 1.840180 0.000000 0.017330 
#    y 0.000000 1.838020 -0.000010 
#    z 0.017330 -0.000010 1.789420 
# 
# From -- ./inp_files/71755.got.cif
#   From: 2010.03.12/outbox.cif.g09.slc.cpg/sg5_36_cif.got.tgz:71755.got - 2010.03.31 09:47:26.
