data_PCOD8048719
_publ_section_title
;
Structure prediction by ZEFSAII (Michael W. Deem and Ramdas Pophale) SiO2 
 PCOD8048719
Probable space group: C 2
;
_chemical_formula_sum "Si O2"
_cell_formula_units_Z 24
_cell_length_a 24.323821
_cell_length_b 8.985368
_cell_length_c 12.100858
_cell_angle_alpha 90.000000
_cell_angle_beta 151.846270
_cell_angle_gamma 90.000000
_cell_volume 1247.893655
_symmetry_space_group_name_H-M "C 2"
_symmetry_group_IT_number 5
_symmetry_cell_setting 'monoclinic'
loop_
_space_group_symop_operation_xyz
x,y,z
-x,y,-z
1/2+x,1/2+y,z
1/2-x,1/2+y,-z
loop_
_atom_site_type_symbol
_atom_site_label
_atom_site_fract_x
_atom_site_fract_y
_atom_site_fract_z
Si Si1 0.877347 0.133130 0.432543
Si Si2 0.208825 0.376770 0.145550
Si Si3 0.031233 0.596018 0.934860
Si Si4 0.224798 0.641426 0.565746
Si Si5 0.233872 0.799434 0.352375
Si Si6 0.099311 0.253197 0.745903
O O1 0.835841 0.255078 0.448225
O O2 0.826455 0.169442 0.218354
O O3 0.019468 0.138161 0.679230
O O4 0.827114 0.970833 0.374359
O O5 0.096664 0.466985 0.986092
O O6 0.219117 0.223877 0.230455
O O7 0.187892 0.343929 0.978785
O O8 0.110335 0.742926 0.086727
O O9 0.000000 0.530867 0.000000
O O10 0.914343 0.639852 0.663434
O O11 0.261838 0.725505 0.519862
O O12 0.275163 0.475574 0.649704
O O13 0.000000 0.349925 0.500000
#
# Coordination Sequence:
#
# PCOD8048719 Si02
#       6
#     4   4   4   4   4   4
#     4   8  19  37  58  77 113 145 183 229 269 323
#     4  11  20  37  60  82 108 150 184 228 279 323
#     4   9  20  37  54  84 121 140 178 228 270 332
#     4  11  22  34  59  86 111 147 185 220 280 332
#     4  10  19  37  56  84 116 148 179 226 274 329
#     4   8  20  38  54  81 111 143 184 234 271 322
#
# _framework density 19.232408
#
# number of rings (size 3 to 8) (size 9 to 14) (size 15 to 20)
#    1.000    1.333    0.000    4.000    0.000    2.667 
#    0.000   12.500    0.000    4.000    0.000    0.000 
#    0.000    0.000    0.000    0.000    0.000    0.000 
#
# Total GULP energy -148674.230085 kJ/mol
# GULP energy per Si atom -12389.519174 kJ/mol
# Density = 1.918863 g / cm^3
# Si number density = 19.232408 Si / 1000 Ang^3
#
#
#
# Elastic Constant Matrix: (Units=GPa)
#
#
# Indices 1 2 3 4 5 6 
#
# 1 81.1614 30.1163 9.2965 0.0000 -7.0820 0.0000
# 2 30.1163 123.9356 27.6628 0.0000 -16.4460 0.0000
# 3 9.2965 27.6628 70.7836 0.0000 -13.6049 0.0000
# 4 0.0000 0.0000 0.0000 17.4322 0.0000 -0.9494
# 5 -7.0820 -16.4460 -13.6049 0.0000 25.5642 0.0000
# 6 0.0000 0.0000 0.0000 -0.9494 0.0000 18.8191
#
#
#
# Elastic Compliance Matrix: (Units=1/GPa)
#
#
# Indices 1 2 3 4 5 6 
#
# 1 0.013622 -0.003024 -0.000285 0.000000 0.001677 0.000000
# 2 -0.003024 0.009954 -0.002699 0.000000 0.004129 0.000000
# 3 -0.000285 -0.002699 0.016565 0.000000 0.007000 0.000000
# 4 0.000000 0.000000 0.000000 0.057523 0.000000 0.002902
# 5 0.001677 0.004129 0.007000 0.000000 0.045964 0.000000
# 6 0.000000 0.000000 0.000000 0.002902 0.000000 0.053284
#
#
# Mechanical properties :
#
#
# Convention : Reuss Voigt Hill
#
# Bulk Modulus (GPa) = 35.55570 45.55910 40.55740
# Shear Modulus (GPa) = 22.90381 26.28342 24.59361
#
# Velocity S-wave (km/s) = 3.45468 3.70079 3.57985
# Velocity P-wave (km/s) = 5.86861 6.48084 6.18231
#
# Compressibility (1/GPa) = 0.02812489
#
# Stress axis : x y z
#
# Youngs Moduli (GPa) = 73.40948 100.46209 60.36680
#
# Poissons Ratio (x) = 0.30381 0.01721
# Poissons Ratio (y) = 0.22200 0.16295
# Poissons Ratio (z) = 0.02092 0.27117
#
# Static dielectric constant tensor:
#      x y z
#    x 3.681290 0.000000 0.041840 
#    y 0.000000 3.241020 0.000000 
#    z 0.041840 0.000000 3.344640 
# 
# 
# High freq. dielectric constant tensor:
#      x y z
#    x 1.760320 0.000000 -0.001350 
#    y 0.000000 1.725040 0.000000 
#    z -0.001350 0.000000 1.733740 
# 
# From -- ./inp_files/47359.got.cif
#   From: 2010.03.12/outbox.cif.g09.slc.cpg/sg5_24_cif.got.tgz:47359.got - 2010.03.31 09:47:26.
