data_PCOD8048273
_publ_section_title
;
Structure prediction by ZEFSAII (Michael W. Deem and Ramdas Pophale) SiO2 
 PCOD8048273
Probable space group: C 2
;
_chemical_formula_sum "Si O2"
_cell_formula_units_Z 28
_cell_length_a 12.240350
_cell_length_b 8.404281
_cell_length_c 13.784331
_cell_angle_alpha 90.000000
_cell_angle_beta 110.911557
_cell_angle_gamma 90.000000
_cell_volume 1324.611666
_symmetry_space_group_name_H-M "C 2"
_symmetry_group_IT_number 5
_symmetry_cell_setting 'monoclinic'
loop_
_space_group_symop_operation_xyz
x,y,z
-x,y,-z
1/2+x,1/2+y,z
1/2-x,1/2+y,-z
loop_
_atom_site_type_symbol
_atom_site_label
_atom_site_fract_x
_atom_site_fract_y
_atom_site_fract_z
Si Si1 0.635063 0.086420 0.749187
Si Si2 0.492613 0.494312 0.110439
Si Si3 0.899849 0.308349 0.133177
Si Si4 0.711235 0.595889 0.748522
Si Si5 0.251117 0.846191 0.897369
Si Si6 0.310404 0.380659 0.694962
Si Si7 0.494811 0.379567 0.384505
O O1 0.731086 0.167208 0.851799
O O2 0.547937 0.215172 0.677001
O O3 0.560451 0.964883 0.793970
O O4 0.701220 0.998523 0.680803
O O5 0.503719 0.682063 0.144392
O O6 0.370873 0.424825 0.109442
O O7 0.596433 0.395731 0.189399
O O8 0.500000 0.471349 0.000000
O O9 0.803555 0.225483 0.170570
O O10 0.844772 0.353238 0.011924
O O11 0.793022 0.454784 0.818445
O O12 0.770603 0.694760 0.680039
O O13 0.588539 0.525222 0.671264
O O14 0.374447 0.419068 0.613314
O O15 0.500000 0.358412 0.500000
#
# Coordination Sequence:
#
# PCOD8048273 Si02
#       7
#     4   4   4   4   4   4   4
#     4  10  21  39  62  91 124 161 209 260 297 371
#     4  11  20  34  57  91 129 174 201 241 309 369
#     4  10  18  34  57  86 133 162 201 254 296 358
#     4   9  20  39  62  91 123 161 204 257 303 364
#     4  10  18  36  58  89 131 166 204 253 291 364
#     4  11  21  42  65  88 129 161 204 259 310 367
#     4  11  24  46  66  88 123 159 208 267 319 363
#
# _framework density 21.138269000000001
#
# number of rings (size 3 to 8) (size 9 to 14) (size 15 to 20)
#    0.000    1.714    4.286    4.286    0.000    1.143 
#    7.714    3.571    0.000    0.000    0.000    0.000 
#    0.000    0.000    0.000    0.000    0.000    0.000 
#
# Total GULP energy -173512.312349 kJ/mol
# GULP energy per Si atom -12393.736596 kJ/mol
# Density = 2.109016 g / cm^3
# Si number density = 21.138269 Si / 1000 Ang^3
#
#
#
# Elastic Constant Matrix: (Units=GPa)
#
#
# Indices 1 2 3 4 5 6 
#
# 1 56.7691 29.0880 12.0417 0.0000 -9.3098 0.0000
# 2 29.0880 118.0021 25.4825 0.0000 -5.4907 0.0000
# 3 12.0417 25.4825 85.7365 0.0000 -19.9841 0.0000
# 4 0.0000 0.0000 0.0000 119.2163 0.0000 130.2469
# 5 -9.3098 -5.4907 -19.9841 0.0000 24.8169 0.0000
# 6 0.0000 0.0000 0.0000 130.2469 0.0000 207.2235
#
#
#
# Elastic Compliance Matrix: (Units=1/GPa)
#
#
# Indices 1 2 3 4 5 6 
#
# 1 0.021268 -0.004941 0.000106 0.000000 0.006971 0.000000
# 2 -0.004941 0.010204 -0.002763 0.000000 -0.001821 0.000000
# 3 0.000106 -0.002763 0.015187 0.000000 0.011658 0.000000
# 4 0.000000 0.000000 0.000000 0.026773 0.000000 -0.016827
# 5 0.006971 -0.001821 0.011658 0.000000 0.051895 0.000000
# 6 0.000000 0.000000 0.000000 -0.016827 0.000000 0.015402
#
#
# Mechanical properties :
#
#
# Convention : Reuss Voigt Hill
#
# Bulk Modulus (GPa) = 31.78337 43.74802 37.76569
# Shear Modulus (GPa) = 30.04558 83.17770 56.61164
#
# Velocity S-wave (km/s) = 3.77421 6.27971 5.18071
# Velocity P-wave (km/s) = 5.83622 8.56275 7.32742
#
# Compressibility (1/GPa) = 0.03146300
#
# Stress axis : x y z
#
# Youngs Moduli (GPa) = 47.01979 97.99622 65.84371
#
# Poissons Ratio (x) = 0.48422 -0.00700
# Poissons Ratio (y) = 0.23233 0.18196
# Poissons Ratio (z) = -0.00500 0.27081
#
# Static dielectric constant tensor:
#      x y z
#    x 1.578500 0.000000 -6.358210 
#    y 0.000000 4.284210 0.000000 
#    z -6.358210 0.000000 -12.910490 
# 
# 
# High freq. dielectric constant tensor:
#      x y z
#    x 1.813970 0.000000 -0.020460 
#    y 0.000000 1.845760 0.000000 
#    z -0.020460 0.000000 1.799300 
# 
# From -- ./inp_files/52301.got.cif
#   From: 2010.03.12/outbox.cif.g09.slc.cpg/sg5_27_cif.got.tgz:52301.got - 2010.03.31 09:47:26.
