data_PCOD8048824
_publ_section_title
;
Structure prediction by ZEFSAII (Michael W. Deem and Ramdas Pophale) SiO2 
 PCOD8048824
Probable space group: C 2
;
_chemical_formula_sum "Si O2"
_cell_formula_units_Z 32
_cell_length_a 19.726511
_cell_length_b 11.374390
_cell_length_c 8.660578
_cell_angle_alpha 90.000000
_cell_angle_beta 129.798945
_cell_angle_gamma 90.000000
_cell_volume 1492.978156
_symmetry_space_group_name_H-M "C 2"
_symmetry_group_IT_number 5
_symmetry_cell_setting 'monoclinic'
loop_
_space_group_symop_operation_xyz
x,y,z
-x,y,-z
1/2+x,1/2+y,z
1/2-x,1/2+y,-z
loop_
_atom_site_type_symbol
_atom_site_label
_atom_site_fract_x
_atom_site_fract_y
_atom_site_fract_z
Si Si1 0.705850 0.539560 0.623269
Si Si2 0.866544 0.490234 0.380563
Si Si3 0.456893 0.018409 0.188803
Si Si4 0.734305 0.164892 0.587999
Si Si5 0.788541 0.256444 0.169661
Si Si6 0.907760 0.766528 0.019634
Si Si7 0.165443 0.337173 0.092039
Si Si8 0.089867 0.847262 0.324178
O O1 0.760830 0.613547 0.576530
O O2 0.678812 0.631582 0.716102
O O3 0.766688 0.444348 0.793447
O O4 0.621505 0.477835 0.419963
O O5 0.897755 0.531099 0.257356
O O6 0.779787 0.562027 0.306930
O O7 0.840135 0.354294 0.343058
O O8 0.940864 0.509504 0.619254
O O9 0.436906 0.129458 0.049765
O O10 0.430699 0.898486 0.058233
O O11 0.822666 0.242777 0.751847
O O12 0.650504 0.249618 0.492804
O O13 0.683518 0.277953 0.023798
O O14 0.815134 0.261792 0.031480
O O15 0.987827 0.831819 0.228061
O O16 0.899607 0.828661 0.843024
#
# Coordination Sequence:
#
# PCOD8048824 Si02
#       8
#     4   4   4   4   4   4   4   4
#     4  11  23  42  60  90 130 157 198 258 305 370
#     4  10  22  35  63  92 122 161 204 252 314 359
#     4  10  19  39  59  92 124 154 207 263 290 359
#     4  11  20  37  62  93 121 160 201 253 309 359
#     4  11  22  40  64  88 123 169 200 249 309 365
#     4  11  19  39  63  89 122 159 207 256 297 356
#     4  10  23  38  65  92 120 158 214 250 303 368
#     4  10  22  36  59  95 122 156 203 256 304 356
#
# _framework density 21.433668999999998
#
# number of rings (size 3 to 8) (size 9 to 14) (size 15 to 20)
#    0.000    1.500    3.750    1.500    3.500    0.000 
#    0.000    3.750    5.500    0.000    0.000    0.000 
#    0.000    0.000    0.000    0.000    0.000    0.000 
#
# Total GULP energy -198352.009257 kJ/mol
# GULP energy per Si atom -12397.000579 kJ/mol
# Density = 2.138488 g / cm^3
# Si number density = 21.433669 Si / 1000 Ang^3
#
#
#
# Elastic Constant Matrix: (Units=GPa)
#
#
# Indices 1 2 3 4 5 6 
#
# 1 34.2199 24.6608 14.7701 0.0000 10.0647 0.0000
# 2 24.6608 126.5776 53.5868 0.0000 -6.2115 0.0000
# 3 14.7701 53.5868 96.5113 0.0000 2.5296 0.0000
# 4 0.0000 0.0000 0.0000 57.1611 0.0000 -3.2510
# 5 10.0647 -6.2115 2.5296 0.0000 27.1977 0.0000
# 6 0.0000 0.0000 0.0000 -3.2510 0.0000 28.7965
#
#
#
# Elastic Compliance Matrix: (Units=1/GPa)
#
#
# Indices 1 2 3 4 5 6 
#
# 1 0.040611 -0.008225 -0.001208 0.000000 -0.016794 0.000000
# 2 -0.008225 0.012227 -0.005697 0.000000 0.006366 0.000000
# 3 -0.001208 -0.005697 0.013766 0.000000 -0.002134 0.000000
# 4 0.000000 0.000000 0.000000 0.017607 0.000000 0.001988
# 5 -0.016794 0.006366 -0.002134 0.000000 0.044635 0.000000
# 6 0.000000 0.000000 0.000000 0.001988 0.000000 0.034951
#
#
# Mechanical properties :
#
#
# Convention : Reuss Voigt Hill
#
# Bulk Modulus (GPa) = 27.51521 49.26045 38.38783
# Shear Modulus (GPa) = 24.25169 33.58381 28.91775
#
# Velocity S-wave (km/s) = 3.36739 3.96267 3.67710
# Velocity P-wave (km/s) = 5.29002 6.63096 5.99808
#
# Compressibility (1/GPa) = 0.03634353
#
# Stress axis : x y z
#
# Youngs Moduli (GPa) = 24.62385 81.78671 72.64529
#
# Poissons Ratio (x) = 0.67268 0.08777
# Poissons Ratio (y) = 0.20253 0.41386
# Poissons Ratio (z) = 0.02975 0.46594
#
# Static dielectric constant tensor:
#      x y z
#    x 3.592730 0.000000 0.195940 
#    y 0.000000 4.027170 0.000000 
#    z 0.195940 0.000000 4.143720 
# 
# 
# High freq. dielectric constant tensor:
#      x y z
#    x 1.805430 0.000000 -0.000180 
#    y 0.000000 1.844530 0.000000 
#    z -0.000180 0.000000 1.853680 
# 
# From -- ./inp_files/29634.got.cif
#   From: 2010.03.12/outbox.cif.g09.slc.cpg/sg5_15_cif.got.tgz:29634.got - 2010.03.31 09:47:26.
