data_PCOD8048130
_publ_section_title
;
Structure prediction by ZEFSAII (Michael W. Deem and Ramdas Pophale) SiO2 
 PCOD8048130
Probable space group: C 2
;
_chemical_formula_sum "Si O2"
_cell_formula_units_Z 32
_cell_length_a 25.813581
_cell_length_b 13.347605
_cell_length_c 9.113888
_cell_angle_alpha 90.000000
_cell_angle_beta 32.456827
_cell_angle_gamma 90.000000
_cell_volume 1685.224302
_symmetry_space_group_name_H-M "C 2"
_symmetry_group_IT_number 5
_symmetry_cell_setting 'monoclinic'
loop_
_space_group_symop_operation_xyz
x,y,z
-x,y,-z
1/2+x,1/2+y,z
1/2-x,1/2+y,-z
loop_
_atom_site_type_symbol
_atom_site_label
_atom_site_fract_x
_atom_site_fract_y
_atom_site_fract_z
Si Si1 0.628907 0.810110 0.298771
Si Si2 0.364740 0.023705 0.591113
Si Si3 0.070631 0.487759 0.039645
Si Si4 0.103797 0.631517 0.209146
Si Si5 0.742575 0.969347 0.422992
Si Si6 0.424787 0.769709 0.878586
Si Si7 0.758912 0.251824 0.695606
Si Si8 0.393011 0.609362 0.192959
O O1 0.612752 0.927465 0.362099
O O2 0.532197 0.748337 0.565465
O O3 0.651050 0.787153 0.074414
O O4 0.713224 0.776300 0.204342
O O5 0.272093 0.013501 0.706545
O O6 0.342934 0.112005 0.761044
O O7 0.464201 0.034398 0.256205
O O8 0.153281 0.516730 0.726264
O O9 0.096004 0.525952 0.142135
O O10 0.070341 0.367492 0.030981
O O11 0.000000 0.676616 0.500000
O O12 0.152819 0.707338 0.976346
O O13 0.744356 0.847923 0.404937
O O14 0.841119 0.005879 0.266346
O O15 0.391913 0.675551 0.050385
O O16 0.831467 0.167525 0.462399
O O17 0.500000 0.586317 0.000000
#
# Coordination Sequence:
#
# PCOD8048130 Si02
#       8
#     4   4   4   4   4   4   4   4
#     4   9  18  32  56  89 115 143 193 249 309 350
#     4   9  19  33  58  92 117 146 191 262 308 350
#     4  10  17  33  60  92 120 143 193 263 308 352
#     4  10  20  37  60  84 119 157 199 249 311 363
#     4  11  23  37  59  89 123 156 204 250 311 372
#     4  10  18  32  57  89 120 145 188 255 310 355
#     4  11  22  38  62  84 118 161 207 253 303 373
#     4  12  24  39  60  89 122 166 204 254 314 367
#
# _framework density 18.988571
#
# number of rings (size 3 to 8) (size 9 to 14) (size 15 to 20)
#    0.000    1.750    5.000    0.375    1.750    0.000 
#    0.000    0.000   16.500    0.000    0.000    0.000 
#    0.000    0.000    0.000    0.000    0.000    0.000 
#
# Total GULP energy -198213.116465 kJ/mol
# GULP energy per Si atom -12388.319779 kJ/mol
# Density = 1.894535 g / cm^3
# Si number density = 18.988571 Si / 1000 Ang^3
#
#
#
# Elastic Constant Matrix: (Units=GPa)
#
#
# Indices 1 2 3 4 5 6 
#
# 1 100.6365 31.3567 31.7731 0.0000 -7.2443 0.0000
# 2 31.3567 56.1339 28.9812 0.0000 -9.5189 0.0000
# 3 31.7731 28.9812 89.7790 0.0000 -2.9906 0.0000
# 4 0.0000 0.0000 0.0000 26.8020 0.0000 3.3625
# 5 -7.2443 -9.5189 -2.9906 0.0000 21.1137 0.0000
# 6 0.0000 0.0000 0.0000 3.3625 0.0000 24.9356
#
#
#
# Elastic Compliance Matrix: (Units=1/GPa)
#
#
# Indices 1 2 3 4 5 6 
#
# 1 0.012563 -0.005392 -0.002656 0.000000 0.001504 0.000000
# 2 -0.005392 0.025410 -0.006003 0.000000 0.008756 0.000000
# 3 -0.002656 -0.006003 0.013961 0.000000 -0.001640 0.000000
# 4 0.000000 0.000000 0.000000 0.037953 0.000000 -0.005118
# 5 0.001504 0.008756 -0.001640 0.000000 0.051594 0.000000
# 6 0.000000 0.000000 0.000000 -0.005118 0.000000 0.040793
#
#
# Mechanical properties :
#
#
# Convention : Reuss Voigt Hill
#
# Bulk Modulus (GPa) = 41.95578 47.86349 44.90963
# Shear Modulus (GPa) = 22.90208 24.86615 23.88411
#
# Velocity S-wave (km/s) = 3.47666 3.62267 3.55042
# Velocity P-wave (km/s) = 6.18542 6.53908 6.36471
#
# Compressibility (1/GPa) = 0.02383462
#
# Stress axis : x y z
#
# Youngs Moduli (GPa) = 79.59588 39.35387 71.62613
#
# Poissons Ratio (x) = 0.21220 0.19021
# Poissons Ratio (y) = 0.42918 0.42995
# Poissons Ratio (z) = 0.21137 0.23623
#
# Static dielectric constant tensor:
#      x y z
#    x 3.495050 0.000000 0.121260 
#    y 0.000000 3.192470 0.000000 
#    z 0.121260 0.000000 3.417600 
# 
# 
# High freq. dielectric constant tensor:
#      x y z
#    x 1.740430 0.000000 0.016250 
#    y 0.000000 1.704580 0.000000 
#    z 0.016250 0.000000 1.728550 
# 
# From -- ./inp_files/24357.got.cif
#   From: 2010.03.12/outbox.cif.g09.slc.cpg/sg5_13_cif.got.tgz:24357.got - 2010.03.31 09:47:26.
