data_PCOD8048810
_publ_section_title
;
Structure prediction by ZEFSAII (Michael W. Deem and Ramdas Pophale) SiO2 
 PCOD8048810
Probable space group: C 2
;
_chemical_formula_sum "Si O2"
_cell_formula_units_Z 30
_cell_length_a 11.743041
_cell_length_b 15.955706
_cell_length_c 8.909646
_cell_angle_alpha 90.000000
_cell_angle_beta 119.428630
_cell_angle_gamma 90.000000
_cell_volume 1453.983412
_symmetry_space_group_name_H-M "C 2"
_symmetry_group_IT_number 5
_symmetry_cell_setting 'monoclinic'
loop_
_space_group_symop_operation_xyz
x,y,z
-x,y,-z
1/2+x,1/2+y,z
1/2-x,1/2+y,-z
loop_
_atom_site_type_symbol
_atom_site_label
_atom_site_fract_x
_atom_site_fract_y
_atom_site_fract_z
Si Si1 0.000000 0.309760 0.500000
Si Si2 0.264892 0.139193 0.136053
Si Si3 0.303564 0.916575 0.535639
Si Si4 0.992051 0.540421 0.829057
Si Si5 0.706709 0.164725 0.372984
Si Si6 0.858201 0.058351 0.684540
Si Si7 0.351981 0.284091 0.420756
Si Si8 0.910235 0.171261 0.251087
O O1 0.130043 0.364462 0.556871
O O2 0.009143 0.256757 0.664504
O O3 0.372036 0.070538 0.155616
O O4 0.154352 0.083346 0.148484
O O5 0.320313 0.216081 0.271260
O O6 0.193870 0.182326 0.948748
O O7 0.247617 0.862944 0.641674
O O8 0.418533 0.975611 0.673737
O O9 0.175851 0.962231 0.378244
O O10 0.909197 0.625575 0.799622
O O11 0.000000 0.499691 0.000000
O O12 0.735371 0.106800 0.534177
O O13 0.662677 0.252135 0.415998
O O14 0.838690 0.164451 0.363985
O O15 0.998976 0.089526 0.715557
O O16 0.500000 0.315351 0.500000
#
# Coordination Sequence:
#
# PCOD8048810 Si02
#       8
#     2   4   4   4   4   4   4   4
#     4  12  22  42  66  94 126 176 210 264 318 386
#     4  11  23  39  68  97 123 165 218 271 309 369
#     4  11  25  39  65  94 132 171 210 256 332 385
#     4  11  22  39  64  92 128 167 217 263 314 376
#     4  10  19  38  65  90 116 167 220 253 300 377
#     4  10  22  39  60  94 127 164 208 261 314 374
#     4  11  22  41  65  95 132 167 210 264 322 379
#     4  12  21  39  71  93 122 165 225 262 303 378
#
# _framework density 20.632971000000001
#
# number of rings (size 3 to 8) (size 9 to 14) (size 15 to 20)
#    0.000    1.067    5.333    2.000    0.000    3.200 
#    0.000    0.000    2.933    0.000    0.000    0.000 
#    0.000    0.000    0.000    0.000    0.000    0.000 
#
# Total GULP energy -185832.138864 kJ/mol
# GULP energy per Si atom -12388.809258 kJ/mol
# Density = 2.058601 g / cm^3
# Si number density = 20.632971 Si / 1000 Ang^3
#
#
#
# Elastic Constant Matrix: (Units=GPa)
#
#
# Indices 1 2 3 4 5 6 
#
# 1 143.8205 51.1141 27.2557 0.0000 -2.0086 0.0000
# 2 51.1141 88.4111 35.9706 0.0000 -0.7230 0.0000
# 3 27.2557 35.9706 87.4392 0.0000 1.3220 0.0000
# 4 0.0000 0.0000 0.0000 17.1859 0.0000 4.7533
# 5 -2.0086 -0.7230 1.3220 0.0000 27.7707 0.0000
# 6 0.0000 0.0000 0.0000 4.7533 0.0000 42.8412
#
#
#
# Elastic Compliance Matrix: (Units=1/GPa)
#
#
# Indices 1 2 3 4 5 6 
#
# 1 0.008804 -0.004763 -0.000793 0.000000 0.000551 0.000000
# 2 -0.004763 0.016172 -0.005173 0.000000 0.000323 0.000000
# 3 -0.000793 -0.005173 0.013825 0.000000 -0.000850 0.000000
# 4 0.000000 0.000000 0.000000 0.060029 0.000000 -0.006660
# 5 0.000551 0.000323 -0.000850 0.000000 0.036098 0.000000
# 6 0.000000 0.000000 0.000000 -0.006660 0.000000 0.024081
#
#
# Mechanical properties :
#
#
# Convention : Reuss Voigt Hill
#
# Bulk Modulus (GPa) = 57.66248 60.92797 59.29522
# Shear Modulus (GPa) = 26.84613 31.24826 29.04719
#
# Velocity S-wave (km/s) = 3.61103 3.89586 3.75614
# Velocity P-wave (km/s) = 6.73747 7.05907 6.90014
#
# Compressibility (1/GPa) = 0.01734230
#
# Stress axis : x y z
#
# Youngs Moduli (GPa) = 113.58775 61.83713 72.33424
#
# Poissons Ratio (x) = 0.29450 0.05739
# Poissons Ratio (y) = 0.54097 0.37418
# Poissons Ratio (z) = 0.09011 0.31988
#
# Static dielectric constant tensor:
#      x y z
#    x 3.762230 0.000000 -0.018360 
#    y 0.000000 3.793440 0.000000 
#    z -0.018360 0.000000 3.648140 
# 
# 
# High freq. dielectric constant tensor:
#      x y z
#    x 1.824100 0.000000 -0.001050 
#    y 0.000000 1.791390 0.000000 
#    z -0.001050 0.000000 1.792520 
# 
# From -- ./inp_files/21472.got.cif
#   From: 2010.03.12/outbox.cif.g09.slc.cpg/sg5_11_cif.got.tgz:21472.got - 2010.03.31 09:47:26.
