data_PCOD8048441
_publ_section_title
;
Structure prediction by ZEFSAII (Michael W. Deem and Ramdas Pophale) SiO2 
 PCOD8048441
Probable space group: C 2
;
_chemical_formula_sum "Si O2"
_cell_formula_units_Z 32
_cell_length_a 14.466405
_cell_length_b 10.361379
_cell_length_c 9.775111
_cell_angle_alpha 90.000000
_cell_angle_beta 89.602618
_cell_angle_gamma 90.000000
_cell_volume 1465.174769
_symmetry_space_group_name_H-M "C 2"
_symmetry_group_IT_number 5
_symmetry_cell_setting 'monoclinic'
loop_
_space_group_symop_operation_xyz
x,y,z
-x,y,-z
1/2+x,1/2+y,z
1/2-x,1/2+y,-z
loop_
_atom_site_type_symbol
_atom_site_label
_atom_site_fract_x
_atom_site_fract_y
_atom_site_fract_z
Si Si1 0.783450 0.315080 0.598633
Si Si2 0.574855 0.380088 0.601965
Si Si3 0.083077 0.177743 0.589489
Si Si4 0.714813 0.926075 0.986821
Si Si5 0.731928 0.178367 0.862264
Si Si6 0.106062 0.497628 0.238658
Si Si7 0.457604 0.800156 0.138807
Si Si8 0.525640 0.218223 0.841574
O O1 0.675082 0.321949 0.571947
O O2 0.824212 0.246757 0.464241
O O3 0.794672 0.224950 0.734291
O O4 0.836672 0.453060 0.625138
O O5 0.500000 0.317515 0.500000
O O6 0.587853 0.527617 0.565508
O O7 0.539051 0.351979 0.757222
O O8 0.072216 0.193128 0.752198
O O9 0.000000 0.237881 0.500000
O O10 0.769193 0.794559 0.024180
O O11 0.682571 0.003949 0.120537
O O12 0.628397 0.889945 0.894297
O O13 0.774832 0.039520 0.910587
O O14 0.624708 0.146988 0.831402
O O15 0.033713 0.386146 0.209801
O O16 0.051455 0.633665 0.239650
O O17 0.500000 0.735973 0.000000
O O18 0.500000 0.243900 0.000000
#
# Coordination Sequence:
#
# PCOD8048441 Si02
#       8
#     4   4   4   4   4   4   4   4
#     4  10  23  42  68  96 131 180 234 273 336 407
#     4  10  26  47  63  97 145 176 220 282 342 417
#     4  11  23  45  66  92 137 176 221 284 341 401
#     4  10  20  36  60  97 136 165 218 282 339 395
#     4  10  21  38  62  98 135 174 220 287 333 407
#     4  10  18  38  69  97 123 168 229 281 322 399
#     4  10  20  37  67  97 123 170 226 280 325 395
#     4  11  20  42  70  95 134 175 223 281 346 391
#
# _framework density 21.840398
#
# number of rings (size 3 to 8) (size 9 to 14) (size 15 to 20)
#    0.000    1.750    3.750    0.375    0.000    5.500 
#    9.000    0.000    0.000    0.000    0.000    0.000 
#    0.000    0.000    0.000    0.000    0.000    0.000 
#
# Total GULP energy -198225.629211 kJ/mol
# GULP energy per Si atom -12389.101826 kJ/mol
# Density = 2.179069 g / cm^3
# Si number density = 21.840398 Si / 1000 Ang^3
#
#
#
# Elastic Constant Matrix: (Units=GPa)
#
#
# Indices 1 2 3 4 5 6 
#
# 1 102.7798 39.8838 43.7603 0.0000 -0.0842 0.0000
# 2 39.8838 89.7888 45.3998 0.0000 -1.6155 0.0000
# 3 43.7603 45.3998 117.2220 0.0000 -10.2994 0.0000
# 4 0.0000 0.0000 0.0000 17.4334 0.0000 6.2620
# 5 -0.0842 -1.6155 -10.2994 0.0000 28.9955 0.0000
# 6 0.0000 0.0000 0.0000 6.2620 0.0000 18.3058
#
#
#
# Elastic Compliance Matrix: (Units=1/GPa)
#
#
# Indices 1 2 3 4 5 6 
#
# 1 0.012685 -0.003984 -0.003312 0.000000 -0.001362 0.000000
# 2 -0.003984 0.015139 -0.004442 0.000000 -0.000746 0.000000
# 3 -0.003312 -0.004442 0.011834 0.000000 0.003946 0.000000
# 4 0.000000 0.000000 0.000000 0.065397 0.000000 -0.022371
# 5 -0.001362 -0.000746 0.003946 0.000000 0.035844 0.000000
# 6 0.000000 0.000000 0.000000 -0.022371 0.000000 0.062280
#
#
# Mechanical properties :
#
#
# Convention : Reuss Voigt Hill
#
# Bulk Modulus (GPa) = 61.79459 63.09761 62.44610
# Shear Modulus (GPa) = 21.54718 24.99672 23.27195
#
# Velocity S-wave (km/s) = 3.14439 3.38674 3.26781
# Velocity P-wave (km/s) = 6.44500 6.65180 6.54921
#
# Compressibility (1/GPa) = 0.01618265
#
# Stress axis : x y z
#
# Youngs Moduli (GPa) = 78.83549 66.05243 84.50149
#
# Poissons Ratio (x) = 0.26318 0.27985
# Poissons Ratio (y) = 0.31411 0.37532
# Poissons Ratio (z) = 0.26109 0.29338
#
# Static dielectric constant tensor:
#      x y z
#    x 4.117290 0.000000 0.172790 
#    y 0.000000 3.752590 0.000000 
#    z 0.172790 0.000000 4.045390 
# 
# 
# High freq. dielectric constant tensor:
#      x y z
#    x 1.859250 0.000000 0.006410 
#    y 0.000000 1.841330 0.000000 
#    z 0.006410 0.000000 1.845620 
# 
# From -- ./inp_files/23888.got.cif
#   From: 2010.03.12/outbox.cif.g09.slc.cpg/sg5_12_cif.got.tgz:23888.got - 2010.03.31 09:47:26.
