data_PCOD8048769
_publ_section_title
;
Structure prediction by ZEFSAII (Michael W. Deem and Ramdas Pophale) SiO2 
 PCOD8048769
Probable space group: C 2
;
_chemical_formula_sum "Si O2"
_cell_formula_units_Z 32
_cell_length_a 21.817921
_cell_length_b 8.416280
_cell_length_c 12.797244
_cell_angle_alpha 90.000000
_cell_angle_beta 146.090515
_cell_angle_gamma 90.000000
_cell_volume 1310.969940
_symmetry_space_group_name_H-M "C 2"
_symmetry_group_IT_number 5
_symmetry_cell_setting 'monoclinic'
loop_
_space_group_symop_operation_xyz
x,y,z
-x,y,-z
1/2+x,1/2+y,z
1/2-x,1/2+y,-z
loop_
_atom_site_type_symbol
_atom_site_label
_atom_site_fract_x
_atom_site_fract_y
_atom_site_fract_z
Si Si1 0.227867 0.619600 0.209863
Si Si2 0.713358 0.136023 0.524597
Si Si3 0.127175 0.841115 0.217588
Si Si4 0.694258 0.996840 0.955371
Si Si5 0.378918 0.814088 0.869015
Si Si6 0.960135 0.154730 0.553404
Si Si7 0.460076 0.020590 0.554604
Si Si8 0.661825 0.659045 0.984389
O O1 0.184208 0.786341 0.190806
O O2 0.137134 0.484157 0.101325
O O3 0.345976 0.573019 0.427599
O O4 0.246290 0.624873 0.110295
O O5 0.641666 0.188844 0.320302
O O6 0.790622 0.289657 0.652635
O O7 0.635180 0.110916 0.515758
O O8 0.802319 0.990541 0.637377
O O9 0.000000 0.877135 0.000000
O O10 0.564808 0.023400 0.777470
O O11 0.720214 0.818869 0.027039
O O12 0.749589 0.022827 0.919405
O O13 0.500000 0.801776 0.000000
O O14 0.360247 0.667772 0.923766
O O15 0.926921 0.338484 0.487687
O O16 0.000000 0.080860 0.500000
O O17 0.046360 0.122217 0.765988
O O18 0.500000 0.099186 0.500000
#
# Coordination Sequence:
#
# PCOD8048769 Si02
#       8
#     4   4   4   4   4   4   4   4
#     4  11  22  41  68  99 139 187 235 294 359 431
#     4  12  26  49  72 106 145 191 247 297 365 434
#     4  12  27  47  76 107 146 194 249 303 358 438
#     4  10  21  38  64 100 133 180 229 288 360 423
#     4  11  26  45  67  99 145 191 240 295 365 431
#     4  10  19  37  66 101 136 181 228 285 364 429
#     4  10  21  40  68  97 136 179 228 288 356 427
#     4  10  22  40  67  99 140 180 232 294 353 435
#
# _framework density 24.409409
#
# number of rings (size 3 to 8) (size 9 to 14) (size 15 to 20)
#    0.000    1.250    2.500    3.000    1.750    4.000 
#    4.500    1.250    0.000    0.000    0.000    0.000 
#    0.000    0.000    0.000    0.000    0.000    0.000 
#
# Total GULP energy -198229.349397 kJ/mol
# GULP energy per Si atom -12389.334337 kJ/mol
# Density = 2.435385 g / cm^3
# Si number density = 24.409409 Si / 1000 Ang^3
#
#
#
# Elastic Constant Matrix: (Units=GPa)
#
#
# Indices 1 2 3 4 5 6 
#
# 1 104.0691 14.2696 41.1735 0.0000 21.8171 0.0000
# 2 14.2696 43.1821 23.5787 0.0000 7.4311 0.0000
# 3 41.1735 23.5787 115.8176 0.0000 15.1220 0.0000
# 4 0.0000 0.0000 0.0000 33.6250 0.0000 -2.5831
# 5 21.8171 7.4311 15.1220 0.0000 47.2946 0.0000
# 6 0.0000 0.0000 0.0000 -2.5831 0.0000 26.0693
#
#
#
# Elastic Compliance Matrix: (Units=1/GPa)
#
#
# Indices 1 2 3 4 5 6 
#
# 1 0.012051 -0.001368 -0.003452 0.000000 -0.004241 0.000000
# 2 -0.001368 0.026496 -0.004641 0.000000 -0.002048 0.000000
# 3 -0.003452 -0.004641 0.010961 0.000000 -0.001183 0.000000
# 4 0.000000 0.000000 0.000000 0.029968 0.000000 0.002969
# 5 -0.004241 -0.002048 -0.001183 0.000000 0.023800 0.000000
# 6 0.000000 0.000000 0.000000 0.002969 0.000000 0.038654
#
#
# Mechanical properties :
#
#
# Convention : Reuss Voigt Hill
#
# Bulk Modulus (GPa) = 32.69319 46.79029 39.74174
# Shear Modulus (GPa) = 29.23182 33.66756 31.44969
#
# Velocity S-wave (km/s) = 3.46434 3.71790 3.59336
# Velocity P-wave (km/s) = 5.42448 6.13522 5.79076
#
# Compressibility (1/GPa) = 0.03058741
#
# Stress axis : x y z
#
# Youngs Moduli (GPa) = 82.97838 37.74144 91.23483
#
# Poissons Ratio (x) = 0.05162 0.31496
# Poissons Ratio (y) = 0.11349 0.42338
# Poissons Ratio (z) = 0.28646 0.17514
#
# Static dielectric constant tensor:
#      x y z
#    x 4.475230 0.000000 -0.058180 
#    y 0.000000 4.086320 0.000000 
#    z -0.058180 0.000000 4.522470 
# 
# 
# High freq. dielectric constant tensor:
#      x y z
#    x 1.975480 0.000000 0.002910 
#    y 0.000000 1.943090 0.000000 
#    z 0.002910 0.000000 1.984750 
# 
# From -- ./inp_files/57727.got.cif
#   From: 2010.03.12/outbox.cif.g09.slc.cpg/sg5_29_cif.got.tgz:57727.got - 2010.03.31 09:47:26.
