data_PCOD8048251
_publ_section_title
;
Structure prediction by ZEFSAII (Michael W. Deem and Ramdas Pophale) SiO2 
 PCOD8048251
Probable space group: C 2
;
_chemical_formula_sum "Si O2"
_cell_formula_units_Z 32
_cell_length_a 17.460996
_cell_length_b 8.913988
_cell_length_c 11.291646
_cell_angle_alpha 90.000000
_cell_angle_beta 124.160261
_cell_angle_gamma 90.000000
_cell_volume 1454.288891
_symmetry_space_group_name_H-M "C 2"
_symmetry_group_IT_number 5
_symmetry_cell_setting 'monoclinic'
loop_
_space_group_symop_operation_xyz
x,y,z
-x,y,-z
1/2+x,1/2+y,z
1/2-x,1/2+y,-z
loop_
_atom_site_type_symbol
_atom_site_label
_atom_site_fract_x
_atom_site_fract_y
_atom_site_fract_z
Si Si1 0.621244 0.386310 0.908506
Si Si2 0.789927 0.198196 0.037032
Si Si3 0.939580 0.828961 0.647087
Si Si4 0.387371 0.440773 0.846451
Si Si5 0.191880 0.301589 0.703270
Si Si6 0.846431 0.568910 0.460978
Si Si7 0.694955 0.739228 0.212768
Si Si8 0.730001 0.506468 0.588621
O O1 0.680295 0.232203 0.962326
O O2 0.546739 0.380664 0.736169
O O3 0.693388 0.520292 0.948125
O O4 0.560850 0.413670 0.980065
O O5 0.822865 0.271561 0.942044
O O6 0.846954 0.266196 0.198878
O O7 0.911790 0.830212 0.761238
O O8 0.933185 0.658249 0.592450
O O9 0.871972 0.934410 0.513248
O O10 0.283222 0.402048 0.797950
O O11 0.384100 0.619834 0.810700
O O12 0.121609 0.408152 0.566187
O O13 0.216335 0.151176 0.655871
O O14 0.798184 0.670946 0.318446
O O15 0.767330 0.547302 0.492117
O O16 0.694384 0.895135 0.284977
#
# Coordination Sequence:
#
# PCOD8048251 Si02
#       8
#     4   4   4   4   4   4   4   4
#     4  10  22  38  62  85 116 159 204 249 294 357
#     4  10  21  40  60  81 118 164 210 238 293 360
#     4  11  20  35  58  93 119 146 199 251 305 354
#     4   9  17  34  58  87 118 150 195 249 303 351
#     4  10  18  33  58  85 117 167 196 236 293 366
#     4  10  19  33  55  89 123 155 190 243 313 360
#     4   9  18  32  56  86 116 165 199 237 291 364
#     4  11  18  31  57  92 124 152 191 240 308 370
#
# _framework density 22.003881
#
# number of rings (size 3 to 8) (size 9 to 14) (size 15 to 20)
#    0.000    2.000    3.750    2.625    0.000    0.000 
#    0.000    6.875    0.000    4.500    0.000    0.000 
#    0.000    0.000    0.000    0.000    0.000    0.000 
#
# Total GULP energy -198220.804921 kJ/mol
# GULP energy per Si atom -12388.800308 kJ/mol
# Density = 2.195380 g / cm^3
# Si number density = 22.003881 Si / 1000 Ang^3
#
#
#
# Elastic Constant Matrix: (Units=GPa)
#
#
# Indices 1 2 3 4 5 6 
#
# 1 21.2977 14.3083 27.0086 0.0000 -11.3283 0.0000
# 2 14.3083 121.9027 67.0425 0.0000 -3.6926 0.0000
# 3 27.0086 67.0425 129.4436 0.0000 -13.8107 0.0000
# 4 0.0000 0.0000 0.0000 39.8067 0.0000 -4.9755
# 5 -11.3283 -3.6926 -13.8107 0.0000 36.9890 0.0000
# 6 0.0000 0.0000 0.0000 -4.9755 0.0000 20.8427
#
#
#
# Elastic Compliance Matrix: (Units=1/GPa)
#
#
# Indices 1 2 3 4 5 6 
#
# 1 0.073322 -0.000965 -0.012929 0.000000 0.017532 0.000000
# 2 -0.000965 0.011528 -0.005914 0.000000 -0.001353 0.000000
# 3 -0.012929 -0.005914 0.013540 0.000000 0.000505 0.000000
# 4 0.000000 0.000000 0.000000 0.025894 0.000000 0.006181
# 5 0.017532 -0.001353 0.000505 0.000000 0.032458 0.000000
# 6 0.000000 0.000000 0.000000 0.006181 0.000000 0.049454
#
#
# Mechanical properties :
#
#
# Convention : Reuss Voigt Hill
#
# Bulk Modulus (GPa) = 17.01379 54.37367 35.69373
# Shear Modulus (GPa) = 18.83935 30.47998 24.65966
#
# Velocity S-wave (km/s) = 2.92923 3.72588 3.35131
# Velocity P-wave (km/s) = 4.38058 6.57831 5.58854
#
# Compressibility (1/GPa) = 0.05877587
#
# Stress axis : x y z
#
# Youngs Moduli (GPa) = 13.63841 86.74675 73.85700
#
# Poissons Ratio (x) = 0.08370 0.95486
# Poissons Ratio (y) = 0.01316 0.43676
# Poissons Ratio (z) = 0.17633 0.51298
#
# Static dielectric constant tensor:
#      x y z
#    x 3.480300 0.000000 -0.129890 
#    y 0.000000 4.152720 0.000000 
#    z -0.129890 0.000000 4.475600 
# 
# 
# High freq. dielectric constant tensor:
#      x y z
#    x 1.811370 0.000000 -0.018560 
#    y 0.000000 1.862060 0.000000 
#    z -0.018560 0.000000 1.889620 
# 
# From -- ./inp_files/46039.got.cif
#   From: 2010.03.12/outbox.cif.g09.slc.cpg/sg5_24_cif.got.tgz:46039.got - 2010.03.31 09:47:26.
