data_PCOD8048265
_publ_section_title
;
Structure prediction by ZEFSAII (Michael W. Deem and Ramdas Pophale) SiO2 
 PCOD8048265
Probable space group: C 2
;
_chemical_formula_sum "Si O2"
_cell_formula_units_Z 26
_cell_length_a 9.615258
_cell_length_b 20.997373
_cell_length_c 11.975293
_cell_angle_alpha 90.000000
_cell_angle_beta 143.921945
_cell_angle_gamma 90.000000
_cell_volume 1423.783335
_symmetry_space_group_name_H-M "C 2"
_symmetry_group_IT_number 5
_symmetry_cell_setting 'monoclinic'
loop_
_space_group_symop_operation_xyz
x,y,z
-x,y,-z
1/2+x,1/2+y,z
1/2-x,1/2+y,-z
loop_
_atom_site_type_symbol
_atom_site_label
_atom_site_fract_x
_atom_site_fract_y
_atom_site_fract_z
Si Si1 0.911487 0.380230 0.158669
Si Si2 0.943186 0.783287 0.086140
Si Si3 0.500000 0.162336 0.000000
Si Si4 0.728320 0.508648 0.351935
Si Si5 0.500000 0.961714 0.000000
Si Si6 0.897572 0.061879 0.308706
Si Si7 0.715187 0.866183 0.558411
Si Si8 0.500000 0.463494 0.000000
O O1 0.982441 0.419695 0.097810
O O2 0.139984 0.362491 0.380552
O O3 0.813562 0.311985 0.053236
O O4 0.724472 0.420595 0.110979
O O5 0.951141 0.706411 0.078784
O O6 0.107415 0.809530 0.292576
O O7 0.000000 0.812873 0.000000
O O8 0.737600 0.123663 0.180566
O O9 0.628470 0.558264 0.378718
O O10 0.676039 0.436009 0.355598
O O11 0.000000 0.523627 0.500000
O O12 0.575503 0.514625 0.141677
O O13 0.734598 0.002188 0.173341
O O14 0.000000 0.062113 0.500000
O O15 0.500000 0.855402 0.500000
#
# Coordination Sequence:
#
# PCOD8048265 Si02
#       8
#     4   4   2   4   2   4   4   2
#     4  12  19  33  56  87 122 151 183 238 299 359
#     4  10  18  34  55  84 109 145 198 244 281 337
#     4   9  23  38  58  84 116 158 206 252 286 339
#     4  11  21  32  56  88 114 149 193 239 292 352
#     4  11  24  36  55  91 134 155 178 238 314 369
#     4  11  23  39  56  83 123 161 199 240 297 352
#     4  11  16  27  54  87 114 137 183 240 288 346
#     4  12  17  32  55  79 118 153 188 226 276 358
#
# _framework density 18.261206000000001
#
# number of rings (size 3 to 8) (size 9 to 14) (size 15 to 20)
#    0.462    0.615    8.462    0.923    0.000    1.846 
#    0.000    0.000    0.000    2.769    0.000    0.000 
#    0.000    0.000    0.000    0.000    0.000    0.000 
#
# Total GULP energy -161045.849807 kJ/mol
# GULP energy per Si atom -12388.142293 kJ/mol
# Density = 1.821964 g / cm^3
# Si number density = 18.261206 Si / 1000 Ang^3
#
#
#
# Elastic Constant Matrix: (Units=GPa)
#
#
# Indices 1 2 3 4 5 6 
#
# 1 85.5705 48.6747 52.9342 -0.0001 -9.0453 -0.0001
# 2 48.6747 94.1254 56.7555 0.0000 -6.8900 0.0000
# 3 52.9342 56.7555 164.9339 -0.0001 -24.0724 -0.0002
# 4 -0.0001 0.0000 -0.0001 21.2265 -0.0001 -3.7675
# 5 -9.0453 -6.8900 -24.0724 -0.0001 27.8062 -0.0002
# 6 -0.0001 0.0000 -0.0002 -3.7675 -0.0002 24.1285
#
#
#
# Elastic Compliance Matrix: (Units=1/GPa)
#
#
# Indices 1 2 3 4 5 6 
#
# 1 0.017858 -0.007318 -0.003010 0.000000 0.001390 0.000000
# 2 -0.007318 0.016419 -0.003497 0.000000 -0.001339 0.000000
# 3 -0.003010 -0.003497 0.009115 0.000000 0.006045 0.000000
# 4 0.000000 0.000000 0.000000 0.048454 0.000000 0.007566
# 5 0.001390 -0.001339 0.006045 0.000000 0.041317 0.000000
# 6 0.000000 0.000000 0.000000 0.007566 0.000000 0.042626
#
#
# Mechanical properties :
#
#
# Convention : Reuss Voigt Hill
#
# Bulk Modulus (GPa) = 63.52632 73.48431 68.50532
# Shear Modulus (GPa) = 23.95952 27.04995 25.50473
#
# Velocity S-wave (km/s) = 3.62615 3.85291 3.74125
# Velocity P-wave (km/s) = 7.23844 7.75379 7.50054
#
# Compressibility (1/GPa) = 0.01574151
#
# Stress axis : x y z
#
# Youngs Moduli (GPa) = 55.99725 60.90568 109.71221
#
# Poissons Ratio (x) = 0.44570 0.33028
# Poissons Ratio (y) = 0.40978 0.38364
# Poissons Ratio (z) = 0.16857 0.21297
#
# Static dielectric constant tensor:
#      x y z
#    x 3.212030 0.000000 0.027090 
#    y 0.000000 3.151500 0.000000 
#    z 0.027090 0.000000 3.598170 
# 
# 
# High freq. dielectric constant tensor:
#      x y z
#    x 1.681890 0.000000 -0.005120 
#    y 0.000000 1.675010 0.000000 
#    z -0.005120 0.000000 1.731960 
# 
# From -- ./inp_files/37145.got.cif
#   From: 2010.03.12/outbox.cif.g09.slc.cpg/sg5_19_cif.got.tgz:37145.got - 2010.03.31 09:47:26.
