data_PCOD8048734
_publ_section_title
;
Structure prediction by ZEFSAII (Michael W. Deem and Ramdas Pophale) SiO2 
 PCOD8048734
Probable space group: C 2
;
_chemical_formula_sum "Si O2"
_cell_formula_units_Z 22
_cell_length_a 23.972482
_cell_length_b 5.263037
_cell_length_c 9.619468
_cell_angle_alpha 90.000000
_cell_angle_beta 126.130338
_cell_angle_gamma 90.000000
_cell_volume 980.253994
_symmetry_space_group_name_H-M "C 2"
_symmetry_group_IT_number 5
_symmetry_cell_setting 'monoclinic'
loop_
_space_group_symop_operation_xyz
x,y,z
-x,y,-z
1/2+x,1/2+y,z
1/2-x,1/2+y,-z
loop_
_atom_site_type_symbol
_atom_site_label
_atom_site_fract_x
_atom_site_fract_y
_atom_site_fract_z
Si Si1 0.611990 0.444520 0.663136
Si Si2 0.779646 0.055703 0.611122
Si Si3 0.500000 0.182513 0.000000
Si Si4 0.002181 0.993286 0.726159
Si Si5 0.595889 0.849204 0.288538
Si Si6 0.321218 0.961554 0.329822
O O1 0.574421 0.514625 0.751555
O O2 0.556400 0.380038 0.461890
O O3 0.661843 0.681975 0.702528
O O4 0.656936 0.185869 0.744188
O O5 0.740636 0.319709 0.515753
O O6 0.861912 0.108260 0.713991
O O7 0.759633 0.990095 0.743847
O O8 0.514571 0.336958 0.882820
O O9 0.429724 0.021152 0.876180
O O10 0.973762 0.267210 0.731347
O O11 0.642541 0.002872 0.466119
#
# Coordination Sequence:
#
# PCOD8048734 Si02
#       6
#     4   4   2   4   4   4
#     4  10  21  36  62  87 125 151 205 249 306 355
#     4  10  20  35  61  90 125 154 203 264 306 347
#     4  12  22  38  58  88 136 162 202 238 314 372
#     4  10  22  36  56  89 123 163 199 250 302 367
#     4  10  22  36  57  92 124 159 202 250 310 361
#     4  10  19  37  59  91 117 155 199 260 301 351
#
# _framework density 22.443161
#
# number of rings (size 3 to 8) (size 9 to 14) (size 15 to 20)
#    0.000    1.818    1.818    3.818    5.091    1.455 
#    0.000    0.000    0.000    0.000    9.455    0.000 
#    0.000    0.000    0.000    0.000    0.000    0.000 
#
# Total GULP energy -136288.873795 kJ/mol
# GULP energy per Si atom -12389.897618 kJ/mol
# Density = 2.239208 g / cm^3
# Si number density = 22.443161 Si / 1000 Ang^3
#
#
#
# Elastic Constant Matrix: (Units=GPa)
#
#
# Indices 1 2 3 4 5 6 
#
# 1 143.4046 40.8565 17.7162 0.0000 -42.9880 0.0000
# 2 40.8565 119.7398 14.8006 0.0000 -13.3328 0.0000
# 3 17.7162 14.8006 61.1449 0.0000 -18.0514 0.0000
# 4 0.0000 0.0000 0.0000 21.9424 0.0000 2.3789
# 5 -42.9880 -13.3328 -18.0514 0.0000 26.2468 0.0000
# 6 0.0000 0.0000 0.0000 2.3789 0.0000 42.0620
#
#
#
# Elastic Compliance Matrix: (Units=1/GPa)
#
#
# Indices 1 2 3 4 5 6 
#
# 1 0.015057 -0.002733 0.003977 0.000000 0.026008 0.000000
# 2 -0.002733 0.009400 -0.001751 0.000000 -0.000906 0.000000
# 3 0.003977 -0.001751 0.021691 0.000000 0.020542 0.000000
# 4 0.000000 0.000000 0.000000 0.045855 0.000000 -0.002593
# 5 0.026008 -0.000906 0.020542 0.000000 0.094364 0.000000
# 6 0.000000 0.000000 0.000000 -0.002593 0.000000 0.023921
#
#
# Mechanical properties :
#
#
# Convention : Reuss Voigt Hill
#
# Bulk Modulus (GPa) = 22.15668 52.33732 37.24700
# Shear Modulus (GPa) = 22.09012 34.77798 28.43405
#
# Velocity S-wave (km/s) = 3.14071 3.94077 3.56327
# Velocity P-wave (km/s) = 4.80061 6.63904 5.79321
#
# Compressibility (1/GPa) = 0.04513312
#
# Stress axis : x y z
#
# Youngs Moduli (GPa) = 66.41490 106.38767 46.10285
#
# Poissons Ratio (x) = 0.29079 -0.18335
# Poissons Ratio (y) = 0.18153 0.08071
# Poissons Ratio (z) = -0.26414 0.18626
#
# Static dielectric constant tensor:
#      x y z
#    x 4.843680 0.000000 -0.220230 
#    y 0.000000 3.993300 0.000000 
#    z -0.220230 0.000000 3.667390 
# 
# 
# High freq. dielectric constant tensor:
#      x y z
#    x 1.898620 0.000000 -0.017140 
#    y 0.000000 1.891710 0.000000 
#    z -0.017140 0.000000 1.827300 
# 
# From -- ./inp_files/30183.got.cif
#   From: 2010.03.12/outbox.cif.g09.slc.cpg/sg5_16_cif.got.tgz:30183.got - 2010.03.31 09:47:26.
