data_PCOD8048933
_publ_section_title
;
Structure prediction by ZEFSAII (Michael W. Deem and Ramdas Pophale) SiO2 
 PCOD8048933
Probable space group: C 2
;
_chemical_formula_sum "Si O2"
_cell_formula_units_Z 26
_cell_length_a 9.720112
_cell_length_b 20.716557
_cell_length_c 9.605536
_cell_angle_alpha 90.000000
_cell_angle_beta 136.664743
_cell_angle_gamma 90.000000
_cell_volume 1327.403543
_symmetry_space_group_name_H-M "C 2"
_symmetry_group_IT_number 5
_symmetry_cell_setting 'monoclinic'
loop_
_space_group_symop_operation_xyz
x,y,z
-x,y,-z
1/2+x,1/2+y,z
1/2-x,1/2+y,-z
loop_
_atom_site_type_symbol
_atom_site_label
_atom_site_fract_x
_atom_site_fract_y
_atom_site_fract_z
Si Si1 0.500000 0.623590 0.000000
Si Si2 0.933738 0.668764 0.791796
Si Si3 0.976010 0.042747 0.246776
Si Si4 0.326403 0.227634 0.260983
Si Si5 0.000000 0.140579 0.500000
Si Si6 0.934206 0.543112 0.607880
Si Si7 0.500000 0.833606 0.000000
Si Si8 0.879790 0.457136 0.040392
O O1 0.423665 0.577701 0.064862
O O2 0.685418 0.666389 0.189337
O O3 0.693447 0.684203 0.600326
O O4 0.976704 0.603004 0.740195
O O5 0.069162 0.723526 0.815104
O O6 0.000000 0.664544 0.000000
O O7 0.911928 0.094606 0.315191
O O8 0.203936 0.022612 0.434797
O O9 0.851027 0.976216 0.159204
O O10 0.500000 0.228853 0.500000
O O11 0.191330 0.291003 0.181579
O O12 0.000000 0.559718 0.500000
O O13 0.052356 0.482425 0.758618
O O14 0.578156 0.879838 0.931365
O O15 0.000000 0.490249 0.000000
#
# Coordination Sequence:
#
# PCOD8048933 Si02
#       8
#     2   4   4   4   2   4   2   4
#     4  11  22  34  56  98 124 145 188 238 304 373
#     4  11  21  35  60  91 128 154 184 241 310 365
#     4  11  20  32  56  88 125 151 180 235 302 359
#     4  11  22  41  64  84 116 161 207 252 294 349
#     4  10  20  30  50  96 118 146 184 222 302 372
#     4  11  21  34  59  98 126 156 189 236 304 370
#     4   9  26  42  64  82 110 163 224 250 286 345
#     4  10  21  39  58  81 118 156 204 249 287 348
#
# _framework density 19.587112999999999
#
# number of rings (size 3 to 8) (size 9 to 14) (size 15 to 20)
#    0.462    0.923    0.000    9.231    0.000    2.462 
#    0.000    0.000    8.462    0.000    0.000    0.000 
#    0.000    0.000    0.000    0.000    0.000    0.000 
#
# Total GULP energy -161135.111128 kJ/mol
# GULP energy per Si atom -12395.008548 kJ/mol
# Density = 1.954253 g / cm^3
# Si number density = 19.587113 Si / 1000 Ang^3
#
#
#
# Elastic Constant Matrix: (Units=GPa)
#
#
# Indices 1 2 3 4 5 6 
#
# 1 111.5575 43.4697 51.7053 0.0000 4.8434 0.0000
# 2 43.4697 81.8732 48.1296 0.0000 8.5072 0.0000
# 3 51.7053 48.1296 129.2456 0.0000 2.3789 0.0000
# 4 0.0000 0.0000 0.0000 7.3224 0.0000 3.9513
# 5 4.8434 8.5072 2.3789 0.0000 53.6533 0.0000
# 6 0.0000 0.0000 0.0000 3.9513 0.0000 37.3424
#
#
#
# Elastic Compliance Matrix: (Units=1/GPa)
#
#
# Indices 1 2 3 4 5 6 
#
# 1 0.012242 -0.004608 -0.003177 0.000000 -0.000234 0.000000
# 2 -0.004608 0.017641 -0.004686 0.000000 -0.002173 0.000000
# 3 -0.003177 -0.004686 0.010743 0.000000 0.000554 0.000000
# 4 0.000000 0.000000 0.000000 0.144838 0.000000 -0.015326
# 5 -0.000234 -0.002173 0.000554 0.000000 0.018979 0.000000
# 6 0.000000 0.000000 0.000000 -0.015326 0.000000 0.028401
#
#
# Mechanical properties :
#
#
# Convention : Reuss Voigt Hill
#
# Bulk Modulus (GPa) = 63.75859 67.69841 65.72850
# Shear Modulus (GPa) = 19.01034 31.62174 25.31604
#
# Velocity S-wave (km/s) = 3.11875 4.02234 3.59901
# Velocity P-wave (km/s) = 6.75209 7.49734 7.13445
#
# Compressibility (1/GPa) = 0.01568416
#
# Stress axis : x y z
#
# Youngs Moduli (GPa) = 81.68411 56.68633 93.08266
#
# Poissons Ratio (x) = 0.26120 0.29576
# Poissons Ratio (y) = 0.37638 0.43618
# Poissons Ratio (z) = 0.25954 0.26563
#
# Static dielectric constant tensor:
#      x y z
#    x 3.949880 0.000000 0.108890 
#    y 0.000000 3.236190 0.000000 
#    z 0.108890 0.000000 3.589730 
# 
# 
# High freq. dielectric constant tensor:
#      x y z
#    x 1.779110 0.000000 0.013660 
#    y 0.000000 1.714290 0.000000 
#    z 0.013660 0.000000 1.778410 
# 
# From -- ./inp_files/17098.got.cif
#   From: 2010.03.12/outbox.cif.g09.slc.cpg/sg5_9_cif.got.tgz:17098.got - 2010.03.31 09:47:26.
