data_PCOD8048364
_publ_section_title
;
Structure prediction by ZEFSAII (Michael W. Deem and Ramdas Pophale) SiO2 
 PCOD8048364
Probable space group: C 2
;
_chemical_formula_sum "Si O2"
_cell_formula_units_Z 32
_cell_length_a 9.970164
_cell_length_b 9.464202
_cell_length_c 24.844854
_cell_angle_alpha 90.000000
_cell_angle_beta 135.808284
_cell_angle_gamma 90.000000
_cell_volume 1634.157129
_symmetry_space_group_name_H-M "C 2"
_symmetry_group_IT_number 5
_symmetry_cell_setting 'monoclinic'
loop_
_space_group_symop_operation_xyz
x,y,z
-x,y,-z
1/2+x,1/2+y,z
1/2-x,1/2+y,-z
loop_
_atom_site_type_symbol
_atom_site_label
_atom_site_fract_x
_atom_site_fract_y
_atom_site_fract_z
Si Si1 0.215196 0.751840 0.328306
Si Si2 0.542875 0.439769 0.359185
Si Si3 0.170565 0.197093 0.827238
Si Si4 0.584934 0.826594 0.915245
Si Si5 0.636893 0.466186 0.586273
Si Si6 0.339358 0.383319 0.198678
Si Si7 0.540759 0.753802 0.342315
Si Si8 0.576843 0.127759 0.961363
O O1 0.210844 0.841029 0.382832
O O2 0.240887 0.588678 0.349980
O O3 0.385537 0.810202 0.340393
O O4 0.014697 0.774600 0.237469
O O5 0.489496 0.389399 0.403804
O O6 0.353405 0.430617 0.265910
O O7 0.617083 0.600302 0.381493
O O8 0.105076 0.294820 0.857848
O O9 0.048910 0.255103 0.742702
O O10 0.135791 0.028401 0.828808
O O11 0.400286 0.211057 0.881818
O O12 0.362689 0.803372 0.869846
O O13 0.634416 0.987520 0.945043
O O14 0.732704 0.723496 0.988171
O O15 0.500000 0.526671 0.500000
O O16 0.778460 0.354863 0.600671
O O17 0.500000 0.095110 0.000000
#
# Coordination Sequence:
#
# PCOD8048364 Si02
#       8
#     4   4   4   4   4   4   4   4
#     4   9  21  40  60  85 118 148 197 243 293 345
#     4   8  19  39  58  82 117 149 198 238 284 345
#     4   9  18  36  63  81 114 151 196 245 287 334
#     4  10  18  36  62  81 117 158 187 240 293 340
#     4  11  23  37  57  89 122 152 191 245 298 350
#     4   8  17  36  63  83 106 156 195 237 288 333
#     4  10  20  38  62  87 113 151 196 244 292 346
#     4   9  20  38  55  81 120 157 189 237 293 344
#
# _framework density 19.581961
#
# number of rings (size 3 to 8) (size 9 to 14) (size 15 to 20)
#    0.750    2.000    0.000    0.750    0.000    5.000 
#    9.000    2.500    5.500    0.000    0.000    0.000 
#    0.000    0.000    0.000    0.000    0.000    0.000 
#
# Total GULP energy -198245.882452 kJ/mol
# GULP energy per Si atom -12390.367653 kJ/mol
# Density = 1.953739 g / cm^3
# Si number density = 19.581961 Si / 1000 Ang^3
#
#
#
# Elastic Constant Matrix: (Units=GPa)
#
#
# Indices 1 2 3 4 5 6 
#
# 1 97.2371 53.9290 13.9253 0.0000 15.1968 0.0000
# 2 53.9290 80.9722 32.7499 0.0000 21.4528 0.0000
# 3 13.9253 32.7499 65.2268 0.0000 14.4716 0.0000
# 4 0.0000 0.0000 0.0000 27.1257 0.0000 2.0696
# 5 15.1968 21.4528 14.4716 0.0000 18.6527 0.0000
# 6 0.0000 0.0000 0.0000 2.0696 0.0000 34.9127
#
#
#
# Elastic Compliance Matrix: (Units=1/GPa)
#
#
# Indices 1 2 3 4 5 6 
#
# 1 0.016705 -0.011618 0.002805 0.000000 -0.002424 0.000000
# 2 -0.011618 0.027499 -0.007743 0.000000 -0.016155 0.000000
# 3 0.002805 -0.007743 0.020717 0.000000 -0.009453 0.000000
# 4 0.000000 0.000000 0.000000 0.037033 0.000000 -0.002195
# 5 -0.002424 -0.016155 -0.009453 0.000000 0.081501 0.000000
# 6 0.000000 0.000000 0.000000 -0.002195 0.000000 0.028773
#
#
# Mechanical properties :
#
#
# Convention : Reuss Voigt Hill
#
# Bulk Modulus (GPa) = 31.43694 49.40496 40.42095
# Shear Modulus (GPa) = 19.53558 25.66033 22.59795
#
# Velocity S-wave (km/s) = 3.16196 3.62388 3.40077
# Velocity P-wave (km/s) = 5.42398 6.54176 6.00892
#
# Compressibility (1/GPa) = 0.03180971
#
# Stress axis : x y z
#
# Youngs Moduli (GPa) = 59.86331 36.36447 48.26889
#
# Poissons Ratio (x) = 0.42248 -0.13538
# Poissons Ratio (y) = 0.69548 0.37373
# Poissons Ratio (z) = -0.16790 0.28156
#
# Static dielectric constant tensor:
#      x y z
#    x 3.478730 0.000000 -0.006000 
#    y 0.000000 3.343540 0.000000 
#    z -0.006000 0.000000 3.531300 
# 
# 
# High freq. dielectric constant tensor:
#      x y z
#    x 1.753380 0.000000 -0.000750 
#    y 0.000000 1.747900 0.000000 
#    z -0.000750 0.000000 1.760230 
# 
# From -- ./inp_files/71771.got.cif
#   From: 2010.03.12/outbox.cif.g09.slc.cpg/sg5_36_cif.got.tgz:71771.got - 2010.03.31 09:47:26.
