data_PCOD8048820
_publ_section_title
;
Structure prediction by ZEFSAII (Michael W. Deem and Ramdas Pophale) SiO2 
 PCOD8048820
Probable space group: C 2
;
_chemical_formula_sum "Si O2"
_cell_formula_units_Z 30
_cell_length_a 9.156357
_cell_length_b 10.369383
_cell_length_c 30.581441
_cell_angle_alpha 90.000000
_cell_angle_beta 150.773240
_cell_angle_gamma 90.000000
_cell_volume 1417.722468
_symmetry_space_group_name_H-M "C 2"
_symmetry_group_IT_number 5
_symmetry_cell_setting 'monoclinic'
loop_
_space_group_symop_operation_xyz
x,y,z
-x,y,-z
1/2+x,1/2+y,z
1/2-x,1/2+y,-z
loop_
_atom_site_type_symbol
_atom_site_label
_atom_site_fract_x
_atom_site_fract_y
_atom_site_fract_z
Si Si1 0.849033 0.388400 0.187360
Si Si2 0.670044 0.170387 0.830372
Si Si3 0.563005 0.718382 0.634418
Si Si4 0.888856 0.143901 0.790252
Si Si5 0.208321 0.899135 0.899539
Si Si6 0.046221 0.936696 0.609361
Si Si7 0.500000 0.381677 0.500000
Si Si8 0.223411 0.715454 0.403928
O O1 0.826694 0.520688 0.152336
O O2 0.538970 0.356852 0.129900
O O3 0.928348 0.267298 0.178190
O O4 0.102126 0.411766 0.290359
O O5 0.336034 0.227321 0.739490
O O6 0.835629 0.169032 0.827234
O O7 0.822362 0.271704 0.903153
O O8 0.449256 0.572100 0.603835
O O9 0.670896 0.770248 0.615139
O O10 0.294566 0.797968 0.583676
O O11 0.573008 0.127903 0.681183
O O12 0.079519 0.012673 0.834182
O O13 0.500000 0.955102 0.000000
O O14 0.982765 0.957039 0.541301
O O15 0.845290 0.829696 0.580145
O O16 0.500000 0.638021 0.500000
#
# Coordination Sequence:
#
# PCOD8048820 Si02
#       8
#     4   4   4   4   4   4   2   4
#     4   9  20  41  61  84 121 158 198 248 302 359
#     4   9  20  41  60  84 121 158 198 248 305 357
#     4  10  22  36  54  80 116 155 197 247 291 341
#     4   9  21  40  64  89 124 164 199 249 302 357
#     4  11  23  40  64  93 123 153 197 256 312 370
#     4  10  22  37  55  80 116 156 197 249 290 339
#     4  12  22  30  52  84 108 150 202 236 286 344
#     4  10  19  39  58  83 122 160 203 245 287 341
#
# _framework density 21.160699999999999
#
# number of rings (size 3 to 8) (size 9 to 14) (size 15 to 20)
#    0.000    2.133    1.333    1.600    1.867    3.200 
#    0.000    7.333    0.000    0.000    0.000    0.000 
#    0.000    0.000    0.000    0.000    0.000    0.000 
#
# Total GULP energy -185901.725237 kJ/mol
# GULP energy per Si atom -12393.448349 kJ/mol
# Density = 2.111254 g / cm^3
# Si number density = 21.160700 Si / 1000 Ang^3
#
#
#
# Elastic Constant Matrix: (Units=GPa)
#
#
# Indices 1 2 3 4 5 6 
#
# 1 52.4159 31.9299 17.9395 0.0000 5.6907 0.0000
# 2 31.9299 114.4910 36.7784 0.0000 -5.8350 0.0000
# 3 17.9395 36.7784 86.9577 -0.0006 0.9311 -0.0001
# 4 0.0000 0.0000 -0.0006 26.4082 0.0002 -9.0972
# 5 5.6907 -5.8350 0.9311 0.0002 23.2216 0.0001
# 6 0.0000 0.0000 -0.0001 -9.0972 0.0001 10.8444
#
#
#
# Elastic Compliance Matrix: (Units=1/GPa)
#
#
# Indices 1 2 3 4 5 6 
#
# 1 0.024655 -0.006545 -0.002237 0.000000 -0.007597 0.000000
# 2 -0.006545 0.012018 -0.003784 0.000000 0.004775 0.000000
# 3 -0.002237 -0.003784 0.013572 0.000000 -0.000947 0.000001
# 4 0.000000 0.000000 0.000000 0.053258 -0.000001 0.044677
# 5 -0.007597 0.004775 -0.000947 -0.000001 0.046163 -0.000001
# 6 0.000000 0.000000 0.000001 0.044677 -0.000001 0.129692
#
#
# Mechanical properties :
#
#
# Convention : Reuss Voigt Hill
#
# Bulk Modulus (GPa) = 39.81815 47.46227 43.64021
# Shear Modulus (GPa) = 15.98150 23.24263 19.61206
#
# Velocity S-wave (km/s) = 2.75115 3.31779 3.04767
# Velocity P-wave (km/s) = 5.38049 6.09550 5.74912
#
# Compressibility (1/GPa) = 0.02511418
#
# Stress axis : x y z
#
# Youngs Moduli (GPa) = 40.55920 83.20528 73.68117
#
# Poissons Ratio (x) = 0.54454 0.16483
# Poissons Ratio (y) = 0.26544 0.27882
# Poissons Ratio (z) = 0.09074 0.31486
#
# Static dielectric constant tensor:
#      x y z
#    x 3.622390 0.000000 0.087220 
#    y 0.000000 3.879170 0.000000 
#    z 0.087220 0.000000 3.842150 
# 
# 
# High freq. dielectric constant tensor:
#      x y z
#    x 1.816300 0.000000 0.008170 
#    y 0.000000 1.833840 0.000000 
#    z 0.008170 0.000000 1.824230 
# 
# From -- ./inp_files/50317.got.cif
#   From: 2010.03.12/outbox.cif.g09.slc.cpg/sg5_26_cif.got.tgz:50317.got - 2010.03.31 09:47:26.
