data_PCOD8048689
_publ_section_title
;
Structure prediction by ZEFSAII (Michael W. Deem and Ramdas Pophale) SiO2 
 PCOD8048689
Probable space group: C 2
;
_chemical_formula_sum "Si O2"
_cell_formula_units_Z 32
_cell_length_a 17.978523
_cell_length_b 8.865367
_cell_length_c 11.365467
_cell_angle_alpha 90.000000
_cell_angle_beta 122.871115
_cell_angle_gamma 90.000000
_cell_volume 1521.466108
_symmetry_space_group_name_H-M "C 2"
_symmetry_group_IT_number 5
_symmetry_cell_setting 'monoclinic'
loop_
_space_group_symop_operation_xyz
x,y,z
-x,y,-z
1/2+x,1/2+y,z
1/2-x,1/2+y,-z
loop_
_atom_site_type_symbol
_atom_site_label
_atom_site_fract_x
_atom_site_fract_y
_atom_site_fract_z
Si Si1 0.376724 0.155100 0.036309
Si Si2 0.048224 0.464290 0.222343
Si Si3 0.218449 0.466132 0.211249
Si Si4 0.209934 0.654634 0.796717
Si Si5 0.325030 0.462199 0.523654
Si Si6 0.378698 0.482991 0.956050
Si Si7 0.536364 0.609061 0.208745
Si Si8 0.161740 0.614656 0.501007
O O1 0.356549 0.193112 0.154706
O O2 0.459848 0.042576 0.098889
O O3 0.396111 0.304509 0.977711
O O4 0.288364 0.075791 0.906849
O O5 0.127107 0.495335 0.200535
O O6 0.034889 0.287122 0.221802
O O7 0.075880 0.533554 0.372410
O O8 0.225795 0.294948 0.174979
O O9 0.300504 0.506288 0.367833
O O10 0.274781 0.516180 0.885253
O O11 0.150068 0.615975 0.631866
O O12 0.419197 0.536374 0.636959
O O13 0.251050 0.523522 0.549193
O O14 0.329432 0.282691 0.543445
O O15 0.409938 0.549389 0.858257
O O16 0.434713 0.557699 0.110387
#
# Coordination Sequence:
#
# PCOD8048689 Si02
#       8
#     4   4   4   4   4   4   4   4
#     4  12  26  38  65  94 130 170 220 256 321 399
#     4  11  23  40  64  94 126 164 214 276 319 375
#     4  10  22  39  63  91 131 166 210 266 321 378
#     4  11  22  45  61  91 136 174 202 260 332 395
#     4  10  19  36  61  95 122 161 214 271 317 374
#     4  11  24  37  62  94 124 167 209 263 320 389
#     4  11  22  39  63  90 127 156 211 272 323 362
#     4  10  21  36  65  89 129 166 211 262 328 380
#
# _framework density 21.032344999999999
#
# number of rings (size 3 to 8) (size 9 to 14) (size 15 to 20)
#    0.000    1.250    2.500    4.125    8.750    1.500 
#    0.000    0.000    0.000    6.750    0.000    0.000 
#    0.000    0.000    0.000    0.000    0.000    0.000 
#
# Total GULP energy -198415.413014 kJ/mol
# GULP energy per Si atom -12400.963313 kJ/mol
# Density = 2.098447 g / cm^3
# Si number density = 21.032345 Si / 1000 Ang^3
#
#
#
# Elastic Constant Matrix: (Units=GPa)
#
#
# Indices 1 2 3 4 5 6 
#
# 1 45.6668 24.8300 21.5178 0.0000 -5.9849 0.0000
# 2 24.8300 164.7269 79.1491 0.0000 4.2265 0.0000
# 3 21.5178 79.1491 151.5925 0.0000 6.1890 0.0000
# 4 0.0000 0.0000 0.0000 40.5401 0.0000 2.5122
# 5 -5.9849 4.2265 6.1890 0.0000 28.7109 0.0000
# 6 0.0000 0.0000 0.0000 2.5122 0.0000 14.0029
#
#
#
# Elastic Compliance Matrix: (Units=1/GPa)
#
#
# Indices 1 2 3 4 5 6 
#
# 1 0.025377 -0.002846 -0.002370 0.000000 0.006220 0.000000
# 2 -0.002846 0.008425 -0.003955 0.000000 -0.000981 0.000000
# 3 -0.002370 -0.003955 0.009074 0.000000 -0.001868 0.000000
# 4 0.000000 0.000000 0.000000 0.024944 0.000000 -0.004475
# 5 0.006220 -0.000981 -0.001868 0.000000 0.036674 0.000000
# 6 0.000000 0.000000 0.000000 -0.004475 0.000000 0.072216
#
#
# Mechanical properties :
#
#
# Convention : Reuss Voigt Hill
#
# Bulk Modulus (GPa) = 40.75901 68.10888 54.43395
# Shear Modulus (GPa) = 24.60257 32.41675 28.50966
#
# Velocity S-wave (km/s) = 3.42387 3.93017 3.68573
# Velocity P-wave (km/s) = 5.92046 7.28342 6.63702
#
# Compressibility (1/GPa) = 0.02453445
#
# Stress axis : x y z
#
# Youngs Moduli (GPa) = 39.40558 118.69354 110.20229
#
# Poissons Ratio (x) = 0.33780 0.26120
# Poissons Ratio (y) = 0.11215 0.43583
# Poissons Ratio (z) = 0.09340 0.46942
#
# Static dielectric constant tensor:
#      x y z
#    x 3.347570 0.000000 0.089620 
#    y 0.000000 3.822150 0.000000 
#    z 0.089620 0.000000 4.279170 
# 
# 
# High freq. dielectric constant tensor:
#      x y z
#    x 1.780200 0.000000 0.007040 
#    y 0.000000 1.833300 0.000000 
#    z 0.007040 0.000000 1.848360 
# 
# From -- ./inp_files/46156.got.cif
#   From: 2010.03.12/outbox.cif.g09.slc.cpg/sg5_24_cif.got.tgz:46156.got - 2010.03.31 09:47:26.
