data_PCOD8048005
_publ_section_title
;
Structure prediction by ZEFSAII (Michael W. Deem and Ramdas Pophale) SiO2 
 PCOD8048005
Probable space group: P 21
;
_chemical_formula_sum "Si O2"
_cell_formula_units_Z 16
_cell_length_a 8.618145
_cell_length_b 8.722808
_cell_length_c 8.886593
_cell_angle_alpha 90.000000
_cell_angle_beta 75.348060
_cell_angle_gamma 90.000000
_cell_volume 646.319882
_symmetry_space_group_name_H-M "P 21"
_symmetry_group_IT_number 4
_symmetry_cell_setting 'monoclinic'
loop_
_space_group_symop_operation_xyz
x,y,z
-x,1/2+y,-z
loop_
_atom_site_type_symbol
_atom_site_label
_atom_site_fract_x
_atom_site_fract_y
_atom_site_fract_z
Si Si1 0.190779 0.964150 0.898742
Si Si2 0.272108 0.442891 0.126786
Si Si3 0.712257 0.676924 0.394107
Si Si4 0.913000 0.141378 0.053868
Si Si5 0.585908 0.409791 0.905289
Si Si6 0.791894 0.637617 0.709118
Si Si7 0.370912 0.660886 0.340771
Si Si8 0.143429 0.512944 0.637145
O O1 0.066710 0.822429 0.925810
O O2 0.223365 0.041252 0.729721
O O3 0.342089 0.884506 0.944371
O O4 0.100163 0.090528 0.024494
O O5 0.174724 0.311039 0.240049
O O6 0.391864 0.520379 0.219878
O O7 0.151540 0.572738 0.089542
O O8 0.393464 0.386145 0.964053
O O9 0.720518 0.619844 0.560570
O O10 0.527733 0.703751 0.396975
O O11 0.814563 0.833469 0.366766
O O12 0.801063 0.077380 0.214814
O O13 0.644435 0.579953 0.849057
O O14 0.667439 0.305184 0.756846
O O15 0.952884 0.536130 0.669392
O O16 0.227281 0.614549 0.487617
#
# Coordination Sequence:
#
# PCOD8048005 Si02
#       8
#     2   2   2   2   2   2   2   2
#     4  12  27  48  77 114 153 214 268 337 402 486
#     4  12  26  52  80 118 155 211 276 345 403 490
#     4  12  30  51  80 116 170 213 277 334 420 500
#     4  12  27  46  79 112 157 206 270 334 407 484
#     4  12  27  49  78 112 160 208 273 335 404 486
#     4  12  30  49  81 118 166 219 271 341 422 491
#     4  12  28  49  80 118 159 215 271 338 422 488
#     4  12  29  50  77 118 168 214 266 340 416 495
#
# _framework density 24.755544
#
# number of rings (size 3 to 8) (size 9 to 14) (size 15 to 20)
#    0.000    0.000    5.000    3.000   10.500    0.000 
#    0.000    0.000    0.000    0.000    0.000    0.000 
#    0.000    0.000    0.000    0.000    0.000    0.000 
#
# Total GULP energy -198268.020411 kJ/mol
# GULP energy per Si atom -12391.751276 kJ/mol
# Density = 2.469920 g / cm^3
# Si number density = 24.755544 Si / 1000 Ang^3
#
#
#
# Elastic Constant Matrix: (Units=GPa)
#
#
# Indices 1 2 3 4 5 6 
#
# 1 102.0307 35.6263 34.0610 0.0000 2.1020 0.0000
# 2 35.6263 107.0578 29.5078 0.0000 6.3275 0.0000
# 3 34.0610 29.5078 125.7106 0.0000 6.8880 0.0000
# 4 0.0000 0.0000 0.0000 58.8533 0.0000 -1.2044
# 5 2.1020 6.3275 6.8880 0.0000 42.4933 0.0000
# 6 0.0000 0.0000 0.0000 -1.2044 0.0000 33.1635
#
#
#
# Elastic Compliance Matrix: (Units=1/GPa)
#
#
# Indices 1 2 3 4 5 6 
#
# 1 0.011744 -0.003255 -0.002434 0.000000 0.000298 0.000000
# 2 -0.003255 0.010942 -0.001620 0.000000 -0.001206 0.000000
# 3 -0.002434 -0.001620 0.009055 0.000000 -0.001106 0.000000
# 4 0.000000 0.000000 0.000000 0.017004 0.000000 0.000618
# 5 0.000298 -0.001206 -0.001106 0.000000 0.023877 0.000000
# 6 0.000000 0.000000 0.000000 0.000618 0.000000 0.030176
#
#
# Mechanical properties :
#
#
# Convention : Reuss Voigt Hill
#
# Bulk Modulus (GPa) = 58.40452 59.24325 58.82388
# Shear Modulus (GPa) = 40.60922 42.60895 41.60908
#
# Velocity S-wave (km/s) = 4.05459 4.15322 4.10420
# Velocity P-wave (km/s) = 6.75006 6.85436 6.80241
#
# Compressibility (1/GPa) = 0.01712196
#
# Stress axis : x y z
#
# Youngs Moduli (GPa) = 85.15009 91.39316 110.43233
#
# Poissons Ratio (x) = 0.29746 0.26883
# Poissons Ratio (y) = 0.27714 0.17894
# Poissons Ratio (z) = 0.20729 0.14809
#
# Static dielectric constant tensor:
#      x y z
#    x 4.226170 0.000000 0.168350 
#    y 0.000000 4.470950 0.000000 
#    z 0.168350 0.000000 4.662050 
# 
# 
# High freq. dielectric constant tensor:
#      x y z
#    x 1.984010 0.000000 0.010540 
#    y 0.000000 1.990700 0.000000 
#    z 0.010540 0.000000 1.999860 
# 
# From -- ./inp_files/5572.got.cif
#   From: 2010.03.12/outbox.cif.g09.slc.cpg/sg4_3_cif.got.tgz:5572.got - 2010.03.31 09:31:35.
