data_PCOD8048591
_publ_section_title
;
Structure prediction by ZEFSAII (Michael W. Deem and Ramdas Pophale) SiO2 
 PCOD8048591
Probable space group: C 2
;
_chemical_formula_sum "Si O2"
_cell_formula_units_Z 24
_cell_length_a 7.980029
_cell_length_b 28.126859
_cell_length_c 7.819063
_cell_angle_alpha 90.000000
_cell_angle_beta 143.570215
_cell_angle_gamma 90.000000
_cell_volume 1042.192247
_symmetry_space_group_name_H-M "C 2"
_symmetry_group_IT_number 5
_symmetry_cell_setting 'monoclinic'
loop_
_space_group_symop_operation_xyz
x,y,z
-x,y,-z
1/2+x,1/2+y,z
1/2-x,1/2+y,-z
loop_
_atom_site_type_symbol
_atom_site_label
_atom_site_fract_x
_atom_site_fract_y
_atom_site_fract_z
Si Si1 0.305486 0.384850 0.185459
Si Si2 0.688353 0.035079 0.312568
Si Si3 0.621806 0.789493 0.910745
Si Si4 0.384579 0.236079 0.592170
Si Si5 0.310086 0.139925 0.690526
Si Si6 0.203253 0.958851 0.318756
O O1 0.500000 0.363782 0.500000
O O2 0.502384 0.424349 0.262180
O O3 0.233522 0.343849 0.986403
O O4 0.000000 0.405431 0.000000
O O5 0.581532 0.087906 0.283549
O O6 0.000000 0.036506 0.500000
O O7 0.676436 0.001657 0.467714
O O8 0.500000 0.015691 0.000000
O O9 0.377643 0.771667 0.582282
O O10 0.500000 0.784106 0.000000
O O11 0.874084 0.752711 0.079087
O O12 0.500000 0.245285 0.500000
O O13 0.312316 0.180228 0.546990
O O14 0.000000 0.131864 0.500000
O O15 0.500000 0.159185 0.000000
O O16 0.500000 0.934075 0.500000
O O17 0.000000 0.977936 0.000000
#
# Coordination Sequence:
#
# PCOD8048591 Si02
#       6
#     4   4   4   4   4   4
#     4  11  22  41  68  90 118 170 224 257 305 386
#     4  10  22  43  67  89 121 171 220 253 303 391
#     4   9  18  34  58  87 115 152 206 252 287 357
#     4  10  19  34  58  87 118 153 195 247 304 358
#     4  10  21  38  60  89 122 158 204 252 301 370
#     4  12  26  42  63  98 135 160 205 279 341 376
#
# _framework density 23.028382000000001
#
# number of rings (size 3 to 8) (size 9 to 14) (size 15 to 20)
#    0.000    1.667    0.000    6.000    0.000    2.000 
#    0.000    5.833    0.000    0.000    0.000    0.000 
#    0.000    0.000    0.000    0.000    0.000    0.000 
#
# Total GULP energy -148656.851787 kJ/mol
# GULP energy per Si atom -12388.070982 kJ/mol
# Density = 2.297597 g / cm^3
# Si number density = 23.028382 Si / 1000 Ang^3
#
#
#
# Elastic Constant Matrix: (Units=GPa)
#
#
# Indices 1 2 3 4 5 6 
#
# 1 62.1789 43.4044 32.7425 0.0000 18.3778 0.0000
# 2 43.4044 144.8424 41.9678 0.0000 2.5453 0.0000
# 3 32.7425 41.9678 151.5345 0.0000 13.6053 0.0000
# 4 0.0000 0.0000 0.0000 35.3810 0.0000 4.0325
# 5 18.3778 2.5453 13.6053 0.0000 35.4888 0.0000
# 6 0.0000 0.0000 0.0000 4.0325 0.0000 28.7932
#
#
#
# Elastic Compliance Matrix: (Units=1/GPa)
#
#
# Indices 1 2 3 4 5 6 
#
# 1 0.025635 -0.006715 -0.002621 0.000000 -0.011788 0.000000
# 2 -0.006715 0.009268 -0.001417 0.000000 0.003356 0.000000
# 3 -0.002621 -0.001417 0.007692 0.000000 -0.001490 0.000000
# 4 0.000000 0.000000 0.000000 0.028722 0.000000 -0.004023
# 5 -0.011788 0.003356 -0.001490 0.000000 0.034613 0.000000
# 6 0.000000 0.000000 0.000000 -0.004023 0.000000 0.035294
#
#
# Mechanical properties :
#
#
# Convention : Reuss Voigt Hill
#
# Bulk Modulus (GPa) = 47.42034 66.08722 56.75378
# Shear Modulus (GPa) = 29.45355 35.96202 32.70779
#
# Velocity S-wave (km/s) = 3.58021 3.95605 3.77281
# Velocity P-wave (km/s) = 6.14226 7.04468 6.60889
#
# Compressibility (1/GPa) = 0.02108800
#
# Stress axis : x y z
#
# Youngs Moduli (GPa) = 39.00984 107.89774 130.01081
#
# Poissons Ratio (x) = 0.72457 0.34072
# Poissons Ratio (y) = 0.26196 0.18424
# Poissons Ratio (z) = 0.10223 0.15290
#
# Static dielectric constant tensor:
#      x y z
#    x 3.853750 0.000000 0.347030 
#    y 0.000000 4.381730 0.000000 
#    z 0.347030 0.000000 4.781360 
# 
# 
# High freq. dielectric constant tensor:
#      x y z
#    x 1.877960 0.000000 0.024740 
#    y 0.000000 1.909610 0.000000 
#    z 0.024740 0.000000 1.934280 
# 
# From -- ./inp_files/17655.got.cif
#   From: 2010.03.12/outbox.cif.g09.slc.cpg/sg5_9_cif.got.tgz:17655.got - 2010.03.31 09:47:26.
