data_PCOD8048088
_publ_section_title
;
Structure prediction by ZEFSAII (Michael W. Deem and Ramdas Pophale) SiO2 
 PCOD8048088
Probable space group: C 2
;
_chemical_formula_sum "Si O2"
_cell_formula_units_Z 28
_cell_length_a 8.450437
_cell_length_b 15.885812
_cell_length_c 15.110937
_cell_angle_alpha 90.000000
_cell_angle_beta 140.224090
_cell_angle_gamma 90.000000
_cell_volume 1297.822007
_symmetry_space_group_name_H-M "C 2"
_symmetry_group_IT_number 5
_symmetry_cell_setting 'monoclinic'
loop_
_space_group_symop_operation_xyz
x,y,z
-x,y,-z
1/2+x,1/2+y,z
1/2-x,1/2+y,-z
loop_
_atom_site_type_symbol
_atom_site_label
_atom_site_fract_x
_atom_site_fract_y
_atom_site_fract_z
Si Si1 0.543110 0.481180 0.204217
Si Si2 0.731020 0.635540 0.857176
Si Si3 0.985394 0.304717 0.179804
Si Si4 0.000000 0.480122 0.500000
Si Si5 0.500000 0.407901 0.000000
Si Si6 0.842698 0.343240 0.565309
Si Si7 0.937068 0.810534 0.263043
Si Si8 0.685216 0.694678 0.652471
O O1 0.316309 0.545144 0.118214
O O2 0.770336 0.528983 0.354954
O O3 0.594895 0.466128 0.122046
O O4 0.493384 0.391227 0.227139
O O5 0.541892 0.706368 0.809462
O O6 0.716144 0.627245 0.744066
O O7 0.000000 0.666524 0.000000
O O8 0.721172 0.350522 0.055797
O O9 0.145736 0.352791 0.324038
O O10 0.142923 0.307898 0.156300
O O11 0.901235 0.429424 0.541759
O O12 0.575542 0.312804 0.417603
O O13 0.061897 0.280444 0.632693
O O14 0.041182 0.724442 0.262655
O O15 0.500000 0.653639 0.500000
#
# Coordination Sequence:
#
# PCOD8048088 Si02
#       8
#     4   4   4   2   2   4   4   4
#     4  11  24  44  64  93 124 173 204 267 316 378
#     4  11  25  44  59  88 138 168 199 259 333 365
#     4  11  22  39  65  98 123 168 213 262 312 382
#     4  10  16  40  68  88 124 166 210 252 318 362
#     4  12  24  44  66  88 126 172 218 256 320 376
#     4   9  15  35  66  94 124 158 208 266 303 360
#     4  10  20  37  70  97 120 161 224 258 304 381
#     4   9  17  40  68  91 121 167 207 258 314 375
#
# _framework density 21.574607
#
# number of rings (size 3 to 8) (size 9 to 14) (size 15 to 20)
#    0.000    1.714    5.714    1.286    2.000    0.000 
#   10.286    2.857    0.000    0.000    0.000    0.000 
#    0.000    0.000    0.000    0.000    0.000    0.000 
#
# Total GULP energy -173473.128389 kJ/mol
# GULP energy per Si atom -12390.937742 kJ/mol
# Density = 2.152550 g / cm^3
# Si number density = 21.574607 Si / 1000 Ang^3
#
#
#
# Elastic Constant Matrix: (Units=GPa)
#
#
# Indices 1 2 3 4 5 6 
#
# 1 118.0586 23.0819 43.7389 0.0000 9.4971 0.0000
# 2 23.0819 53.1423 22.3795 -0.0002 -4.8611 0.0000
# 3 43.7389 22.3795 101.8931 0.0000 -15.0166 0.0001
# 4 0.0000 -0.0002 0.0000 13.2274 0.0001 -3.1182
# 5 9.4971 -4.8611 -15.0166 0.0001 33.6118 0.0001
# 6 0.0000 0.0000 0.0001 -3.1182 0.0001 17.2387
#
#
#
# Elastic Compliance Matrix: (Units=1/GPa)
#
#
# Indices 1 2 3 4 5 6 
#
# 1 0.011500 -0.003408 -0.005073 0.000000 -0.006009 0.000000
# 2 -0.003408 0.021779 -0.002906 0.000000 0.002814 0.000000
# 3 -0.005073 -0.002906 0.013680 0.000000 0.007125 0.000000
# 4 0.000000 0.000000 0.000000 0.078968 0.000000 0.014284
# 5 -0.006009 0.002814 0.007125 0.000000 0.035040 0.000000
# 6 0.000000 0.000000 0.000000 0.014284 0.000000 0.060593
#
#
# Mechanical properties :
#
#
# Convention : Reuss Voigt Hill
#
# Bulk Modulus (GPa) = 41.34863 50.16606 45.75735
# Shear Modulus (GPa) = 19.81027 25.07516 22.44272
#
# Velocity S-wave (km/s) = 3.03350 3.41288 3.22877
# Velocity P-wave (km/s) = 5.61040 6.23163 5.92915
#
# Compressibility (1/GPa) = 0.02418460
#
# Stress axis : x y z
#
# Youngs Moduli (GPa) = 86.95926 45.91635 73.09762
#
# Poissons Ratio (x) = 0.15648 0.37085
# Poissons Ratio (y) = 0.29635 0.21240
# Poissons Ratio (z) = 0.44118 0.13342
#
# Static dielectric constant tensor:
#      x y z
#    x 3.906200 0.000000 -0.130640 
#    y 0.000000 3.287000 0.000000 
#    z -0.130640 0.000000 4.494590 
# 
# 
# High freq. dielectric constant tensor:
#      x y z
#    x 1.842940 0.000000 -0.002420 
#    y 0.000000 1.796850 0.000000 
#    z -0.002420 0.000000 1.863480 
# 
# From -- ./inp_files/51433.got.cif
#   From: 2010.03.12/outbox.cif.g09.slc.cpg/sg5_26_cif.got.tgz:51433.got - 2010.03.31 09:47:26.
