data_PCOD8048919
_publ_section_title
;
Structure prediction by ZEFSAII (Michael W. Deem and Ramdas Pophale) SiO2 
 PCOD8048919
Probable space group: C 2
;
_chemical_formula_sum "Si O2"
_cell_formula_units_Z 32
_cell_length_a 19.001011
_cell_length_b 14.316131
_cell_length_c 11.298327
_cell_angle_alpha 90.000000
_cell_angle_beta 27.752803
_cell_angle_gamma 90.000000
_cell_volume 1431.144247
_symmetry_space_group_name_H-M "C 2"
_symmetry_group_IT_number 5
_symmetry_cell_setting 'monoclinic'
loop_
_space_group_symop_operation_xyz
x,y,z
-x,y,-z
1/2+x,1/2+y,z
1/2-x,1/2+y,-z
loop_
_atom_site_type_symbol
_atom_site_label
_atom_site_fract_x
_atom_site_fract_y
_atom_site_fract_z
Si Si1 0.156562 0.958410 0.329470
Si Si2 0.776889 0.091433 0.968096
Si Si3 0.173910 0.436118 0.268766
Si Si4 0.159819 0.810510 0.514034
Si Si5 0.654242 0.641601 0.702744
Si Si6 0.180706 0.756416 0.990315
Si Si7 0.677507 0.434701 0.706852
Si Si8 0.110843 0.144328 0.503082
O O1 0.206372 0.863533 0.322046
O O2 0.000000 0.934020 0.500000
O O3 0.258677 0.009132 0.076630
O O4 0.147055 0.033847 0.449170
O O5 0.661924 0.178849 0.122802
O O6 0.937785 0.144513 0.712463
O O7 0.758623 0.035770 0.118350
O O8 0.228254 0.349601 0.105049
O O9 0.217788 0.406827 0.336785
O O10 0.000000 0.453240 0.500000
O O11 0.233871 0.709583 0.394465
O O12 0.223262 0.866457 0.532354
O O13 0.982590 0.794848 0.801784
O O14 0.724998 0.538625 0.597028
O O15 0.625909 0.680695 0.613347
O O16 0.500000 0.640564 0.000000
O O17 0.273447 0.704664 0.747389
O O18 0.500000 0.426908 0.000000
#
# Coordination Sequence:
#
# PCOD8048919 Si02
#       8
#     4   4   4   4   4   4   4   4
#     4   9  19  40  67  93 129 176 220 270 336 409
#     4  10  22  43  68  98 141 179 228 283 347 407
#     4  12  25  43  69 107 141 183 237 289 345 410
#     4  12  24  44  69 104 133 178 236 285 349 421
#     4  11  25  42  65  95 135 178 227 281 356 414
#     4  11  23  41  70 104 132 181 234 286 340 416
#     4  11  23  46  72  94 136 183 226 286 345 413
#     4  10  19  42  69  93 129 182 230 274 332 419
#
# _framework density 22.359731
#
# number of rings (size 3 to 8) (size 9 to 14) (size 15 to 20)
#    0.000    1.250    2.500    5.625    1.750    0.000 
#   13.500    0.000    0.000    0.000    0.000    0.000 
#    0.000    0.000    0.000    0.000    0.000    0.000 
#
# Total GULP energy -198235.502585 kJ/mol
# GULP energy per Si atom -12389.718912 kJ/mol
# Density = 2.230884 g / cm^3
# Si number density = 22.359731 Si / 1000 Ang^3
#
#
#
# Elastic Constant Matrix: (Units=GPa)
#
#
# Indices 1 2 3 4 5 6 
#
# 1 74.9340 21.1598 4.1554 -0.0003 -9.7944 0.0001
# 2 21.1598 123.9806 16.8934 -0.0004 -9.6574 0.0001
# 3 4.1554 16.8934 41.7790 -0.0007 -18.9808 0.0003
# 4 -0.0003 -0.0004 -0.0007 44.3731 0.0003 -0.0591
# 5 -9.7944 -9.6574 -18.9808 0.0003 18.6436 -0.0001
# 6 0.0001 0.0001 0.0003 -0.0591 -0.0001 47.2945
#
#
#
# Elastic Compliance Matrix: (Units=1/GPa)
#
#
# Indices 1 2 3 4 5 6 
#
# 1 0.015259 -0.002341 0.004689 0.000000 0.011577 0.000000
# 2 -0.002341 0.008924 -0.003413 0.000000 -0.000082 0.000000
# 3 0.004689 -0.003413 0.046821 0.000000 0.048363 0.000000
# 4 0.000000 0.000000 0.000000 0.022536 0.000000 0.000028
# 5 0.011577 -0.000082 0.048363 0.000000 0.108916 0.000000
# 6 0.000000 0.000000 0.000000 0.000028 0.000000 0.021144
#
#
# Mechanical properties :
#
#
# Convention : Reuss Voigt Hill
#
# Bulk Modulus (GPa) = 14.51932 36.12343 25.32137
# Shear Modulus (GPa) = 20.10538 35.29456 27.69997
#
# Velocity S-wave (km/s) = 3.00188 3.97733 3.52352
# Velocity P-wave (km/s) = 4.30380 6.10597 5.28231
#
# Compressibility (1/GPa) = 0.06887377
#
# Stress axis : x y z
#
# Youngs Moduli (GPa) = 65.53315 112.05701 21.35781
#
# Poissons Ratio (x) = 0.26237 -0.10014
# Poissons Ratio (y) = 0.15344 0.07289
# Poissons Ratio (z) = -0.30726 0.38242
#
# Static dielectric constant tensor:
#      x y z
#    x 3.541180 0.000000 0.589240 
#    y 0.000000 4.529510 0.000000 
#    z 0.589240 0.000000 3.105020 
# 
# 
# High freq. dielectric constant tensor:
#      x y z
#    x 1.879170 0.000000 0.007190 
#    y 0.000000 1.902630 0.000000 
#    z 0.007190 0.000000 1.843900 
# 
# From -- ./inp_files/44966.got.cif
#   From: 2010.03.12/outbox.cif.g09.slc.cpg/sg5_23_cif.got.tgz:44966.got - 2010.03.31 09:47:26.
