data_PCOD8048156
_publ_section_title
;
Structure prediction by ZEFSAII (Michael W. Deem and Ramdas Pophale) SiO2 
 PCOD8048156
Probable space group: C 2
;
_chemical_formula_sum "Si O2"
_cell_formula_units_Z 24
_cell_length_a 16.316870
_cell_length_b 8.701168
_cell_length_c 22.802032
_cell_angle_alpha 90.000000
_cell_angle_beta 19.856451
_cell_angle_gamma 90.000000
_cell_volume 1099.609428
_symmetry_space_group_name_H-M "C 2"
_symmetry_group_IT_number 5
_symmetry_cell_setting 'monoclinic'
loop_
_space_group_symop_operation_xyz
x,y,z
-x,y,-z
1/2+x,1/2+y,z
1/2-x,1/2+y,-z
loop_
_atom_site_type_symbol
_atom_site_label
_atom_site_fract_x
_atom_site_fract_y
_atom_site_fract_z
Si Si1 0.526089 0.176670 0.822504
Si Si2 0.954648 0.509433 0.305206
Si Si3 0.514829 0.536524 0.174695
Si Si4 0.993343 0.030729 0.064336
Si Si5 0.821608 0.178742 0.418528
Si Si6 0.216189 0.707787 0.815756
O O1 0.638815 0.094963 0.690112
O O2 0.482382 0.354168 0.835982
O O3 0.709595 0.150133 0.752933
O O4 0.276073 0.103630 0.012629
O O5 0.794705 0.356704 0.420146
O O6 0.917119 0.618990 0.387344
O O7 0.234768 0.465721 0.107324
O O8 0.417907 0.609475 0.176940
O O9 0.344350 0.580662 0.343472
O O10 0.811781 0.893210 0.168868
O O11 0.000000 0.137571 0.000000
O O12 0.038054 0.155685 0.319214
O O13 0.000000 0.636692 0.000000
#
# Coordination Sequence:
#
# PCOD8048156 Si02
#       6
#     4   4   4   4   4   4
#     4  10  20  36  62  88 118 158 209 242 295 357
#     4  11  23  37  62  89 124 153 199 256 307 348
#     4  10  19  34  63  91 116 156 206 250 293 355
#     4   9  17  37  64  87 106 155 216 237 267 365
#     4  12  22  39  63  87 125 155 202 250 309 349
#     4  10  17  36  66  87 108 164 213 231 271 388
#
# _framework density 21.82593
#
# number of rings (size 3 to 8) (size 9 to 14) (size 15 to 20)
#    0.000    1.667    5.000    3.000    0.000    0.667 
#    0.000    0.833   36.667    0.000    0.000    0.000 
#    0.000    0.000    0.000    0.000    0.000    0.000 
#
# Total GULP energy -148668.216896 kJ/mol
# GULP energy per Si atom -12389.018075 kJ/mol
# Density = 2.177625 g / cm^3
# Si number density = 21.825930 Si / 1000 Ang^3
#
#
#
# Elastic Constant Matrix: (Units=GPa)
#
#
# Indices 1 2 3 4 5 6 
#
# 1 174.0949 27.1574 16.1395 0.0005 44.6474 -0.0058
# 2 27.1574 81.6263 10.6422 0.0061 16.6136 -0.0243
# 3 16.1395 10.6422 44.9471 -0.0034 30.5367 -0.0516
# 4 0.0005 0.0061 -0.0034 25.6829 0.0113 10.7845
# 5 44.6474 16.6136 30.5367 0.0113 43.9433 -0.0113
# 6 -0.0058 -0.0243 -0.0516 10.7845 -0.0113 34.2361
#
#
#
# Elastic Compliance Matrix: (Units=1/GPa)
#
#
# Indices 1 2 3 4 5 6 
#
# 1 0.008465 -0.001091 0.005269 0.000005 -0.011849 0.000003
# 2 -0.001091 0.013419 -0.000174 -0.000006 -0.003843 0.000010
# 3 0.005269 -0.000174 0.045446 -0.000002 -0.036869 0.000058
# 4 0.000005 -0.000006 -0.000002 0.044872 -0.000016 -0.014135
# 5 -0.011849 -0.003843 -0.036869 -0.000016 0.061869 -0.000035
# 6 0.000003 0.000010 0.000058 -0.014135 -0.000035 0.033662
#
#
# Mechanical properties :
#
#
# Convention : Reuss Voigt Hill
#
# Bulk Modulus (GPa) = 13.27373 45.39405 29.33389
# Shear Modulus (GPa) = 22.23829 37.22105 29.72967
#
# Velocity S-wave (km/s) = 3.19547 4.13408 3.69470
# Velocity P-wave (km/s) = 4.43955 6.60537 5.62763
#
# Compressibility (1/GPa) = 0.07533680
#
# Stress axis : x y z
#
# Youngs Moduli (GPa) = 118.13970 74.52095 22.00415
#
# Poissons Ratio (x) = 0.08134 -0.11595
# Poissons Ratio (y) = 0.12895 0.00383
# Poissons Ratio (z) = -0.62251 0.01298
#
# Static dielectric constant tensor:
#      x y z
#    x 4.537440 0.000000 0.485200 
#    y 0.000000 3.605660 0.000040 
#    z 0.485200 0.000040 3.678420 
# 
# 
# High freq. dielectric constant tensor:
#      x y z
#    x 1.885740 0.000000 0.033230 
#    y 0.000000 1.817310 0.000010 
#    z 0.033230 0.000010 1.838940 
# 
# From -- ./inp_files/69115.got.cif
#   From: 2010.03.12/outbox.cif.g09.slc.cpg/sg5_35_cif.got.tgz:69115.got - 2010.03.31 09:47:26.
