data_PCOD8048571
_publ_section_title
;
Structure prediction by ZEFSAII (Michael W. Deem and Ramdas Pophale) SiO2 
 PCOD8048571
Probable space group: C 2
;
_chemical_formula_sum "Si O2"
_cell_formula_units_Z 20
_cell_length_a 5.110622
_cell_length_b 23.390299
_cell_length_c 9.499972
_cell_angle_alpha 90.000000
_cell_angle_beta 119.493202
_cell_angle_gamma 90.000000
_cell_volume 988.457006
_symmetry_space_group_name_H-M "C 2"
_symmetry_group_IT_number 5
_symmetry_cell_setting 'monoclinic'
loop_
_space_group_symop_operation_xyz
x,y,z
-x,y,-z
1/2+x,1/2+y,z
1/2-x,1/2+y,-z
loop_
_atom_site_type_symbol
_atom_site_label
_atom_site_fract_x
_atom_site_fract_y
_atom_site_fract_z
Si Si1 0.859683 0.787460 0.107778
Si Si2 0.160530 0.003894 0.393077
Si Si3 0.391728 0.163467 0.816894
Si Si4 0.113533 0.106133 0.189962
Si Si5 0.344424 0.374266 0.606630
O O1 0.018306 0.728345 0.193585
O O2 0.949212 0.834919 0.242732
O O3 0.500000 0.779791 0.000000
O O4 0.000000 0.809249 0.000000
O O5 0.500000 0.023457 0.500000
O O6 0.036316 0.044189 0.235296
O O7 0.000000 0.012337 0.500000
O O8 0.141841 0.938997 0.331290
O O9 0.533955 0.123231 0.731707
O O10 0.034204 0.152561 0.739574
O O11 0.500000 0.144148 0.000000
O O12 0.000000 0.110150 0.000000
O O13 0.500000 0.372192 0.500000
O O14 0.000000 0.352975 0.500000
#
# Coordination Sequence:
#
# PCOD8048571 Si02
#       5
#     4   4   4   4   4
#     4  11  21  37  61  85 111 146 191 233 273 332
#     4  10  21  38  56  77 111 148 181 226 282 329
#     4   9  18  33  54  80 111 141 172 223 283 321
#     4  10  19  34  56  80 106 141 182 221 267 329
#     4  10  22  40  58  80 115 152 184 229 288 333
#
# _framework density 20.233554999999999
#
# number of rings (size 3 to 8) (size 9 to 14) (size 15 to 20)
#    0.000    2.000    0.000    5.400    0.000    0.800 
#    0.000    9.000    0.000    0.000    0.000    0.000 
#    0.000    0.000    0.000    0.000    0.000    0.000 
#
# Total GULP energy -123891.218411 kJ/mol
# GULP energy per Si atom -12389.121841 kJ/mol
# Density = 2.018750 g / cm^3
# Si number density = 20.233555 Si / 1000 Ang^3
#
#
#
# Elastic Constant Matrix: (Units=GPa)
#
#
# Indices 1 2 3 4 5 6 
#
# 1 143.1379 43.1403 20.7705 0.0000 3.7847 0.0000
# 2 43.1403 121.2664 44.8108 0.0000 -5.9597 0.0000
# 3 20.7705 44.8108 32.8635 0.0000 0.8287 0.0000
# 4 0.0000 0.0000 0.0000 29.5704 0.0000 -6.5442
# 5 3.7847 -5.9597 0.8287 0.0000 19.6392 0.0000
# 6 0.0000 0.0000 0.0000 -6.5442 0.0000 33.8603
#
#
#
# Elastic Compliance Matrix: (Units=1/GPa)
#
#
# Indices 1 2 3 4 5 6 
#
# 1 0.007998 -0.002221 -0.001973 0.000000 -0.002132 0.000000
# 2 -0.002221 0.017977 -0.023282 0.000000 0.006866 0.000000
# 3 -0.001973 -0.023282 0.063658 0.000000 -0.009371 0.000000
# 4 0.000000 0.000000 0.000000 0.035329 0.000000 0.006828
# 5 -0.002132 0.006866 -0.009371 0.000000 0.053808 0.000000
# 6 0.000000 0.000000 0.000000 0.006828 0.000000 0.030853
#
#
# Mechanical properties :
#
#
# Convention : Reuss Voigt Hill
#
# Bulk Modulus (GPa) = 28.83354 57.19011 43.01182
# Shear Modulus (GPa) = 18.10707 29.18373 23.64540
#
# Velocity S-wave (km/s) = 2.99474 3.80194 3.42222
# Velocity P-wave (km/s) = 5.12243 6.89923 6.07612
#
# Compressibility (1/GPa) = 0.03468183
#
# Stress axis : x y z
#
# Youngs Moduli (GPa) = 125.02572 55.62617 15.70901
#
# Poissons Ratio (x) = 0.12356 0.03099
# Poissons Ratio (y) = 0.27772 0.36574
# Poissons Ratio (z) = 0.24662 1.29508
#
# Static dielectric constant tensor:
#      x y z
#    x 4.356800 0.000000 -0.016600 
#    y 0.000000 3.668340 0.000000 
#    z -0.016600 0.000000 3.206240 
# 
# 
# High freq. dielectric constant tensor:
#      x y z
#    x 1.827440 0.000000 -0.010570 
#    y 0.000000 1.789220 0.000000 
#    z -0.010570 0.000000 1.748370 
# 
# From -- ./inp_files/12092.got.cif
#   From: 2010.03.12/outbox.cif.g09.slc.cpg/sg5_7_cif.got.tgz:12092.got - 2010.03.31 09:47:26.
