data_PCOD8048022
_publ_section_title
;
Structure prediction by ZEFSAII (Michael W. Deem and Ramdas Pophale) SiO2 
 PCOD8048022
Probable space group: P 21
;
_chemical_formula_sum "Si O2"
_cell_formula_units_Z 12
_cell_length_a 4.811649
_cell_length_b 20.931929
_cell_length_c 4.631061
_cell_angle_alpha 90.000000
_cell_angle_beta 118.678604
_cell_angle_gamma 90.000000
_cell_volume 409.208280
_symmetry_space_group_name_H-M "P 21"
_symmetry_group_IT_number 4
_symmetry_cell_setting 'monoclinic'
loop_
_space_group_symop_operation_xyz
x,y,z
-x,1/2+y,-z
loop_
_atom_site_type_symbol
_atom_site_label
_atom_site_fract_x
_atom_site_fract_y
_atom_site_fract_z
Si Si1 0.417366 0.408010 0.111450
Si Si2 0.534943 0.494206 0.669010
Si Si3 0.169888 0.828447 0.085641
Si Si4 0.002414 0.578489 0.585249
Si Si5 0.418460 0.249022 0.304436
Si Si6 0.468051 0.662601 0.137977
O O1 0.474371 0.426824 0.474025
O O2 0.047923 0.387593 0.909317
O O3 0.520023 0.473198 0.996896
O O4 0.617633 0.348557 0.084283
O O5 0.863319 0.523957 0.727084
O O6 0.260430 0.547744 0.495601
O O7 0.950328 0.769812 0.860465
O O8 0.525762 0.730121 0.002055
O O9 0.378688 0.808069 0.467292
O O10 0.140876 0.632451 0.868530
O O11 0.744930 0.609611 0.239306
O O12 0.518895 0.183651 0.520164
#
# Coordination Sequence:
#
# PCOD8048022 Si02
#       6
#     2   2   2   2   2   2
#     4  12  28  50  78 114 154 202 256 316 382 456
#     4  12  28  50  78 114 154 202 256 316 382 456
#     4  12  28  52  80 116 156 204 256 318 384 458
#     4  12  28  52  80 116 156 204 256 318 384 458
#     4  12  28  50  78 114 154 202 256 316 382 456
#     4  12  28  50  78 114 154 202 256 316 382 456
#
# _framework density 29.324918
#
# number of rings (size 3 to 8) (size 9 to 14) (size 15 to 20)
#    0.000    0.000    0.000    8.000    0.000   18.667 
#    0.000    0.000    0.000    0.000    0.000    0.000 
#    0.000    0.000    0.000    0.000    0.000    0.000 
#
# Total GULP energy -148875.071158 kJ/mol
# GULP energy per Si atom -12406.255930 kJ/mol
# Density = 2.925817 g / cm^3
# Si number density = 29.324918 Si / 1000 Ang^3
#
#
#
# Elastic Constant Matrix: (Units=GPa)
#
#
# Indices 1 2 3 4 5 6 
#
# 1 59.6778 -27.1935 37.8824 0.0000 4.7473 0.0000
# 2 -27.1935 86.5728 -14.2743 0.0000 -16.3175 0.0000
# 3 37.8824 -14.2743 67.0592 0.0000 -13.6744 0.0000
# 4 0.0000 0.0000 0.0000 35.7156 0.0000 6.5139
# 5 4.7473 -16.3175 -13.6744 0.0000 34.6018 0.0000
# 6 0.0000 0.0000 0.0000 6.5139 0.0000 39.5972
#
#
#
# Elastic Compliance Matrix: (Units=1/GPa)
#
#
# Indices 1 2 3 4 5 6 
#
# 1 0.031726 0.005114 -0.018740 0.000000 -0.009347 0.000000
# 2 0.005114 0.014730 0.001653 0.000000 0.006898 0.000000
# 3 -0.018740 0.001653 0.028859 0.000000 0.014756 0.000000
# 4 0.000000 0.000000 0.000000 0.028865 0.000000 -0.004748
# 5 -0.009347 0.006898 0.014756 0.000000 0.039267 0.000000
# 6 0.000000 0.000000 0.000000 -0.004748 0.000000 0.026035
#
#
# Mechanical properties :
#
#
# Convention : Reuss Voigt Hill
#
# Bulk Modulus (GPa) = 19.46660 22.90435 21.18547
# Shear Modulus (GPa) = 23.74708 36.44259 30.09484
#
# Velocity S-wave (km/s) = 2.84877 3.52904 3.20700
# Velocity P-wave (km/s) = 4.18011 4.94298 4.57746
#
# Compressibility (1/GPa) = 0.05137004
#
# Stress axis : x y z
#
# Youngs Moduli (GPa) = 31.51965 67.88837 34.65074
#
# Poissons Ratio (x) = -0.34718 0.64935
# Poissons Ratio (y) = -0.16119 -0.05728
# Poissons Ratio (z) = 0.59068 -0.11223
#
# Static dielectric constant tensor:
#      x y z
#    x 5.186860 0.000000 0.124500 
#    y 0.000000 5.419750 0.000000 
#    z 0.124500 0.000000 5.107690 
# 
# 
# High freq. dielectric constant tensor:
#      x y z
#    x 2.194510 0.000000 -0.004340 
#    y 0.000000 2.231510 0.000000 
#    z -0.004340 0.000000 2.197880 
# 
# From -- ./inp_files/642.got.cif
#   From: 2010.03.12/outbox.cif.g09.slc.cpg/sg4_1_cif.got.tgz:642.got - 2010.03.31 09:31:35.
