data_PCOD8048137
_publ_section_title
;
Structure prediction by ZEFSAII (Michael W. Deem and Ramdas Pophale) SiO2 
 PCOD8048137
Probable space group: C 2
;
_chemical_formula_sum "Si O2"
_cell_formula_units_Z 32
_cell_length_a 9.746330
_cell_length_b 15.161893
_cell_length_c 11.449685
_cell_angle_alpha 90.000000
_cell_angle_beta 90.071650
_cell_angle_gamma 90.000000
_cell_volume 1691.950833
_symmetry_space_group_name_H-M "C 2"
_symmetry_group_IT_number 5
_symmetry_cell_setting 'monoclinic'
loop_
_space_group_symop_operation_xyz
x,y,z
-x,y,-z
1/2+x,1/2+y,z
1/2-x,1/2+y,-z
loop_
_atom_site_type_symbol
_atom_site_label
_atom_site_fract_x
_atom_site_fract_y
_atom_site_fract_z
Si Si1 0.355209 0.153500 0.955092
Si Si2 0.153751 0.449644 0.012059
Si Si3 0.260834 0.867767 0.755954
Si Si4 0.968710 0.494565 0.632289
Si Si5 0.935437 0.681216 0.716070
Si Si6 0.473160 0.368072 0.632729
Si Si7 0.257146 0.177405 0.193013
Si Si8 0.746107 0.485265 0.237983
O O1 0.326986 0.190744 0.824260
O O2 0.500000 0.190598 0.000000
O O3 0.242289 0.183020 0.050863
O O4 0.360794 0.048399 0.940891
O O5 0.240429 0.445435 0.892279
O O6 0.237354 0.394930 0.108510
O O7 0.000000 0.409779 0.000000
O O8 0.307179 0.764431 0.747823
O O9 0.106626 0.880470 0.711571
O O10 0.359431 0.923737 0.675271
O O11 0.905259 0.593324 0.640608
O O12 0.000000 0.471504 0.500000
O O13 0.103078 0.483022 0.708963
O O14 0.922387 0.766397 0.633725
O O15 0.083655 0.670389 0.774001
O O16 0.500000 0.396592 0.500000
O O17 0.354931 0.429019 0.683709
O O18 0.187495 0.086105 0.235798
#
# Coordination Sequence:
#
# PCOD8048137 Si02
#       8
#     4   4   4   4   4   4   4   4
#     4   8  13  28  52  81 108 138 176 227 278 332
#     4  10  17  34  61  87 113 138 186 243 284 328
#     4  11  21  36  60  86 113 146 191 235 282 330
#     4  11  20  36  61  84 108 151 199 230 269 335
#     4   9  17  33  55  83 107 143 192 234 274 325
#     4  11  24  39  54  83 122 152 187 233 279 334
#     4   8  18  32  55  79 113 148 178 227 290 340
#     4  10  21  39  58  81 116 155 186 230 291 333
#
# _framework density 18.913080999999998
#
# number of rings (size 3 to 8) (size 9 to 14) (size 15 to 20)
#    0.000    2.250    2.500    2.625    1.750    0.500 
#    0.000    1.875    5.500    0.000    0.000    0.000 
#    0.000    0.000    0.000    0.000    0.000    0.000 
#
# Total GULP energy -198316.698505 kJ/mol
# GULP energy per Si atom -12394.793657 kJ/mol
# Density = 1.887003 g / cm^3
# Si number density = 18.913081 Si / 1000 Ang^3
#
#
#
# Elastic Constant Matrix: (Units=GPa)
#
#
# Indices 1 2 3 4 5 6 
#
# 1 33.4936 37.0489 -4.4086 0.0000 -9.1630 0.0000
# 2 37.0489 120.4002 29.4764 0.0000 -20.5448 0.0000
# 3 -4.4086 29.4764 64.7504 0.0000 -15.1623 0.0000
# 4 0.0000 0.0000 0.0000 27.8485 0.0000 -5.0156
# 5 -9.1630 -20.5448 -15.1623 0.0000 30.9900 0.0000
# 6 0.0000 0.0000 0.0000 -5.0156 0.0000 22.6569
#
#
#
# Elastic Compliance Matrix: (Units=1/GPa)
#
#
# Indices 1 2 3 4 5 6 
#
# 1 0.055938 -0.018974 0.015104 0.000000 0.011351 0.000000
# 2 -0.018974 0.016416 -0.008505 0.000000 0.001112 0.000000
# 3 0.015104 -0.008505 0.022666 0.000000 0.009918 0.000000
# 4 0.000000 0.000000 0.000000 0.037400 0.000000 0.008279
# 5 0.011351 0.001112 0.009918 0.000000 0.041214 0.000000
# 6 0.000000 0.000000 0.000000 0.008279 0.000000 0.045969
#
#
# Mechanical properties :
#
#
# Convention : Reuss Voigt Hill
#
# Bulk Modulus (GPa) = 14.23061 38.09750 26.16406
# Shear Modulus (GPa) = 18.67237 26.73423 22.70330
#
# Velocity S-wave (km/s) = 3.14550 3.76377 3.46844
# Velocity P-wave (km/s) = 4.55332 6.25102 5.46845
#
# Compressibility (1/GPa) = 0.07027107
#
# Stress axis : x y z
#
# Youngs Moduli (GPa) = 17.87705 60.91638 44.11864
#
# Poissons Ratio (x) = 1.15581 -0.66637
# Poissons Ratio (y) = 0.33919 0.37521
# Poissons Ratio (z) = -0.27001 0.51807
#
# Static dielectric constant tensor:
#      x y z
#    x 3.123360 0.000000 -0.096700 
#    y 0.000000 3.617890 0.000000 
#    z -0.096700 0.000000 3.611690 
# 
# 
# High freq. dielectric constant tensor:
#      x y z
#    x 1.687310 0.000000 -0.007370 
#    y 0.000000 1.738750 0.000000 
#    z -0.007370 0.000000 1.745590 
# 
# From -- ./inp_files/36404.got.cif
#   From: 2010.03.12/outbox.cif.g09.slc.cpg/sg5_19_cif.got.tgz:36404.got - 2010.03.31 09:47:26.
