data_PCOD8048584
_publ_section_title
;
Structure prediction by ZEFSAII (Michael W. Deem and Ramdas Pophale) SiO2 
 PCOD8048584
Probable space group: C 2
;
_chemical_formula_sum "Si O2"
_cell_formula_units_Z 32
_cell_length_a 10.259535
_cell_length_b 21.463286
_cell_length_c 10.827971
_cell_angle_alpha 90.000000
_cell_angle_beta 136.767763
_cell_angle_gamma 90.000000
_cell_volume 1633.181210
_symmetry_space_group_name_H-M "C 2"
_symmetry_group_IT_number 5
_symmetry_cell_setting 'monoclinic'
loop_
_space_group_symop_operation_xyz
x,y,z
-x,y,-z
1/2+x,1/2+y,z
1/2-x,1/2+y,-z
loop_
_atom_site_type_symbol
_atom_site_label
_atom_site_fract_x
_atom_site_fract_y
_atom_site_fract_z
Si Si1 0.740657 0.254470 0.903915
Si Si2 0.432546 0.174939 0.813757
Si Si3 0.688846 0.779669 0.567151
Si Si4 0.466849 0.360583 0.123354
Si Si5 0.717449 0.586523 0.333940
Si Si6 0.954194 0.564234 0.267223
Si Si7 0.396533 0.497338 0.057010
Si Si8 0.637240 0.725923 0.274521
O O1 0.558474 0.214366 0.807698
O O2 0.715390 0.321724 0.951903
O O3 0.748817 0.256924 0.760805
O O4 0.919451 0.218540 0.083926
O O5 0.233942 0.212688 0.666165
O O6 0.445694 0.105404 0.769951
O O7 0.500000 0.175502 0.000000
O O8 0.500000 0.806114 0.500000
O O9 0.658183 0.772891 0.400788
O O10 0.844167 0.833761 0.684455
O O11 0.425535 0.430670 0.142540
O O12 0.500000 0.353384 0.000000
O O13 0.789047 0.593492 0.241045
O O14 0.511563 0.552884 0.206169
O O15 0.707178 0.658034 0.370289
O O16 0.869008 0.546399 0.520819
O O17 0.832364 0.510036 0.113622
O O18 0.500000 0.488531 0.000000
#
# Coordination Sequence:
#
# PCOD8048584 Si02
#       8
#     4   4   4   4   4   4   4   4
#     4  10  21  34  58  85 116 160 187 249 300 361
#     4  11  20  33  54  80 118 157 189 231 309 361
#     4  11  22  36  55  87 121 151 190 251 295 360
#     4  10  21  40  56  81 120 159 208 235 298 362
#     4  10  19  34  58  93 115 142 201 247 299 360
#     4  10  19  34  57  84 116 148 189 249 295 350
#     4   9  20  37  59  84 114 159 197 253 294 346
#     4  11  20  34  59  93 120 144 199 246 312 360
#
# _framework density 19.593662999999999
#
# number of rings (size 3 to 8) (size 9 to 14) (size 15 to 20)
#    0.000    1.750    2.500    3.750    3.500    2.000 
#    9.000    0.000    2.750    1.500    0.000    0.000 
#    0.000    0.000    0.000    0.000    0.000    0.000 
#
# Total GULP energy -198227.161835 kJ/mol
# GULP energy per Si atom -12389.197615 kJ/mol
# Density = 1.954907 g / cm^3
# Si number density = 19.593663 Si / 1000 Ang^3
#
#
#
# Elastic Constant Matrix: (Units=GPa)
#
#
# Indices 1 2 3 4 5 6 
#
# 1 58.4405 26.9916 32.8457 0.0000 -3.6965 0.0000
# 2 26.9916 98.7086 31.9565 0.0000 3.8092 0.0000
# 3 32.8457 31.9565 106.4165 0.0000 -3.0933 0.0000
# 4 0.0000 0.0000 0.0000 22.1718 0.0000 4.0976
# 5 -3.6965 3.8092 -3.0933 0.0000 34.4390 0.0000
# 6 0.0000 0.0000 0.0000 4.0976 0.0000 13.8636
#
#
#
# Elastic Compliance Matrix: (Units=1/GPa)
#
#
# Indices 1 2 3 4 5 6 
#
# 1 0.022412 -0.004435 -0.005516 0.000000 0.002401 0.000000
# 2 -0.004435 0.012183 -0.002349 0.000000 -0.002035 0.000000
# 3 -0.005516 -0.002349 0.011826 0.000000 0.000730 0.000000
# 4 0.000000 0.000000 0.000000 0.047708 0.000000 -0.014101
# 5 0.002401 -0.002035 0.000730 0.000000 0.029585 0.000000
# 6 0.000000 0.000000 0.000000 -0.014101 0.000000 0.076299
#
#
# Mechanical properties :
#
#
# Convention : Reuss Voigt Hill
#
# Bulk Modulus (GPa) = 45.82739 49.68371 47.75555
# Shear Modulus (GPa) = 21.56235 25.54634 23.55435
#
# Velocity S-wave (km/s) = 3.32094 3.61474 3.47095
# Velocity P-wave (km/s) = 6.17613 6.54476 6.36311
#
# Compressibility (1/GPa) = 0.02182101
#
# Stress axis : x y z
#
# Youngs Moduli (GPa) = 44.61910 82.08490 84.55967
#
# Poissons Ratio (x) = 0.36408 0.46641
# Poissons Ratio (y) = 0.19790 0.19859
# Poissons Ratio (z) = 0.24611 0.19278
#
# Static dielectric constant tensor:
#      x y z
#    x 3.740030 0.000000 0.181780 
#    y 0.000000 3.681640 0.000000 
#    z 0.181780 0.000000 3.709540 
# 
# 
# High freq. dielectric constant tensor:
#      x y z
#    x 1.747110 0.000000 0.005290 
#    y 0.000000 1.734720 0.000000 
#    z 0.005290 0.000000 1.773830 
# 
# From -- ./inp_files/40648.got.cif
#   From: 2010.03.12/outbox.cif.g09.slc.cpg/sg5_21_cif.got.tgz:40648.got - 2010.03.31 09:47:26.
