data_PCOD8048107
_publ_section_title
;
Structure prediction by ZEFSAII (Michael W. Deem and Ramdas Pophale) SiO2 
 PCOD8048107
Probable space group: C 2
;
_chemical_formula_sum "Si O2"
_cell_formula_units_Z 28
_cell_length_a 18.024528
_cell_length_b 19.376948
_cell_length_c 8.875565
_cell_angle_alpha 90.000000
_cell_angle_beta 28.378841
_cell_angle_gamma 90.000000
_cell_volume 1473.372241
_symmetry_space_group_name_H-M "C 2"
_symmetry_group_IT_number 5
_symmetry_cell_setting 'monoclinic'
loop_
_space_group_symop_operation_xyz
x,y,z
-x,y,-z
1/2+x,1/2+y,z
1/2-x,1/2+y,-z
loop_
_atom_site_type_symbol
_atom_site_label
_atom_site_fract_x
_atom_site_fract_y
_atom_site_fract_z
Si Si1 0.389193 0.362320 0.472650
Si Si2 0.843566 0.374784 0.365165
Si Si3 0.755179 0.345016 0.841946
Si Si4 0.673071 0.088023 0.256351
Si Si5 0.180698 0.738336 0.200576
Si Si6 0.717338 0.963525 0.983894
Si Si7 0.944912 0.518779 0.255907
O O1 0.315978 0.360818 0.438302
O O2 0.308254 0.294594 0.688076
O O3 0.352147 0.430240 0.639563
O O4 0.574146 0.361536 0.135454
O O5 0.843897 0.336840 0.525630
O O6 0.835797 0.456625 0.398989
O O7 0.000000 0.350238 0.000000
O O8 0.767160 0.270509 0.900647
O O9 0.834434 0.405513 0.800686
O O10 0.500000 0.087376 0.500000
O O11 0.756438 0.163158 0.098407
O O12 0.659831 0.070568 0.458028
O O13 0.771047 0.031180 0.984524
O O14 0.000000 0.723102 0.500000
O O15 0.580674 0.984596 0.114045
O O16 0.000000 0.555597 0.000000
#
# Coordination Sequence:
#
# PCOD8048107 Si02
#       7
#     4   4   4   4   4   4   4
#     4  10  19  34  53  79 110 140 176 219 273 320
#     4  11  20  33  53  80 112 137 177 223 266 314
#     4  10  20  33  55  80 106 141 179 221 267 318
#     4   9  17  30  53  79 108 138 181 231 262 305
#     4   8  17  34  51  76 109 139 180 224 264 315
#     4  10  17  30  53  79 103 138 176 223 264 306
#     4  10  18  30  49  82 112 132 176 222 270 310
#
# _framework density 19.004021999999999
#
# number of rings (size 3 to 8) (size 9 to 14) (size 15 to 20)
#    0.000    2.286    4.286    1.714    0.000    0.000 
#    0.000    5.714    0.000    3.429    0.000    0.000 
#    0.000    0.000    0.000    0.000    0.000    0.000 
#
# Total GULP energy -173438.829825 kJ/mol
# GULP energy per Si atom -12388.487845 kJ/mol
# Density = 1.896077 g / cm^3
# Si number density = 19.004022 Si / 1000 Ang^3
#
#
#
# Elastic Constant Matrix: (Units=GPa)
#
#
# Indices 1 2 3 4 5 6 
#
# 1 106.8611 32.7496 35.4147 -0.0105 26.9448 0.0061
# 2 32.7496 129.6765 37.3652 -0.0077 21.7210 0.0052
# 3 35.4147 37.3652 72.7909 -0.0182 28.5210 0.0140
# 4 -0.0105 -0.0077 -0.0182 12.8966 0.0104 3.7100
# 5 26.9448 21.7210 28.5210 0.0104 38.0945 -0.0061
# 6 0.0061 0.0052 0.0140 3.7100 -0.0061 17.4152
#
#
#
# Elastic Compliance Matrix: (Units=1/GPa)
#
#
# Indices 1 2 3 4 5 6 
#
# 1 0.012174 -0.001248 -0.003095 0.000011 -0.005582 -0.000006
# 2 -0.001248 0.009333 -0.003459 0.000001 -0.001849 0.000000
# 3 -0.003095 -0.003459 0.021777 0.000044 -0.012143 -0.000029
# 4 0.000011 0.000001 0.000044 0.082602 -0.000067 -0.017597
# 5 -0.005582 -0.001849 -0.012143 -0.000067 0.040344 0.000041
# 6 -0.000006 0.000000 -0.000029 -0.017597 0.000041 0.061170
#
#
# Mechanical properties :
#
#
# Convention : Reuss Voigt Hill
#
# Bulk Modulus (GPa) = 36.12757 57.82084 46.97421
# Shear Modulus (GPa) = 19.82306 27.26786 23.54546
#
# Velocity S-wave (km/s) = 3.23321 3.79205 3.52372
# Velocity P-wave (km/s) = 5.74369 7.04730 6.42862
#
# Compressibility (1/GPa) = 0.02767969
#
# Stress axis : x y z
#
# Youngs Moduli (GPa) = 82.14546 107.14563 45.91897
#
# Poissons Ratio (x) = 0.13367 0.14213
# Poissons Ratio (y) = 0.10248 0.15885
# Poissons Ratio (z) = 0.25426 0.37065
#
# Static dielectric constant tensor:
#      x y z
#    x 3.658910 0.000000 0.403380 
#    y 0.000000 3.774070 -0.000010 
#    z 0.403380 -0.000010 3.456790 
# 
# 
# High freq. dielectric constant tensor:
#      x y z
#    x 1.739970 0.000000 0.024460 
#    y 0.000000 1.720080 0.000000 
#    z 0.024460 0.000000 1.715590 
# 
# From -- ./inp_files/27976.got.cif
#   From: 2010.03.12/outbox.cif.g09.slc.cpg/sg5_14_cif.got.tgz:27976.got - 2010.03.31 09:47:26.
