data_PCOD8048462
_publ_section_title
;
Structure prediction by ZEFSAII (Michael W. Deem and Ramdas Pophale) SiO2 
 PCOD8048462
Probable space group: C 2
;
_chemical_formula_sum "Si O2"
_cell_formula_units_Z 30
_cell_length_a 12.291491
_cell_length_b 16.010127
_cell_length_c 7.879280
_cell_angle_alpha 90.000000
_cell_angle_beta 71.531988
_cell_angle_gamma 90.000000
_cell_volume 1470.698043
_symmetry_space_group_name_H-M "C 2"
_symmetry_group_IT_number 5
_symmetry_cell_setting 'monoclinic'
loop_
_space_group_symop_operation_xyz
x,y,z
-x,y,-z
1/2+x,1/2+y,z
1/2-x,1/2+y,-z
loop_
_atom_site_type_symbol
_atom_site_label
_atom_site_fract_x
_atom_site_fract_y
_atom_site_fract_z
Si Si1 0.788952 0.326420 0.686177
Si Si2 0.512419 0.598846 0.192008
Si Si3 0.887673 0.692058 0.128261
Si Si4 0.000000 0.228673 0.500000
Si Si5 0.259012 0.056270 0.007233
Si Si6 0.921016 0.417384 0.897156
Si Si7 0.718394 0.507745 0.650322
Si Si8 0.936529 0.552264 0.363612
O O1 0.688331 0.259510 0.740365
O O2 0.889811 0.287576 0.520707
O O3 0.844542 0.347471 0.842400
O O4 0.729675 0.407899 0.637501
O O5 0.517474 0.676311 0.318676
O O6 0.630950 0.547249 0.145515
O O7 0.412674 0.536991 0.307221
O O8 0.500000 0.628123 0.000000
O O9 0.808922 0.647113 0.026187
O O10 0.945817 0.623253 0.219649
O O11 0.000000 0.739195 0.000000
O O12 0.338956 0.982279 0.041969
O O13 0.265316 0.045210 0.802327
O O14 0.000023 0.466779 0.722768
O O15 0.000000 0.372896 0.000000
O O16 0.799705 0.541348 0.460864
O O17 0.000000 0.584602 0.500000
#
# Coordination Sequence:
#
# PCOD8048462 Si02
#       8
#     4   4   4   2   4   4   4   4
#     4  11  24  38  62  95 132 155 204 268 328 360
#     4  10  23  39  66  91 125 169 219 254 308 392
#     4  12  22  38  65  92 125 159 208 261 321 368
#     4  12  22  42  62  92 128 166 206 266 318 372
#     4  10  18  40  61  90 118 159 216 251 296 385
#     4  11  21  39  66  93 122 166 215 260 310 381
#     4  10  22  39  62  90 123 167 206 258 313 371
#     4  12  19  37  69  91 119 164 222 254 297 392
#
# _framework density 20.398477
#
# number of rings (size 3 to 8) (size 9 to 14) (size 15 to 20)
#    0.000    1.067    6.667    1.600    0.000    3.200 
#    0.000    0.000    4.400    0.000    0.000    0.000 
#    0.000    0.000    0.000    0.000    0.000    0.000 
#
# Total GULP energy -185945.084475 kJ/mol
# GULP energy per Si atom -12396.338965 kJ/mol
# Density = 2.035205 g / cm^3
# Si number density = 20.398477 Si / 1000 Ang^3
#
#
#
# Elastic Constant Matrix: (Units=GPa)
#
#
# Indices 1 2 3 4 5 6 
#
# 1 94.6869 16.0426 27.5756 0.0000 -28.5682 0.0000
# 2 16.0426 68.8578 23.3726 0.0000 -7.8770 0.0000
# 3 27.5756 23.3726 72.5549 0.0000 -24.3561 0.0000
# 4 0.0000 0.0000 0.0000 18.1134 0.0000 -4.7407
# 5 -28.5682 -7.8770 -24.3561 0.0000 45.4657 0.0000
# 6 0.0000 0.0000 0.0000 -4.7407 0.0000 30.8089
#
#
#
# Elastic Compliance Matrix: (Units=1/GPa)
#
#
# Indices 1 2 3 4 5 6 
#
# 1 0.013629 -0.001587 -0.002300 0.000000 0.007057 0.000000
# 2 -0.001587 0.016491 -0.004980 0.000000 -0.000808 0.000000
# 3 -0.002300 -0.004980 0.018882 0.000000 0.007807 0.000000
# 4 0.000000 0.000000 0.000000 0.057524 0.000000 0.008852
# 5 0.007057 -0.000808 0.007807 0.000000 0.030471 0.000000
# 6 0.000000 0.000000 0.000000 0.008852 0.000000 0.033820
#
#
# Mechanical properties :
#
#
# Convention : Reuss Voigt Hill
#
# Bulk Modulus (GPa) = 31.98300 41.12014 36.55157
# Shear Modulus (GPa) = 25.12897 30.15153 27.64025
#
# Velocity S-wave (km/s) = 3.51366 3.84881 3.68505
# Velocity P-wave (km/s) = 5.67223 6.32087 6.00531
#
# Compressibility (1/GPa) = 0.03126661
#
# Stress axis : x y z
#
# Youngs Moduli (GPa) = 73.37355 60.64088 52.96099
#
# Poissons Ratio (x) = 0.09627 0.12179
# Poissons Ratio (y) = 0.11648 0.26376
# Poissons Ratio (z) = 0.16873 0.30201
#
# Static dielectric constant tensor:
#      x y z
#    x 4.004860 0.000000 -0.222780 
#    y 0.000000 3.508070 0.000000 
#    z -0.222780 0.000000 3.704190 
# 
# 
# High freq. dielectric constant tensor:
#      x y z
#    x 1.812430 0.000000 -0.018310 
#    y 0.000000 1.772780 0.000000 
#    z -0.018310 0.000000 1.796840 
# 
# From -- ./inp_files/20611.got.cif
#   From: 2010.03.12/outbox.cif.g09.slc.cpg/sg5_11_cif.got.tgz:20611.got - 2010.03.31 09:47:26.
