data_PCOD8048297
_publ_section_title
;
Structure prediction by ZEFSAII (Michael W. Deem and Ramdas Pophale) SiO2 
 PCOD8048297
Probable space group: C 2
;
_chemical_formula_sum "Si O2"
_cell_formula_units_Z 28
_cell_length_a 8.379974
_cell_length_b 17.331947
_cell_length_c 11.682233
_cell_angle_alpha 90.000000
_cell_angle_beta 57.190871
_cell_angle_gamma 90.000000
_cell_volume 1426.078448
_symmetry_space_group_name_H-M "C 2"
_symmetry_group_IT_number 5
_symmetry_cell_setting 'monoclinic'
loop_
_space_group_symop_operation_xyz
x,y,z
-x,y,-z
1/2+x,1/2+y,z
1/2-x,1/2+y,-z
loop_
_atom_site_type_symbol
_atom_site_label
_atom_site_fract_x
_atom_site_fract_y
_atom_site_fract_z
Si Si1 0.004152 0.050840 0.809800
Si Si2 0.110941 0.879844 0.696287
Si Si3 0.694460 0.080703 0.113719
Si Si4 0.000000 0.432439 0.500000
Si Si5 0.000000 0.908234 0.500000
Si Si6 0.969181 0.732547 0.142729
Si Si7 0.840923 0.512225 0.347340
Si Si8 0.380920 0.649832 0.647096
O O1 0.999709 0.102188 0.696312
O O2 0.174180 0.080071 0.824690
O O3 0.805675 0.059120 0.954983
O O4 0.028390 0.961930 0.767362
O O5 0.340387 0.880500 0.625789
O O6 0.998887 0.813619 0.806574
O O7 0.081143 0.859209 0.573506
O O8 0.610030 0.166847 0.135032
O O9 0.527844 0.016081 0.192951
O O10 0.893762 0.489785 0.455306
O O11 0.828022 0.955930 0.627458
O O12 0.747529 0.712056 0.239881
O O13 0.000000 0.749699 0.000000
O O14 0.753086 0.596640 0.379339
O O15 0.500000 0.691640 0.500000
#
# Coordination Sequence:
#
# PCOD8048297 Si02
#       8
#     4   4   4   2   2   4   4   4
#     4  11  21  42  70  93 122 164 224 263 313 378
#     4  11  23  40  66  92 129 169 210 265 325 377
#     4  10  23  39  64  94 126 169 210 268 314 379
#     4  10  20  36  60  98 130 156 212 276 304 378
#     4  10  20  40  60  92 134 158 210 274 316 366
#     4  11  25  44  62  90 137 166 207 266 330 378
#     4  10  18  34  61  94 122 160 207 265 306 365
#     4  11  21  39  66  92 123 170 212 259 320 381
#
# _framework density 19.634262
#
# number of rings (size 3 to 8) (size 9 to 14) (size 15 to 20)
#    0.000    1.429    5.000    0.857    3.000    0.000 
#    2.571    0.000    6.286    0.000    0.000    0.000 
#    0.000    0.000    0.000    0.000    0.000    0.000 
#
# Total GULP energy -173475.765018 kJ/mol
# GULP energy per Si atom -12391.126073 kJ/mol
# Density = 1.958957 g / cm^3
# Si number density = 19.634262 Si / 1000 Ang^3
#
#
#
# Elastic Constant Matrix: (Units=GPa)
#
#
# Indices 1 2 3 4 5 6 
#
# 1 93.9843 33.1754 48.7573 0.0000 -0.8783 0.0000
# 2 33.1754 91.9556 50.5971 0.0000 6.8156 0.0000
# 3 48.7573 50.5971 146.7105 0.0000 -6.2337 0.0000
# 4 0.0000 0.0000 0.0000 21.6390 0.0000 2.1291
# 5 -0.8783 6.8156 -6.2337 0.0000 34.8804 0.0000
# 6 0.0000 0.0000 0.0000 2.1291 0.0000 15.7916
#
#
#
# Elastic Compliance Matrix: (Units=1/GPa)
#
#
# Indices 1 2 3 4 5 6 
#
# 1 0.013483 -0.002998 -0.003434 0.000000 0.000312 0.000000
# 2 -0.002998 0.014520 -0.004167 0.000000 -0.003657 0.000000
# 3 -0.003434 -0.004167 0.009497 0.000000 0.002425 0.000000
# 4 0.000000 0.000000 0.000000 0.046834 0.000000 -0.006315
# 5 0.000312 -0.003657 0.002425 0.000000 0.029825 0.000000
# 6 0.000000 0.000000 0.000000 -0.006315 0.000000 0.064176
#
#
# Mechanical properties :
#
#
# Convention : Reuss Voigt Hill
#
# Bulk Modulus (GPa) = 61.33691 66.41222 63.87457
# Shear Modulus (GPa) = 24.39422 27.80358 26.09890
#
# Velocity S-wave (km/s) = 3.52864 3.76716 3.64985
# Velocity P-wave (km/s) = 6.92165 7.26774 7.09681
#
# Compressibility (1/GPa) = 0.01630340
#
# Stress axis : x y z
#
# Youngs Moduli (GPa) = 74.17010 68.86968 105.29321
#
# Poissons Ratio (x) = 0.20647 0.36153
# Poissons Ratio (y) = 0.22236 0.43873
# Poissons Ratio (z) = 0.25467 0.28696
#
# Static dielectric constant tensor:
#      x y z
#    x 3.874860 0.000000 -0.239220 
#    y 0.000000 3.293320 0.000000 
#    z -0.239220 0.000000 3.928670 
# 
# 
# High freq. dielectric constant tensor:
#      x y z
#    x 1.773720 0.000000 -0.006910 
#    y 0.000000 1.733910 0.000000 
#    z -0.006910 0.000000 1.781290 
# 
# From -- ./inp_files/36344.got.cif
#   From: 2010.03.12/outbox.cif.g09.slc.cpg/sg5_19_cif.got.tgz:36344.got - 2010.03.31 09:47:26.
