data_PCOD8048903
_publ_section_title
;
Structure prediction by ZEFSAII (Michael W. Deem and Ramdas Pophale) SiO2 
 PCOD8048903
Probable space group: C 2
;
_chemical_formula_sum "Si O2"
_cell_formula_units_Z 20
_cell_length_a 10.773918
_cell_length_b 12.330811
_cell_length_c 8.607197
_cell_angle_alpha 90.000000
_cell_angle_beta 42.071423
_cell_angle_gamma 90.000000
_cell_volume 766.193481
_symmetry_space_group_name_H-M "C 2"
_symmetry_group_IT_number 5
_symmetry_cell_setting 'monoclinic'
loop_
_space_group_symop_operation_xyz
x,y,z
-x,y,-z
1/2+x,1/2+y,z
1/2-x,1/2+y,-z
loop_
_atom_site_type_symbol
_atom_site_label
_atom_site_fract_x
_atom_site_fract_y
_atom_site_fract_z
Si Si1 0.516356 0.536360 0.804453
Si Si2 0.933269 0.820373 0.389300
Si Si3 0.013131 0.368081 0.813134
Si Si4 0.337115 0.700142 0.772964
Si Si5 0.611746 0.108804 0.715460
O O1 0.477841 0.410796 0.803331
O O2 0.351776 0.604593 0.883394
O O3 0.708016 0.578463 0.552498
O O4 0.500000 0.556746 0.000000
O O5 0.712196 0.826568 0.567957
O O6 0.004802 0.701470 0.269193
O O7 0.000000 0.846865 0.500000
O O8 0.992534 0.498556 0.836526
O O9 0.851245 0.315737 0.853965
O O10 0.000000 0.322610 0.000000
O O11 0.500000 0.699318 0.500000
O O12 0.153890 0.665404 0.845751
#
# Coordination Sequence:
#
# PCOD8048903 Si02
#       5
#     4   4   4   4   4
#     4  10  20  39  66  93 122 174 223 265 338 405
#     4  11  23  44  64  93 138 177 217 289 340 394
#     4  11  23  44  69  99 131 178 231 274 339 409
#     4  10  19  41  68  91 130 178 218 272 337 402
#     4  10  23  43  64  95 139 170 224 280 338 399
#
# _framework density 26.103065999999998
#
# number of rings (size 3 to 8) (size 9 to 14) (size 15 to 20)
#    0.000    1.600    4.000    3.600    0.000    1.600 
#   10.800    0.000    0.000    0.000    0.000    0.000 
#    0.000    0.000    0.000    0.000    0.000    0.000 
#
# Total GULP energy -123944.495584 kJ/mol
# GULP energy per Si atom -12394.449558 kJ/mol
# Density = 2.604365 g / cm^3
# Si number density = 26.103066 Si / 1000 Ang^3
#
#
#
# Elastic Constant Matrix: (Units=GPa)
#
#
# Indices 1 2 3 4 5 6 
#
# 1 121.6985 69.7278 52.3443 -0.0004 17.9754 0.0004
# 2 69.7278 215.5345 46.6784 -0.0001 7.3796 0.0001
# 3 52.3443 46.6784 76.3552 -0.0003 38.9195 0.0004
# 4 -0.0004 -0.0001 -0.0003 35.3089 0.0003 11.8363
# 5 17.9754 7.3796 38.9195 0.0003 44.5222 -0.0004
# 6 0.0004 0.0001 0.0004 11.8363 -0.0004 35.4969
#
#
#
# Elastic Compliance Matrix: (Units=1/GPa)
#
#
# Indices 1 2 3 4 5 6 
#
# 1 0.012995 -0.002357 -0.009005 0.000000 0.003016 0.000000
# 2 -0.002357 0.006107 -0.003763 0.000000 0.003229 0.000000
# 3 -0.009005 -0.003763 0.034990 0.000001 -0.026327 -0.000001
# 4 0.000000 0.000000 0.000001 0.031886 -0.000001 -0.010632
# 5 0.003016 0.003229 -0.026327 -0.000001 0.043722 0.000001
# 6 0.000000 0.000000 -0.000001 -0.010632 0.000001 0.031717
#
#
# Mechanical properties :
#
#
# Convention : Reuss Voigt Hill
#
# Bulk Modulus (GPa) = 41.94385 83.45433 62.69909
# Shear Modulus (GPa) = 25.04830 39.38810 32.21820
#
# Velocity S-wave (km/s) = 3.10109 3.88873 3.51703
# Velocity P-wave (km/s) = 5.37827 7.22519 6.36904
#
# Compressibility (1/GPa) = 0.02384140
#
# Stress axis : x y z
#
# Youngs Moduli (GPa) = 76.95095 163.75626 28.57958
#
# Poissons Ratio (x) = 0.38600 0.25736
# Poissons Ratio (y) = 0.18139 0.10755
# Poissons Ratio (z) = 0.69294 0.61625
#
# Static dielectric constant tensor:
#      x y z
#    x 4.939580 0.000000 0.060460 
#    y 0.000000 5.105910 0.000000 
#    z 0.060460 0.000000 4.750940 
# 
# 
# High freq. dielectric constant tensor:
#      x y z
#    x 2.034210 0.000000 0.001870 
#    y 0.000000 2.062300 0.000000 
#    z 0.001870 0.000000 2.065990 
# 
# From -- ./inp_files/18935.got.cif
#   From: 2010.03.12/outbox.cif.g09.slc.cpg/sg5_10_cif.got.tgz:18935.got - 2010.03.31 09:47:26.
