data_PCOD8048267
_publ_section_title
;
Structure prediction by ZEFSAII (Michael W. Deem and Ramdas Pophale) SiO2 
 PCOD8048267
Probable space group: C 2
;
_chemical_formula_sum "Si O2"
_cell_formula_units_Z 20
_cell_length_a 13.653485
_cell_length_b 8.863439
_cell_length_c 18.827337
_cell_angle_alpha 90.000000
_cell_angle_beta 25.226334
_cell_angle_gamma 90.000000
_cell_volume 971.053472
_symmetry_space_group_name_H-M "C 2"
_symmetry_group_IT_number 5
_symmetry_cell_setting 'monoclinic'
loop_
_space_group_symop_operation_xyz
x,y,z
-x,y,-z
1/2+x,1/2+y,z
1/2-x,1/2+y,-z
loop_
_atom_site_type_symbol
_atom_site_label
_atom_site_fract_x
_atom_site_fract_y
_atom_site_fract_z
Si Si1 0.500000 0.228010 0.000000
Si Si2 0.477345 0.827405 0.686689
Si Si3 0.252702 0.990753 0.071707
Si Si4 0.493101 0.731824 0.172941
Si Si5 0.104130 0.006013 0.573532
Si Si6 0.500000 0.325418 0.500000
O O1 0.710902 0.336698 0.836607
O O2 0.565776 0.118602 0.022482
O O3 0.469125 0.806592 0.776009
O O4 0.595846 0.685096 0.570376
O O5 0.639310 0.969941 0.563804
O O6 0.106871 0.064004 0.101349
O O7 0.085509 0.948358 0.246339
O O8 0.382510 0.838083 0.966033
O O9 0.219724 0.721092 0.336338
O O10 0.061571 0.930419 0.525930
#
# Coordination Sequence:
#
# PCOD8048267 Si02
#       6
#     2   4   4   4   4   2
#     4   8  16  32  54  72  98 134 170 204 244 300
#     4   9  18  34  52  75 102 133 168 209 249 297
#     4  10  19  35  53  76 103 134 168 208 249 299
#     4   9  19  33  52  75 103 133 168 208 250 297
#     4   9  19  33  54  77 102 131 169 210 250 296
#     4  10  18  34  56  76  98 136 172 204 248 306
#
# _framework density 20.596187
#
# number of rings (size 3 to 8) (size 9 to 14) (size 15 to 20)
#    0.000    3.200    0.000    2.400    0.000    3.200 
#    0.000   12.000    0.000   14.400    0.000    0.000 
#    0.000    0.000    0.000    0.000    0.000    0.000 
#
# Total GULP energy -123885.339795 kJ/mol
# GULP energy per Si atom -12388.533979 kJ/mol
# Density = 2.054931 g / cm^3
# Si number density = 20.596187 Si / 1000 Ang^3
#
#
#
# Elastic Constant Matrix: (Units=GPa)
#
#
# Indices 1 2 3 4 5 6 
#
# 1 61.3020 17.3016 35.6815 -0.0254 -15.9060 0.0042
# 2 17.3016 43.1485 46.8739 -0.0681 -19.9008 -0.0061
# 3 35.6815 46.8739 141.4283 -0.0860 -40.6426 0.0112
# 4 -0.0254 -0.0681 -0.0860 18.5234 0.0195 -5.7572
# 5 -15.9060 -19.9008 -40.6426 0.0195 36.1085 -0.0147
# 6 0.0042 -0.0061 0.0112 -5.7572 -0.0147 26.8388
#
#
#
# Elastic Compliance Matrix: (Units=1/GPa)
#
#
# Indices 1 2 3 4 5 6 
#
# 1 0.019850 -0.003054 -0.002907 -0.000002 0.003789 -0.000001
# 2 -0.003054 0.039050 -0.009421 0.000098 0.009573 0.000039
# 3 -0.002907 -0.009421 0.013401 0.000015 0.008611 0.000001
# 4 -0.000002 0.000098 0.000015 0.057843 0.000043 0.012408
# 5 0.003789 0.009573 0.008611 0.000043 0.044332 0.000032
# 6 -0.000001 0.000039 0.000001 0.012408 0.000032 0.039921
#
#
# Mechanical properties :
#
#
# Convention : Reuss Voigt Hill
#
# Bulk Modulus (GPa) = 24.07479 49.51031 36.79255
# Shear Modulus (GPa) = 19.30461 26.02892 22.66676
#
# Velocity S-wave (km/s) = 3.06484 3.55882 3.32103
# Velocity P-wave (km/s) = 4.92328 6.40138 5.71036
#
# Compressibility (1/GPa) = 0.04153723
#
# Stress axis : x y z
#
# Youngs Moduli (GPa) = 50.37848 25.60824 74.62043
#
# Poissons Ratio (x) = 0.07820 0.21692
# Poissons Ratio (y) = 0.15385 0.70299
# Poissons Ratio (z) = 0.14645 0.24125
#
# Static dielectric constant tensor:
#      x y z
#    x 3.795680 -0.000060 -0.565640 
#    y -0.000060 3.626660 0.000170 
#    z -0.565640 0.000170 4.311170 
# 
# 
# High freq. dielectric constant tensor:
#      x y z
#    x 1.789840 0.000000 -0.018480 
#    y 0.000000 1.770900 0.000010 
#    z -0.018480 0.000010 1.822480 
# 
# From -- ./inp_files/26393.got.cif
#   From: 2010.03.12/outbox.cif.g09.slc.cpg/sg5_14_cif.got.tgz:26393.got - 2010.03.31 09:47:26.
