data_PCOD8048068
_publ_section_title
;
Structure prediction by ZEFSAII (Michael W. Deem and Ramdas Pophale) SiO2 
 PCOD8048068
Probable space group: C 2
;
_chemical_formula_sum "Si O2"
_cell_formula_units_Z 32
_cell_length_a 15.102039
_cell_length_b 9.539904
_cell_length_c 22.550315
_cell_angle_alpha 90.000000
_cell_angle_beta 30.457461
_cell_angle_gamma 90.000000
_cell_volume 1646.846874
_symmetry_space_group_name_H-M "C 2"
_symmetry_group_IT_number 5
_symmetry_cell_setting 'monoclinic'
loop_
_space_group_symop_operation_xyz
x,y,z
-x,y,-z
1/2+x,1/2+y,z
1/2-x,1/2+y,-z
loop_
_atom_site_type_symbol
_atom_site_label
_atom_site_fract_x
_atom_site_fract_y
_atom_site_fract_z
Si Si1 0.006837 0.098410 0.366761
Si Si2 0.352568 0.102515 0.364442
Si Si3 0.127407 0.520273 0.981972
Si Si4 0.110570 0.894157 0.799067
Si Si5 0.604031 0.908081 0.276232
Si Si6 0.849787 0.562788 0.233246
Si Si7 0.509961 0.403784 0.255658
Si Si8 0.650791 0.331413 0.960246
O O1 0.061407 0.246505 0.309068
O O2 0.163651 0.021233 0.311553
O O3 0.847717 0.127430 0.502957
O O4 0.953754 0.000820 0.342451
O O5 0.354493 0.024070 0.299826
O O6 0.462622 0.245067 0.299278
O O7 0.433671 0.004308 0.369126
O O8 0.284829 0.410984 0.880152
O O9 0.214091 0.674446 0.940918
O O10 0.000000 0.512416 0.000000
O O11 0.009907 0.482934 0.107847
O O12 0.273882 0.962855 0.740010
O O13 0.133751 0.727956 0.785251
O O14 0.101674 0.953681 0.737623
O O15 0.926604 0.920322 0.939678
O O16 0.698887 0.922688 0.157463
O O17 0.500000 0.304423 0.000000
#
# Coordination Sequence:
#
# PCOD8048068 Si02
#       8
#     4   4   4   4   4   4   4   4
#     4  11  20  40  62  79 109 158 203 233 270 344
#     4  11  24  36  55  88 121 146 187 245 292 332
#     4  10  16  33  60  86 110 144 190 236 279 344
#     4   8  18  33  57  84 112 144 187 235 273 341
#     4  10  19  37  57  82 111 152 191 229 282 335
#     4   9  19  36  60  84 108 148 200 234 275 334
#     4  11  21  36  59  89 115 147 189 240 293 339
#     4   8  14  30  56  80 105 143 188 224 265 333
#
# _framework density 19.431070999999999
#
# number of rings (size 3 to 8) (size 9 to 14) (size 15 to 20)
#    0.000    2.250    2.500    2.625    1.750    0.000 
#    0.000    5.000    0.000    0.000    0.000    0.000 
#    0.000    0.000    0.000    0.000    0.000    0.000 
#
# Total GULP energy -198318.101222 kJ/mol
# GULP energy per Si atom -12394.881326 kJ/mol
# Density = 1.938685 g / cm^3
# Si number density = 19.431071 Si / 1000 Ang^3
#
#
#
# Elastic Constant Matrix: (Units=GPa)
#
#
# Indices 1 2 3 4 5 6 
#
# 1 117.1861 31.1249 36.0154 -0.0003 9.1666 0.0001
# 2 31.1249 40.7817 14.0600 -0.0006 -3.2471 -0.0003
# 3 36.0154 14.0600 104.6723 -0.0041 2.5097 0.0000
# 4 -0.0003 -0.0006 -0.0041 20.8314 0.0004 -0.0609
# 5 9.1666 -3.2471 2.5097 0.0004 29.3672 -0.0001
# 6 0.0001 -0.0003 0.0000 -0.0609 -0.0001 22.1018
#
#
#
# Elastic Compliance Matrix: (Units=1/GPa)
#
#
# Indices 1 2 3 4 5 6 
#
# 1 0.012040 -0.008548 -0.002888 -0.000001 -0.004457 0.000000
# 2 -0.008548 0.032074 -0.001519 0.000000 0.006344 0.000001
# 3 -0.002888 -0.001519 0.010756 0.000002 -0.000186 0.000000
# 4 -0.000001 0.000000 0.000002 0.048005 -0.000001 0.000132
# 5 -0.004457 0.006344 -0.000186 -0.000001 0.036160 0.000000
# 6 0.000000 0.000001 0.000000 0.000132 0.000000 0.045246
#
#
# Mechanical properties :
#
#
# Convention : Reuss Voigt Hill
#
# Bulk Modulus (GPa) = 34.53107 47.22676 40.87891
# Shear Modulus (GPa) = 22.74351 26.55607 24.64979
#
# Velocity S-wave (km/s) = 3.42493 3.70088 3.56557
# Velocity P-wave (km/s) = 5.78358 6.52836 6.16722
#
# Compressibility (1/GPa) = 0.02895943
#
# Stress axis : x y z
#
# Youngs Moduli (GPa) = 83.05692 31.17812 92.97406
#
# Poissons Ratio (x) = 0.26652 0.26847
# Poissons Ratio (y) = 0.70999 0.14124
# Poissons Ratio (z) = 0.23983 0.04736
#
# Static dielectric constant tensor:
#      x y z
#    x 3.821160 0.000000 0.248850 
#    y 0.000000 3.053910 0.000000 
#    z 0.248850 0.000000 3.940770 
# 
# 
# High freq. dielectric constant tensor:
#      x y z
#    x 1.762360 0.000000 0.007540 
#    y 0.000000 1.706420 0.000000 
#    z 0.007540 0.000000 1.764370 
# 
# From -- ./inp_files/68770.got.cif
#   From: 2010.03.12/outbox.cif.g09.slc.cpg/sg5_35_cif.got.tgz:68770.got - 2010.03.31 09:47:26.
