data_PCOD8048598
_publ_section_title
;
Structure prediction by ZEFSAII (Michael W. Deem and Ramdas Pophale) SiO2 
 PCOD8048598
Probable space group: C 2
;
_chemical_formula_sum "Si O2"
_cell_formula_units_Z 32
_cell_length_a 19.737595
_cell_length_b 9.091760
_cell_length_c 15.670605
_cell_angle_alpha 90.000000
_cell_angle_beta 146.085207
_cell_angle_gamma 90.000000
_cell_volume 1569.027479
_symmetry_space_group_name_H-M "C 2"
_symmetry_group_IT_number 5
_symmetry_cell_setting 'monoclinic'
loop_
_space_group_symop_operation_xyz
x,y,z
-x,y,-z
1/2+x,1/2+y,z
1/2-x,1/2+y,-z
loop_
_atom_site_type_symbol
_atom_site_label
_atom_site_fract_x
_atom_site_fract_y
_atom_site_fract_z
Si Si1 0.689496 0.701590 0.986827
Si Si2 0.368001 0.877599 0.562462
Si Si3 0.250318 0.420210 0.384719
Si Si4 0.957092 0.639654 0.862447
Si Si5 0.867939 0.223076 0.874881
Si Si6 0.367392 0.459911 0.758928
Si Si7 0.402420 0.020899 0.144659
Si Si8 0.541841 0.572951 0.319689
O O1 0.668457 0.712026 0.065451
O O2 0.825527 0.647835 0.110799
O O3 0.603311 0.578847 0.849399
O O4 0.668015 0.865300 0.928733
O O5 0.302203 0.848595 0.584445
O O6 0.274368 0.918547 0.391070
O O7 0.429920 0.725039 0.603823
O O8 0.470121 0.004750 0.672211
O O9 0.176585 0.572579 0.294265
O O10 0.232404 0.311428 0.285522
O O11 0.395975 0.450420 0.552710
O O12 0.951320 0.815577 0.845821
O O13 0.063578 0.574497 0.914459
O O14 0.000000 0.594880 0.000000
O O15 0.884042 0.055035 0.861081
O O16 0.000000 0.301539 0.000000
O O17 0.396688 0.561717 0.708631
#
# Coordination Sequence:
#
# PCOD8048598 Si02
#       8
#     4   4   4   4   4   4   4   4
#     4  11  24  42  65  88 129 175 218 262 325 391
#     4   9  18  38  58  89 121 159 204 266 319 379
#     4  10  19  34  61  88 123 160 204 264 326 372
#     4  11  22  36  61  95 124 155 205 267 318 379
#     4  12  21  38  61  96 131 163 210 280 326 376
#     4  11  21  33  62  93 121 157 208 265 322 373
#     4  10  24  42  64  90 124 171 215 259 319 399
#     4  10  19  36  58  90 119 164 210 259 309 383
#
# _framework density 20.394798999999999
#
# number of rings (size 3 to 8) (size 9 to 14) (size 15 to 20)
#    0.000    1.500    3.750    3.000    1.750    0.000 
#    0.000    0.625    0.000    2.250    0.000    0.000 
#    0.000    0.000    0.000    0.000    0.000    0.000 
#
# Total GULP energy -198283.284387 kJ/mol
# GULP energy per Si atom -12392.705274 kJ/mol
# Density = 2.034838 g / cm^3
# Si number density = 20.394799 Si / 1000 Ang^3
#
#
#
# Elastic Constant Matrix: (Units=GPa)
#
#
# Indices 1 2 3 4 5 6 
#
# 1 76.4525 18.9659 31.5992 0.0000 5.0026 0.0000
# 2 18.9659 84.4337 17.6191 0.0000 4.2969 0.0000
# 3 31.5992 17.6191 84.9070 0.0000 -0.5190 0.0000
# 4 0.0000 0.0000 0.0000 33.2684 0.0000 1.7603
# 5 5.0026 4.2969 -0.5190 0.0000 25.0946 0.0000
# 6 0.0000 0.0000 0.0000 1.7603 0.0000 25.6614
#
#
#
# Elastic Compliance Matrix: (Units=1/GPa)
#
#
# Indices 1 2 3 4 5 6 
#
# 1 0.016138 -0.002319 -0.005543 0.000000 -0.002935 0.000000
# 2 -0.002319 0.012833 -0.001811 0.000000 -0.001772 0.000000
# 3 -0.005543 -0.001811 0.014227 0.000000 0.001709 0.000000
# 4 0.000000 0.000000 0.000000 0.030168 0.000000 -0.002069
# 5 -0.002935 -0.001772 0.001709 0.000000 0.040773 0.000000
# 6 0.000000 0.000000 0.000000 -0.002069 0.000000 0.039111
#
#
# Mechanical properties :
#
#
# Convention : Reuss Voigt Hill
#
# Bulk Modulus (GPa) = 41.92445 42.46240 42.19342
# Shear Modulus (GPa) = 27.69390 28.64550 28.16970
#
# Velocity S-wave (km/s) = 3.68895 3.75180 3.72051
# Velocity P-wave (km/s) = 6.22459 6.29550 6.26015
#
# Compressibility (1/GPa) = 0.02385243
#
# Stress axis : x y z
#
# Youngs Moduli (GPa) = 61.96455 77.92673 70.29099
#
# Poissons Ratio (x) = 0.18072 0.38961
# Poissons Ratio (y) = 0.14370 0.12727
# Poissons Ratio (z) = 0.34345 0.14110
#
# Static dielectric constant tensor:
#      x y z
#    x 3.180260 0.000000 0.043670 
#    y 0.000000 3.723120 0.000000 
#    z 0.043670 0.000000 4.022950 
# 
# 
# High freq. dielectric constant tensor:
#      x y z
#    x 1.740850 0.000000 -0.003640 
#    y 0.000000 1.807050 0.000000 
#    z -0.003640 0.000000 1.811570 
# 
# From -- ./inp_files/63246.got.cif
#   From: 2010.03.12/outbox.cif.g09.slc.cpg/sg5_32_cif.got.tgz:63246.got - 2010.03.31 09:47:26.
