data_PCOD8048042
_publ_section_title
;
Structure prediction by ZEFSAII (Michael W. Deem and Ramdas Pophale) SiO2 
 PCOD8048042
Probable space group: C 2
;
_chemical_formula_sum "Si O2"
_cell_formula_units_Z 24
_cell_length_a 28.055743
_cell_length_b 5.214410
_cell_length_c 8.654634
_cell_angle_alpha 90.000000
_cell_angle_beta 76.553025
_cell_angle_gamma 90.000000
_cell_volume 1231.412249
_symmetry_space_group_name_H-M "C 2"
_symmetry_group_IT_number 5
_symmetry_cell_setting 'monoclinic'
loop_
_space_group_symop_operation_xyz
x,y,z
-x,y,-z
1/2+x,1/2+y,z
1/2-x,1/2+y,-z
loop_
_atom_site_type_symbol
_atom_site_label
_atom_site_fract_x
_atom_site_fract_y
_atom_site_fract_z
Si Si1 0.632927 0.295480 0.315081
Si Si2 0.771538 0.204042 0.407418
Si Si3 0.630328 0.795280 0.516167
Si Si4 0.976740 0.797255 0.687884
Si Si5 0.480961 0.797639 0.338864
Si Si6 0.734164 0.232775 0.097901
O O1 0.637093 0.580623 0.380104
O O2 0.581350 0.261784 0.268584
O O3 0.675668 0.260081 0.158096
O O4 0.637972 0.079026 0.442366
O O5 0.740869 0.448243 0.488065
O O6 0.829397 0.256928 0.381255
O O7 0.759511 0.154047 0.238863
O O8 0.577096 0.766649 0.631238
O O9 0.000000 0.830892 0.500000
O O10 0.001347 0.557920 0.758826
O O11 0.992415 0.057800 0.764266
O O12 0.500000 0.830940 0.500000
O O13 0.755948 0.504397 0.028713
#
# Coordination Sequence:
#
# PCOD8048042 Si02
#       6
#     4   4   4   4   4   4
#     4  12  20  33  58  82 119 151 192 239 300 343
#     4  12  23  40  62  88 116 153 205 261 301 341
#     4  12  19  32  55  88 115 147 184 245 307 338
#     4  10  16  28  46  82 118 139 175 239 303 336
#     4  10  16  26  46  78 125 135 171 230 309 345
#     4  12  26  43  59  84 121 167 205 241 294 367
#
# _framework density 19.489816000000001
#
# number of rings (size 3 to 8) (size 9 to 14) (size 15 to 20)
#    0.000    0.667   10.000    2.000    0.000    0.000 
#    0.000    0.000    0.000    0.000    0.000    7.000 
#    0.000    0.000    0.000    0.000    0.000    0.000 
#
# Total GULP energy -148783.610217 kJ/mol
# GULP energy per Si atom -12398.634185 kJ/mol
# Density = 1.944546 g / cm^3
# Si number density = 19.489816 Si / 1000 Ang^3
#
#
#
# Elastic Constant Matrix: (Units=GPa)
#
#
# Indices 1 2 3 4 5 6 
#
# 1 124.3068 2.2241 27.4082 0.0000 -24.5944 0.0000
# 2 2.2241 126.2024 6.3679 0.0000 -5.8666 0.0000
# 3 27.4082 6.3679 36.4892 0.0000 -11.5598 0.0000
# 4 0.0000 0.0000 0.0000 14.2174 0.0000 -7.2155
# 5 -24.5944 -5.8666 -11.5598 0.0000 25.5262 0.0000
# 6 0.0000 0.0000 0.0000 -7.2155 0.0000 32.2781
#
#
#
# Elastic Compliance Matrix: (Units=1/GPa)
#
#
# Indices 1 2 3 4 5 6 
#
# 1 0.010880 0.000469 -0.005720 0.000000 0.008001 0.000000
# 2 0.000469 0.008058 -0.001201 0.000000 0.001760 0.000000
# 3 -0.005720 -0.001201 0.035116 0.000000 0.010116 0.000000
# 4 0.000000 0.000000 0.000000 0.079337 0.000000 0.017735
# 5 0.008001 0.001760 0.010116 0.000000 0.051869 0.000000
# 6 0.000000 0.000000 0.000000 0.017735 0.000000 0.034945
#
#
# Mechanical properties :
#
#
# Convention : Reuss Voigt Hill
#
# Bulk Modulus (GPa) = 24.30109 39.88877 32.09493
# Shear Modulus (GPa) = 20.25716 31.13757 25.69736
#
# Velocity S-wave (km/s) = 3.22743 4.00138 3.63506
# Velocity P-wave (km/s) = 5.13654 6.46985 5.84136
#
# Compressibility (1/GPa) = 0.04115042
#
# Stress axis : x y z
#
# Youngs Moduli (GPa) = 91.90921 124.10162 28.47712
#
# Poissons Ratio (x) = -0.05818 0.16288
# Poissons Ratio (y) = -0.04308 0.03420
# Poissons Ratio (z) = 0.52570 0.14903
#
# Static dielectric constant tensor:
#      x y z
#    x 3.803740 0.000000 -0.232430 
#    y 0.000000 4.844770 0.000000 
#    z -0.232430 0.000000 2.928840 
# 
# 
# High freq. dielectric constant tensor:
#      x y z
#    x 1.775590 0.000000 -0.023350 
#    y 0.000000 1.799820 0.000000 
#    z -0.023350 0.000000 1.681470 
# 
# From -- ./inp_files/31259.got.cif
#   From: 2010.03.12/outbox.cif.g09.slc.cpg/sg5_16_cif.got.tgz:31259.got - 2010.03.31 09:47:26.
