data_PCOD8048040
_publ_section_title
;
Structure prediction by ZEFSAII (Michael W. Deem and Ramdas Pophale) SiO2 
 PCOD8048040
Probable space group: C 2
;
_chemical_formula_sum "Si O2"
_cell_formula_units_Z 32
_cell_length_a 12.464430
_cell_length_b 21.528155
_cell_length_c 9.126248
_cell_angle_alpha 90.000000
_cell_angle_beta 132.207454
_cell_angle_gamma 90.000000
_cell_volume 1813.944232
_symmetry_space_group_name_H-M "C 2"
_symmetry_group_IT_number 5
_symmetry_cell_setting 'monoclinic'
loop_
_space_group_symop_operation_xyz
x,y,z
-x,y,-z
1/2+x,1/2+y,z
1/2-x,1/2+y,-z
loop_
_atom_site_type_symbol
_atom_site_label
_atom_site_fract_x
_atom_site_fract_y
_atom_site_fract_z
Si Si1 0.451107 0.709280 0.608229
Si Si2 0.638833 0.758653 0.028387
Si Si3 0.377273 0.929442 0.691627
Si Si4 0.156536 0.334802 0.578880
Si Si5 0.202583 0.396235 0.072594
Si Si6 0.157432 0.521412 0.585062
Si Si7 0.159194 0.919233 0.085120
Si Si8 0.348183 0.641851 0.786711
O O1 0.500000 0.677006 0.500000
O O2 0.336558 0.762801 0.458325
O O3 0.374233 0.660027 0.641554
O O4 0.588753 0.740824 0.817534
O O5 0.730649 0.821798 0.111614
O O6 0.718819 0.699731 0.180254
O O7 0.500000 0.773640 0.000000
O O8 0.306998 0.875552 0.529830
O O9 0.288087 0.929939 0.761834
O O10 0.353994 0.996503 0.592957
O O11 0.545528 0.912115 0.862946
O O12 0.281092 0.351319 0.811650
O O13 0.000000 0.353377 0.500000
O O14 0.329081 0.422372 0.081635
O O15 0.234197 0.470741 0.754744
O O16 0.239740 0.585676 0.678225
O O17 0.000000 0.534637 0.500000
O O18 0.000000 0.931729 0.000000
O O19 0.500000 0.621415 0.000000
#
# Coordination Sequence:
#
# PCOD8048040 Si02
#       8
#     4   4   4   4   4   4   4   4
#     4   9  15  27  52  80 104 134 177 223 264 319
#     4   9  15  28  54  83 108 133 173 224 272 324
#     4  10  17  28  56  84 103 128 177 238 259 311
#     4  10  15  30  52  82 107 140 178 216 271 330
#     4  11  16  31  55  88 108 126 177 233 283 312
#     4  11  21  39  55  73 101 147 197 216 263 330
#     4  11  22  34  52  79 113 146 173 224 280 331
#     4   9  20  35  53  77 106 145 181 223 270 317
#
# _framework density 17.641114000000002
#
# number of rings (size 3 to 8) (size 9 to 14) (size 15 to 20)
#    0.000    2.250    5.000    2.625    0.000    0.000 
#    0.000    7.500    0.000    0.000    0.000    0.000 
#    0.000    0.000    0.000    0.000    0.000    0.000 
#
# Total GULP energy -198271.992035 kJ/mol
# GULP energy per Si atom -12391.999502 kJ/mol
# Density = 1.760096 g / cm^3
# Si number density = 17.641114 Si / 1000 Ang^3
#
#
#
# Elastic Constant Matrix: (Units=GPa)
#
#
# Indices 1 2 3 4 5 6 
#
# 1 117.0698 44.9264 50.2760 0.0000 -22.8666 0.0000
# 2 44.9264 111.5978 43.7127 0.0000 -2.8701 0.0000
# 3 50.2760 43.7127 66.9428 0.0000 -18.9651 0.0000
# 4 0.0000 0.0000 0.0000 28.7711 0.0000 6.3633
# 5 -22.8666 -2.8701 -18.9651 0.0000 35.1348 0.0000
# 6 0.0000 0.0000 0.0000 6.3633 0.0000 18.8756
#
#
#
# Elastic Compliance Matrix: (Units=1/GPa)
#
#
# Indices 1 2 3 4 5 6 
#
# 1 0.013503 -0.002507 -0.007169 0.000000 0.004714 0.000000
# 2 -0.002507 0.012963 -0.007962 0.000000 -0.004870 0.000000
# 3 -0.007169 -0.007962 0.028351 0.000000 0.009987 0.000000
# 4 0.000000 0.000000 0.000000 0.037557 0.000000 -0.012661
# 5 0.004714 -0.004870 0.009987 0.000000 0.036523 0.000000
# 6 0.000000 0.000000 0.000000 -0.012661 0.000000 0.057247
#
#
# Mechanical properties :
#
#
# Convention : Reuss Voigt Hill
#
# Bulk Modulus (GPa) = 51.17250 63.71563 57.44406
# Shear Modulus (GPa) = 21.93616 27.00265 24.46940
#
# Velocity S-wave (km/s) = 3.53011 3.91662 3.72837
# Velocity P-wave (km/s) = 6.75915 7.52657 7.15316
#
# Compressibility (1/GPa) = 0.01954175
#
# Stress axis : x y z
#
# Youngs Moduli (GPa) = 74.05512 77.14044 35.27237
#
# Poissons Ratio (x) = 0.19337 0.25287
# Poissons Ratio (y) = 0.18564 0.28084
# Poissons Ratio (z) = 0.53091 0.61419
#
# Static dielectric constant tensor:
#      x y z
#    x 3.237820 0.000000 -0.393070 
#    y 0.000000 3.262190 0.000000 
#    z -0.393070 0.000000 3.328410 
# 
# 
# High freq. dielectric constant tensor:
#      x y z
#    x 1.663460 0.000000 -0.037280 
#    y 0.000000 1.668480 0.000000 
#    z -0.037280 0.000000 1.668280 
# 
# From -- ./inp_files/21983.got.cif
#   From: 2010.03.12/outbox.cif.g09.slc.cpg/sg5_11_cif.got.tgz:21983.got - 2010.03.31 09:47:26.
