data_PCOD8048766
_publ_section_title
;
Structure prediction by ZEFSAII (Michael W. Deem and Ramdas Pophale) SiO2 
 PCOD8048766
Probable space group: C 2
;
_chemical_formula_sum "Si O2"
_cell_formula_units_Z 28
_cell_length_a 13.169045
_cell_length_b 7.424270
_cell_length_c 13.269075
_cell_angle_alpha 90.000000
_cell_angle_beta 59.778082
_cell_angle_gamma 90.000000
_cell_volume 1120.995331
_symmetry_space_group_name_H-M "C 2"
_symmetry_group_IT_number 5
_symmetry_cell_setting 'monoclinic'
loop_
_space_group_symop_operation_xyz
x,y,z
-x,y,-z
1/2+x,1/2+y,z
1/2-x,1/2+y,-z
loop_
_atom_site_type_symbol
_atom_site_label
_atom_site_fract_x
_atom_site_fract_y
_atom_site_fract_z
Si Si1 0.577728 0.561480 0.262834
Si Si2 0.486891 0.115227 0.615996
Si Si3 0.860849 0.253336 0.439596
Si Si4 0.911182 0.928084 0.964238
Si Si5 0.270605 0.905683 0.782504
Si Si6 0.419260 0.214472 0.227432
Si Si7 0.776348 0.970046 0.638440
O O1 0.441177 0.606478 0.343436
O O2 0.604189 0.528878 0.133505
O O3 0.652799 0.728766 0.261410
O O4 0.628152 0.414092 0.321762
O O5 0.500000 0.210864 0.500000
O O6 0.533305 0.247586 0.681926
O O7 0.567862 0.934914 0.569271
O O8 0.351556 0.073075 0.711936
O O9 0.748045 0.303669 0.425100
O O10 0.814035 0.155528 0.562983
O O11 0.970334 0.731992 0.905569
O O12 0.782510 0.919263 0.077790
O O13 0.000000 0.025383 0.000000
O O14 0.164358 0.885299 0.755802
O O15 0.352373 0.023194 0.248552
#
# Coordination Sequence:
#
# PCOD8048766 Si02
#       7
#     4   4   4   4   4   4   4
#     4  10  21  41  63  90 129 168 220 271 337 391
#     4  10  19  37  65  94 125 168 211 268 326 399
#     4  10  21  39  65  96 135 173 212 274 336 396
#     4  10  22  41  61  87 125 169 217 279 328 388
#     4   9  20  39  65  85 122 169 211 265 330 388
#     4   9  20  37  58  90 123 160 215 258 324 385
#     4  10  21  40  66  95 131 177 215 269 340 397
#
# _framework density 24.977802000000001
#
# number of rings (size 3 to 8) (size 9 to 14) (size 15 to 20)
#    0.000    2.286    0.000    3.000    4.000    0.000 
#   10.286    0.000    0.000    0.000    0.000    0.000 
#    0.000    0.000    0.000    0.000    0.000    0.000 
#
# Total GULP energy -173464.808088 kJ/mol
# GULP energy per Si atom -12390.343435 kJ/mol
# Density = 2.492095 g / cm^3
# Si number density = 24.977802 Si / 1000 Ang^3
#
#
#
# Elastic Constant Matrix: (Units=GPa)
#
#
# Indices 1 2 3 4 5 6 
#
# 1 124.3219 22.4510 71.5153 0.0000 41.1413 0.0000
# 2 22.4510 38.6674 39.9890 0.0000 10.3333 0.0000
# 3 71.5153 39.9890 184.4386 0.0000 16.7392 0.0000
# 4 0.0000 0.0000 0.0000 37.6533 0.0000 7.6052
# 5 41.1413 10.3333 16.7392 0.0000 58.4924 0.0000
# 6 0.0000 0.0000 0.0000 7.6052 0.0000 12.1020
#
#
#
# Elastic Compliance Matrix: (Units=1/GPa)
#
#
# Indices 1 2 3 4 5 6 
#
# 1 0.013291 -0.001305 -0.004151 0.000000 -0.007930 0.000000
# 2 -0.001305 0.034365 -0.006650 0.000000 -0.003250 0.000000
# 3 -0.004151 -0.006650 0.008318 0.000000 0.001714 0.000000
# 4 0.000000 0.000000 0.000000 0.030419 0.000000 -0.019116
# 5 -0.007930 -0.003250 0.001714 0.000000 0.022758 0.000000
# 6 0.000000 0.000000 0.000000 -0.019116 0.000000 0.094644
#
#
# Mechanical properties :
#
#
# Convention : Reuss Voigt Hill
#
# Bulk Modulus (GPa) = 31.48407 68.37094 49.92750
# Shear Modulus (GPa) = 20.95606 35.88103 28.41855
#
# Velocity S-wave (km/s) = 2.89967 3.79425 3.37672
# Velocity P-wave (km/s) = 4.88293 6.82841 5.93592
#
# Compressibility (1/GPa) = 0.03176210
#
# Stress axis : x y z
#
# Youngs Moduli (GPa) = 75.23616 29.09938 120.22700
#
# Poissons Ratio (x) = 0.03798 0.49906
# Poissons Ratio (y) = 0.09820 0.79949
# Poissons Ratio (z) = 0.31231 0.19350
#
# Static dielectric constant tensor:
#      x y z
#    x 5.224270 0.000000 -0.126490 
#    y 0.000000 4.153240 0.000000 
#    z -0.126490 0.000000 4.673860 
# 
# 
# High freq. dielectric constant tensor:
#      x y z
#    x 2.021070 0.000000 0.003520 
#    y 0.000000 1.966750 0.000000 
#    z 0.003520 0.000000 1.999910 
# 
# From -- ./inp_files/41885.got.cif
#   From: 2010.03.12/outbox.cif.g09.slc.cpg/sg5_21_cif.got.tgz:41885.got - 2010.03.31 09:47:26.
