data_PCOD8048340
_publ_section_title
;
Structure prediction by ZEFSAII (Michael W. Deem and Ramdas Pophale) SiO2 
 PCOD8048340
Probable space group: C 2
;
_chemical_formula_sum "Si O2"
_cell_formula_units_Z 20
_cell_length_a 11.772225
_cell_length_b 15.219974
_cell_length_c 8.911318
_cell_angle_alpha 90.000000
_cell_angle_beta 141.745640
_cell_angle_gamma 90.000000
_cell_volume 988.582422
_symmetry_space_group_name_H-M "C 2"
_symmetry_group_IT_number 5
_symmetry_cell_setting 'monoclinic'
loop_
_space_group_symop_operation_xyz
x,y,z
-x,y,-z
1/2+x,1/2+y,z
1/2-x,1/2+y,-z
loop_
_atom_site_type_symbol
_atom_site_label
_atom_site_fract_x
_atom_site_fract_y
_atom_site_fract_z
Si Si1 0.570706 0.242570 0.239549
Si Si2 0.000000 0.993676 0.500000
Si Si3 0.500000 0.487221 0.000000
Si Si4 0.310518 0.379990 0.063740
Si Si5 0.343957 0.607796 0.596326
Si Si6 0.961092 0.284610 0.632229
O O1 0.412773 0.285528 0.177454
O O2 0.637259 0.148546 0.375685
O O3 0.745110 0.311161 0.421239
O O4 0.500000 0.225595 0.000000
O O5 0.855515 0.934995 0.257603
O O6 0.875753 0.050807 0.480720
O O7 0.626135 0.428258 0.023058
O O8 0.364047 0.549181 0.764553
O O9 0.092324 0.360171 0.835898
O O10 0.487996 0.690199 0.744702
O O11 0.000000 0.267375 0.500000
#
# Coordination Sequence:
#
# PCOD8048340 Si02
#       6
#     4   2   2   4   4   4
#     4  10  19  36  65  80 108 155 198 223 272 352
#     4  10  22  36  56  90 122 142 176 256 282 316
#     4  10  20  36  60  86 122 142 178 252 282 320
#     4  11  20  38  62  81 117 150 191 229 286 329
#     4   9  20  37  59  82 117 148 188 229 284 330
#     4  10  18  35  66  79 106 155 199 215 275 353
#
# _framework density 20.230986999999999
#
# number of rings (size 3 to 8) (size 9 to 14) (size 15 to 20)
#    1.200    0.800    4.000    0.000    0.000    1.600 
#    0.000    6.000    4.400    0.000    0.000    0.000 
#    0.000    0.000    0.000    0.000    0.000    0.000 
#
# Total GULP energy -123900.102788 kJ/mol
# GULP energy per Si atom -12390.010279 kJ/mol
# Density = 2.018494 g / cm^3
# Si number density = 20.230987 Si / 1000 Ang^3
#
#
#
# Elastic Constant Matrix: (Units=GPa)
#
#
# Indices 1 2 3 4 5 6 
#
# 1 33.6130 10.9973 30.3372 0.0000 -8.8667 0.0000
# 2 10.9973 90.5021 54.6748 0.0000 -12.4492 0.0000
# 3 30.3372 54.6748 124.6056 0.0000 2.6492 0.0000
# 4 0.0000 0.0000 0.0000 31.6895 0.0000 -4.7376
# 5 -8.8667 -12.4492 2.6492 0.0000 31.8792 0.0000
# 6 0.0000 0.0000 0.0000 -4.7376 0.0000 3.8593
#
#
#
# Elastic Compliance Matrix: (Units=1/GPa)
#
#
# Indices 1 2 3 4 5 6 
#
# 1 0.044028 0.004630 -0.013073 0.000000 0.015140 0.000000
# 2 0.004630 0.016964 -0.008755 0.000000 0.008640 0.000000
# 3 -0.013073 -0.008755 0.015226 0.000000 -0.008320 0.000000
# 4 0.000000 0.000000 0.000000 0.038649 0.000000 0.047446
# 5 0.015140 0.008640 -0.008320 0.000000 0.039645 0.000000
# 6 0.000000 0.000000 0.000000 0.047446 0.000000 0.317362
#
#
# Mechanical properties :
#
#
# Convention : Reuss Voigt Hill
#
# Bulk Modulus (GPa) = 23.90952 48.97103 36.44027
# Shear Modulus (GPa) = 9.61148 23.66634 16.63891
#
# Velocity S-wave (km/s) = 2.18201 3.42395 2.87094
# Velocity P-wave (km/s) = 4.26523 6.31584 5.38897
#
# Compressibility (1/GPa) = 0.04182435
#
# Stress axis : x y z
#
# Youngs Moduli (GPa) = 22.71270 58.94747 65.67531
#
# Poissons Ratio (x) = -0.27295 0.85857
# Poissons Ratio (y) = -0.10517 0.57496
# Poissons Ratio (z) = 0.29692 0.51606
#
# Static dielectric constant tensor:
#      x y z
#    x 3.396180 0.000000 0.047280 
#    y 0.000000 3.727890 0.000000 
#    z 0.047280 0.000000 3.730980 
# 
# 
# High freq. dielectric constant tensor:
#      x y z
#    x 1.761030 0.000000 -0.004510 
#    y 0.000000 1.788590 0.000000 
#    z -0.004510 0.000000 1.788680 
# 
# From -- ./inp_files/21107.got.cif
#   From: 2010.03.12/outbox.cif.g09.slc.cpg/sg5_11_cif.got.tgz:21107.got - 2010.03.31 09:47:26.
