data_PCOD8048126
_publ_section_title
;
Structure prediction by ZEFSAII (Michael W. Deem and Ramdas Pophale) SiO2 
 PCOD8048126
Probable space group: C 2
;
_chemical_formula_sum "Si O2"
_cell_formula_units_Z 32
_cell_length_a 20.377533
_cell_length_b 18.745336
_cell_length_c 10.833292
_cell_angle_alpha 90.000000
_cell_angle_beta 154.238294
_cell_angle_gamma 90.000000
_cell_volume 1798.557192
_symmetry_space_group_name_H-M "C 2"
_symmetry_group_IT_number 5
_symmetry_cell_setting 'monoclinic'
loop_
_space_group_symop_operation_xyz
x,y,z
-x,y,-z
1/2+x,1/2+y,z
1/2-x,1/2+y,-z
loop_
_atom_site_type_symbol
_atom_site_label
_atom_site_fract_x
_atom_site_fract_y
_atom_site_fract_z
Si Si1 0.765698 0.247320 0.159488
Si Si2 0.161708 0.832401 0.338360
Si Si3 0.870674 0.617856 0.682664
Si Si4 0.423149 0.238789 0.585907
Si Si5 0.613226 0.951922 0.306626
Si Si6 0.151218 0.249147 0.959814
Si Si7 0.469853 0.876696 0.584302
Si Si8 0.651933 0.706093 0.455250
O O1 0.833531 0.321134 0.329053
O O2 0.785724 0.188796 0.301527
O O3 0.591339 0.258228 0.830111
O O4 0.855000 0.218495 0.190631
O O5 0.141887 0.802376 0.441253
O O6 0.230934 0.911542 0.460520
O O7 0.281813 0.782755 0.471973
O O8 0.000000 0.832247 0.000000
O O9 0.914472 0.661337 0.635087
O O10 0.853831 0.535214 0.627458
O O11 0.707918 0.644491 0.458401
O O12 0.000000 0.636341 0.000000
O O13 0.319508 0.236594 0.290467
O O14 0.560809 0.932188 0.357060
O O15 0.500000 0.935263 0.000000
O O16 0.114663 0.333016 0.880743
O O17 0.030744 0.210769 0.847516
O O18 0.500000 0.914037 0.500000
#
# Coordination Sequence:
#
# PCOD8048126 Si02
#       8
#     4   4   4   4   4   4   4   4
#     4  10  17  33  57  77 108 138 178 213 271 333
#     4  11  19  32  55  77 103 141 172 223 274 321
#     4  10  21  35  54  74 109 146 179 222 276 322
#     4  11  19  33  52  81 111 133 176 232 274 308
#     4  11  21  35  55  82 106 145 190 226 264 330
#     4  10  20  29  54  87 105 133 178 228 265 315
#     4   9  18  35  55  82 111 142 177 222 277 328
#     4  10  17  35  54  76 103 140 176 219 271 319
#
# _framework density 17.792038999999999
#
# number of rings (size 3 to 8) (size 9 to 14) (size 15 to 20)
#    0.000    1.750    5.000    3.000    0.000    1.500 
#    2.250    1.250    0.000    0.000    0.000    1.750 
#    0.000    0.000    0.000    0.000    0.000    0.000 
#
# Total GULP energy -198242.445197 kJ/mol
# GULP energy per Si atom -12390.152825 kJ/mol
# Density = 1.775154 g / cm^3
# Si number density = 17.792039 Si / 1000 Ang^3
#
#
#
# Elastic Constant Matrix: (Units=GPa)
#
#
# Indices 1 2 3 4 5 6 
#
# 1 85.6448 30.4079 14.8839 0.0000 -5.4114 0.0000
# 2 30.4079 87.6104 25.9852 0.0000 -5.2617 0.0000
# 3 14.8839 25.9852 94.7100 0.0000 -2.5382 0.0000
# 4 0.0000 0.0000 0.0000 14.7615 0.0000 -4.6148
# 5 -5.4114 -5.2617 -2.5382 0.0000 28.6722 0.0000
# 6 0.0000 0.0000 0.0000 -4.6148 0.0000 15.2079
#
#
#
# Elastic Compliance Matrix: (Units=1/GPa)
#
#
# Indices 1 2 3 4 5 6 
#
# 1 0.013466 -0.004310 -0.000889 0.000000 0.001672 0.000000
# 2 -0.004310 0.013918 -0.003102 0.000000 0.001466 0.000000
# 3 -0.000889 -0.003102 0.011557 0.000000 0.000286 0.000000
# 4 0.000000 0.000000 0.000000 0.074844 0.000000 0.022711
# 5 0.001672 0.001466 0.000286 0.000000 0.035487 0.000000
# 6 0.000000 0.000000 0.000000 0.022711 0.000000 0.072647
#
#
# Mechanical properties :
#
#
# Convention : Reuss Voigt Hill
#
# Bulk Modulus (GPa) = 44.76317 45.61324 45.18821
# Shear Modulus (GPa) = 20.32786 24.84089 22.58438
#
# Velocity S-wave (km/s) = 3.38379 3.74060 3.56666
# Velocity P-wave (km/s) = 6.36243 6.65948 6.51265
#
# Compressibility (1/GPa) = 0.02233979
#
# Stress axis : x y z
#
# Youngs Moduli (GPa) = 74.25856 71.84859 86.52752
#
# Poissons Ratio (x) = 0.30966 0.07692
# Poissons Ratio (y) = 0.32004 0.26841
# Poissons Ratio (z) = 0.06602 0.22288
#
# Static dielectric constant tensor:
#      x y z
#    x 3.673430 0.000000 0.022240 
#    y 0.000000 2.937400 0.000000 
#    z 0.022240 0.000000 3.337170 
# 
# 
# High freq. dielectric constant tensor:
#      x y z
#    x 1.708160 0.000000 -0.002330 
#    y 0.000000 1.639440 0.000000 
#    z -0.002330 0.000000 1.693030 
# 
# From -- ./inp_files/47574.got.cif
#   From: 2010.03.12/outbox.cif.g09.slc.cpg/sg5_24_cif.got.tgz:47574.got - 2010.03.31 09:47:26.
