data_PCOD8048778
_publ_section_title
;
Structure prediction by ZEFSAII (Michael W. Deem and Ramdas Pophale) SiO2 
 PCOD8048778
Probable space group: C 2
;
_chemical_formula_sum "Si O2"
_cell_formula_units_Z 28
_cell_length_a 12.997636
_cell_length_b 9.384090
_cell_length_c 16.964732
_cell_angle_alpha 90.000000
_cell_angle_beta 141.820379
_cell_angle_gamma 90.000000
_cell_volume 1279.035346
_symmetry_space_group_name_H-M "C 2"
_symmetry_group_IT_number 5
_symmetry_cell_setting 'monoclinic'
loop_
_space_group_symop_operation_xyz
x,y,z
-x,y,-z
1/2+x,1/2+y,z
1/2-x,1/2+y,-z
loop_
_atom_site_type_symbol
_atom_site_label
_atom_site_fract_x
_atom_site_fract_y
_atom_site_fract_z
Si Si1 0.578240 0.333540 0.125225
Si Si2 0.134144 0.058474 0.911579
Si Si3 0.387791 0.150131 0.600189
Si Si4 0.486023 0.063870 0.825080
Si Si5 0.056323 0.287972 0.121924
Si Si6 0.311992 0.050322 0.306922
Si Si7 0.363946 0.478815 0.636251
O O1 0.442194 0.446408 0.073441
O O2 0.605189 0.207958 0.203431
O O3 0.754279 0.415284 0.217787
O O4 0.500000 0.265350 0.000000
O O5 0.094057 0.217123 0.918746
O O6 0.049890 0.028097 0.774778
O O7 0.331404 0.046596 0.026787
O O8 0.480381 0.069338 0.727413
O O9 0.497349 0.099460 0.589767
O O10 0.370961 0.318805 0.605140
O O11 0.204370 0.084230 0.473420
O O12 0.384381 0.930369 0.797372
O O13 0.214714 0.187590 0.217423
O O14 0.000000 0.323508 0.000000
O O15 0.259707 0.998189 0.363101
#
# Coordination Sequence:
#
# PCOD8048778 Si02
#       7
#     4   4   4   4   4   4   4
#     4  10  19  38  57  95 136 167 223 279 333 410
#     4  10  21  40  63  93 130 172 226 280 328 418
#     4  12  24  46  73  94 135 188 218 291 341 401
#     4  12  22  36  66  99 135 170 226 284 341 396
#     4  10  21  35  60  98 135 170 224 273 337 414
#     4  10  22  44  68  91 133 180 223 278 342 409
#     4  10  25  45  68 102 133 173 246 269 338 424
#
# _framework density 21.891496
#
# number of rings (size 3 to 8) (size 9 to 14) (size 15 to 20)
#    0.000    1.714    2.857    5.143    6.000    0.000 
#    0.000    0.000    0.000    0.000    0.000    0.000 
#    0.000    0.000    0.000    0.000    0.000    0.000 
#
# Total GULP energy -173477.798370 kJ/mol
# GULP energy per Si atom -12391.271312 kJ/mol
# Density = 2.184167 g / cm^3
# Si number density = 21.891496 Si / 1000 Ang^3
#
#
#
# Elastic Constant Matrix: (Units=GPa)
#
#
# Indices 1 2 3 4 5 6 
#
# 1 45.9843 32.7652 15.9756 0.0000 -2.1305 0.0000
# 2 32.7652 119.1002 36.6207 0.0000 -9.4117 0.0000
# 3 15.9756 36.6207 122.3622 0.0000 2.9024 0.0000
# 4 0.0000 0.0000 0.0000 29.4560 0.0000 -15.8167
# 5 -2.1305 -9.4117 2.9024 0.0000 18.8156 0.0000
# 6 0.0000 0.0000 0.0000 -15.8167 0.0000 16.6836
#
#
#
# Elastic Compliance Matrix: (Units=1/GPa)
#
#
# Indices 1 2 3 4 5 6 
#
# 1 0.027281 -0.007082 -0.001437 0.000000 -0.000232 0.000000
# 2 -0.007082 0.011594 -0.002674 0.000000 0.005410 0.000000
# 3 -0.001437 -0.002674 0.009230 0.000000 -0.002924 0.000000
# 4 0.000000 0.000000 0.000000 0.069151 0.000000 0.065557
# 5 -0.000232 0.005410 -0.002924 0.000000 0.056278 0.000000
# 6 0.000000 0.000000 0.000000 0.065557 0.000000 0.122090
#
#
# Mechanical properties :
#
#
# Convention : Reuss Voigt Hill
#
# Bulk Modulus (GPa) = 38.87992 50.90774 44.89383
# Shear Modulus (GPa) = 15.31015 26.46339 20.88677
#
# Velocity S-wave (km/s) = 2.64742 3.48061 3.09221
# Velocity P-wave (km/s) = 5.20999 6.28156 5.77070
#
# Compressibility (1/GPa) = 0.02572022
#
# Stress axis : x y z
#
# Youngs Moduli (GPa) = 36.65573 86.25078 108.34725
#
# Poissons Ratio (x) = 0.61080 0.15568
# Poissons Ratio (y) = 0.25958 0.28968
# Poissons Ratio (z) = 0.05267 0.23060
#
# Static dielectric constant tensor:
#      x y z
#    x 3.592480 0.000000 -0.033420 
#    y 0.000000 4.158140 0.000000 
#    z -0.033420 0.000000 4.171260 
# 
# 
# High freq. dielectric constant tensor:
#      x y z
#    x 1.826930 0.000000 -0.012590 
#    y 0.000000 1.870830 0.000000 
#    z -0.012590 0.000000 1.866540 
# 
# From -- ./inp_files/61477.got.cif
#   From: 2010.03.12/outbox.cif.g09.slc.cpg/sg5_31_cif.got.tgz:61477.got - 2010.03.31 09:47:26.
