data_PCOD8048390
_publ_section_title
;
Structure prediction by ZEFSAII (Michael W. Deem and Ramdas Pophale) SiO2 
 PCOD8048390
Probable space group: C 2
;
_chemical_formula_sum "Si O2"
_cell_formula_units_Z 24
_cell_length_a 9.808030
_cell_length_b 15.736597
_cell_length_c 8.565521
_cell_angle_alpha 90.000000
_cell_angle_beta 88.058234
_cell_angle_gamma 90.000000
_cell_volume 1321.286329
_symmetry_space_group_name_H-M "C 2"
_symmetry_group_IT_number 5
_symmetry_cell_setting 'monoclinic'
loop_
_space_group_symop_operation_xyz
x,y,z
-x,y,-z
1/2+x,1/2+y,z
1/2-x,1/2+y,-z
loop_
_atom_site_type_symbol
_atom_site_label
_atom_site_fract_x
_atom_site_fract_y
_atom_site_fract_z
Si Si1 0.017365 0.466870 0.818732
Si Si2 0.849748 0.872941 0.530311
Si Si3 0.251273 0.513542 0.334157
Si Si4 0.777053 0.038819 0.674124
Si Si5 0.979320 0.126996 0.182649
Si Si6 0.911348 0.293380 0.354159
O O1 0.885228 0.516216 0.761948
O O2 0.145810 0.529732 0.791144
O O3 0.038491 0.382559 0.716526
O O4 0.000000 0.443208 0.000000
O O5 0.747655 0.799191 0.590257
O O6 0.000000 0.833348 0.500000
O O7 0.792448 0.915542 0.371931
O O8 0.857377 0.948223 0.660642
O O9 0.230290 0.564259 0.499434
O O10 0.370752 0.555973 0.231665
O O11 0.877003 0.110467 0.736695
O O12 0.925071 0.220250 0.225901
O O13 0.000000 0.121556 0.000000
O O14 0.000000 0.268660 0.500000
#
# Coordination Sequence:
#
# PCOD8048390 Si02
#       6
#     4   4   4   4   4   4
#     4  11  20  34  57  89 118 149 192 245 289 330
#     4   9  17  35  62  84 104 144 205 238 266 335
#     4  10  18  37  59  84 108 155 198 235 275 354
#     4   9  18  35  57  82 108 152 194 236 266 355
#     4  12  23  36  56  89 121 149 187 247 301 332
#     4  11  21  37  58  81 116 158 195 234 281 358
#
# _framework density 18.164117000000001
#
# number of rings (size 3 to 8) (size 9 to 14) (size 15 to 20)
#    1.000    0.667    3.333    3.500    0.000    0.000 
#    0.000    3.333    0.000    0.000    0.000    0.000 
#    0.000    0.000    0.000    0.000    0.000    0.000 
#
# Total GULP energy -148760.856555 kJ/mol
# GULP energy per Si atom -12396.738046 kJ/mol
# Density = 1.812278 g / cm^3
# Si number density = 18.164117 Si / 1000 Ang^3
#
#
#
# Elastic Constant Matrix: (Units=GPa)
#
#
# Indices 1 2 3 4 5 6 
#
# 1 130.3345 30.1884 39.8401 0.0000 -6.5304 0.0000
# 2 30.1884 55.1280 18.9583 0.0000 -4.3994 0.0000
# 3 39.8401 18.9583 107.6256 0.0000 -9.2531 0.0000
# 4 0.0000 0.0000 0.0000 27.9323 0.0000 -7.2661
# 5 -6.5304 -4.3994 -9.2531 0.0000 30.8582 0.0000
# 6 0.0000 0.0000 0.0000 -7.2661 0.0000 20.8183
#
#
#
# Elastic Compliance Matrix: (Units=1/GPa)
#
#
# Indices 1 2 3 4 5 6 
#
# 1 0.009514 -0.004225 -0.002727 0.000000 0.000594 0.000000
# 2 -0.004225 0.021281 -0.002054 0.000000 0.001524 0.000000
# 3 -0.002727 -0.002054 0.010868 0.000000 0.002389 0.000000
# 4 0.000000 0.000000 0.000000 0.039376 0.000000 0.013743
# 5 0.000594 0.001524 0.002389 0.000000 0.033466 0.000000
# 6 0.000000 0.000000 0.000000 0.013743 0.000000 0.052831
#
#
# Mechanical properties :
#
#
# Convention : Reuss Voigt Hill
#
# Bulk Modulus (GPa) = 42.27851 52.34019 47.30935
# Shear Modulus (GPa) = 25.87570 29.52852 27.70211
#
# Velocity S-wave (km/s) = 3.77842 4.03631 3.90949
# Velocity P-wave (km/s) = 6.50858 7.11338 6.81769
#
# Compressibility (1/GPa) = 0.02365268
#
# Stress axis : x y z
#
# Youngs Moduli (GPa) = 105.10367 46.98996 92.01350
#
# Poissons Ratio (x) = 0.19854 0.25089
# Poissons Ratio (y) = 0.44407 0.18896
# Poissons Ratio (z) = 0.28659 0.09650
#
# Static dielectric constant tensor:
#      x y z
#    x 3.388340 0.000000 -0.125140 
#    y 0.000000 2.991240 0.000000 
#    z -0.125140 0.000000 3.257280 
# 
# 
# High freq. dielectric constant tensor:
#      x y z
#    x 1.713540 0.000000 -0.009410 
#    y 0.000000 1.671800 0.000000 
#    z -0.009410 0.000000 1.696570 
# 
# From -- ./inp_files/15019.got.cif
#   From: 2010.03.12/outbox.cif.g09.slc.cpg/sg5_8_cif.got.tgz:15019.got - 2010.03.31 09:47:26.
