data_PCOD8048201
_publ_section_title
;
Structure prediction by ZEFSAII (Michael W. Deem and Ramdas Pophale) SiO2 
 PCOD8048201
Probable space group: C 2
;
_chemical_formula_sum "Si O2"
_cell_formula_units_Z 24
_cell_length_a 9.757002
_cell_length_b 16.470556
_cell_length_c 8.823577
_cell_angle_alpha 90.000000
_cell_angle_beta 86.967064
_cell_angle_gamma 90.000000
_cell_volume 1415.991299
_symmetry_space_group_name_H-M "C 2"
_symmetry_group_IT_number 5
_symmetry_cell_setting 'monoclinic'
loop_
_space_group_symop_operation_xyz
x,y,z
-x,y,-z
1/2+x,1/2+y,z
1/2-x,1/2+y,-z
loop_
_atom_site_type_symbol
_atom_site_label
_atom_site_fract_x
_atom_site_fract_y
_atom_site_fract_z
Si Si1 0.713456 0.230540 0.194868
Si Si2 0.271382 0.714112 0.862795
Si Si3 0.034968 0.165234 0.672014
Si Si4 0.853265 0.577616 0.962331
Si Si5 0.035724 0.826981 0.821624
Si Si6 0.904171 0.005971 0.148101
O O1 0.828148 0.219777 0.317395
O O2 0.628482 0.146766 0.168953
O O3 0.602883 0.297760 0.256990
O O4 0.790768 0.252818 0.030851
O O5 0.414002 0.711141 0.766744
O O6 0.164868 0.769780 0.773845
O O7 0.213660 0.621855 0.885871
O O8 0.065068 0.075858 0.733694
O O9 0.000000 0.156648 0.500000
O O10 0.752961 0.507864 0.903683
O O11 0.000000 0.539184 0.000000
O O12 0.068855 0.919404 0.774794
O O13 0.000000 0.817028 0.000000
O O14 0.000000 0.021553 0.000000
#
# Coordination Sequence:
#
# PCOD8048201 Si02
#       6
#     4   4   4   4   4   4
#     4   8  15  30  51  72  93 124 162 210 238 289
#     4   9  15  31  51  73  93 128 162 209 239 286
#     4  11  20  31  48  72  98 137 174 197 234 289
#     4   9  14  27  51  74  97 125 157 201 245 284
#     4   9  16  30  54  80  97 118 163 206 255 293
#     4  10  18  31  52  76 101 129 157 205 252 292
#
# _framework density 16.949258
#
# number of rings (size 3 to 8) (size 9 to 14) (size 15 to 20)
#    1.000    1.667    3.333    0.500    0.000    0.000 
#    0.000    7.500    0.000    0.000    0.000    0.000 
#    0.000    0.000    0.000    0.000    0.000    0.000 
#
# Total GULP energy -148661.317329 kJ/mol
# GULP energy per Si atom -12388.443111 kJ/mol
# Density = 1.691068 g / cm^3
# Si number density = 16.949258 Si / 1000 Ang^3
#
#
#
# Elastic Constant Matrix: (Units=GPa)
#
#
# Indices 1 2 3 4 5 6 
#
# 1 149.4180 69.1433 43.3033 0.0000 26.3548 0.0000
# 2 69.1433 98.0980 23.2356 0.0000 9.3033 0.0000
# 3 43.3033 23.2356 54.4249 0.0000 20.6975 0.0000
# 4 0.0000 0.0000 0.0000 7.2653 0.0000 -1.2987
# 5 26.3548 9.3033 20.6975 0.0000 15.4397 0.0000
# 6 0.0000 0.0000 0.0000 -1.2987 0.0000 26.0418
#
#
#
# Elastic Compliance Matrix: (Units=1/GPa)
#
#
# Indices 1 2 3 4 5 6 
#
# 1 0.013580 -0.007710 -0.000948 0.000000 -0.017264 0.000000
# 2 -0.007710 0.015722 -0.004039 0.000000 0.009102 0.000000
# 3 -0.000948 -0.004039 0.039396 0.000000 -0.048759 0.000000
# 4 0.000000 0.000000 0.000000 0.138878 0.000000 0.006926
# 5 -0.017264 0.009102 -0.048759 0.000000 0.154118 0.000000
# 6 0.000000 0.000000 0.000000 0.006926 0.000000 0.038745
#
#
# Mechanical properties :
#
#
# Convention : Reuss Voigt Hill
#
# Bulk Modulus (GPa) = 23.09272 63.70060 43.39666
# Shear Modulus (GPa) = 11.35675 20.83328 16.09502
#
# Velocity S-wave (km/s) = 2.59133 3.50974 3.08490
# Velocity P-wave (km/s) = 4.75474 7.35452 6.19260
#
# Compressibility (1/GPa) = 0.04330368
#
# Stress axis : x y z
#
# Youngs Moduli (GPa) = 73.63553 63.60617 25.38356
#
# Poissons Ratio (x) = 0.49041 0.02406
# Poissons Ratio (y) = 0.56774 0.10252
# Poissons Ratio (z) = 0.06981 0.25690
#
# Static dielectric constant tensor:
#      x y z
#    x 3.239520 0.000000 0.116760 
#    y 0.000000 3.017130 0.000000 
#    z 0.116760 0.000000 2.665810 
# 
# 
# High freq. dielectric constant tensor:
#      x y z
#    x 1.665820 0.000000 0.011420 
#    y 0.000000 1.630250 0.000000 
#    z 0.011420 0.000000 1.596610 
# 
# From -- ./inp_files/15756.got.cif
#   From: 2010.03.12/outbox.cif.g09.slc.cpg/sg5_8_cif.got.tgz:15756.got - 2010.03.31 09:47:26.
