data_PCOD8048751
_publ_section_title
;
Structure prediction by ZEFSAII (Michael W. Deem and Ramdas Pophale) SiO2 
 PCOD8048751
Probable space group: C 2
;
_chemical_formula_sum "Si O2"
_cell_formula_units_Z 30
_cell_length_a 10.540330
_cell_length_b 8.583162
_cell_length_c 19.053018
_cell_angle_alpha 90.000000
_cell_angle_beta 60.079153
_cell_angle_gamma 90.000000
_cell_volume 1493.969624
_symmetry_space_group_name_H-M "C 2"
_symmetry_group_IT_number 5
_symmetry_cell_setting 'monoclinic'
loop_
_space_group_symop_operation_xyz
x,y,z
-x,y,-z
1/2+x,1/2+y,z
1/2-x,1/2+y,-z
loop_
_atom_site_type_symbol
_atom_site_label
_atom_site_fract_x
_atom_site_fract_y
_atom_site_fract_z
Si Si1 0.693206 0.038840 0.856319
Si Si2 0.830878 0.948007 0.677914
Si Si3 0.500000 0.815292 0.000000
Si Si4 0.154562 0.090785 0.057315
Si Si5 0.560303 0.240052 0.060965
Si Si6 0.902506 0.272045 0.594231
Si Si7 0.161796 0.943224 0.578852
Si Si8 0.824032 0.308742 0.406423
O O1 0.816405 0.132334 0.868103
O O2 0.571174 0.158046 0.858358
O O3 0.765846 0.942948 0.773809
O O4 0.629432 0.922826 0.934224
O O5 0.723392 0.842859 0.659950
O O6 0.996275 0.881871 0.635878
O O7 0.830156 0.121878 0.648638
O O8 0.462501 0.707994 0.943308
O O9 0.098082 0.913797 0.073197
O O10 0.302109 0.122331 0.971070
O O11 0.500000 0.248653 0.000000
O O12 0.767807 0.380198 0.610068
O O13 0.000000 0.223451 0.500000
O O14 0.009265 0.363428 0.620198
O O15 0.207213 0.891445 0.488706
O O16 0.173026 0.126918 0.578996
#
# Coordination Sequence:
#
# PCOD8048751 Si02
#       8
#     4   4   2   4   4   4   4   4
#     4  11  24  40  58  87 123 155 199 255 303 367
#     4  11  23  38  59  87 128 162 194 249 311 355
#     4  12  22  38  64  86 116 156 208 252 304 364
#     4  11  20  38  65  85 113 148 203 253 301 364
#     4  10  19  37  62  86 108 148 195 248 303 355
#     4   9  20  39  60  86 120 161 205 250 292 353
#     4  10  21  38  63  92 121 160 208 249 293 357
#     4  10  20  37  63  88 121 159 206 244 299 354
#
# _framework density 20.080729000000002
#
# number of rings (size 3 to 8) (size 9 to 14) (size 15 to 20)
#    0.000    1.600    4.000    2.800    0.000    7.467 
#    0.000    0.000    2.933    0.000    0.000    0.000 
#    0.000    0.000    0.000    0.000    0.000    0.000 
#
# Total GULP energy -185891.758642 kJ/mol
# GULP energy per Si atom -12392.783909 kJ/mol
# Density = 2.003502 g / cm^3
# Si number density = 20.080729 Si / 1000 Ang^3
#
#
#
# Elastic Constant Matrix: (Units=GPa)
#
#
# Indices 1 2 3 4 5 6 
#
# 1 126.3399 33.6160 22.4492 0.0000 11.7165 0.0000
# 2 33.6160 71.5472 17.6095 0.0000 4.4824 0.0000
# 3 22.4492 17.6095 72.7650 0.0000 9.5461 0.0000
# 4 0.0000 0.0000 0.0000 16.6217 0.0000 4.9562
# 5 11.7165 4.4824 9.5461 0.0000 19.0776 0.0000
# 6 0.0000 0.0000 0.0000 4.9562 0.0000 31.3612
#
#
#
# Elastic Compliance Matrix: (Units=1/GPa)
#
#
# Indices 1 2 3 4 5 6 
#
# 1 0.009604 -0.003885 -0.001465 0.000000 -0.004252 0.000000
# 2 -0.003885 0.016493 -0.002780 0.000000 -0.000098 0.000000
# 3 -0.001465 -0.002780 0.015694 0.000000 -0.006300 0.000000
# 4 0.000000 0.000000 0.000000 0.063137 0.000000 -0.009978
# 5 -0.004252 -0.000098 -0.006300 0.000000 0.058204 0.000000
# 6 0.000000 0.000000 0.000000 -0.009978 0.000000 0.033463
#
#
# Mechanical properties :
#
#
# Convention : Reuss Voigt Hill
#
# Bulk Modulus (GPa) = 39.16872 46.44463 42.80667
# Shear Modulus (GPa) = 22.58711 26.54394 24.56552
#
# Velocity S-wave (km/s) = 3.35746 3.63969 3.50142
# Velocity P-wave (km/s) = 5.88031 6.39079 6.14086
#
# Compressibility (1/GPa) = 0.02553058
#
# Stress axis : x y z
#
# Youngs Moduli (GPa) = 104.12827 60.63343 63.71854
#
# Poissons Ratio (x) = 0.23558 0.09333
# Poissons Ratio (y) = 0.40456 0.17712
# Poissons Ratio (z) = 0.15252 0.16855
#
# Static dielectric constant tensor:
#      x y z
#    x 4.357220 0.000000 -0.009510 
#    y 0.000000 3.594100 0.000000 
#    z -0.009510 0.000000 3.364350 
# 
# 
# High freq. dielectric constant tensor:
#      x y z
#    x 1.813050 0.000000 0.006300 
#    y 0.000000 1.775840 0.000000 
#    z 0.006300 0.000000 1.746700 
# 
# From -- ./inp_files/60299.got.cif
#   From: 2010.03.12/outbox.cif.g09.slc.cpg/sg5_31_cif.got.tgz:60299.got - 2010.03.31 09:47:26.
