data_PCOD8048256
_publ_section_title
;
Structure prediction by ZEFSAII (Michael W. Deem and Ramdas Pophale) SiO2 
 PCOD8048256
Probable space group: C 2
;
_chemical_formula_sum "Si O2"
_cell_formula_units_Z 26
_cell_length_a 7.431811
_cell_length_b 17.451551
_cell_length_c 13.983138
_cell_angle_alpha 90.000000
_cell_angle_beta 43.392537
_cell_angle_gamma 90.000000
_cell_volume 1245.906805
_symmetry_space_group_name_H-M "C 2"
_symmetry_group_IT_number 5
_symmetry_cell_setting 'monoclinic'
loop_
_space_group_symop_operation_xyz
x,y,z
-x,y,-z
1/2+x,1/2+y,z
1/2-x,1/2+y,-z
loop_
_atom_site_type_symbol
_atom_site_label
_atom_site_fract_x
_atom_site_fract_y
_atom_site_fract_z
Si Si1 0.000000 0.250000 0.500000
Si Si2 0.044684 0.494735 0.750113
Si Si3 0.257587 0.871621 0.462523
Si Si4 0.440974 0.496921 0.333942
Si Si5 0.000000 0.620611 0.500000
Si Si6 0.751904 0.033332 0.962285
Si Si7 0.014862 0.664270 0.292054
Si Si8 0.500000 0.654733 0.000000
O O1 0.096104 0.296517 0.556251
O O2 0.237544 0.198742 0.366348
O O3 0.044229 0.423824 0.676951
O O4 0.332598 0.511732 0.677190
O O5 0.955122 0.572723 0.733797
O O6 0.844252 0.476708 0.915056
O O7 0.192052 0.916954 0.585953
O O8 0.000000 0.850624 0.500000
O O9 0.251502 0.568327 0.422244
O O10 0.545686 0.489035 0.184895
O O11 0.951166 0.677487 0.607848
O O12 0.892633 0.106543 0.951938
O O13 0.500000 0.062561 0.000000
O O14 0.255634 0.703566 0.138848
#
# Coordination Sequence:
#
# PCOD8048256 Si02
#       8
#     2   4   4   4   2   4   4   2
#     4  12  27  42  62  93 132 168 214 260 321 366
#     4   9  19  37  62  92 123 158 205 259 310 370
#     4  10  22  39  62  91 128 166 205 260 312 375
#     4  10  18  33  58  94 122 154 202 255 311 360
#     4  12  19  30  62  95 120 158 204 260 305 364
#     4   9  18  32  57  96 127 151 195 266 312 362
#     4  11  23  38  64  94 127 165 210 263 310 377
#     4  10  20  38  58  90 128 166 204 252 318 372
#
# _framework density 20.868333
#
# number of rings (size 3 to 8) (size 9 to 14) (size 15 to 20)
#    0.000    1.846    3.077    1.385    2.154    0.000 
#    0.000    0.000    8.462    1.846    0.000    0.000 
#    0.000    0.000    0.000    0.000    0.000    0.000 
#
# Total GULP energy -161129.522582 kJ/mol
# GULP energy per Si atom -12394.578660 kJ/mol
# Density = 2.082084 g / cm^3
# Si number density = 20.868333 Si / 1000 Ang^3
#
#
#
# Elastic Constant Matrix: (Units=GPa)
#
#
# Indices 1 2 3 4 5 6 
#
# 1 78.3639 25.8134 54.5009 0.0000 2.7569 -0.0001
# 2 25.8134 44.7418 37.3069 0.0000 1.2950 0.0000
# 3 54.5009 37.3069 191.3652 0.0000 0.6943 0.0004
# 4 0.0000 0.0000 0.0000 8.3527 0.0000 -2.0232
# 5 2.7569 1.2950 0.6943 0.0000 39.6777 -0.0001
# 6 -0.0001 0.0000 0.0004 -2.0232 -0.0001 26.8863
#
#
#
# Elastic Compliance Matrix: (Units=1/GPa)
#
#
# Indices 1 2 3 4 5 6 
#
# 1 0.017676 -0.007136 -0.003639 0.000000 -0.000932 0.000000
# 2 -0.007136 0.029594 -0.003736 0.000000 -0.000405 0.000000
# 3 -0.003639 -0.003736 0.006989 0.000000 0.000252 0.000000
# 4 0.000000 0.000000 0.000000 0.121945 0.000000 0.009177
# 5 -0.000932 -0.000405 0.000252 0.000000 0.025277 0.000000
# 6 0.000000 0.000000 0.000000 0.009177 0.000000 0.037884
#
#
# Mechanical properties :
#
#
# Convention : Reuss Voigt Hill
#
# Bulk Modulus (GPa) = 39.62459 61.07927 50.35193
# Shear Modulus (GPa) = 18.06361 28.10663 23.08512
#
# Velocity S-wave (km/s) = 2.94530 3.67393 3.32961
# Velocity P-wave (km/s) = 5.53132 6.87964 6.24199
#
# Compressibility (1/GPa) = 0.02523685
#
# Stress axis : x y z
#
# Youngs Moduli (GPa) = 56.57514 33.79044 143.07258
#
# Poissons Ratio (x) = 0.24114 0.52070
# Poissons Ratio (y) = 0.40373 0.53446
# Poissons Ratio (z) = 0.20590 0.12623
#
# Static dielectric constant tensor:
#      x y z
#    x 3.941500 0.000000 -0.082780 
#    y 0.000000 3.290140 0.000000 
#    z -0.082780 0.000000 4.441990 
# 
# 
# High freq. dielectric constant tensor:
#      x y z
#    x 1.837400 0.000000 -0.001550 
#    y 0.000000 1.754680 0.000000 
#    z -0.001550 0.000000 1.835870 
# 
# From -- ./inp_files/51473.got.cif
#   From: 2010.03.12/outbox.cif.g09.slc.cpg/sg5_26_cif.got.tgz:51473.got - 2010.03.31 09:47:26.
