data_PCOD8048029
_publ_section_title
;
Structure prediction by ZEFSAII (Michael W. Deem and Ramdas Pophale) SiO2 
 PCOD8048029
Probable space group: P 21
;
_chemical_formula_sum "Si O2"
_cell_formula_units_Z 16
_cell_length_a 15.000000
_cell_length_b 9.000000
_cell_length_c 15.000000
_cell_angle_alpha 90.000000
_cell_angle_beta 160.000000
_cell_angle_gamma 90.000000
_cell_volume 692.590790
_symmetry_space_group_name_H-M "P 21"
_symmetry_group_IT_number 4
_symmetry_cell_setting 'monoclinic'
loop_
_space_group_symop_operation_xyz
x,y,z
-x,1/2+y,-z
loop_
_atom_site_type_symbol
_atom_site_label
_atom_site_fract_x
_atom_site_fract_y
_atom_site_fract_z
Si Si1 0.519318 0.547000 0.176841
Si Si2 0.777413 0.160422 0.952385
Si Si3 0.637735 0.610407 0.570690
Si Si4 0.193383 0.934075 0.890085
Si Si5 0.268072 0.360264 0.667254
Si Si6 0.487627 0.289130 0.377720
Si Si7 0.943077 0.727513 0.161259
Si Si8 0.064198 0.398999 0.666932
O O1 0.667326 0.701895 0.312530
O O2 0.755135 0.432581 0.380425
O O3 0.384434 0.527186 0.148448
O O4 0.275186 0.533603 0.878458
O O5 0.810484 0.281637 0.059738
O O6 0.065839 0.117251 0.188771
O O7 0.577122 0.208527 0.686100
O O8 0.540378 0.441504 0.479084
O O9 0.620289 0.666843 0.654679
O O10 0.951687 0.944026 0.595598
O O11 0.154189 0.057916 0.928891
O O12 0.462633 0.955124 0.086512
O O13 0.147795 0.330169 0.651551
O O14 0.751983 0.236788 0.577311
O O15 0.242015 0.313903 0.081537
O O16 0.883907 0.783759 0.205389
#
# Coordination Sequence:
#
# PCOD8048029 Si02
#       8
#     2   2   2   2   2   2   2   2
#     4  11  23  44  66  99 130 177 233 281 338 419
#     4  11  23  44  75  96 135 179 233 279 354 407
#     4  12  26  45  76 104 138 181 234 291 347 421
#     4  11  25  45  70 101 142 179 231 285 346 419
#     4  11  25  42  66 104 132 183 229 285 333 423
#     4  12  28  46  72 105 144 177 241 284 357 416
#     4  12  27  46  69 102 144 183 227 289 357 409
#     4  12  25  40  72  93 141 181 226 286 346 404
#
# _framework density 23.101664
#
# number of rings (size 3 to 8) (size 9 to 14) (size 15 to 20)
#    0.000    0.500    0.000    9.750    7.000    0.000 
#    0.000    0.000    0.000    0.000    0.000    0.000 
#    0.000    0.000    0.000    0.000    0.000    0.000 
#
# Total GULP energy -198307.960759 kJ/mol
# GULP energy per Si atom -12394.247547 kJ/mol
# Density = 2.304908 g / cm^3
# Si number density = 23.101664 Si / 1000 Ang^3
#
#
#
# Elastic Constant Matrix: (Units=GPa)
#
#
# Indices 1 2 3 4 5 6 
#
# 1 148.2425 39.5963 56.3059 0.0000 26.7885 0.0000
# 2 39.5963 53.3204 18.2703 0.0000 9.7661 0.0000
# 3 56.3059 18.2703 186.3535 0.0000 32.8256 0.0000
# 4 0.0000 0.0000 0.0000 28.5184 0.0000 2.4026
# 5 26.7885 9.7661 32.8256 0.0000 48.0722 0.0000
# 6 0.0000 0.0000 0.0000 2.4026 0.0000 30.3608
#
#
#
# Elastic Compliance Matrix: (Units=1/GPa)
#
#
# Indices 1 2 3 4 5 6 
#
# 1 0.009533 -0.005938 -0.001790 0.000000 -0.002883 0.000000
# 2 -0.005938 0.023494 -0.000286 0.000000 -0.001269 0.000000
# 3 -0.001790 -0.000286 0.006535 0.000000 -0.003407 0.000000
# 4 0.000000 0.000000 0.000000 0.035300 0.000000 -0.002794
# 5 -0.002883 -0.001269 -0.003407 0.000000 0.024993 0.000000
# 6 0.000000 0.000000 0.000000 -0.002794 0.000000 0.033158
#
#
# Mechanical properties :
#
#
# Convention : Reuss Voigt Hill
#
# Bulk Modulus (GPa) = 42.49016 68.47348 55.48182
# Shear Modulus (GPa) = 31.87027 39.63985 35.75506
#
# Velocity S-wave (km/s) = 3.71828 4.14682 3.93838
# Velocity P-wave (km/s) = 6.07180 7.25483 6.68952
#
# Compressibility (1/GPa) = 0.02353486
#
# Stress axis : x y z
#
# Youngs Moduli (GPa) = 104.90225 42.56364 153.01802
#
# Poissons Ratio (x) = 0.25272 0.27394
# Poissons Ratio (y) = 0.62286 0.04374
# Poissons Ratio (z) = 0.18780 0.01217
#
# Static dielectric constant tensor:
#      x y z
#    x 4.375490 0.000000 0.280720 
#    y 0.000000 3.973200 0.000000 
#    z 0.280720 0.000000 4.723050 
# 
# 
# High freq. dielectric constant tensor:
#      x y z
#    x 1.926700 0.000000 0.020040 
#    y 0.000000 1.900490 0.000000 
#    z 0.020040 0.000000 1.946550 
# 
# From -- ./inp_files/14214.got.cif
#   From: 2010.06.25/outbox.ucp.g09.slc.cvg/sg4_8_cif.got.tgz:14214.got - 2010.06.28 13:22:43.
