data_PCOD8048713
_publ_section_title
;
Structure prediction by ZEFSAII (Michael W. Deem and Ramdas Pophale) SiO2 
 PCOD8048713
Probable space group: C 2
;
_chemical_formula_sum "Si O2"
_cell_formula_units_Z 32
_cell_length_a 18.845756
_cell_length_b 11.515520
_cell_length_c 9.255911
_cell_angle_alpha 90.000000
_cell_angle_beta 123.172858
_cell_angle_gamma 90.000000
_cell_volume 1681.334003
_symmetry_space_group_name_H-M "C 2"
_symmetry_group_IT_number 5
_symmetry_cell_setting 'monoclinic'
loop_
_space_group_symop_operation_xyz
x,y,z
-x,y,-z
1/2+x,1/2+y,z
1/2-x,1/2+y,-z
loop_
_atom_site_type_symbol
_atom_site_label
_atom_site_fract_x
_atom_site_fract_y
_atom_site_fract_z
Si Si1 0.366204 0.641080 0.397746
Si Si2 0.158001 0.968412 0.877698
Si Si3 0.014001 0.036704 0.258307
Si Si4 0.302832 0.478880 0.541897
Si Si5 0.936691 0.264492 0.045511
Si Si6 0.755955 0.799266 0.244406
Si Si7 0.776998 0.539087 0.257398
Si Si8 0.084797 0.374308 0.670973
O O1 0.342118 0.583424 0.219713
O O2 0.458725 0.601526 0.561700
O O3 0.296384 0.598443 0.438995
O O4 0.365676 0.777597 0.368714
O O5 0.057958 0.938276 0.790665
O O6 0.209781 0.864084 0.861178
O O7 0.195617 0.008521 0.071317
O O8 0.971175 0.133239 0.106818
O O9 0.901234 0.973121 0.710164
O O10 0.280553 0.369498 0.415854
O O11 0.237541 0.484022 0.600373
O O12 0.937546 0.336389 0.193090
O O13 0.843679 0.272200 0.872589
O O14 0.000000 0.323979 0.000000
O O15 0.799567 0.674159 0.298295
O O16 0.856578 0.486389 0.262557
O O17 0.000000 0.413158 0.500000
#
# Coordination Sequence:
#
# PCOD8048713 Si02
#       8
#     4   4   4   4   4   4   4   4
#     4   9  19  37  63  90 121 157 213 262 319 367
#     4  11  20  38  64  90 127 160 210 268 320 387
#     4  10  19  36  66  95 119 160 217 269 314 371
#     4   9  24  38  65  93 126 166 211 270 323 377
#     4  12  23  37  67  92 125 159 216 284 318 366
#     4  11  24  43  59  97 131 170 208 269 332 385
#     4  12  25  39  61  94 128 170 216 262 328 403
#     4  12  22  39  60  90 125 165 215 266 325 390
#
# _framework density 19.032505
#
# number of rings (size 3 to 8) (size 9 to 14) (size 15 to 20)
#    0.750    0.500    5.000    1.125    3.500    0.000 
#    2.250    0.000    0.000    0.000    0.000    0.000 
#    0.000    0.000    0.000    0.000    0.000    0.000 
#
# Total GULP energy -198243.462631 kJ/mol
# GULP energy per Si atom -12390.216414 kJ/mol
# Density = 1.898919 g / cm^3
# Si number density = 19.032505 Si / 1000 Ang^3
#
#
#
# Elastic Constant Matrix: (Units=GPa)
#
#
# Indices 1 2 3 4 5 6 
#
# 1 98.0144 41.2196 40.6559 0.0000 -2.8285 0.0000
# 2 41.2196 95.9283 44.6317 0.0000 4.3194 0.0000
# 3 40.6559 44.6317 96.6673 0.0000 -1.7166 0.0000
# 4 0.0000 0.0000 0.0000 24.5384 0.0000 5.9455
# 5 -2.8285 4.3194 -1.7166 0.0000 34.6978 0.0000
# 6 0.0000 0.0000 0.0000 5.9455 0.0000 18.0494
#
#
#
# Elastic Compliance Matrix: (Units=1/GPa)
#
#
# Indices 1 2 3 4 5 6 
#
# 1 0.013543 -0.004133 -0.003762 0.000000 0.001432 0.000000
# 2 -0.004133 0.014672 -0.005079 0.000000 -0.002415 0.000000
# 3 -0.003762 -0.005079 0.014290 0.000000 0.001033 0.000000
# 4 0.000000 0.000000 0.000000 0.044287 0.000000 -0.014588
# 5 0.001432 -0.002415 0.001033 0.000000 0.029289 0.000000
# 6 0.000000 0.000000 0.000000 -0.014588 0.000000 0.060209
#
#
# Mechanical properties :
#
#
# Convention : Reuss Voigt Hill
#
# Bulk Modulus (GPa) = 60.39734 60.40270 60.40002
# Shear Modulus (GPa) = 24.06662 26.39730 25.23196
#
# Velocity S-wave (km/s) = 3.55984 3.72823 3.64501
# Velocity P-wave (km/s) = 6.97849 7.09496 7.03696
#
# Compressibility (1/GPa) = 0.01655702
#
# Stress axis : x y z
#
# Youngs Moduli (GPa) = 73.84109 68.15621 69.97860
#
# Poissons Ratio (x) = 0.28172 0.26325
# Poissons Ratio (y) = 0.30521 0.35540
# Poissons Ratio (z) = 0.27778 0.34614
#
# Static dielectric constant tensor:
#      x y z
#    x 3.595410 0.000000 0.009310 
#    y 0.000000 3.242390 0.000000 
#    z 0.009310 0.000000 3.538960 
# 
# 
# High freq. dielectric constant tensor:
#      x y z
#    x 1.740600 0.000000 -0.007050 
#    y 0.000000 1.706370 0.000000 
#    z -0.007050 0.000000 1.750020 
# 
# From -- ./inp_files/29623.got.cif
#   From: 2010.03.12/outbox.cif.g09.slc.cpg/sg5_15_cif.got.tgz:29623.got - 2010.03.31 09:47:26.
