data_PCOD8048875
_publ_section_title
;
Structure prediction by ZEFSAII (Michael W. Deem and Ramdas Pophale) SiO2 
 PCOD8048875
Probable space group: C 2
;
_chemical_formula_sum "Si O2"
_cell_formula_units_Z 26
_cell_length_a 9.416226
_cell_length_b 13.909700
_cell_length_c 15.844737
_cell_angle_alpha 90.000000
_cell_angle_beta 142.980807
_cell_angle_gamma 90.000000
_cell_volume 1249.498354
_symmetry_space_group_name_H-M "C 2"
_symmetry_group_IT_number 5
_symmetry_cell_setting 'monoclinic'
loop_
_space_group_symop_operation_xyz
x,y,z
-x,y,-z
1/2+x,1/2+y,z
1/2-x,1/2+y,-z
loop_
_atom_site_type_symbol
_atom_site_label
_atom_site_fract_x
_atom_site_fract_y
_atom_site_fract_z
Si Si1 0.500000 0.234771 0.000000
Si Si2 0.572002 0.390773 0.898391
Si Si3 0.997180 0.635530 0.261713
Si Si4 0.256240 0.591282 0.217050
Si Si5 0.000000 0.431413 0.000000
Si Si6 0.000000 0.053411 0.000000
Si Si7 0.767527 0.833214 0.605440
Si Si8 0.840696 0.994117 0.505322
O O1 0.549397 0.297119 0.942748
O O2 0.269330 0.167792 0.871821
O O3 0.820975 0.370263 0.971098
O O4 0.570261 0.487650 0.952960
O O5 0.364828 0.395012 0.730642
O O6 0.095398 0.633893 0.214226
O O7 0.073634 0.738470 0.336881
O O8 0.100674 0.545786 0.363516
O O9 0.715683 0.622708 0.127451
O O10 0.523396 0.573533 0.373029
O O11 0.158068 0.489953 0.140554
O O12 0.500000 0.801897 0.500000
O O13 0.775188 0.898174 0.525063
O O14 0.000000 0.965699 0.500000
#
# Coordination Sequence:
#
# PCOD8048875 Si02
#       8
#     2   4   4   4   2   2   4   4
#     4  10  22  38  63 101 130 176 224 270 331 397
#     4  11  23  40  68  99 135 176 220 281 329 402
#     4  11  23  43  68  97 132 179 221 284 328 401
#     4  10  19  40  65  92 130 174 221 266 335 397
#     4  11  20  38  66  95 132 176 213 269 343 379
#     4  11  24  44  63 102 140 172 223 279 340 388
#     4  12  24  44  69  97 131 178 228 276 336 399
#     4  10  23  44  69  95 131 178 224 276 335 395
#
# _framework density 20.808350999999998
#
# number of rings (size 3 to 8) (size 9 to 14) (size 15 to 20)
#    0.000    1.231    4.615    2.308    0.000    0.615 
#    0.000    2.308    0.000    0.000    0.000    0.000 
#    0.000    0.000    0.000    0.000    0.000    0.000 
#
# Total GULP energy -161177.675517 kJ/mol
# GULP energy per Si atom -12398.282732 kJ/mol
# Density = 2.076099 g / cm^3
# Si number density = 20.808351 Si / 1000 Ang^3
#
#
#
# Elastic Constant Matrix: (Units=GPa)
#
#
# Indices 1 2 3 4 5 6 
#
# 1 76.3719 42.0029 43.7983 0.0002 13.4388 0.0004
# 2 42.0029 107.1819 44.4409 0.0001 2.5247 0.0002
# 3 43.7983 44.4409 127.2058 0.0002 14.1135 0.0004
# 4 0.0002 0.0001 0.0002 38.3670 0.0002 -8.0994
# 5 13.4388 2.5247 14.1135 0.0002 42.1263 0.0002
# 6 0.0004 0.0002 0.0004 -8.0994 0.0002 11.0170
#
#
#
# Elastic Compliance Matrix: (Units=1/GPa)
#
#
# Indices 1 2 3 4 5 6 
#
# 1 0.019460 -0.005786 -0.004184 0.000000 -0.004460 0.000000
# 2 -0.005786 0.012648 -0.002645 0.000000 0.001974 0.000000
# 3 -0.004184 -0.002645 0.010449 0.000000 -0.002007 0.000000
# 4 0.000000 0.000000 0.000000 0.030852 0.000000 0.022682
# 5 -0.004460 0.001974 -0.002007 0.000000 0.025715 -0.000001
# 6 0.000000 0.000000 0.000000 0.022682 -0.000001 0.107444
#
#
# Mechanical properties :
#
#
# Convention : Reuss Voigt Hill
#
# Bulk Modulus (GPa) = 57.71878 63.47154 60.59516
# Shear Modulus (GPa) = 21.04599 30.33656 25.69128
#
# Velocity S-wave (km/s) = 3.18373 3.82239 3.51759
# Velocity P-wave (km/s) = 6.42755 7.07461 6.75882
#
# Compressibility (1/GPa) = 0.01732538
#
# Stress axis : x y z
#
# Youngs Moduli (GPa) = 51.38630 79.06459 95.70433
#
# Poissons Ratio (x) = 0.45749 0.40044
# Poissons Ratio (y) = 0.29734 0.25318
# Poissons Ratio (z) = 0.21501 0.20916
#
# Static dielectric constant tensor:
#      x y z
#    x 3.752110 0.000000 -0.133480 
#    y 0.000000 3.738740 0.000000 
#    z -0.133480 0.000000 4.083760 
# 
# 
# High freq. dielectric constant tensor:
#      x y z
#    x 1.796130 0.000000 -0.011110 
#    y 0.000000 1.813330 0.000000 
#    z -0.011110 0.000000 1.833860 
# 
# From -- ./inp_files/50862.got.cif
#   From: 2010.03.12/outbox.cif.g09.slc.cpg/sg5_26_cif.got.tgz:50862.got - 2010.03.31 09:47:26.
