data_PCOD8048812
_publ_section_title
;
Structure prediction by ZEFSAII (Michael W. Deem and Ramdas Pophale) SiO2 
 PCOD8048812
Probable space group: C 2
;
_chemical_formula_sum "Si O2"
_cell_formula_units_Z 26
_cell_length_a 8.001308
_cell_length_b 21.022270
_cell_length_c 9.018297
_cell_angle_alpha 90.000000
_cell_angle_beta 129.366276
_cell_angle_gamma 90.000000
_cell_volume 1172.748157
_symmetry_space_group_name_H-M "C 2"
_symmetry_group_IT_number 5
_symmetry_cell_setting 'monoclinic'
loop_
_space_group_symop_operation_xyz
x,y,z
-x,y,-z
1/2+x,1/2+y,z
1/2-x,1/2+y,-z
loop_
_atom_site_type_symbol
_atom_site_label
_atom_site_fract_x
_atom_site_fract_y
_atom_site_fract_z
Si Si1 0.500000 0.491760 0.000000
Si Si2 0.843655 0.332369 0.548534
Si Si3 0.048479 0.193108 0.356616
Si Si4 0.105795 0.411082 0.914802
Si Si5 0.219679 0.586704 0.684507
Si Si6 0.768235 0.186351 0.941977
Si Si7 0.559878 0.312087 0.860304
O O1 0.702168 0.451613 0.052130
O O2 0.594334 0.533994 0.188336
O O3 0.856083 0.262872 0.633338
O O4 0.608835 0.346110 0.345597
O O5 0.000000 0.327534 0.500000
O O6 0.915107 0.391248 0.693107
O O7 0.217100 0.139723 0.399959
O O8 0.000000 0.185026 0.500000
O O9 0.818059 0.181032 0.145413
O O10 0.211718 0.346202 0.034247
O O11 0.000000 0.445701 0.000000
O O12 0.180225 0.620778 0.822039
O O13 0.000000 0.554146 0.500000
O O14 0.585260 0.239867 0.818220
O O15 0.000000 0.203892 0.000000
O O16 0.500000 0.316894 0.000000
#
# Coordination Sequence:
#
# PCOD8048812 Si02
#       7
#     2   4   4   4   4   4   4
#     4  12  26  54  72  92 142 188 246 296 346 386
#     4  11  21  39  68 104 145 179 218 283 358 424
#     4  10  19  38  66 105 139 169 222 277 348 428
#     4  12  27  47  70 101 137 186 244 287 341 419
#     4  11  24  45  71  98 132 186 228 288 352 412
#     4  10  20  39  65  99 142 178 222 276 353 419
#     4  12  21  39  68 103 145 181 217 286 355 414
#
# _framework density 22.170148000000001
#
# number of rings (size 3 to 8) (size 9 to 14) (size 15 to 20)
#    0.000    0.923    6.154    2.308    2.154    2.462 
#    2.769    0.769    0.000    0.000    0.000    0.000 
#    0.000    0.000    0.000    0.000    0.000    0.000 
#
# Total GULP energy -161108.628913 kJ/mol
# GULP energy per Si atom -12392.971455 kJ/mol
# Density = 2.211969 g / cm^3
# Si number density = 22.170148 Si / 1000 Ang^3
#
#
#
# Elastic Constant Matrix: (Units=GPa)
#
#
# Indices 1 2 3 4 5 6 
#
# 1 79.3225 29.0897 42.2141 0.0000 -5.1416 0.0000
# 2 29.0897 76.2198 41.5836 0.0000 -5.8134 0.0000
# 3 42.2141 41.5836 177.0559 0.0000 12.4517 0.0000
# 4 0.0000 0.0000 0.0000 33.9772 0.0000 12.4344
# 5 -5.1416 -5.8134 12.4517 0.0000 38.4772 0.0000
# 6 0.0000 0.0000 0.0000 12.4344 0.0000 32.7500
#
#
#
# Elastic Compliance Matrix: (Units=1/GPa)
#
#
# Indices 1 2 3 4 5 6 
#
# 1 0.015906 -0.004269 -0.002961 0.000000 0.002439 0.000000
# 2 -0.004269 0.016668 -0.003105 0.000000 0.002953 0.000000
# 3 -0.002961 -0.003105 0.007310 0.000000 -0.003230 0.000000
# 4 0.000000 0.000000 0.000000 0.034181 0.000000 -0.012978
# 5 0.002439 0.002953 -0.003230 0.000000 0.027807 0.000000
# 6 0.000000 0.000000 0.000000 -0.012978 0.000000 0.035462
#
#
# Mechanical properties :
#
#
# Convention : Reuss Voigt Hill
#
# Bulk Modulus (GPa) = 52.04260 62.04146 57.04203
# Shear Modulus (GPa) = 30.41192 35.68827 33.05010
#
# Velocity S-wave (km/s) = 3.70773 4.01651 3.86521
# Velocity P-wave (km/s) = 6.46953 7.03952 6.76054
#
# Compressibility (1/GPa) = 0.01921503
#
# Stress axis : x y z
#
# Youngs Moduli (GPa) = 62.86768 59.99442 136.79339
#
# Poissons Ratio (x) = 0.25612 0.40509
# Poissons Ratio (y) = 0.26839 0.42468
# Poissons Ratio (z) = 0.18617 0.18625
#
# Static dielectric constant tensor:
#      x y z
#    x 3.853050 0.000000 -0.063200 
#    y 0.000000 3.919080 0.000000 
#    z -0.063200 0.000000 4.173870 
# 
# 
# High freq. dielectric constant tensor:
#      x y z
#    x 1.856080 0.000000 0.004840 
#    y 0.000000 1.845880 0.000000 
#    z 0.004840 0.000000 1.895720 
# 
# From -- ./inp_files/17095.got.cif
#   From: 2010.03.12/outbox.cif.g09.slc.cpg/sg5_9_cif.got.tgz:17095.got - 2010.03.31 09:47:26.
