data_PCOD8048626
_publ_section_title
;
Structure prediction by ZEFSAII (Michael W. Deem and Ramdas Pophale) SiO2 
 PCOD8048626
Probable space group: C 2
;
_chemical_formula_sum "Si O2"
_cell_formula_units_Z 32
_cell_length_a 20.518395
_cell_length_b 11.593512
_cell_length_c 10.419638
_cell_angle_alpha 90.000000
_cell_angle_beta 135.281807
_cell_angle_gamma 90.000000
_cell_volume 1744.011861
_symmetry_space_group_name_H-M "C 2"
_symmetry_group_IT_number 5
_symmetry_cell_setting 'monoclinic'
loop_
_space_group_symop_operation_xyz
x,y,z
-x,y,-z
1/2+x,1/2+y,z
1/2-x,1/2+y,-z
loop_
_atom_site_type_symbol
_atom_site_label
_atom_site_fract_x
_atom_site_fract_y
_atom_site_fract_z
Si Si1 0.747479 0.228930 0.822637
Si Si2 0.459433 0.561737 0.738949
Si Si3 0.246274 0.107880 0.894716
Si Si4 0.360911 0.910786 0.089803
Si Si5 0.601435 0.425466 0.585739
Si Si6 0.463630 0.791824 0.586161
Si Si7 0.274776 0.848826 0.233688
Si Si8 0.854876 0.037126 0.857251
O O1 0.653112 0.300334 0.661496
O O2 0.774027 0.134277 0.753231
O O3 0.750183 0.158486 0.958416
O O4 0.832194 0.319070 0.941594
O O5 0.415138 0.466679 0.582983
O O6 0.452769 0.688576 0.669839
O O7 0.398902 0.552461 0.780999
O O8 0.567496 0.542458 0.922499
O O9 0.245963 0.212029 0.793838
O O10 0.158472 0.022643 0.745795
O O11 0.342440 0.038243 0.008702
O O12 0.466857 0.891800 0.271507
O O13 0.289630 0.896107 0.110412
O O14 0.500000 0.406988 0.500000
O O15 0.500000 0.740662 0.500000
O O16 0.369770 0.863820 0.444306
O O17 0.192853 0.912664 0.193288
#
# Coordination Sequence:
#
# PCOD8048626 Si02
#       8
#     4   4   4   4   4   4   4   4
#     4  10  20  36  58  88 118 147 184 248 289 342
#     4  11  23  38  60  83 112 164 196 243 273 350
#     4  10  19  35  59  87 112 153 182 236 302 335
#     4   9  18  32  59  86 114 139 188 240 290 338
#     4  11  23  37  60  91 117 147 199 243 291 346
#     4  10  19  35  59  90 111 141 195 243 285 343
#     4  10  20  33  57  85 115 153 182 240 288 349
#     4  11  23  40  57  83 120 154 204 229 294 352
#
# _framework density 18.348499
#
# number of rings (size 3 to 8) (size 9 to 14) (size 15 to 20)
#    0.000    1.750    3.750    1.125    5.250    1.000 
#    2.250    0.000    0.000    0.000    0.000    0.000 
#    0.000    0.000    0.000    0.000    0.000    0.000 
#
# Total GULP energy -198281.228515 kJ/mol
# GULP energy per Si atom -12392.576782 kJ/mol
# Density = 1.830674 g / cm^3
# Si number density = 18.348499 Si / 1000 Ang^3
#
#
#
# Elastic Constant Matrix: (Units=GPa)
#
#
# Indices 1 2 3 4 5 6 
#
# 1 70.5400 41.1517 41.8635 0.0000 11.3924 0.0000
# 2 41.1517 112.9813 55.0347 0.0000 21.8286 0.0000
# 3 41.8635 55.0347 117.8846 0.0000 13.1652 0.0000
# 4 0.0000 0.0000 0.0000 28.5071 0.0000 5.9371
# 5 11.3924 21.8286 13.1652 0.0000 23.8511 0.0000
# 6 0.0000 0.0000 0.0000 5.9371 0.0000 19.9624
#
#
#
# Elastic Compliance Matrix: (Units=1/GPa)
#
#
# Indices 1 2 3 4 5 6 
#
# 1 0.020035 -0.004438 -0.004719 0.000000 -0.002903 0.000000
# 2 -0.004438 0.014089 -0.004048 0.000000 -0.008541 0.000000
# 3 -0.004719 -0.004048 0.012131 0.000000 -0.000737 0.000000
# 4 0.000000 0.000000 0.000000 0.037395 0.000000 -0.011122
# 5 -0.002903 -0.008541 -0.000737 0.000000 0.051537 0.000000
# 6 0.000000 0.000000 0.000000 -0.011122 0.000000 0.053402
#
#
# Mechanical properties :
#
#
# Convention : Reuss Voigt Hill
#
# Bulk Modulus (GPa) = 50.38834 64.16730 57.27782
# Shear Modulus (GPa) = 22.56186 25.35451 23.95819
#
# Velocity S-wave (km/s) = 3.51041 3.72133 3.61741
# Velocity P-wave (km/s) = 6.62964 7.31517 6.98083
#
# Compressibility (1/GPa) = 0.01984586
#
# Stress axis : x y z
#
# Youngs Moduli (GPa) = 49.91365 70.97607 82.43568
#
# Poissons Ratio (x) = 0.31498 0.38899
# Poissons Ratio (y) = 0.22151 0.33369
# Poissons Ratio (z) = 0.23553 0.28730
#
# Static dielectric constant tensor:
#      x y z
#    x 3.054410 0.000000 0.043010 
#    y 0.000000 3.669390 0.000000 
#    z 0.043010 0.000000 3.658290 
# 
# 
# High freq. dielectric constant tensor:
#      x y z
#    x 1.673810 0.000000 0.006620 
#    y 0.000000 1.714540 0.000000 
#    z 0.006620 0.000000 1.723260 
# 
# From -- ./inp_files/46342.got.cif
#   From: 2010.03.12/outbox.cif.g09.slc.cpg/sg5_24_cif.got.tgz:46342.got - 2010.03.31 09:47:26.
