data_PCOD8048235
_publ_section_title
;
Structure prediction by ZEFSAII (Michael W. Deem and Ramdas Pophale) SiO2 
 PCOD8048235
Probable space group: C 2
;
_chemical_formula_sum "Si O2"
_cell_formula_units_Z 26
_cell_length_a 10.552910
_cell_length_b 24.945269
_cell_length_c 10.516163
_cell_angle_alpha 90.000000
_cell_angle_beta 152.259404
_cell_angle_gamma 90.000000
_cell_volume 1288.572149
_symmetry_space_group_name_H-M "C 2"
_symmetry_group_IT_number 5
_symmetry_cell_setting 'monoclinic'
loop_
_space_group_symop_operation_xyz
x,y,z
-x,y,-z
1/2+x,1/2+y,z
1/2-x,1/2+y,-z
loop_
_atom_site_type_symbol
_atom_site_label
_atom_site_fract_x
_atom_site_fract_y
_atom_site_fract_z
Si Si1 0.051346 0.235100 0.334070
Si Si2 0.931886 0.985345 0.587724
Si Si3 0.500000 0.820069 0.500000
Si Si4 0.460648 0.170108 0.115197
Si Si5 0.878887 0.874637 0.657581
Si Si6 0.052164 0.330127 0.904672
Si Si7 0.566684 0.050951 0.913097
O O1 0.065479 0.269170 0.216016
O O2 0.927235 0.280452 0.319069
O O3 0.336754 0.210950 0.633824
O O4 0.848069 0.186499 0.133121
O O5 0.973177 0.935708 0.721087
O O6 0.000000 0.971050 0.500000
O O7 0.627042 0.008064 0.327731
O O8 0.123569 0.031213 0.818095
O O9 0.757813 0.858154 0.689508
O O10 0.483163 0.109994 0.191087
O O11 0.500000 0.172802 0.000000
O O12 0.624791 0.870126 0.336813
O O13 0.128020 0.834927 0.846343
O O14 0.000000 0.349372 0.000000
O O15 0.500000 0.056432 0.000000
#
# Coordination Sequence:
#
# PCOD8048235 Si02
#       7
#     4   4   2   4   4   4   4
#     4  11  21  33  56  79 119 149 184 238 282 348
#     4  10  18  33  52  79 109 147 188 236 286 335
#     4  10  22  38  52  90 118 152 200 228 280 360
#     4  11  19  33  53  83 112 150 180 234 307 345
#     4  11  23  36  60  80 121 159 190 238 288 339
#     4  11  23  38  55  84 116 155 199 233 279 350
#     4   9  19  31  51  79 113 136 187 240 287 349
#
# _framework density 20.177371999999998
#
# number of rings (size 3 to 8) (size 9 to 14) (size 15 to 20)
#    0.000    1.538    1.538    5.077    0.000    5.538 
#    0.000    0.000    0.000    0.000    8.000    0.000 
#    0.000    0.000    0.000    0.000    0.000    0.000 
#
# Total GULP energy -161095.060717 kJ/mol
# GULP energy per Si atom -12391.927747 kJ/mol
# Density = 2.013145 g / cm^3
# Si number density = 20.177372 Si / 1000 Ang^3
#
#
#
# Elastic Constant Matrix: (Units=GPa)
#
#
# Indices 1 2 3 4 5 6 
#
# 1 49.7137 13.2707 17.2239 -0.0001 11.2905 0.0000
# 2 13.2707 118.7474 25.7741 0.0001 1.6780 0.0000
# 3 17.2239 25.7741 100.4698 -0.0003 12.1486 -0.0002
# 4 -0.0001 0.0001 -0.0003 142.1306 -0.0001 68.3591
# 5 11.2905 1.6780 12.1486 -0.0001 21.4406 -0.0001
# 6 0.0000 0.0000 -0.0002 68.3591 -0.0001 68.6015
#
#
#
# Elastic Compliance Matrix: (Units=1/GPa)
#
#
# Indices 1 2 3 4 5 6 
#
# 1 0.023976 -0.002036 -0.002234 0.000000 -0.011201 0.000000
# 2 -0.002036 0.009099 -0.002178 0.000000 0.001594 0.000000
# 3 -0.002234 -0.002178 0.011521 0.000000 -0.005182 0.000000
# 4 0.000000 0.000000 0.000000 0.013511 0.000000 -0.013463
# 5 -0.011201 0.001594 -0.005182 0.000000 0.055350 0.000000
# 6 0.000000 0.000000 0.000000 -0.013463 0.000000 0.027993
#
#
# Mechanical properties :
#
#
# Convention : Reuss Voigt Hill
#
# Bulk Modulus (GPa) = 31.54465 42.38535 36.96500
# Shear Modulus (GPa) = 30.31892 60.61202 45.46547
#
# Velocity S-wave (km/s) = 3.88057 5.48679 4.75203
# Velocity P-wave (km/s) = 5.97880 7.82251 6.96196
#
# Compressibility (1/GPa) = 0.03170110
#
# Stress axis : x y z
#
# Youngs Moduli (GPa) = 41.70758 109.90216 86.79504
#
# Poissons Ratio (x) = 0.22381 0.19386
# Poissons Ratio (y) = 0.08493 0.18903
# Poissons Ratio (z) = 0.09316 0.23935
#
# Static dielectric constant tensor:
#      x y z
#    x 3.201260 0.000000 -0.084600 
#    y 0.000000 3.895990 0.000000 
#    z -0.084600 0.000000 3.706400 
# 
# 
# High freq. dielectric constant tensor:
#      x y z
#    x 1.735180 0.000000 0.010750 
#    y 0.000000 1.794390 0.000000 
#    z 0.010750 0.000000 1.802250 
# 
# From -- ./inp_files/40854.got.cif
#   From: 2010.03.12/outbox.cif.g09.slc.cpg/sg5_21_cif.got.tgz:40854.got - 2010.03.31 09:47:26.
