data_PCOD8048134
_publ_section_title
;
Structure prediction by ZEFSAII (Michael W. Deem and Ramdas Pophale) SiO2 
 PCOD8048134
Probable space group: C 2
;
_chemical_formula_sum "Si O2"
_cell_formula_units_Z 28
_cell_length_a 26.257922
_cell_length_b 7.625979
_cell_length_c 12.928361
_cell_angle_alpha 90.000000
_cell_angle_beta 39.188628
_cell_angle_gamma 90.000000
_cell_volume 1635.802744
_symmetry_space_group_name_H-M "C 2"
_symmetry_group_IT_number 5
_symmetry_cell_setting 'monoclinic'
loop_
_space_group_symop_operation_xyz
x,y,z
-x,y,-z
1/2+x,1/2+y,z
1/2-x,1/2+y,-z
loop_
_atom_site_type_symbol
_atom_site_label
_atom_site_fract_x
_atom_site_fract_y
_atom_site_fract_z
Si Si1 0.198160 0.308620 0.983001
Si Si2 0.900154 0.010635 0.368680
Si Si3 0.916351 0.010530 0.894880
Si Si4 0.846842 0.010606 0.228993
Si Si5 0.198040 0.712245 0.983157
Si Si6 0.757809 0.201545 0.668059
Si Si7 0.742151 0.319516 0.332039
O O1 0.169659 0.510396 0.032756
O O2 0.253605 0.268333 0.795700
O O3 0.119831 0.184609 0.101076
O O4 0.250177 0.260668 0.999678
O O5 0.851680 0.184096 0.485492
O O6 0.988803 0.010725 0.276449
O O7 0.904693 0.010602 0.236972
O O8 0.851725 0.837125 0.485433
O O9 0.901338 0.010831 0.041401
O O10 0.880374 0.835972 0.898928
O O11 0.788839 0.842026 0.327423
O O12 0.788725 0.179007 0.327711
O O13 0.253603 0.752545 0.795771
O O14 0.715529 0.010512 0.717993
#
# Coordination Sequence:
#
# PCOD8048134 Si02
#       7
#     4   4   4   4   4   4   4
#     4  10  18  35  56  74  95 137 174 208 250 309
#     4  10  19  35  50  78 111 131 161 222 254 279
#     4  10  21  33  52  80 107 127 171 214 252 299
#     4  10  17  34  56  72 102 146 172 192 246 314
#     4  10  18  35  56  74  95 137 174 208 250 309
#     4   8  19  32  51  77 101 131 177 200 245 308
#     4   8  19  32  51  77 101 131 177 200 245 308
#
# _framework density 17.116978
#
# number of rings (size 3 to 8) (size 9 to 14) (size 15 to 20)
#    0.857    1.714    1.429    1.286    0.000    0.000 
#    2.571    2.857    0.000    8.571    0.000    0.000 
#    0.000    0.000    0.000    0.000    0.000    0.000 
#
# Total GULP energy -173500.944284 kJ/mol
# GULP energy per Si atom -12392.924592 kJ/mol
# Density = 1.707802 g / cm^3
# Si number density = 17.116978 Si / 1000 Ang^3
#
#
#
# Elastic Constant Matrix: (Units=GPa)
#
#
# Indices 1 2 3 4 5 6 
#
# 1 109.6290 46.0416 36.4020 0.0000 -7.8299 0.0000
# 2 46.0416 109.6526 24.9724 0.0005 -9.9028 0.0000
# 3 36.4020 24.9724 55.3381 0.0001 -17.4941 0.0000
# 4 0.0000 0.0005 0.0001 17.9036 0.0000 1.7251
# 5 -7.8299 -9.9028 -17.4941 0.0000 26.9185 0.0000
# 6 0.0000 0.0000 0.0000 1.7251 0.0000 19.0215
#
#
#
# Elastic Compliance Matrix: (Units=1/GPa)
#
#
# Indices 1 2 3 4 5 6 
#
# 1 0.013173 -0.004019 -0.007687 0.000000 -0.002643 0.000000
# 2 -0.004019 0.011410 -0.001948 0.000000 0.001763 0.000000
# 3 -0.007687 -0.001948 0.029039 0.000000 0.015920 0.000000
# 4 0.000000 0.000000 0.000000 0.056347 0.000000 -0.005110
# 5 -0.002643 0.001763 0.015920 0.000000 0.047375 0.000000
# 6 0.000000 0.000000 0.000000 -0.005110 0.000000 0.053035
#
#
# Mechanical properties :
#
#
# Convention : Reuss Voigt Hill
#
# Bulk Modulus (GPa) = 38.00281 54.38353 46.19317
# Shear Modulus (GPa) = 20.28721 23.91564 22.10143
#
# Velocity S-wave (km/s) = 3.44642 3.74195 3.59722
# Velocity P-wave (km/s) = 6.17148 7.10706 6.65573
#
# Compressibility (1/GPa) = 0.02631384
#
# Stress axis : x y z
#
# Youngs Moduli (GPa) = 75.90998 87.64117 34.43612
#
# Poissons Ratio (x) = 0.35226 0.26472
# Poissons Ratio (y) = 0.30511 0.06708
# Poissons Ratio (z) = 0.58354 0.17072
#
# Static dielectric constant tensor:
#      x y z
#    x 2.989830 0.000000 0.200400 
#    y 0.000000 3.405490 0.000000 
#    z 0.200400 0.000000 3.045900 
# 
# 
# High freq. dielectric constant tensor:
#      x y z
#    x 1.649350 0.000000 0.022660 
#    y 0.000000 1.664810 0.000000 
#    z 0.022660 0.000000 1.643830 
# 
# From -- ./inp_files/43981.got.cif
#   From: 2010.03.12/outbox.cif.g09.slc.cpg/sg5_22_cif.got.tgz:43981.got - 2010.03.31 09:47:26.
