data_PCOD8048686
_publ_section_title
;
Structure prediction by ZEFSAII (Michael W. Deem and Ramdas Pophale) SiO2 
 PCOD8048686
Probable space group: C 2
;
_chemical_formula_sum "Si O2"
_cell_formula_units_Z 20
_cell_length_a 15.638293
_cell_length_b 9.399750
_cell_length_c 6.887404
_cell_angle_alpha 90.000000
_cell_angle_beta 125.633375
_cell_angle_gamma 90.000000
_cell_volume 822.856964
_symmetry_space_group_name_H-M "C 2"
_symmetry_group_IT_number 5
_symmetry_cell_setting 'monoclinic'
loop_
_space_group_symop_operation_xyz
x,y,z
-x,y,-z
1/2+x,1/2+y,z
1/2-x,1/2+y,-z
loop_
_atom_site_type_symbol
_atom_site_label
_atom_site_fract_x
_atom_site_fract_y
_atom_site_fract_z
Si Si1 0.607325 0.295760 0.591370
Si Si2 0.113818 0.039169 0.333599
Si Si3 0.916352 0.340290 0.561460
Si Si4 0.823372 0.844376 0.900038
Si Si5 0.655667 0.096503 0.331362
O O1 0.500000 0.209632 0.500000
O O2 0.557570 0.427821 0.402408
O O3 0.678901 0.195008 0.552648
O O4 0.673177 0.346730 0.864159
O O5 0.064698 0.195868 0.289979
O O6 0.232818 0.028150 0.573992
O O7 0.114103 0.981242 0.109810
O O8 0.798991 0.346761 0.319594
O O9 0.928676 0.472547 0.729020
O O10 0.000000 0.351884 0.500000
O O11 0.879610 0.699867 0.892083
#
# Coordination Sequence:
#
# PCOD8048686 Si02
#       5
#     4   4   4   4   4
#     4  11  22  39  61  84 112 153 201 233 269 340
#     4   9  20  38  59  84 118 149 187 235 285 340
#     4  10  19  36  61  90 117 144 187 239 287 341
#     4   9  21  40  61  81 114 158 188 229 287 334
#     4   9  20  38  59  84 118 149 187 235 285 340
#
# _framework density 24.30556
#
# number of rings (size 3 to 8) (size 9 to 14) (size 15 to 20)
#    0.000    2.400    0.000    2.400    0.000    9.600 
#    0.000    6.000    0.000   21.600    0.000    0.000 
#    0.000    0.000    0.000    0.000    0.000    0.000 
#
# Total GULP energy -123930.084881 kJ/mol
# GULP energy per Si atom -12393.008488 kJ/mol
# Density = 2.425024 g / cm^3
# Si number density = 24.305560 Si / 1000 Ang^3
#
#
#
# Elastic Constant Matrix: (Units=GPa)
#
#
# Indices 1 2 3 4 5 6 
#
# 1 71.0228 14.4054 -6.9021 0.0000 -26.5017 0.0000
# 2 14.4054 147.3750 18.8687 0.0000 -28.2082 0.0000
# 3 -6.9021 18.8687 98.7079 0.0000 -22.7024 0.0000
# 4 0.0000 0.0000 0.0000 20.0857 0.0000 -7.9935
# 5 -26.5017 -28.2082 -22.7024 0.0000 29.2274 0.0000
# 6 0.0000 0.0000 0.0000 -7.9935 0.0000 27.7093
#
#
#
# Elastic Compliance Matrix: (Units=1/GPa)
#
#
# Indices 1 2 3 4 5 6 
#
# 1 0.027448 0.002790 0.009411 0.000000 0.034891 0.000000
# 2 0.002790 0.008615 0.001269 0.000000 0.011830 0.000000
# 3 0.009411 0.001269 0.015573 0.000000 0.021854 0.000000
# 4 0.000000 0.000000 0.000000 0.056244 0.000000 0.016225
# 5 0.034891 0.011830 0.021854 0.000000 0.094245 0.000000
# 6 0.000000 0.000000 0.000000 0.016225 0.000000 0.040769
#
#
# Mechanical properties :
#
#
# Convention : Reuss Voigt Hill
#
# Bulk Modulus (GPa) = 12.72655 41.09442 26.91048
# Shear Modulus (GPa) = 20.64889 34.78673 27.71781
#
# Velocity S-wave (km/s) = 2.91787 3.78726 3.38063
# Velocity P-wave (km/s) = 4.07424 6.00571 5.13166
#
# Compressibility (1/GPa) = 0.07857592
#
# Stress axis : x y z
#
# Youngs Moduli (GPa) = 36.43262 116.08328 64.21525
#
# Poissons Ratio (x) = -0.32393 -0.60431
# Poissons Ratio (y) = -0.10167 -0.08151
# Poissons Ratio (z) = -0.34285 -0.14735
#
# Static dielectric constant tensor:
#      x y z
#    x 4.297820 0.000000 -0.337250 
#    y 0.000000 4.694050 0.000000 
#    z -0.337250 0.000000 3.871510 
# 
# 
# High freq. dielectric constant tensor:
#      x y z
#    x 1.973160 0.000000 -0.023860 
#    y 0.000000 1.973100 0.000000 
#    z -0.023860 0.000000 1.936990 
# 
# From -- ./inp_files/8068.got.cif
#   From: 2010.03.12/outbox.cif.g09.slc.cpg/sg5_5_cif.got.tgz:8068.got - 2010.03.31 09:47:26.
