data_PCOD8048114
_publ_section_title
;
Structure prediction by ZEFSAII (Michael W. Deem and Ramdas Pophale) SiO2 
 PCOD8048114
Probable space group: C 2
;
_chemical_formula_sum "Si O2"
_cell_formula_units_Z 32
_cell_length_a 13.150782
_cell_length_b 18.363227
_cell_length_c 8.500752
_cell_angle_alpha 90.000000
_cell_angle_beta 47.760120
_cell_angle_gamma 90.000000
_cell_volume 1519.803039
_symmetry_space_group_name_H-M "C 2"
_symmetry_group_IT_number 5
_symmetry_cell_setting 'monoclinic'
loop_
_space_group_symop_operation_xyz
x,y,z
-x,y,-z
1/2+x,1/2+y,z
1/2-x,1/2+y,-z
loop_
_atom_site_type_symbol
_atom_site_label
_atom_site_fract_x
_atom_site_fract_y
_atom_site_fract_z
Si Si1 0.653120 0.316590 0.887088
Si Si2 0.347066 0.465237 0.223606
Si Si3 0.479644 0.152011 0.699232
Si Si4 0.152793 0.236883 0.803009
Si Si5 0.744495 0.181789 0.616205
Si Si6 0.113869 0.811343 0.271967
Si Si7 0.207855 0.091900 0.934652
Si Si8 0.058792 0.052203 0.595065
O O1 0.716515 0.383412 0.716937
O O2 0.726620 0.238339 0.781164
O O3 0.500000 0.298401 0.000000
O O4 0.657958 0.348464 0.061658
O O5 0.262327 0.520443 0.201491
O O6 0.352747 0.494508 0.396631
O O7 0.500000 0.458325 0.000000
O O8 0.500000 0.121184 0.500000
O O9 0.606353 0.143352 0.688405
O O10 0.458434 0.237754 0.710901
O O11 0.342137 0.109282 0.904401
O O12 0.178433 0.231422 0.591789
O O13 0.249422 0.299747 0.770383
O O14 0.189996 0.158419 0.833700
O O15 0.000000 0.261665 0.000000
O O16 0.844189 0.117320 0.567072
O O17 0.000000 0.853215 0.500000
O O18 0.067420 0.085198 0.175652
O O19 0.000000 0.012796 0.500000
#
# Coordination Sequence:
#
# PCOD8048114 Si02
#       8
#     4   4   4   4   4   4   4   4
#     4  11  22  35  58  91 126 152 193 259 303 355
#     4   9  19  40  59  81 118 160 198 243 303 357
#     4  10  17  31  56  86 114 145 192 247 294 346
#     4  11  18  33  57  83 116 156 195 247 291 352
#     4  12  21  33  56  94 121 150 200 255 302 343
#     4  10  19  35  55  86 121 148 196 238 301 364
#     4  10  18  36  59  82 111 154 205 240 295 350
#     4  11  23  36  58  88 119 157 206 250 291 355
#
# _framework density 21.05536
#
# number of rings (size 3 to 8) (size 9 to 14) (size 15 to 20)
#    0.000    1.500    7.500    0.375    3.500    0.000 
#    0.000   10.000    0.000    6.750    0.000    0.875 
#    0.000    0.000    0.000    0.000    0.000    0.000 
#
# Total GULP energy -198249.676839 kJ/mol
# GULP energy per Si atom -12390.604802 kJ/mol
# Density = 2.100744 g / cm^3
# Si number density = 21.055360 Si / 1000 Ang^3
#
#
#
# Elastic Constant Matrix: (Units=GPa)
#
#
# Indices 1 2 3 4 5 6 
#
# 1 80.0619 25.8107 30.9050 0.0000 -3.4244 0.0000
# 2 25.8107 86.7486 27.0660 0.0000 3.8817 0.0000
# 3 30.9050 27.0660 76.7862 0.0000 1.6053 0.0000
# 4 0.0000 0.0000 0.0000 19.1802 0.0000 5.7908
# 5 -3.4244 3.8817 1.6053 0.0000 40.9857 0.0000
# 6 0.0000 0.0000 0.0000 5.7908 0.0000 2.9706
#
#
#
# Elastic Compliance Matrix: (Units=1/GPa)
#
#
# Indices 1 2 3 4 5 6 
#
# 1 0.015577 -0.003087 -0.005219 0.000000 0.001798 0.000000
# 2 -0.003087 0.013609 -0.003525 0.000000 -0.001409 0.000000
# 3 -0.005219 -0.003525 0.016382 0.000000 -0.000744 0.000000
# 4 0.000000 0.000000 0.000000 0.126712 0.000000 -0.247008
# 5 0.001798 -0.001409 -0.000744 0.000000 0.024712 0.000000
# 6 0.000000 0.000000 0.000000 -0.247008 0.000000 0.818140
#
#
# Mechanical properties :
#
#
# Convention : Reuss Voigt Hill
#
# Bulk Modulus (GPa) = 45.64979 45.68445 45.66712
# Shear Modulus (GPa) = 4.77968 23.28164 14.03066
#
# Velocity S-wave (km/s) = 1.50830 3.32887 2.58421
# Velocity P-wave (km/s) = 4.97606 6.04314 5.53537
#
# Compressibility (1/GPa) = 0.02190591
#
# Stress axis : x y z
#
# Youngs Moduli (GPa) = 64.19726 73.48148 61.04332
#
# Poissons Ratio (x) = 0.22682 0.31858
# Poissons Ratio (y) = 0.19816 0.21518
# Poissons Ratio (z) = 0.33504 0.25903
#
# Static dielectric constant tensor:
#      x y z
#    x 4.048770 0.000000 0.065120 
#    y 0.000000 3.692110 0.000000 
#    z 0.065120 0.000000 4.144450 
# 
# 
# High freq. dielectric constant tensor:
#      x y z
#    x 1.816240 0.000000 0.008900 
#    y 0.000000 1.790520 0.000000 
#    z 0.008900 0.000000 1.817440 
# 
# From -- ./inp_files/25414.got.cif
#   From: 2010.03.12/outbox.cif.g09.slc.cpg/sg5_13_cif.got.tgz:25414.got - 2010.03.31 09:47:26.
