data_PCOD8048021
_publ_section_title
;
Structure prediction by ZEFSAII (Michael W. Deem and Ramdas Pophale) SiO2 
 PCOD8048021
Probable space group: P 21
;
_chemical_formula_sum "Si O2"
_cell_formula_units_Z 16
_cell_length_a 16.851526
_cell_length_b 8.069904
_cell_length_c 8.496576
_cell_angle_alpha 90.000000
_cell_angle_beta 147.167956
_cell_angle_gamma 90.000000
_cell_volume 626.460405
_symmetry_space_group_name_H-M "P 21"
_symmetry_group_IT_number 4
_symmetry_cell_setting 'monoclinic'
loop_
_space_group_symop_operation_xyz
x,y,z
-x,1/2+y,-z
loop_
_atom_site_type_symbol
_atom_site_label
_atom_site_fract_x
_atom_site_fract_y
_atom_site_fract_z
Si Si1 0.685737 0.654970 0.874182
Si Si2 0.953735 0.421603 0.270042
Si Si3 0.804922 0.170281 0.235413
Si Si4 0.323229 0.876964 0.696182
Si Si5 0.617983 0.739780 0.102961
Si Si6 0.785589 0.951184 0.634899
Si Si7 0.378421 0.504009 0.343341
Si Si8 0.054634 0.774846 0.083160
O O1 0.551760 0.527123 0.636565
O O2 0.654125 0.809198 0.710413
O O3 0.828207 0.559968 0.053900
O O4 0.700656 0.732081 0.074182
O O5 0.923684 0.300709 0.367474
O O6 0.110021 0.511592 0.552935
O O7 0.958818 0.300294 0.127444
O O8 0.705041 0.265376 0.196121
O O9 0.694724 0.110146 0.915983
O O10 0.175432 0.901835 0.350589
O O11 0.378742 0.059343 0.819467
O O12 0.447800 0.787896 0.799084
O O13 0.691136 0.879835 0.334549
O O14 0.687299 0.051440 0.596178
O O15 0.901459 0.094448 0.774847
O O16 0.893318 0.810635 0.887023
#
# Coordination Sequence:
#
# PCOD8048021 Si02
#       8
#     2   2   2   2   2   2   2   2
#     4  12  29  49  79 117 157 208 261 328 393 475
#     4  12  28  50  79 117 157 211 261 328 394 469
#     4  12  28  51  80 118 159 209 262 327 399 471
#     4  12  28  49  79 112 159 208 262 326 392 477
#     4  12  29  50  79 114 160 206 267 325 397 469
#     4  12  29  51  79 115 155 211 258 329 393 471
#     4  12  29  50  82 116 160 205 266 324 400 471
#     4  12  28  50  79 111 161 204 269 321 394 471
#
# _framework density 25.540320999999999
#
# number of rings (size 3 to 8) (size 9 to 14) (size 15 to 20)
#    0.000    0.000    2.500    5.250   17.500    0.000 
#    0.000    0.000    0.000    0.000    0.000    0.000 
#    0.000    0.000    0.000    0.000    0.000    0.000 
#
# Total GULP energy -198413.319857 kJ/mol
# GULP energy per Si atom -12400.832491 kJ/mol
# Density = 2.548219 g / cm^3
# Si number density = 25.540321 Si / 1000 Ang^3
#
#
#
# Elastic Constant Matrix: (Units=GPa)
#
#
# Indices 1 2 3 4 5 6 
#
# 1 46.1501 12.7300 12.9347 0.0000 -0.7917 0.0000
# 2 12.7300 105.3623 14.2083 0.0000 -8.2946 0.0000
# 3 12.9347 14.2083 113.6299 0.0000 -10.4215 0.0000
# 4 0.0000 0.0000 0.0000 49.2606 0.0000 -5.4060
# 5 -0.7917 -8.2946 -10.4215 0.0000 34.1009 0.0000
# 6 0.0000 0.0000 0.0000 -5.4060 0.0000 44.0883
#
#
#
# Elastic Compliance Matrix: (Units=1/GPa)
#
#
# Indices 1 2 3 4 5 6 
#
# 1 0.023017 -0.002524 -0.002378 0.000000 -0.000806 0.000000
# 2 -0.002524 0.010070 -0.000774 0.000000 0.002154 0.000000
# 3 -0.002378 -0.000774 0.009409 0.000000 0.002632 0.000000
# 4 0.000000 0.000000 0.000000 0.020577 0.000000 0.002523
# 5 -0.000806 0.002154 0.002632 0.000000 0.030634 0.000000
# 6 0.000000 0.000000 0.000000 0.002523 0.000000 0.022991
#
#
# Mechanical properties :
#
#
# Convention : Reuss Voigt Hill
#
# Bulk Modulus (GPa) = 32.10913 38.32091 35.21502
# Shear Modulus (GPa) = 36.11836 40.50789 38.31313
#
# Velocity S-wave (km/s) = 3.76463 3.98683 3.87732
# Velocity P-wave (km/s) = 5.61211 6.01911 5.81917
#
# Compressibility (1/GPa) = 0.03114379
#
# Stress axis : x y z
#
# Youngs Moduli (GPa) = 43.44546 99.30509 106.27591
#
# Poissons Ratio (x) = 0.25062 0.25278
# Poissons Ratio (y) = 0.10964 0.08229
# Poissons Ratio (z) = 0.10333 0.07689
#
# Static dielectric constant tensor:
#      x y z
#    x 4.671280 0.000000 0.144190 
#    y 0.000000 4.721050 0.000000 
#    z 0.144190 0.000000 4.853240 
# 
# 
# High freq. dielectric constant tensor:
#      x y z
#    x 2.024900 0.000000 0.007830 
#    y 0.000000 2.038420 0.000000 
#    z 0.007830 0.000000 2.030680 
# 
# From -- ./inp_files/9679.got.cif
#   From: 2010.03.12/outbox.cif.g09.slc.cpg/sg4_5_cif.got.tgz:9679.got - 2010.03.31 09:31:35.
