data_PCOD8048818
_publ_section_title
;
Structure prediction by ZEFSAII (Michael W. Deem and Ramdas Pophale) SiO2 
 PCOD8048818
Probable space group: C 2
;
_chemical_formula_sum "Si O2"
_cell_formula_units_Z 22
_cell_length_a 7.754587
_cell_length_b 15.404885
_cell_length_c 8.569284
_cell_angle_alpha 90.000000
_cell_angle_beta 77.400502
_cell_angle_gamma 90.000000
_cell_volume 999.022564
_symmetry_space_group_name_H-M "C 2"
_symmetry_group_IT_number 5
_symmetry_cell_setting 'monoclinic'
loop_
_space_group_symop_operation_xyz
x,y,z
-x,y,-z
1/2+x,1/2+y,z
1/2-x,1/2+y,-z
loop_
_atom_site_type_symbol
_atom_site_label
_atom_site_fract_x
_atom_site_fract_y
_atom_site_fract_z
Si Si1 0.209115 0.125000 0.974798
Si Si2 0.195954 0.934404 0.028941
Si Si3 0.765155 0.282639 0.803569
Si Si4 0.178536 0.658549 0.388257
Si Si5 0.000000 0.202735 0.500000
Si Si6 0.564974 0.340750 0.333412
O O1 0.299853 0.123250 0.788746
O O2 0.278305 0.202015 0.071994
O O3 0.000000 0.135701 0.000000
O O4 0.270977 0.031590 0.028571
O O5 0.193055 0.899897 0.206108
O O6 0.310786 0.868804 0.897608
O O7 0.000000 0.939122 0.000000
O O8 0.589600 0.299045 0.739874
O O9 0.927680 0.262143 0.656756
O O10 0.347726 0.638197 0.464588
O O11 0.176838 0.762784 0.385385
O O12 0.000000 0.619185 0.500000
O O13 0.500000 0.394494 0.500000
#
# Coordination Sequence:
#
# PCOD8048818 Si02
#       6
#     4   4   4   4   2   4
#     4  11  22  40  67  96 131 173 219 270 324 392
#     4   9  21  39  63  95 126 171 218 264 324 394
#     4  11  21  38  66  91 127 170 220 264 320 393
#     4  11  22  39  69  96 129 171 218 270 332 382
#     4  12  22  38  68  98 124 178 220 266 330 388
#     4  10  19  38  68  91 122 170 214 266 327 382
#
# _framework density 22.021523999999999
#
# number of rings (size 3 to 8) (size 9 to 14) (size 15 to 20)
#    0.000    1.455    7.273    0.000    0.000    0.000 
#    3.273    0.000   12.000    0.000    0.000    0.000 
#    0.000    0.000    0.000    0.000    0.000    0.000 
#
# Total GULP energy -136342.597673 kJ/mol
# GULP energy per Si atom -12394.781607 kJ/mol
# Density = 2.197140 g / cm^3
# Si number density = 22.021524 Si / 1000 Ang^3
#
#
#
# Elastic Constant Matrix: (Units=GPa)
#
#
# Indices 1 2 3 4 5 6 
#
# 1 88.0202 18.4397 48.3995 0.0000 -6.1048 0.0000
# 2 18.4397 108.4587 50.4595 0.0000 0.7432 0.0000
# 3 48.3995 50.4595 184.5978 0.0000 -17.1418 0.0000
# 4 0.0000 0.0000 0.0000 25.1132 0.0000 0.2212
# 5 -6.1048 0.7432 -17.1418 0.0000 38.3035 0.0000
# 6 0.0000 0.0000 0.0000 0.2212 0.0000 9.5309
#
#
#
# Elastic Compliance Matrix: (Units=1/GPa)
#
#
# Indices 1 2 3 4 5 6 
#
# 1 0.013343 -0.000774 -0.003222 0.000000 0.000700 0.000000
# 2 -0.000774 0.010699 -0.002872 0.000000 -0.001616 0.000000
# 3 -0.003222 -0.002872 0.007308 0.000000 0.002813 0.000000
# 4 0.000000 0.000000 0.000000 0.039828 0.000000 -0.000924
# 5 0.000700 -0.001616 0.002813 0.000000 0.027509 0.000000
# 6 0.000000 0.000000 0.000000 -0.000924 0.000000 0.104943
#
#
# Mechanical properties :
#
#
# Convention : Reuss Voigt Hill
#
# Bulk Modulus (GPa) = 56.77101 68.40826 62.58964
# Shear Modulus (GPa) = 22.39769 32.17472 27.28620
#
# Velocity S-wave (km/s) = 3.19263 3.82653 3.52386
# Velocity P-wave (km/s) = 6.27903 7.11722 6.71122
#
# Compressibility (1/GPa) = 0.01761462
#
# Stress axis : x y z
#
# Youngs Moduli (GPa) = 74.94356 93.46853 136.83606
#
# Poissons Ratio (x) = 0.07239 0.44086
# Poissons Ratio (y) = 0.05804 0.39293
# Poissons Ratio (z) = 0.24145 0.26840
#
# Static dielectric constant tensor:
#      x y z
#    x 3.816350 0.000000 -0.212270 
#    y 0.000000 3.934020 0.000000 
#    z -0.212270 0.000000 4.687640 
# 
# 
# High freq. dielectric constant tensor:
#      x y z
#    x 1.850670 0.000000 -0.003960 
#    y 0.000000 1.833150 0.000000 
#    z -0.003960 0.000000 1.894150 
# 
# From -- ./inp_files/14875.got.cif
#   From: 2010.03.12/outbox.cif.g09.slc.cpg/sg5_8_cif.got.tgz:14875.got - 2010.03.31 09:47:26.
