data_PCOD8048970
_publ_section_title
;
Structure prediction by ZEFSAII (Michael W. Deem and Ramdas Pophale) SiO2 
 PCOD8048970
Probable space group: C 2
;
_chemical_formula_sum "Si O2"
_cell_formula_units_Z 26
_cell_length_a 6.407769
_cell_length_b 14.186583
_cell_length_c 14.067951
_cell_angle_alpha 90.000000
_cell_angle_beta 68.121194
_cell_angle_gamma 90.000000
_cell_volume 1186.728523
_symmetry_space_group_name_H-M "C 2"
_symmetry_group_IT_number 5
_symmetry_cell_setting 'monoclinic'
loop_
_space_group_symop_operation_xyz
x,y,z
-x,y,-z
1/2+x,1/2+y,z
1/2-x,1/2+y,-z
loop_
_atom_site_type_symbol
_atom_site_label
_atom_site_fract_x
_atom_site_fract_y
_atom_site_fract_z
Si Si1 0.957247 0.505340 0.201156
Si Si2 0.000000 0.817435 0.000000
Si Si3 0.502584 0.260285 0.699366
Si Si4 0.758124 0.186506 0.820338
Si Si5 0.822846 0.340848 0.097336
Si Si6 0.725352 0.591296 0.713047
Si Si7 0.489448 0.458758 0.612754
O O1 0.916664 0.600494 0.149745
O O2 0.968859 0.423005 0.121745
O O3 0.757065 0.483345 0.308594
O O4 0.188958 0.517770 0.220356
O O5 0.120437 0.879051 0.062196
O O6 0.804274 0.753466 0.081507
O O7 0.726385 0.240735 0.723800
O O8 0.289291 0.275103 0.805558
O O9 0.425095 0.166577 0.654167
O O10 0.548831 0.349513 0.624484
O O11 0.009734 0.148381 0.787272
O O12 0.000000 0.285266 0.000000
O O13 0.669563 0.528501 0.630556
O O14 0.500000 0.476650 0.500000
#
# Coordination Sequence:
#
# PCOD8048970 Si02
#       7
#     4   2   4   4   4   4   4
#     4   9  21  38  58  87 124 158 204 247 308 372
#     4  10  20  34  58  88 122 162 208 254 292 368
#     4   9  20  39  58  87 123 160 202 252 310 375
#     4   9  19  36  60  86 120 161 204 247 305 363
#     4  10  20  33  57  86 123 160 206 250 302 366
#     4  10  20  40  63  84 125 167 194 263 312 362
#     4  10  22  41  62  92 120 156 210 256 313 377
#
# _framework density 21.908968000000002
#
# number of rings (size 3 to 8) (size 9 to 14) (size 15 to 20)
#    0.000    2.462    0.000    0.923    1.077    8.000 
#    8.308    0.000    1.692    0.000    0.000    0.000 
#    0.000    0.000    0.000    0.000    0.000    0.000 
#
# Total GULP energy -161073.485340 kJ/mol
# GULP energy per Si atom -12390.268103 kJ/mol
# Density = 2.185910 g / cm^3
# Si number density = 21.908968 Si / 1000 Ang^3
#
#
#
# Elastic Constant Matrix: (Units=GPa)
#
#
# Indices 1 2 3 4 5 6 
#
# 1 122.2301 50.7380 41.4769 0.0000 41.9772 0.0000
# 2 50.7380 99.1890 35.2605 0.0000 23.6447 0.0000
# 3 41.4769 35.2605 85.8883 0.0000 23.1900 0.0000
# 4 0.0000 0.0000 0.0000 19.4058 0.0000 9.8183
# 5 41.9772 23.6447 23.1900 0.0000 32.6222 0.0000
# 6 0.0000 0.0000 0.0000 9.8183 0.0000 44.6140
#
#
#
# Elastic Compliance Matrix: (Units=1/GPa)
#
#
# Indices 1 2 3 4 5 6 
#
# 1 0.016020 -0.003576 -0.001735 0.000000 -0.016789 0.000000
# 2 -0.003576 0.013761 -0.003059 0.000000 -0.003198 0.000000
# 3 -0.001735 -0.003059 0.015513 0.000000 -0.006577 0.000000
# 4 0.000000 0.000000 0.000000 0.057987 0.000000 -0.012761
# 5 -0.016789 -0.003198 -0.006577 0.000000 0.059251 0.000000
# 6 0.000000 0.000000 0.000000 -0.012761 0.000000 0.025223
#
#
# Mechanical properties :
#
#
# Convention : Reuss Voigt Hill
#
# Bulk Modulus (GPa) = 35.02211 62.47313 48.74762
# Shear Modulus (GPa) = 23.36305 31.31721 27.34013
#
# Velocity S-wave (km/s) = 3.26907 3.78487 3.53639
# Velocity P-wave (km/s) = 5.50174 6.90486 6.24285
#
# Compressibility (1/GPa) = 0.02855339
#
# Stress axis : x y z
#
# Youngs Moduli (GPa) = 62.42097 72.67098 64.46285
#
# Poissons Ratio (x) = 0.25985 0.11187
# Poissons Ratio (y) = 0.22320 0.19719
# Poissons Ratio (z) = 0.10833 0.22230
#
# Static dielectric constant tensor:
#      x y z
#    x 4.152410 0.000000 0.300770 
#    y 0.000000 4.041150 0.000000 
#    z 0.300770 0.000000 3.593590 
# 
# 
# High freq. dielectric constant tensor:
#      x y z
#    x 1.876220 0.000000 0.024170 
#    y 0.000000 1.857680 0.000000 
#    z 0.024170 0.000000 1.829160 
# 
# From -- ./inp_files/48914.got.cif
#   From: 2010.03.12/outbox.cif.g09.slc.cpg/sg5_25_cif.got.tgz:48914.got - 2010.03.31 09:47:26.
