data_PCOD8048862
_publ_section_title
;
Structure prediction by ZEFSAII (Michael W. Deem and Ramdas Pophale) SiO2 
 PCOD8048862
Probable space group: C 2
;
_chemical_formula_sum "Si O2"
_cell_formula_units_Z 28
_cell_length_a 13.143035
_cell_length_b 19.191760
_cell_length_c 8.259143
_cell_angle_alpha 90.000000
_cell_angle_beta 41.362706
_cell_angle_gamma 90.000000
_cell_volume 1376.673387
_symmetry_space_group_name_H-M "C 2"
_symmetry_group_IT_number 5
_symmetry_cell_setting 'monoclinic'
loop_
_space_group_symop_operation_xyz
x,y,z
-x,y,-z
1/2+x,1/2+y,z
1/2-x,1/2+y,-z
loop_
_atom_site_type_symbol
_atom_site_label
_atom_site_fract_x
_atom_site_fract_y
_atom_site_fract_z
Si Si1 0.297010 0.330010 0.987805
Si Si2 0.177771 0.941627 0.292144
Si Si3 0.000000 0.370161 0.500000
Si Si4 0.670740 0.602469 0.254719
Si Si5 0.096326 0.681335 0.225576
Si Si6 0.000000 0.900489 0.000000
Si Si7 0.299156 0.958476 0.501226
Si Si8 0.611823 0.097817 0.737061
O O1 0.242468 0.389021 0.927145
O O2 0.348932 0.260717 0.833015
O O3 0.141079 0.319710 0.279021
O O4 0.443768 0.352052 0.920174
O O5 0.265236 0.932707 0.358543
O O6 0.000000 0.918292 0.500000
O O7 0.188249 0.019738 0.211700
O O8 0.063239 0.417415 0.573805
O O9 0.500000 0.626798 0.500000
O O10 0.746803 0.628437 0.331134
O O11 0.749077 0.635908 0.999818
O O12 0.000000 0.660549 0.500000
O O13 0.973918 0.665243 0.231220
O O14 0.860073 0.950972 0.212856
O O15 0.340895 0.040569 0.452955
O O16 0.500000 0.058576 0.000000
#
# Coordination Sequence:
#
# PCOD8048862 Si02
#       8
#     4   4   2   4   4   2   4   4
#     4  11  24  41  63  92 129 171 219 267 328 383
#     4  10  19  39  69  95 121 169 219 261 318 389
#     4  10  26  38  62  98 128 172 208 286 314 380
#     4   9  21  41  69  91 125 170 216 267 322 389
#     4  11  25  41  63  93 126 174 215 267 322 389
#     4  10  22  38  62  92 126 172 204 276 310 392
#     4  10  21  39  64  98 129 163 216 264 331 369
#     4   9  21  40  63  93 125 173 205 255 331 390
#
# _framework density 20.338882999999999
#
# number of rings (size 3 to 8) (size 9 to 14) (size 15 to 20)
#    0.000    2.000    1.429    0.429   11.000    1.143 
#    0.000    0.000    3.143    0.000    0.000    0.000 
#    0.000    0.000    0.000    0.000    0.000    0.000 
#
# Total GULP energy -173458.248969 kJ/mol
# GULP energy per Si atom -12389.874926 kJ/mol
# Density = 2.029259 g / cm^3
# Si number density = 20.338883 Si / 1000 Ang^3
#
#
#
# Elastic Constant Matrix: (Units=GPa)
#
#
# Indices 1 2 3 4 5 6 
#
# 1 116.4274 29.4263 38.0357 0.0000 -7.8761 0.0000
# 2 29.4263 79.0719 51.0304 0.0000 2.2601 0.0000
# 3 38.0357 51.0304 130.6692 0.0000 -11.0031 0.0000
# 4 0.0000 0.0000 0.0000 31.0086 0.0000 2.0569
# 5 -7.8761 2.2601 -11.0031 0.0000 36.1830 0.0000
# 6 0.0000 0.0000 0.0000 2.0569 0.0000 22.5893
#
#
#
# Elastic Compliance Matrix: (Units=1/GPa)
#
#
# Indices 1 2 3 4 5 6 
#
# 1 0.009938 -0.002649 -0.001706 0.000000 0.001810 0.000000
# 2 -0.002649 0.017970 -0.006558 0.000000 -0.003693 0.000000
# 3 -0.001706 -0.006558 0.010995 0.000000 0.003382 0.000000
# 4 0.000000 0.000000 0.000000 0.032445 0.000000 -0.002954
# 5 0.001810 -0.003693 0.003382 0.000000 0.029290 0.000000
# 6 0.000000 0.000000 0.000000 -0.002954 0.000000 0.044538
#
#
# Mechanical properties :
#
#
# Convention : Reuss Voigt Hill
#
# Bulk Modulus (GPa) = 58.55477 62.57259 60.56368
# Shear Modulus (GPa) = 28.95259 31.80125 30.37692
#
# Velocity S-wave (km/s) = 3.77704 3.95849 3.86883
# Velocity P-wave (km/s) = 6.91906 7.19198 7.05684
#
# Compressibility (1/GPa) = 0.01707803
#
# Stress axis : x y z
#
# Youngs Moduli (GPa) = 100.62001 55.64685 90.94823
#
# Poissons Ratio (x) = 0.14743 0.15514
# Poissons Ratio (y) = 0.26658 0.59642
# Poissons Ratio (z) = 0.17164 0.36492
#
# Static dielectric constant tensor:
#      x y z
#    x 3.955500 0.000000 -0.127140 
#    y 0.000000 3.360370 0.000000 
#    z -0.127140 0.000000 3.864500 
# 
# 
# High freq. dielectric constant tensor:
#      x y z
#    x 1.797860 0.000000 -0.010980 
#    y 0.000000 1.769560 0.000000 
#    z -0.010980 0.000000 1.805180 
# 
# From -- ./inp_files/25197.got.cif
#   From: 2010.03.12/outbox.cif.g09.slc.cpg/sg5_13_cif.got.tgz:25197.got - 2010.03.31 09:47:26.
