data_PCOD8048814
_publ_section_title
;
Structure prediction by ZEFSAII (Michael W. Deem and Ramdas Pophale) SiO2 
 PCOD8048814
Probable space group: C 2
;
_chemical_formula_sum "Si O2"
_cell_formula_units_Z 32
_cell_length_a 20.802651
_cell_length_b 8.853811
_cell_length_c 25.315022
_cell_angle_alpha 90.000000
_cell_angle_beta 160.373005
_cell_angle_gamma 90.000000
_cell_volume 1566.142501
_symmetry_space_group_name_H-M "C 2"
_symmetry_group_IT_number 5
_symmetry_cell_setting 'monoclinic'
loop_
_space_group_symop_operation_xyz
x,y,z
-x,y,-z
1/2+x,1/2+y,z
1/2-x,1/2+y,-z
loop_
_atom_site_type_symbol
_atom_site_label
_atom_site_fract_x
_atom_site_fract_y
_atom_site_fract_z
Si Si1 0.386775 0.796010 0.863104
Si Si2 0.678849 0.827779 0.840457
Si Si3 0.260732 0.313287 0.687829
Si Si4 0.430632 0.899268 0.361001
Si Si5 0.044451 0.318215 0.232561
Si Si6 0.024317 0.725872 0.457555
Si Si7 0.532273 0.560826 0.895028
Si Si8 0.531586 0.058663 0.909354
O O1 0.399681 0.667309 0.828894
O O2 0.161408 0.827919 0.701719
O O3 0.499725 0.946941 0.933854
O O4 0.500000 0.728465 0.000000
O O5 0.614316 0.822855 0.729782
O O6 0.491115 0.831533 0.732315
O O7 0.799934 0.676986 0.947359
O O8 0.789192 0.986138 0.936364
O O9 0.248365 0.388488 0.737416
O O10 0.410659 0.424614 0.775372
O O11 0.332726 0.144398 0.748353
O O12 0.079427 0.298833 0.509622
O O13 0.508398 0.068971 0.412845
O O14 0.274042 0.307430 0.399380
O O15 0.944909 0.461281 0.126219
O O16 0.921362 0.171340 0.118241
O O17 0.000000 0.684908 0.500000
#
# Coordination Sequence:
#
# PCOD8048814 Si02
#       8
#     4   4   4   4   4   4   4   4
#     4  11  22  37  63  98 123 154 207 275 322 361
#     4  11  25  39  63  96 129 173 208 255 315 385
#     4  10  20  37  63  90 121 162 207 260 320 365
#     4  11  20  38  63  93 123 161 215 261 310 376
#     4  11  22  44  65  91 129 172 214 253 313 391
#     4  12  19  41  71  92 116 165 218 264 311 376
#     4  10  19  38  67  86 122 167 211 257 303 384
#     4  10  24  40  60  93 128 167 203 262 327 366
#
# _framework density 20.432368
#
# number of rings (size 3 to 8) (size 9 to 14) (size 15 to 20)
#    0.000    1.250    6.250    1.500    1.750    3.000 
#    2.250    0.000    2.750    0.000    0.000    0.000 
#    0.000    0.000    0.000    0.000    0.000    0.000 
#
# Total GULP energy -198227.765728 kJ/mol
# GULP energy per Si atom -12389.235358 kJ/mol
# Density = 2.038586 g / cm^3
# Si number density = 20.432368 Si / 1000 Ang^3
#
#
#
# Elastic Constant Matrix: (Units=GPa)
#
#
# Indices 1 2 3 4 5 6 
#
# 1 112.8194 31.7532 60.6398 -0.0130 -11.6647 0.0005
# 2 31.7532 82.6104 30.0175 0.0374 1.1737 -0.0070
# 3 60.6398 30.0175 94.8086 0.0702 -4.0824 -0.0197
# 4 -0.0130 0.0374 0.0702 31.0208 -0.0111 -2.9638
# 5 -11.6647 1.1737 -4.0824 -0.0111 30.1275 0.0021
# 6 0.0005 -0.0070 -0.0197 -2.9638 0.0021 15.4676
#
#
#
# Elastic Compliance Matrix: (Units=1/GPa)
#
#
# Indices 1 2 3 4 5 6 
#
# 1 0.014520 -0.002649 -0.008250 0.000029 0.004607 -0.000007
# 2 -0.002649 0.014200 -0.002887 -0.000012 -0.001970 0.000001
# 3 -0.008250 -0.002887 0.016703 -0.000037 -0.000818 0.000013
# 4 0.000029 -0.000012 -0.000037 0.032838 0.000018 0.006292
# 5 0.004607 -0.001970 -0.000818 0.000018 0.034942 -0.000003
# 6 -0.000007 0.000001 0.000013 0.006292 -0.000003 0.065857
#
#
# Mechanical properties :
#
#
# Convention : Reuss Voigt Hill
#
# Bulk Modulus (GPa) = 56.01524 59.45103 57.73314
# Shear Modulus (GPa) = 23.52049 26.51169 25.01609
#
# Velocity S-wave (km/s) = 3.39652 3.60604 3.50285
# Velocity P-wave (km/s) = 6.54647 6.81892 6.68408
#
# Compressibility (1/GPa) = 0.01785228
#
# Stress axis : x y z
#
# Youngs Moduli (GPa) = 68.87111 70.42257 59.86966
#
# Poissons Ratio (x) = 0.18654 0.49392
# Poissons Ratio (y) = 0.18243 0.17282
# Poissons Ratio (z) = 0.56818 0.20328
#
# Static dielectric constant tensor:
#      x y z
#    x 3.553870 -0.000010 0.008020 
#    y -0.000010 3.717620 -0.000030 
#    z 0.008020 -0.000030 3.668770 
# 
# 
# High freq. dielectric constant tensor:
#      x y z
#    x 1.778120 0.000000 -0.000800 
#    y 0.000000 1.801820 0.000000 
#    z -0.000800 0.000000 1.793890 
# 
# From -- ./inp_files/71108.got.cif
#   From: 2010.03.12/outbox.cif.g09.slc.cpg/sg5_36_cif.got.tgz:71108.got - 2010.03.31 09:47:26.
