data_PCOD8048227
_publ_section_title
;
Structure prediction by ZEFSAII (Michael W. Deem and Ramdas Pophale) SiO2 
 PCOD8048227
Probable space group: C 2
;
_chemical_formula_sum "Si O2"
_cell_formula_units_Z 28
_cell_length_a 20.824965
_cell_length_b 13.191305
_cell_length_c 9.381281
_cell_angle_alpha 90.000000
_cell_angle_beta 143.911013
_cell_angle_gamma 90.000000
_cell_volume 1518.027857
_symmetry_space_group_name_H-M "C 2"
_symmetry_group_IT_number 5
_symmetry_cell_setting 'monoclinic'
loop_
_space_group_symop_operation_xyz
x,y,z
-x,y,-z
1/2+x,1/2+y,z
1/2-x,1/2+y,-z
loop_
_atom_site_type_symbol
_atom_site_label
_atom_site_fract_x
_atom_site_fract_y
_atom_site_fract_z
Si Si1 0.593340 0.789980 0.061540
Si Si2 0.499182 0.277187 0.827521
Si Si3 0.781078 0.122209 0.545749
Si Si4 0.199898 0.909421 0.505204
Si Si5 0.943943 0.559285 0.748279
Si Si6 0.270787 0.309156 0.733882
Si Si7 0.958879 0.364496 0.584561
O O1 0.635869 0.681332 0.198616
O O2 0.689272 0.873709 0.217119
O O3 0.500000 0.832300 0.000000
O O4 0.533749 0.780249 0.800759
O O5 0.399372 0.348221 0.599645
O O6 0.485853 0.162625 0.749710
O O7 0.500000 0.278853 0.000000
O O8 0.615318 0.317295 0.974186
O O9 0.685172 0.073268 0.466228
O O10 0.733253 0.198136 0.343459
O O11 0.832064 0.028725 0.545947
O O12 0.223815 0.889782 0.382472
O O13 0.971636 0.470012 0.689549
O O14 0.000000 0.537071 0.000000
O O15 0.166890 0.328619 0.647113
O O16 0.000000 0.378195 0.500000
#
# Coordination Sequence:
#
# PCOD8048227 Si02
#       7
#     4   4   4   4   4   4   4
#     4  11  20  35  58  88 115 151 196 242 286 336
#     4   9  17  32  55  89 117 138 175 245 300 332
#     4  11  18  30  58  90 115 141 191 248 292 335
#     4  10  18  32  57  92 116 135 185 250 301 325
#     4  11  18  35  64  90 112 144 195 243 287 340
#     4  10  19  35  53  83 119 150 181 233 293 343
#     4  12  25  40  55  81 123 163 192 233 286 348
#
# _framework density 18.444984999999999
#
# number of rings (size 3 to 8) (size 9 to 14) (size 15 to 20)
#    0.000    1.429   10.000    1.286    0.000    1.714 
#    0.000    1.429    0.000    0.000    0.000    0.000 
#    0.000    0.000    0.000    0.000    0.000    0.000 
#
# Total GULP energy -173465.585723 kJ/mol
# GULP energy per Si atom -12390.398980 kJ/mol
# Density = 1.840300 g / cm^3
# Si number density = 18.444985 Si / 1000 Ang^3
#
#
#
# Elastic Constant Matrix: (Units=GPa)
#
#
# Indices 1 2 3 4 5 6 
#
# 1 89.3257 28.1590 59.1265 0.0000 13.9566 0.0000
# 2 28.1590 100.2207 42.9272 0.0000 10.0463 0.0000
# 3 59.1265 42.9272 112.1238 0.0000 32.3909 0.0000
# 4 0.0000 0.0000 0.0000 15.6902 0.0000 3.4401
# 5 13.9566 10.0463 32.3909 0.0000 30.9232 0.0000
# 6 0.0000 0.0000 0.0000 3.4401 0.0000 10.5885
#
#
#
# Elastic Compliance Matrix: (Units=1/GPa)
#
#
# Indices 1 2 3 4 5 6 
#
# 1 0.017430 -0.001081 -0.009473 0.000000 0.002407 0.000000
# 2 -0.001081 0.012039 -0.004374 0.000000 0.001158 0.000000
# 3 -0.009473 -0.004374 0.019993 0.000000 -0.015245 0.000000
# 4 0.000000 0.000000 0.000000 0.068623 0.000000 -0.022295
# 5 0.002407 0.001158 -0.015245 0.000000 0.046844 0.000000
# 6 0.000000 0.000000 0.000000 -0.022295 0.000000 0.101686
#
#
# Mechanical properties :
#
#
# Convention : Reuss Voigt Hill
#
# Bulk Modulus (GPa) = 51.00336 62.45506 56.72921
# Shear Modulus (GPa) = 16.50138 22.87087 19.68613
#
# Velocity S-wave (km/s) = 2.99428 3.52511 3.27048
# Velocity P-wave (km/s) = 6.29809 7.10649 6.71447
#
# Compressibility (1/GPa) = 0.01960655
#
# Stress axis : x y z
#
# Youngs Moduli (GPa) = 57.37238 83.06337 50.01838
#
# Poissons Ratio (x) = 0.08980 0.47382
# Poissons Ratio (y) = 0.06203 0.21876
# Poissons Ratio (z) = 0.54348 0.36329
#
# Static dielectric constant tensor:
#      x y z
#    x 2.969860 0.000000 0.476890 
#    y 0.000000 3.641660 0.000000 
#    z 0.476890 0.000000 3.711080 
# 
# 
# High freq. dielectric constant tensor:
#      x y z
#    x 1.654820 0.000000 0.047800 
#    y 0.000000 1.725460 0.000000 
#    z 0.047800 0.000000 1.713920 
# 
# From -- ./inp_files/27720.got.cif
#   From: 2010.03.12/outbox.cif.g09.slc.cpg/sg5_14_cif.got.tgz:27720.got - 2010.03.31 09:47:26.
