data_PCOD8048123
_publ_section_title
;
Structure prediction by ZEFSAII (Michael W. Deem and Ramdas Pophale) SiO2 
 PCOD8048123
Probable space group: C 2
;
_chemical_formula_sum "Si O2"
_cell_formula_units_Z 28
_cell_length_a 15.380866
_cell_length_b 12.859936
_cell_length_c 8.889388
_cell_angle_alpha 90.000000
_cell_angle_beta 58.498254
_cell_angle_gamma 90.000000
_cell_volume 1499.163965
_symmetry_space_group_name_H-M "C 2"
_symmetry_group_IT_number 5
_symmetry_cell_setting 'monoclinic'
loop_
_space_group_symop_operation_xyz
x,y,z
-x,y,-z
1/2+x,1/2+y,z
1/2-x,1/2+y,-z
loop_
_atom_site_type_symbol
_atom_site_label
_atom_site_fract_x
_atom_site_fract_y
_atom_site_fract_z
Si Si1 0.879701 0.505060 0.587561
Si Si2 0.483635 0.755073 0.681701
Si Si3 0.333258 0.130442 0.353481
Si Si4 0.197300 0.315706 0.535603
Si Si5 0.500000 0.555152 0.500000
Si Si6 0.789971 0.948134 0.686759
Si Si7 0.350744 0.933653 0.926281
Si Si8 0.500000 0.062768 0.000000
O O1 0.855156 0.608385 0.511330
O O2 0.823524 0.411640 0.553594
O O3 0.832253 0.507369 0.797818
O O4 0.000000 0.490170 0.500000
O O5 0.500000 0.805217 0.500000
O O6 0.587387 0.769120 0.684595
O O7 0.467799 0.630071 0.671179
O O8 0.390130 0.817218 0.843314
O O9 0.263464 0.230270 0.387521
O O10 0.438654 0.140186 0.166103
O O11 0.277914 0.035544 0.325814
O O12 0.263955 0.342742 0.621382
O O13 0.407152 0.477276 0.556473
O O14 0.757655 0.927706 0.889473
O O15 0.433958 0.985535 0.957968
#
# Coordination Sequence:
#
# PCOD8048123 Si02
#       8
#     4   4   4   4   2   4   4   2
#     4  11  18  35  61  83 117 150 198 243 295 350
#     4  10  17  32  66  84 110 153 204 228 283 366
#     4  10  20  36  56  90 114 160 190 249 301 356
#     4  11  19  37  58  86 113 161 195 238 303 368
#     4  10  20  42  56  86 118 168 182 244 310 370
#     4  10  23  36  61  83 125 151 199 251 307 347
#     4  11  18  35  59  94 109 154 202 259 280 350
#     4  10  20  32  58  88 130 138 202 260 300 338
#
# _framework density 18.677077000000001
#
# number of rings (size 3 to 8) (size 9 to 14) (size 15 to 20)
#    0.429    1.143    5.714    1.714    0.000    0.000 
#    3.857    1.429    0.000    2.571    0.000    0.000 
#    0.000    0.000    0.000    0.000    0.000    0.000 
#
# Total GULP energy -173436.312775 kJ/mol
# GULP energy per Si atom -12388.308055 kJ/mol
# Density = 1.863457 g / cm^3
# Si number density = 18.677077 Si / 1000 Ang^3
#
#
#
# Elastic Constant Matrix: (Units=GPa)
#
#
# Indices 1 2 3 4 5 6 
#
# 1 71.3769 25.2789 32.6981 0.0000 4.3655 0.0000
# 2 25.2789 52.8804 21.1102 0.0000 -5.4703 0.0000
# 3 32.6981 21.1102 99.3145 0.0000 5.1463 0.0000
# 4 0.0000 0.0000 0.0000 20.3405 0.0000 -8.1427
# 5 4.3655 -5.4703 5.1463 0.0000 28.0228 0.0000
# 6 0.0000 0.0000 0.0000 -8.1427 0.0000 25.0671
#
#
#
# Elastic Compliance Matrix: (Units=1/GPa)
#
#
# Indices 1 2 3 4 5 6 
#
# 1 0.018983 -0.007684 -0.004428 0.000000 -0.003644 0.000000
# 2 -0.007684 0.024459 -0.003007 0.000000 0.006524 0.000000
# 3 -0.004428 -0.003007 0.012278 0.000000 -0.002152 0.000000
# 4 0.000000 0.000000 0.000000 0.056512 0.000000 0.018357
# 5 -0.003644 0.006524 -0.002152 0.000000 0.037922 0.000000
# 6 0.000000 0.000000 0.000000 0.018357 0.000000 0.045856
#
#
# Mechanical properties :
#
#
# Convention : Reuss Voigt Hill
#
# Bulk Modulus (GPa) = 39.24382 42.41625 40.83003
# Shear Modulus (GPa) = 21.30013 24.31838 22.80926
#
# Velocity S-wave (km/s) = 3.38071 3.61230 3.49842
# Velocity P-wave (km/s) = 6.02464 6.33703 6.18281
#
# Compressibility (1/GPa) = 0.02548172
#
# Stress axis : x y z
#
# Youngs Moduli (GPa) = 52.67957 40.88439 81.44958
#
# Poissons Ratio (x) = 0.31415 0.36064
# Poissons Ratio (y) = 0.40478 0.24494
# Poissons Ratio (z) = 0.23325 0.12295
#
# Static dielectric constant tensor:
#      x y z
#    x 3.714180 0.000000 0.068590 
#    y 0.000000 3.423830 0.000000 
#    z 0.068590 0.000000 3.670590 
# 
# 
# High freq. dielectric constant tensor:
#      x y z
#    x 1.723250 0.000000 0.005820 
#    y 0.000000 1.702570 0.000000 
#    z 0.005820 0.000000 1.708790 
# 
# From -- ./inp_files/24330.got.cif
#   From: 2010.03.12/outbox.cif.g09.slc.cpg/sg5_13_cif.got.tgz:24330.got - 2010.03.31 09:47:26.
