data_PCOD8048648
_publ_section_title
;
Structure prediction by ZEFSAII (Michael W. Deem and Ramdas Pophale) SiO2 
 PCOD8048648
Probable space group: C 2
;
_chemical_formula_sum "Si O2"
_cell_formula_units_Z 28
_cell_length_a 22.202446
_cell_length_b 14.805130
_cell_length_c 9.360103
_cell_angle_alpha 90.000000
_cell_angle_beta 27.253267
_cell_angle_gamma 90.000000
_cell_volume 1408.924288
_symmetry_space_group_name_H-M "C 2"
_symmetry_group_IT_number 5
_symmetry_cell_setting 'monoclinic'
loop_
_space_group_symop_operation_xyz
x,y,z
-x,y,-z
1/2+x,1/2+y,z
1/2-x,1/2+y,-z
loop_
_atom_site_type_symbol
_atom_site_label
_atom_site_fract_x
_atom_site_fract_y
_atom_site_fract_z
Si Si1 0.687844 0.521020 0.868082
Si Si2 0.041032 0.576376 0.756447
Si Si3 0.035581 0.849680 0.263820
Si Si4 0.692434 0.254693 0.375146
Si Si5 0.311578 0.166975 0.112256
Si Si6 0.353106 0.658244 0.810468
Si Si7 0.855052 0.182320 0.255004
O O1 0.846957 0.507510 0.537244
O O2 0.646807 0.585092 0.821583
O O3 0.619977 0.424030 0.001625
O O4 0.640785 0.565154 0.115230
O O5 0.105999 0.675172 0.627810
O O6 0.000000 0.544121 0.000000
O O7 0.916350 0.584560 0.911867
O O8 0.000000 0.878348 0.500000
O O9 0.900230 0.840785 0.456677
O O10 0.114077 0.755837 0.100560
O O11 0.810784 0.264385 0.240781
O O12 0.752927 0.228206 0.094418
O O13 0.199938 0.137023 0.235966
O O14 0.243896 0.183965 0.405275
O O15 0.500000 0.699900 0.500000
O O16 0.000000 0.206041 0.000000
#
# Coordination Sequence:
#
# PCOD8048648 Si02
#       7
#     4   4   4   4   4   4   4
#     4  10  22  37  58  91 133 160 200 270 314 363
#     4   9  16  34  60  86 118 153 210 245 296 376
#     4  11  22  38  61  94 131 161 209 262 320 368
#     4   9  19  34  57  90 116 165 205 253 302 375
#     4  11  19  35  68  89 115 170 216 253 304 374
#     4  10  19  35  62  89 120 163 215 254 295 377
#     4  10  20  38  62  91 123 164 214 254 301 379
#
# _framework density 19.873318000000001
#
# number of rings (size 3 to 8) (size 9 to 14) (size 15 to 20)
#    0.000    2.286    4.286    2.143    0.000    0.000 
#    2.571    0.714    3.143    0.000    0.000    0.000 
#    0.000    0.000    0.000    0.000    0.000    0.000 
#
# Total GULP energy -173499.430999 kJ/mol
# GULP energy per Si atom -12392.816500 kJ/mol
# Density = 1.982809 g / cm^3
# Si number density = 19.873318 Si / 1000 Ang^3
#
#
#
# Elastic Constant Matrix: (Units=GPa)
#
#
# Indices 1 2 3 4 5 6 
#
# 1 152.7513 28.4918 51.0392 0.0000 -20.6048 0.0000
# 2 28.4918 54.7075 37.2575 0.0000 -8.8770 0.0000
# 3 51.0392 37.2575 114.1419 0.0000 -12.4886 0.0000
# 4 0.0000 0.0000 0.0000 34.5822 0.0000 -6.5395
# 5 -20.6048 -8.8770 -12.4886 0.0000 46.8480 0.0000
# 6 0.0000 0.0000 0.0000 -6.5395 0.0000 16.9545
#
#
#
# Elastic Compliance Matrix: (Units=1/GPa)
#
#
# Indices 1 2 3 4 5 6 
#
# 1 0.008165 -0.001990 -0.002729 0.000000 0.002487 0.000000
# 2 -0.001990 0.024272 -0.006824 0.000000 0.001905 0.000000
# 3 -0.002729 -0.006824 0.012295 0.000000 0.000784 0.000000
# 4 0.000000 0.000000 0.000000 0.031192 0.000000 0.012031
# 5 0.002487 0.001905 0.000784 0.000000 0.023009 0.000000
# 6 0.000000 0.000000 0.000000 0.012031 0.000000 0.063622
#
#
# Mechanical properties :
#
#
# Convention : Reuss Voigt Hill
#
# Bulk Modulus (GPa) = 46.20184 61.68640 53.94412
# Shear Modulus (GPa) = 25.92584 33.33108 29.62846
#
# Velocity S-wave (km/s) = 3.61578 4.09978 3.86536
# Velocity P-wave (km/s) = 6.38204 7.31561 6.86471
#
# Compressibility (1/GPa) = 0.02164416
#
# Stress axis : x y z
#
# Youngs Moduli (GPa) = 122.47080 41.19934 81.33464
#
# Poissons Ratio (x) = 0.08199 0.22200
# Poissons Ratio (y) = 0.24374 0.55507
# Poissons Ratio (z) = 0.33428 0.28116
#
# Static dielectric constant tensor:
#      x y z
#    x 3.918740 0.000000 -0.281780 
#    y 0.000000 3.047590 0.000000 
#    z -0.281780 0.000000 3.914580 
# 
# 
# High freq. dielectric constant tensor:
#      x y z
#    x 1.785400 0.000000 -0.003260 
#    y 0.000000 1.709730 0.000000 
#    z -0.003260 0.000000 1.799340 
# 
# From -- ./inp_files/30003.got.cif
#   From: 2010.03.12/outbox.cif.g09.slc.cpg/sg5_16_cif.got.tgz:30003.got - 2010.03.31 09:47:26.
