data_PCOD8048064
_publ_section_title
;
Structure prediction by ZEFSAII (Michael W. Deem and Ramdas Pophale) SiO2 
 PCOD8048064
Probable space group: C 2
;
_chemical_formula_sum "Si O2"
_cell_formula_units_Z 32
_cell_length_a 16.649393
_cell_length_b 23.538951
_cell_length_c 9.239830
_cell_angle_alpha 90.000000
_cell_angle_beta 28.330984
_cell_angle_gamma 90.000000
_cell_volume 1718.480208
_symmetry_space_group_name_H-M "C 2"
_symmetry_group_IT_number 5
_symmetry_cell_setting 'monoclinic'
loop_
_space_group_symop_operation_xyz
x,y,z
-x,y,-z
1/2+x,1/2+y,z
1/2-x,1/2+y,-z
loop_
_atom_site_type_symbol
_atom_site_label
_atom_site_fract_x
_atom_site_fract_y
_atom_site_fract_z
Si Si1 0.599461 0.279660 0.619582
Si Si2 0.949547 0.904216 0.413479
Si Si3 0.249424 0.779303 0.694988
Si Si4 0.326975 0.400469 0.194684
Si Si5 0.691602 0.107827 0.652990
Si Si6 0.955562 0.173003 0.411111
Si Si7 0.328670 0.684584 0.190154
Si Si8 0.806852 0.475920 0.343882
O O1 0.622234 0.342438 0.517792
O O2 0.693396 0.267169 0.621130
O O3 0.696171 0.235067 0.363311
O O4 0.400920 0.266043 0.952070
O O5 0.802404 0.949311 0.612885
O O6 0.000000 0.906459 0.500000
O O7 0.114632 0.922117 0.056260
O O8 0.297025 0.846360 0.628370
O O9 0.409131 0.740319 0.481212
O O10 0.237240 0.448956 0.429779
O O11 0.500000 0.377826 0.000000
O O12 0.796062 0.136302 0.615544
O O13 0.736483 0.135095 0.426948
O O14 0.735907 0.041748 0.574314
O O15 0.500000 0.119268 0.000000
O O16 0.000000 0.152773 0.500000
O O17 0.115750 0.160317 0.053947
O O18 0.500000 0.705932 0.000000
O O19 0.000000 0.464104 0.000000
#
# Coordination Sequence:
#
# PCOD8048064 Si02
#       8
#     4   4   4   4   4   4   4   4
#     4  10  17  32  57  80 107 152 187 211 258 335
#     4  10  21  35  56  86 115 145 181 222 275 327
#     4  10  16  33  56  77 111 149 181 213 265 329
#     4   9  17  34  56  80 109 149 186 216 261 331
#     4  10  21  40  61  78 103 148 194 224 265 335
#     4  11  24  36  53  87 118 139 177 234 284 316
#     4  10  20  32  55  83 107 145 186 224 270 320
#     4  10  21  37  60  84 103 142 194 230 267 321
#
# _framework density 18.621105
#
# number of rings (size 3 to 8) (size 9 to 14) (size 15 to 20)
#    0.000    2.000    6.250    0.750    0.000    8.500 
#    0.000    2.500    0.000    3.000    0.000    0.000 
#    0.000    0.000    0.000    0.000    0.000    0.000 
#
# Total GULP energy -198340.728658 kJ/mol
# GULP energy per Si atom -12396.295541 kJ/mol
# Density = 1.857872 g / cm^3
# Si number density = 18.621105 Si / 1000 Ang^3
#
#
#
# Elastic Constant Matrix: (Units=GPa)
#
#
# Indices 1 2 3 4 5 6 
#
# 1 81.8871 45.3484 57.0919 -0.0009 22.3890 0.0004
# 2 45.3484 126.9979 70.6290 0.0025 -3.5502 -0.0006
# 3 57.0919 70.6290 111.6550 -0.0299 16.3635 0.0056
# 4 -0.0009 0.0025 -0.0299 32.8337 0.0065 -3.3994
# 5 22.3890 -3.5502 16.3635 0.0065 24.3991 -0.0009
# 6 0.0004 -0.0006 0.0056 -3.3994 -0.0009 12.8852
#
#
#
# Elastic Compliance Matrix: (Units=1/GPa)
#
#
# Indices 1 2 3 4 5 6 
#
# 1 0.025441 -0.006260 -0.006093 0.000000 -0.020170 0.000000
# 2 -0.006260 0.015139 -0.008362 -0.000011 0.013555 0.000003
# 3 -0.006093 -0.008362 0.018543 0.000019 -0.008061 -0.000004
# 4 0.000000 -0.000011 0.000019 0.031312 -0.000022 0.008261
# 5 -0.020170 0.013555 -0.008061 -0.000022 0.066872 0.000004
# 6 0.000000 0.000003 -0.000004 0.008261 0.000004 0.079788
#
#
# Mechanical properties :
#
#
# Convention : Reuss Voigt Hill
#
# Bulk Modulus (GPa) = 56.51941 74.07540 65.29741
# Shear Modulus (GPa) = 17.57952 23.85499 20.71726
#
# Velocity S-wave (km/s) = 3.07590 3.58309 3.33914
# Velocity P-wave (km/s) = 6.55996 7.54883 7.07170
#
# Compressibility (1/GPa) = 0.01769304
#
# Stress axis : x y z
#
# Youngs Moduli (GPa) = 39.30587 66.05545 53.92981
#
# Poissons Ratio (x) = 0.41350 0.32860
# Poissons Ratio (y) = 0.24605 0.45096
# Poissons Ratio (z) = 0.23949 0.55235
#
# Static dielectric constant tensor:
#      x y z
#    x 3.102080 0.000000 0.170540 
#    y 0.000000 3.419870 0.000020 
#    z 0.170540 0.000020 3.706350 
# 
# 
# High freq. dielectric constant tensor:
#      x y z
#    x 1.683650 0.000000 0.010220 
#    y 0.000000 1.719780 0.000000 
#    z 0.010220 0.000000 1.734770 
# 
# From -- ./inp_files/28049.got.cif
#   From: 2010.03.12/outbox.cif.g09.slc.cpg/sg5_15_cif.got.tgz:28049.got - 2010.03.31 09:47:26.
