data_PCOD8048535
_publ_section_title
;
Structure prediction by ZEFSAII (Michael W. Deem and Ramdas Pophale) SiO2 
 PCOD8048535
Probable space group: C 2
;
_chemical_formula_sum "Si O2"
_cell_formula_units_Z 30
_cell_length_a 25.068758
_cell_length_b 5.080707
_cell_length_c 14.081283
_cell_angle_alpha 90.000000
_cell_angle_beta 64.662761
_cell_angle_gamma 90.000000
_cell_volume 1620.965392
_symmetry_space_group_name_H-M "C 2"
_symmetry_group_IT_number 5
_symmetry_cell_setting 'monoclinic'
loop_
_space_group_symop_operation_xyz
x,y,z
-x,y,-z
1/2+x,1/2+y,z
1/2-x,1/2+y,-z
loop_
_atom_site_type_symbol
_atom_site_label
_atom_site_fract_x
_atom_site_fract_y
_atom_site_fract_z
Si Si1 0.819715 0.583610 0.764282
Si Si2 0.272652 0.093088 0.601733
Si Si3 0.774026 0.987867 0.025648
Si Si4 0.496237 0.543746 0.811536
Si Si5 0.627550 0.583361 0.179133
Si Si6 0.500000 0.786639 0.000000
Si Si7 0.302706 0.093671 0.367966
Si Si8 0.434548 0.023130 0.209227
O O1 0.819377 0.552379 0.651075
O O2 0.750586 0.555319 0.850502
O O3 0.860615 0.366775 0.783530
O O4 0.845606 0.867102 0.770781
O O5 0.309708 0.070427 0.476347
O O6 0.242438 0.376338 0.636234
O O7 0.221339 0.876936 0.643437
O O8 0.735335 0.177286 0.985443
O O9 0.841919 0.059818 0.949291
O O10 0.441942 0.542554 0.780136
O O11 0.529875 0.270475 0.778310
O O12 0.542763 0.772525 0.746623
O O13 0.472904 0.602894 0.936953
O O14 0.449276 0.971461 0.086042
O O15 0.365322 0.059551 0.270914
#
# Coordination Sequence:
#
# PCOD8048535 Si02
#       8
#     4   4   4   4   4   2   4   4
#     4  10  19  34  52  78 106 137 181 220 266 325
#     4  10  21  37  59  86 107 138 188 224 276 341
#     4   8  16  29  44  68 101 134 172 207 254 311
#     4  10  20  35  54  79 111 145 184 219 265 329
#     4  10  19  33  53  74 108 148 171 217 273 313
#     4   8  22  34  54  80 114 136 196 212 266 316
#     4  10  21  38  59  82 110 144 174 232 291 310
#     4  10  20  37  55  79 115 142 184 226 274 321
#
# _framework density 18.507491000000002
#
# number of rings (size 3 to 8) (size 9 to 14) (size 15 to 20)
#    0.800    1.600    0.000    2.800    0.000    1.067 
#    2.400    1.333    0.000    4.800    0.000    0.000 
#    0.000    0.000    0.000    0.000    0.000    0.000 
#
# Total GULP energy -185869.815796 kJ/mol
# GULP energy per Si atom -12391.321053 kJ/mol
# Density = 1.846537 g / cm^3
# Si number density = 18.507491 Si / 1000 Ang^3
#
#
#
# Elastic Constant Matrix: (Units=GPa)
#
#
# Indices 1 2 3 4 5 6 
#
# 1 56.6152 3.1695 24.7417 0.0000 3.3402 0.0000
# 2 3.1695 83.4030 7.3360 -0.0002 5.6147 0.0001
# 3 24.7417 7.3360 66.5559 0.0000 0.8448 0.0000
# 4 0.0000 -0.0002 0.0000 17.7393 0.0000 -2.9655
# 5 3.3402 5.6147 0.8448 0.0000 26.0643 0.0000
# 6 0.0000 0.0001 0.0000 -2.9655 0.0000 20.5088
#
#
#
# Elastic Compliance Matrix: (Units=1/GPa)
#
#
# Indices 1 2 3 4 5 6 
#
# 1 0.021247 0.000052 -0.007873 0.000000 -0.002479 0.000000
# 2 0.000052 0.012281 -0.001340 0.000000 -0.002609 0.000000
# 3 -0.007873 -0.001340 0.018090 0.000000 0.000711 0.000000
# 4 0.000000 0.000000 0.000000 0.057768 0.000000 0.008353
# 5 -0.002479 -0.002609 0.000711 0.000000 0.039223 0.000000
# 6 0.000000 0.000000 0.000000 0.008353 0.000000 0.049967
#
#
# Mechanical properties :
#
#
# Convention : Reuss Voigt Hill
#
# Bulk Modulus (GPa) = 30.03239 30.78539 30.40889
# Shear Modulus (GPa) = 21.92999 24.28426 23.10713
#
# Velocity S-wave (km/s) = 3.44601 3.62627 3.53729
# Velocity P-wave (km/s) = 5.66531 5.84835 5.75756
#
# Compressibility (1/GPa) = 0.03329738
#
# Stress axis : x y z
#
# Youngs Moduli (GPa) = 47.06563 81.42337 55.27843
#
# Poissons Ratio (x) = -0.00423 0.43519
# Poissons Ratio (y) = -0.00244 0.07407
# Poissons Ratio (z) = 0.37053 0.10910
#
# Static dielectric constant tensor:
#      x y z
#    x 2.967070 0.000000 -0.065420 
#    y 0.000000 3.564670 0.000000 
#    z -0.065420 0.000000 3.337100 
# 
# 
# High freq. dielectric constant tensor:
#      x y z
#    x 1.684510 0.000000 -0.003830 
#    y 0.000000 1.742220 0.000000 
#    z -0.003830 0.000000 1.695020 
# 
# From -- ./inp_files/55286.got.cif
#   From: 2010.03.12/outbox.cif.g09.slc.cpg/sg5_28_cif.got.tgz:55286.got - 2010.03.31 09:47:26.
