data_PCOD8048476
_publ_section_title
;
Structure prediction by ZEFSAII (Michael W. Deem and Ramdas Pophale) SiO2 
 PCOD8048476
Probable space group: C 2
;
_chemical_formula_sum "Si O2"
_cell_formula_units_Z 26
_cell_length_a 25.402432
_cell_length_b 9.222939
_cell_length_c 11.194230
_cell_angle_alpha 90.000000
_cell_angle_beta 25.490944
_cell_angle_gamma 90.000000
_cell_volume 1128.701928
_symmetry_space_group_name_H-M "C 2"
_symmetry_group_IT_number 5
_symmetry_cell_setting 'monoclinic'
loop_
_space_group_symop_operation_xyz
x,y,z
-x,y,-z
1/2+x,1/2+y,z
1/2-x,1/2+y,-z
loop_
_atom_site_type_symbol
_atom_site_label
_atom_site_fract_x
_atom_site_fract_y
_atom_site_fract_z
Si Si1 0.471992 0.482780 0.818472
Si Si2 0.776157 0.966631 0.578690
Si Si3 0.546987 0.172422 0.632464
Si Si4 0.500000 0.466036 0.500000
Si Si5 0.149718 0.515018 0.083927
Si Si6 0.736201 0.126854 0.420550
Si Si7 0.718756 0.270947 0.090354
O O1 0.583755 0.510842 0.680349
O O2 0.455680 0.306177 0.849403
O O3 0.508036 0.548967 0.611679
O O4 0.350161 0.558964 0.114726
O O5 0.729657 0.063682 0.565561
O O6 0.756457 0.799920 0.584210
O O7 0.691490 0.008176 0.862438
O O8 0.490215 0.069031 0.644538
O O9 0.604649 0.086914 0.627259
O O10 0.669859 0.241687 0.324118
O O11 0.618079 0.367620 0.230486
O O12 0.239878 0.626050 0.970780
O O13 0.156503 0.362607 0.141942
#
# Coordination Sequence:
#
# PCOD8048476 Si02
#       7
#     4   4   4   2   4   4   4
#     4  10  21  45  72  99 140 186 227 295 354 409
#     4  11  26  47  70 107 137 189 248 281 356 421
#     4  10  23  45  71 100 139 186 234 283 360 415
#     4  10  18  40  70 100 130 184 224 276 356 418
#     4  12  23  45  73 105 141 182 235 290 351 430
#     4  11  25  47  72  99 145 189 236 299 343 412
#     4  11  22  42  73 100 143 179 225 292 355 419
#
# _framework density 23.035312000000001
#
# number of rings (size 3 to 8) (size 9 to 14) (size 15 to 20)
#    0.000    1.231    7.692    0.462    4.308    0.615 
#    5.538    1.538    6.769    0.000    0.000    0.000 
#    0.000    0.000    0.000    0.000    0.000    0.000 
#
# Total GULP energy -161055.005219 kJ/mol
# GULP energy per Si atom -12388.846555 kJ/mol
# Density = 2.298288 g / cm^3
# Si number density = 23.035312 Si / 1000 Ang^3
#
#
#
# Elastic Constant Matrix: (Units=GPa)
#
#
# Indices 1 2 3 4 5 6 
#
# 1 168.7153 71.1030 20.7791 0.0000 -0.5485 0.0000
# 2 71.1030 104.7002 26.6038 0.0000 -4.0289 0.0000
# 3 20.7791 26.6038 38.9263 0.0000 -2.6824 0.0000
# 4 0.0000 0.0000 0.0000 33.9113 0.0000 5.9088
# 5 -0.5485 -4.0289 -2.6824 0.0000 39.6762 0.0000
# 6 0.0000 0.0000 0.0000 5.9088 0.0000 36.1176
#
#
#
# Elastic Compliance Matrix: (Units=1/GPa)
#
#
# Indices 1 2 3 4 5 6 
#
# 1 0.008329 -0.005490 -0.000728 0.000000 -0.000492 0.000000
# 2 -0.005490 0.015194 -0.007387 0.000000 0.000968 0.000000
# 3 -0.000728 -0.007387 0.031219 0.000000 0.001351 0.000000
# 4 0.000000 0.000000 0.000000 0.030354 0.000000 -0.004966
# 5 -0.000492 0.000968 0.001351 0.000000 0.025387 0.000000
# 6 0.000000 0.000000 0.000000 -0.004966 0.000000 0.028500
#
#
# Mechanical properties :
#
#
# Convention : Reuss Voigt Hill
#
# Bulk Modulus (GPa) = 36.32002 61.03485 48.67743
# Shear Modulus (GPa) = 28.51124 34.86474 31.68799
#
# Velocity S-wave (km/s) = 3.52194 3.89464 3.71297
# Velocity P-wave (km/s) = 5.68683 6.83944 6.28960
#
# Compressibility (1/GPa) = 0.02753303
#
# Stress axis : x y z
#
# Youngs Moduli (GPa) = 120.06243 65.81654 32.03139
#
# Poissons Ratio (x) = 0.36136 0.02331
# Poissons Ratio (y) = 0.65918 0.23660
# Poissons Ratio (z) = 0.08736 0.48616
#
# Static dielectric constant tensor:
#      x y z
#    x 4.539650 0.000000 -0.086370 
#    y 0.000000 4.099260 0.000000 
#    z -0.086370 0.000000 3.801830 
# 
# 
# High freq. dielectric constant tensor:
#      x y z
#    x 1.941910 0.000000 -0.002030 
#    y 0.000000 1.891570 0.000000 
#    z -0.002030 0.000000 1.883620 
# 
# From -- ./inp_files/47923.got.cif
#   From: 2010.03.12/outbox.cif.g09.slc.cpg/sg5_24_cif.got.tgz:47923.got - 2010.03.31 09:47:26.
