data_PCOD8048780
_publ_section_title
;
Structure prediction by ZEFSAII (Michael W. Deem and Ramdas Pophale) SiO2 
 PCOD8048780
Probable space group: C 2
;
_chemical_formula_sum "Si O2"
_cell_formula_units_Z 32
_cell_length_a 12.955504
_cell_length_b 11.802231
_cell_length_c 11.780732
_cell_angle_alpha 90.000000
_cell_angle_beta 115.392095
_cell_angle_gamma 90.000000
_cell_volume 1627.301874
_symmetry_space_group_name_H-M "C 2"
_symmetry_group_IT_number 5
_symmetry_cell_setting 'monoclinic'
loop_
_space_group_symop_operation_xyz
x,y,z
-x,y,-z
1/2+x,1/2+y,z
1/2-x,1/2+y,-z
loop_
_atom_site_type_symbol
_atom_site_label
_atom_site_fract_x
_atom_site_fract_y
_atom_site_fract_z
Si Si1 0.210010 0.593680 0.585173
Si Si2 0.316956 0.979181 0.890851
Si Si3 0.372215 0.522659 0.477429
Si Si4 0.757365 0.686964 0.741195
Si Si5 0.454035 0.195472 0.680505
Si Si6 0.661591 0.316289 0.680728
Si Si7 0.587341 0.883222 0.638188
Si Si8 0.532006 0.984864 0.835242
O O1 0.332354 0.555763 0.587077
O O2 0.110638 0.626322 0.449473
O O3 0.229135 0.701274 0.678293
O O4 0.163885 0.489018 0.636516
O O5 0.221228 0.887674 0.809801
O O6 0.423083 0.958136 0.859015
O O7 0.282974 0.113593 0.866873
O O8 0.352653 0.959420 0.038652
O O9 0.500000 0.559669 0.500000
O O10 0.281663 0.588086 0.360260
O O11 0.351262 0.389815 0.441145
O O12 0.865387 0.747381 0.730433
O O13 0.663632 0.780024 0.715772
O O14 0.532974 0.292643 0.664088
O O15 0.535936 0.113032 0.791385
O O16 0.500000 0.843139 0.500000
O O17 0.517446 0.906482 0.718775
#
# Coordination Sequence:
#
# PCOD8048780 Si02
#       8
#     4   4   4   4   4   4   4   4
#     4  11  22  35  56  90 120 151 197 235 292 355
#     4   9  22  41  60  87 112 157 206 240 288 344
#     4  10  22  35  53  84 123 157 187 237 300 350
#     4   9  22  36  56  87 120 150 193 243 289 347
#     4  10  19  38  58  86 118 155 196 234 290 353
#     4  11  21  36  60  85 115 158 198 241 287 358
#     4  12  22  35  60  91 119 150 189 248 298 347
#     4  10  20  40  63  83 117 155 201 246 283 350
#
# _framework density 19.664453000000002
#
# number of rings (size 3 to 8) (size 9 to 14) (size 15 to 20)
#    0.000    1.750    2.500    2.250    5.250    2.000 
#    0.000    0.000    0.000    0.000    0.000    0.000 
#    0.000    0.000    0.000    0.000    0.000    0.000 
#
# Total GULP energy -198260.511265 kJ/mol
# GULP energy per Si atom -12391.281954 kJ/mol
# Density = 1.961970 g / cm^3
# Si number density = 19.664453 Si / 1000 Ang^3
#
#
#
# Elastic Constant Matrix: (Units=GPa)
#
#
# Indices 1 2 3 4 5 6 
#
# 1 95.4554 35.3311 23.7939 0.0000 4.0305 0.0000
# 2 35.3311 81.6999 19.8112 0.0000 7.7855 0.0000
# 3 23.7939 19.8112 94.2240 0.0000 6.2067 0.0000
# 4 0.0000 0.0000 0.0000 21.4584 0.0000 5.9499
# 5 4.0305 7.7855 6.2067 0.0000 20.2127 0.0000
# 6 0.0000 0.0000 0.0000 5.9499 0.0000 33.0889
#
#
#
# Elastic Compliance Matrix: (Units=1/GPa)
#
#
# Indices 1 2 3 4 5 6 
#
# 1 0.012889 -0.005046 -0.002197 0.000000 0.000048 0.000000
# 2 -0.005046 0.015235 -0.001642 0.000000 -0.004358 0.000000
# 3 -0.002197 -0.001642 0.011679 0.000000 -0.002516 0.000000
# 4 0.000000 0.000000 0.000000 0.049047 0.000000 -0.008819
# 5 0.000048 -0.004358 -0.002516 0.000000 0.051915 0.000000
# 6 0.000000 0.000000 0.000000 -0.008819 0.000000 0.031807
#
#
# Mechanical properties :
#
#
# Convention : Reuss Voigt Hill
#
# Bulk Modulus (GPa) = 45.38530 47.69462 46.53996
# Shear Modulus (GPa) = 25.29239 27.78155 26.53697
#
# Velocity S-wave (km/s) = 3.59025 3.76277 3.67753
# Velocity P-wave (km/s) = 6.34953 6.57152 6.46148
#
# Compressibility (1/GPa) = 0.02203357
#
# Stress axis : x y z
#
# Youngs Moduli (GPa) = 77.58343 65.63647 85.62516
#
# Poissons Ratio (x) = 0.33119 0.18813
# Poissons Ratio (y) = 0.39147 0.14060
# Poissons Ratio (z) = 0.17046 0.10778
#
# Static dielectric constant tensor:
#      x y z
#    x 3.792670 0.000000 -0.057300 
#    y 0.000000 3.638850 0.000000 
#    z -0.057300 0.000000 3.659930 
# 
# 
# High freq. dielectric constant tensor:
#      x y z
#    x 1.765500 0.000000 -0.003560 
#    y 0.000000 1.763610 0.000000 
#    z -0.003560 0.000000 1.742830 
# 
# From -- ./inp_files/39453.got.cif
#   From: 2010.03.12/outbox.cif.g09.slc.cpg/sg5_20_cif.got.tgz:39453.got - 2010.03.31 09:47:26.
