data_PCOD8048585
_publ_section_title
;
Structure prediction by ZEFSAII (Michael W. Deem and Ramdas Pophale) SiO2 
 PCOD8048585
Probable space group: C 2
;
_chemical_formula_sum "Si O2"
_cell_formula_units_Z 32
_cell_length_a 15.580570
_cell_length_b 23.877682
_cell_length_c 8.997597
_cell_angle_alpha 90.000000
_cell_angle_beta 151.314950
_cell_angle_gamma 90.000000
_cell_volume 1606.713357
_symmetry_space_group_name_H-M "C 2"
_symmetry_group_IT_number 5
_symmetry_cell_setting 'monoclinic'
loop_
_space_group_symop_operation_xyz
x,y,z
-x,y,-z
1/2+x,1/2+y,z
1/2-x,1/2+y,-z
loop_
_atom_site_type_symbol
_atom_site_label
_atom_site_fract_x
_atom_site_fract_y
_atom_site_fract_z
Si Si1 0.468396 0.765430 0.625573
Si Si2 0.164964 0.030693 0.640170
Si Si3 0.827728 0.154790 0.342110
Si Si4 0.695177 0.747120 0.228962
Si Si5 0.675358 0.462645 0.357072
Si Si6 0.465142 0.152238 0.614425
Si Si7 0.476915 0.024154 0.635565
Si Si8 0.315475 0.331997 0.640655
O O1 0.500000 0.774381 0.500000
O O2 0.356048 0.707957 0.493467
O O3 0.350673 0.817028 0.504925
O O4 0.660571 0.761502 0.001685
O O5 0.174224 0.093674 0.583955
O O6 0.000000 0.022262 0.500000
O O7 0.159292 0.988820 0.495205
O O8 0.334939 0.018528 0.998772
O O9 0.000000 0.156187 0.500000
O O10 0.643986 0.164427 0.976801
O O11 0.803190 0.690316 0.425158
O O12 0.801479 0.798557 0.464511
O O13 0.500000 0.739599 0.000000
O O14 0.842557 0.484195 0.517636
O O15 0.695815 0.397019 0.413892
O O16 0.500000 0.478649 0.000000
O O17 0.500000 0.170106 0.500000
O O18 0.404380 0.087711 0.533236
O O19 0.500000 0.004771 0.500000
O O20 0.500000 0.315917 0.000000
#
# Coordination Sequence:
#
# PCOD8048585 Si02
#       8
#     4   4   4   4   4   4   4   4
#     4  10  20  36  59  86 114 149 187 230 286 342
#     4  10  21  39  62  88 119 153 191 239 290 343
#     4   9  18  33  56  86 119 150 184 232 287 341
#     4  10  22  37  57  85 117 152 187 233 289 339
#     4  11  24  41  61  84 114 154 198 244 291 339
#     4  10  19  34  57  87 119 152 190 231 278 341
#     4  10  22  38  60  89 120 155 193 234 287 345
#     4  10  23  42  58  79 112 149 194 243 286 336
#
# _framework density 19.916433999999999
#
# number of rings (size 3 to 8) (size 9 to 14) (size 15 to 20)
#    0.000    2.000    0.000    3.375    0.000    9.000 
#    0.000    5.625    0.000    0.000    0.000    0.000 
#    0.000    0.000    0.000    0.000    0.000    0.000 
#
# Total GULP energy -198359.248217 kJ/mol
# GULP energy per Si atom -12397.453014 kJ/mol
# Density = 1.987110 g / cm^3
# Si number density = 19.916434 Si / 1000 Ang^3
#
#
#
# Elastic Constant Matrix: (Units=GPa)
#
#
# Indices 1 2 3 4 5 6 
#
# 1 93.0183 48.4834 50.0095 0.0000 -17.0321 0.0000
# 2 48.4834 101.0441 69.0575 0.0000 -11.5190 0.0000
# 3 50.0095 69.0575 136.1695 0.0000 -6.2369 0.0000
# 4 0.0000 0.0000 0.0000 31.8815 0.0000 -2.7646
# 5 -17.0321 -11.5190 -6.2369 0.0000 37.4305 0.0000
# 6 0.0000 0.0000 0.0000 -2.7646 0.0000 29.8489
#
#
#
# Elastic Compliance Matrix: (Units=1/GPa)
#
#
# Indices 1 2 3 4 5 6 
#
# 1 0.015952 -0.004926 -0.003121 0.000000 0.005223 0.000000
# 2 -0.004926 0.017111 -0.006782 0.000000 0.001894 0.000000
# 3 -0.003121 -0.006782 0.011860 0.000000 -0.001531 0.000000
# 4 0.000000 0.000000 0.000000 0.031620 0.000000 0.002929
# 5 0.005223 0.001894 -0.001531 0.000000 0.029421 0.000000
# 6 0.000000 0.000000 0.000000 0.002929 0.000000 0.033773
#
#
# Mechanical properties :
#
#
# Convention : Reuss Voigt Hill
#
# Bulk Modulus (GPa) = 65.51002 73.92585 69.71794
# Shear Modulus (GPa) = 28.65592 30.67760 29.66676
#
# Velocity S-wave (km/s) = 3.79728 3.92894 3.86367
# Velocity P-wave (km/s) = 7.22424 7.60136 7.41520
#
# Compressibility (1/GPa) = 0.01526484
#
# Stress axis : x y z
#
# Youngs Moduli (GPa) = 62.68623 58.44116 84.32038
#
# Poissons Ratio (x) = 0.28786 0.26320
# Poissons Ratio (y) = 0.30877 0.57187
# Poissons Ratio (z) = 0.19567 0.39635
#
# Static dielectric constant tensor:
#      x y z
#    x 3.521950 0.000000 -0.177810 
#    y 0.000000 3.856420 0.000000 
#    z -0.177810 0.000000 3.966880 
# 
# 
# High freq. dielectric constant tensor:
#      x y z
#    x 1.767430 0.000000 -0.005070 
#    y 0.000000 1.776570 0.000000 
#    z -0.005070 0.000000 1.798040 
# 
# From -- ./inp_files/25652.got.cif
#   From: 2010.03.12/outbox.cif.g09.slc.cpg/sg5_13_cif.got.tgz:25652.got - 2010.03.31 09:47:26.
