data_PCOD8048098
_publ_section_title
;
Structure prediction by ZEFSAII (Michael W. Deem and Ramdas Pophale) SiO2 
 PCOD8048098
Probable space group: C 2
;
_chemical_formula_sum "Si O2"
_cell_formula_units_Z 28
_cell_length_a 12.411085
_cell_length_b 13.641191
_cell_length_c 13.345872
_cell_angle_alpha 90.000000
_cell_angle_beta 40.939701
_cell_angle_gamma 90.000000
_cell_volume 1480.558483
_symmetry_space_group_name_H-M "C 2"
_symmetry_group_IT_number 5
_symmetry_cell_setting 'monoclinic'
loop_
_space_group_symop_operation_xyz
x,y,z
-x,y,-z
1/2+x,1/2+y,z
1/2-x,1/2+y,-z
loop_
_atom_site_type_symbol
_atom_site_label
_atom_site_fract_x
_atom_site_fract_y
_atom_site_fract_z
Si Si1 0.318159 0.413070 0.502995
Si Si2 0.499806 0.147529 0.777565
Si Si3 0.837046 0.517243 0.051315
Si Si4 0.375580 0.043479 0.504221
Si Si5 0.346900 0.331931 0.800228
Si Si6 0.819434 0.090601 0.649913
Si Si7 0.302934 0.235370 0.635756
O O1 0.226985 0.452977 0.468012
O O2 0.510110 0.398589 0.348375
O O3 0.296945 0.487288 0.609599
O O4 0.238293 0.309881 0.594848
O O5 0.520046 0.100388 0.653947
O O6 0.421323 0.255661 0.827389
O O7 0.676267 0.161503 0.708130
O O8 0.373255 0.079895 0.927408
O O9 0.773158 0.409820 0.061755
O O10 0.704425 0.574046 0.214471
O O11 0.000000 0.500884 0.000000
O O12 0.500000 0.000514 0.500000
O O13 0.250878 0.124087 0.642677
O O14 0.244896 0.272043 0.786068
O O15 0.000000 0.135667 0.500000
O O16 0.500000 0.235384 0.500000
#
# Coordination Sequence:
#
# PCOD8048098 Si02
#       7
#     4   4   4   4   4   4   4
#     4  10  17  28  60  91 101 142 194 241 285 324
#     4  10  21  33  60  87 119 154 185 238 302 333
#     4  10  21  35  58  86 116 150 191 242 287 339
#     4  10  18  33  56  85 117 144 191 241 289 340
#     4  11  18  37  61  81 115 152 195 235 289 346
#     4  10  17  34  61  90 111 141 196 242 280 337
#     4   9  15  30  56  84 100 141 191 237 274 329
#
# _framework density 18.911781999999999
#
# number of rings (size 3 to 8) (size 9 to 14) (size 15 to 20)
#    0.000    2.000    7.143    0.429    0.000    0.000 
#    0.000    2.143   18.857    0.000    0.000    0.000 
#    0.000    0.000    0.000    0.000    0.000    0.000 
#
# Total GULP energy -173506.597603 kJ/mol
# GULP energy per Si atom -12393.328400 kJ/mol
# Density = 1.886874 g / cm^3
# Si number density = 18.911782 Si / 1000 Ang^3
#
#
#
# Elastic Constant Matrix: (Units=GPa)
#
#
# Indices 1 2 3 4 5 6 
#
# 1 85.4919 46.1851 22.3992 0.0001 11.5501 0.0000
# 2 46.1851 90.3340 24.8470 0.0000 0.7580 0.0000
# 3 22.3992 24.8470 80.7147 0.0001 3.1634 0.0000
# 4 0.0001 0.0000 0.0001 23.1370 -0.0001 0.6040
# 5 11.5501 0.7580 3.1634 -0.0001 19.8962 0.0000
# 6 0.0000 0.0000 0.0000 0.6040 0.0000 40.8776
#
#
#
# Elastic Compliance Matrix: (Units=1/GPa)
#
#
# Indices 1 2 3 4 5 6 
#
# 1 0.018270 -0.008707 -0.001999 0.000000 -0.009956 0.000000
# 2 -0.008707 0.016244 -0.002775 0.000000 0.004877 0.000000
# 3 -0.001999 -0.002775 0.013835 0.000000 -0.000933 0.000000
# 4 0.000000 0.000000 0.000000 0.043237 0.000000 -0.000639
# 5 -0.009956 0.004877 -0.000933 0.000000 0.056003 0.000000
# 6 0.000000 0.000000 0.000000 -0.000639 0.000000 0.024473
#
#
# Mechanical properties :
#
#
# Convention : Reuss Voigt Hill
#
# Bulk Modulus (GPa) = 46.76166 49.26701 48.01434
# Shear Modulus (GPa) = 24.25350 27.65611 25.95480
#
# Velocity S-wave (km/s) = 3.58502 3.82825 3.70863
# Velocity P-wave (km/s) = 6.47429 6.75634 6.61682
#
# Compressibility (1/GPa) = 0.02138504
#
# Stress axis : x y z
#
# Youngs Moduli (GPa) = 54.73458 61.56000 72.27979
#
# Poissons Ratio (x) = 0.53603 0.14452
# Poissons Ratio (y) = 0.47660 0.20060
# Poissons Ratio (z) = 0.10944 0.17085
#
# Static dielectric constant tensor:
#      x y z
#    x 3.483590 0.000000 0.116350 
#    y 0.000000 3.588880 0.000000 
#    z 0.116350 0.000000 3.494210 
# 
# 
# High freq. dielectric constant tensor:
#      x y z
#    x 1.718840 0.000000 0.012020 
#    y 0.000000 1.723870 0.000000 
#    z 0.012020 0.000000 1.709740 
# 
# From -- ./inp_files/54437.got.cif
#   From: 2010.03.12/outbox.cif.g09.slc.cpg/sg5_28_cif.got.tgz:54437.got - 2010.03.31 09:47:26.
