data_PCOD8048035
_publ_section_title
;
Structure prediction by ZEFSAII (Michael W. Deem and Ramdas Pophale) SiO2 
 PCOD8048035
Probable space group: C 2
;
_chemical_formula_sum "Si O2"
_cell_formula_units_Z 26
_cell_length_a 15.172067
_cell_length_b 8.619895
_cell_length_c 17.790605
_cell_angle_alpha 90.000000
_cell_angle_beta 32.811837
_cell_angle_gamma 90.000000
_cell_volume 1260.787963
_symmetry_space_group_name_H-M "C 2"
_symmetry_group_IT_number 5
_symmetry_cell_setting 'monoclinic'
loop_
_space_group_symop_operation_xyz
x,y,z
-x,y,-z
1/2+x,1/2+y,z
1/2-x,1/2+y,-z
loop_
_atom_site_type_symbol
_atom_site_label
_atom_site_fract_x
_atom_site_fract_y
_atom_site_fract_z
Si Si1 0.670572 0.849390 0.346212
Si Si2 0.563540 0.651356 0.283742
Si Si3 0.512386 0.850380 0.800025
Si Si4 0.500000 0.353682 0.500000
Si Si5 0.765745 0.087744 0.589178
Si Si6 0.846016 0.414443 0.067634
Si Si7 0.765304 0.179230 0.243103
O O1 0.500000 0.913006 0.500000
O O2 0.639459 0.742702 0.297860
O O3 0.761405 0.749308 0.346154
O O4 0.778292 0.993597 0.240432
O O5 0.578392 0.749224 0.197364
O O6 0.371587 0.613759 0.437084
O O7 0.673583 0.498319 0.200423
O O8 0.641708 0.745422 0.751010
O O9 0.592852 0.001348 0.700367
O O10 0.377388 0.905834 0.956335
O O11 0.362930 0.467974 0.569851
O O12 0.579355 0.241426 0.380465
O O13 0.835913 0.242900 0.113547
O O14 0.000000 0.499037 0.000000
#
# Coordination Sequence:
#
# PCOD8048035 Si02
#       7
#     4   4   4   2   4   4   4
#     4  10  19  33  60  89 117 150 207 244 290 356
#     4  11  21  39  62  88 118 158 199 255 304 357
#     4  10  24  39  58  88 123 156 202 247 311 358
#     4  10  14  32  62  86 108 156 194 236 282 352
#     4  10  19  39  61  88 119 161 196 247 299 364
#     4  10  21  42  62  82 118 168 203 241 303 370
#     4  10  19  35  60  88 117 155 200 244 292 361
#
# _framework density 20.622025000000001
#
# number of rings (size 3 to 8) (size 9 to 14) (size 15 to 20)
#    0.000    1.846    4.615    1.846    0.000    3.692 
#    0.000   13.077    0.000    0.000    0.000    0.000 
#    0.000    0.000    0.000    0.000    0.000    0.000 
#
# Total GULP energy -161081.667744 kJ/mol
# GULP energy per Si atom -12390.897519 kJ/mol
# Density = 2.057509 g / cm^3
# Si number density = 20.622025 Si / 1000 Ang^3
#
#
#
# Elastic Constant Matrix: (Units=GPa)
#
#
# Indices 1 2 3 4 5 6 
#
# 1 40.7610 18.6337 29.5540 0.0000 11.4782 0.0000
# 2 18.6337 106.5982 49.4791 0.0001 -3.5616 0.0000
# 3 29.5540 49.4791 123.3424 0.0003 15.3485 -0.0001
# 4 0.0000 0.0001 0.0003 27.6067 -0.0001 1.0321
# 5 11.4782 -3.5616 15.3485 -0.0001 25.0343 0.0000
# 6 0.0000 0.0000 -0.0001 1.0321 0.0000 22.4375
#
#
#
# Elastic Compliance Matrix: (Units=1/GPa)
#
#
# Indices 1 2 3 4 5 6 
#
# 1 0.033529 -0.004079 -0.004777 0.000000 -0.013025 0.000000
# 2 -0.004079 0.012593 -0.004904 0.000000 0.006669 0.000000
# 3 -0.004777 -0.004904 0.011945 0.000000 -0.005831 0.000000
# 4 0.000000 0.000000 0.000000 0.036285 0.000000 -0.001669
# 5 -0.013025 0.006669 -0.005831 0.000000 0.050441 0.000000
# 6 0.000000 0.000000 0.000000 -0.001669 0.000000 0.044645
#
#
# Mechanical properties :
#
#
# Convention : Reuss Voigt Hill
#
# Bulk Modulus (GPa) = 32.73612 51.78166 42.25889
# Shear Modulus (GPa) = 22.01272 26.55135 24.28203
#
# Velocity S-wave (km/s) = 3.27071 3.59210 3.43517
# Velocity P-wave (km/s) = 5.49292 6.50912 6.02249
#
# Compressibility (1/GPa) = 0.03054730
#
# Stress axis : x y z
#
# Youngs Moduli (GPa) = 29.82484 79.40765 83.71652
#
# Poissons Ratio (x) = 0.32390 0.39990
# Poissons Ratio (y) = 0.12165 0.41057
# Poissons Ratio (z) = 0.14247 0.38944
#
# Static dielectric constant tensor:
#      x y z
#    x 3.462010 0.000000 -0.186840 
#    y 0.000000 3.798000 0.000000 
#    z -0.186840 0.000000 4.276910 
# 
# 
# High freq. dielectric constant tensor:
#      x y z
#    x 1.765730 0.000000 0.004870 
#    y 0.000000 1.802190 0.000000 
#    z 0.004870 0.000000 1.817580 
# 
# From -- ./inp_files/29134.got.cif
#   From: 2010.03.12/outbox.cif.g09.slc.cpg/sg5_15_cif.got.tgz:29134.got - 2010.03.31 09:47:26.
