data_PCOD8048566
_publ_section_title
;
Structure prediction by ZEFSAII (Michael W. Deem and Ramdas Pophale) SiO2 
 PCOD8048566
Probable space group: C 2
;
_chemical_formula_sum "Si O2"
_cell_formula_units_Z 32
_cell_length_a 9.676338
_cell_length_b 14.349277
_cell_length_c 22.079018
_cell_angle_alpha 90.000000
_cell_angle_beta 144.218455
_cell_angle_gamma 90.000000
_cell_volume 1792.467225
_symmetry_space_group_name_H-M "C 2"
_symmetry_group_IT_number 5
_symmetry_cell_setting 'monoclinic'
loop_
_space_group_symop_operation_xyz
x,y,z
-x,y,-z
1/2+x,1/2+y,z
1/2-x,1/2+y,-z
loop_
_atom_site_type_symbol
_atom_site_label
_atom_site_fract_x
_atom_site_fract_y
_atom_site_fract_z
Si Si1 0.870691 0.329190 0.605062
Si Si2 0.136530 0.768701 0.201325
Si Si3 0.694407 0.767678 0.119338
Si Si4 0.865087 0.947088 0.241932
Si Si5 0.901153 0.827518 0.368920
Si Si6 0.673548 0.127468 0.115868
Si Si7 0.853292 0.161775 0.783784
Si Si8 0.245457 0.958066 0.279146
O O1 0.660340 0.301446 0.485917
O O2 0.778706 0.347198 0.640418
O O3 0.084198 0.251073 0.681445
O O4 0.982271 0.425258 0.618354
O O5 0.068442 0.715179 0.115503
O O6 0.109947 0.882347 0.186817
O O7 0.951965 0.734915 0.186712
O O8 0.707932 0.866641 0.156917
O O9 0.596009 0.688777 0.129133
O O10 0.500000 0.780048 0.000000
O O11 0.902953 0.919211 0.326055
O O12 0.120180 0.957708 0.300350
O O13 0.719742 0.043013 0.179609
O O14 0.834639 0.734315 0.309590
O O15 0.912266 0.164935 0.171910
O O16 0.500000 0.095939 0.000000
O O17 0.749052 0.058493 0.748743
#
# Coordination Sequence:
#
# PCOD8048566 Si02
#       8
#     4   4   4   4   4   4   4   4
#     4   9  19  37  55  76 109 145 175 229 281 321
#     4   9  19  37  50  76 112 143 178 230 266 328
#     4  10  19  34  54  78 108 148 180 224 278 320
#     4   9  20  34  54  82 107 141 183 229 265 326
#     4  10  19  36  59  78 108 143 186 225 279 333
#     4  11  20  35  57  83 111 146 184 226 274 326
#     4  10  19  35  55  80 108 143 183 228 269 327
#     4   8  18  36  52  73 113 139 173 226 271 315
#
# _framework density 17.852488000000001
#
# number of rings (size 3 to 8) (size 9 to 14) (size 15 to 20)
#    0.750    1.750    1.250    1.125    0.000    1.500 
#    2.250    0.625    0.000    0.000    0.000    0.000 
#    0.000    0.000    0.000    0.000    0.000    0.000 
#
# Total GULP energy -198218.104946 kJ/mol
# GULP energy per Si atom -12388.631559 kJ/mol
# Density = 1.781185 g / cm^3
# Si number density = 17.852488 Si / 1000 Ang^3
#
#
#
# Elastic Constant Matrix: (Units=GPa)
#
#
# Indices 1 2 3 4 5 6 
#
# 1 78.0245 38.5544 32.3889 0.0000 -5.0935 0.0000
# 2 38.5544 87.3753 21.0287 -0.0001 -7.2719 0.0000
# 3 32.3889 21.0287 81.0864 0.0004 -9.0856 -0.0001
# 4 0.0000 -0.0001 0.0004 22.5346 0.0000 -2.3383
# 5 -5.0935 -7.2719 -9.0856 0.0000 24.8432 -0.0001
# 6 0.0000 0.0000 -0.0001 -2.3383 -0.0001 25.6780
#
#
#
# Elastic Compliance Matrix: (Units=1/GPa)
#
#
# Indices 1 2 3 4 5 6 
#
# 1 0.018525 -0.006835 -0.005657 0.000000 -0.000272 0.000000
# 2 -0.006835 0.014882 -0.000832 0.000000 0.002650 0.000000
# 3 -0.005657 -0.000832 0.015277 0.000000 0.004184 0.000000
# 4 0.000000 0.000000 0.000000 0.044800 0.000000 0.004079
# 5 -0.000272 0.002650 0.004184 0.000000 0.042503 0.000000
# 6 0.000000 0.000000 0.000000 0.004079 0.000000 0.039315
#
#
# Mechanical properties :
#
#
# Convention : Reuss Voigt Hill
#
# Bulk Modulus (GPa) = 45.38434 47.82556 46.60495
# Shear Modulus (GPa) = 23.88981 24.91211 24.40096
#
# Velocity S-wave (km/s) = 3.66208 3.73961 3.70105
# Velocity P-wave (km/s) = 6.58469 6.74490 6.66528
#
# Compressibility (1/GPa) = 0.02203403
#
# Stress axis : x y z
#
# Youngs Moduli (GPa) = 53.98236 67.19657 65.45857
#
# Poissons Ratio (x) = 0.45929 0.37032
# Poissons Ratio (y) = 0.36897 0.05448
# Poissons Ratio (z) = 0.30539 0.05592
#
# Static dielectric constant tensor:
#      x y z
#    x 3.462100 0.000000 0.052630 
#    y 0.000000 3.226710 0.000000 
#    z 0.052630 0.000000 3.159400 
# 
# 
# High freq. dielectric constant tensor:
#      x y z
#    x 1.700150 0.000000 0.008110 
#    y 0.000000 1.679080 0.000000 
#    z 0.008110 0.000000 1.674170 
# 
# From -- ./inp_files/64662.got.cif
#   From: 2010.03.12/outbox.cif.g09.slc.cpg/sg5_33_cif.got.tgz:64662.got - 2010.03.31 09:47:26.
