data_PCOD8048228
_publ_section_title
;
Structure prediction by ZEFSAII (Michael W. Deem and Ramdas Pophale) SiO2 
 PCOD8048228
Probable space group: C 2
;
_chemical_formula_sum "Si O2"
_cell_formula_units_Z 30
_cell_length_a 11.895332
_cell_length_b 16.276877
_cell_length_c 11.484489
_cell_angle_alpha 90.000000
_cell_angle_beta 43.852804
_cell_angle_gamma 90.000000
_cell_volume 1540.537431
_symmetry_space_group_name_H-M "C 2"
_symmetry_group_IT_number 5
_symmetry_cell_setting 'monoclinic'
loop_
_space_group_symop_operation_xyz
x,y,z
-x,y,-z
1/2+x,1/2+y,z
1/2-x,1/2+y,-z
loop_
_atom_site_type_symbol
_atom_site_label
_atom_site_fract_x
_atom_site_fract_y
_atom_site_fract_z
Si Si1 0.177054 0.858940 0.406140
Si Si2 0.332505 0.690979 0.312434
Si Si3 0.120979 0.948042 0.678173
Si Si4 0.160907 0.519183 0.805118
Si Si5 0.619964 0.596630 0.178326
Si Si6 0.500000 0.442790 0.000000
Si Si7 0.744256 0.582657 0.843533
Si Si8 0.389993 0.068650 0.421531
O O1 0.309873 0.786707 0.300435
O O2 0.159303 0.881868 0.553549
O O3 0.000000 0.827908 0.500000
O O4 0.238135 0.934293 0.281081
O O5 0.492944 0.672991 0.271478
O O6 0.347359 0.642948 0.178145
O O7 0.179266 0.659480 0.501935
O O8 0.283132 0.003358 0.576473
O O9 0.979000 0.011374 0.751850
O O10 0.061061 0.895711 0.837831
O O11 0.270862 0.589036 0.786632
O O12 0.116343 0.550365 0.710845
O O13 0.000000 0.501503 0.000000
O O14 0.737917 0.615309 0.980873
O O15 0.344825 0.496566 0.084561
O O16 0.928230 0.568011 0.666743
#
# Coordination Sequence:
#
# PCOD8048228 Si02
#       8
#     4   4   4   4   4   2   4   4
#     4  11  22  37  59  87 129 157 198 250 315 358
#     4  11  22  35  57  91 116 157 192 253 308 352
#     4   9  19  34  55  85 111 159 192 246 300 365
#     4  11  22  38  61  91 116 161 203 250 297 366
#     4  10  19  37  59  85 118 155 204 242 301 360
#     4  10  18  32  58  80 114 156 204 246 298 358
#     4  11  17  32  56  85 116 146 194 254 296 345
#     4  10  20  32  57  85 114 148 206 242 288 360
#
# _framework density 19.473721999999999
#
# number of rings (size 3 to 8) (size 9 to 14) (size 15 to 20)
#    0.000    1.600    6.667    1.200    0.000    1.067 
#    0.000    0.000    1.467    6.400    0.000    0.000 
#    0.000    0.000    0.000    0.000    0.000    0.000 
#
# Total GULP energy -185854.619056 kJ/mol
# GULP energy per Si atom -12390.307937 kJ/mol
# Density = 1.942940 g / cm^3
# Si number density = 19.473722 Si / 1000 Ang^3
#
#
#
# Elastic Constant Matrix: (Units=GPa)
#
#
# Indices 1 2 3 4 5 6 
#
# 1 74.8313 26.4522 29.8028 0.0000 -6.7352 -0.0003
# 2 26.4522 63.3476 13.7666 -0.0001 2.6747 -0.0001
# 3 29.8028 13.7666 112.9192 -0.0007 1.9246 0.0001
# 4 0.0000 -0.0001 -0.0007 12.6775 0.0002 -4.2770
# 5 -6.7352 2.6747 1.9246 0.0002 38.8648 0.0002
# 6 -0.0003 -0.0001 0.0001 -4.2770 0.0002 21.9339
#
#
#
# Elastic Compliance Matrix: (Units=1/GPa)
#
#
# Indices 1 2 3 4 5 6 
#
# 1 0.017603 -0.006660 -0.003897 0.000000 0.003702 0.000000
# 2 -0.006660 0.018776 -0.000490 0.000000 -0.002422 0.000000
# 3 -0.003897 -0.000490 0.009964 0.000001 -0.001135 0.000000
# 4 0.000000 0.000000 0.000001 0.084435 -0.000001 0.016464
# 5 0.003702 -0.002422 -0.001135 -0.000001 0.026595 0.000000
# 6 0.000000 0.000000 0.000000 0.016464 0.000000 0.048802
#
#
# Mechanical properties :
#
#
# Convention : Reuss Voigt Hill
#
# Bulk Modulus (GPa) = 41.24033 43.46014 42.35023
# Shear Modulus (GPa) = 21.15505 26.76700 23.96103
#
# Velocity S-wave (km/s) = 3.29954 3.71147 3.51155
# Velocity P-wave (km/s) = 5.97824 6.38220 6.18352
#
# Compressibility (1/GPa) = 0.02424811
#
# Stress axis : x y z
#
# Youngs Moduli (GPa) = 56.80895 53.26046 100.36601
#
# Poissons Ratio (x) = 0.35471 0.39113
# Poissons Ratio (y) = 0.37834 0.04918
# Poissons Ratio (z) = 0.22139 0.02610
#
# Static dielectric constant tensor:
#      x y z
#    x 3.637350 0.000000 0.140700 
#    y 0.000000 3.038840 0.000000 
#    z 0.140700 0.000000 4.033710 
# 
# 
# High freq. dielectric constant tensor:
#      x y z
#    x 1.761050 0.000000 0.004000 
#    y 0.000000 1.696940 0.000000 
#    z 0.004000 0.000000 1.786440 
# 
# From -- ./inp_files/40445.got.cif
#   From: 2010.03.12/outbox.cif.g09.slc.cpg/sg5_21_cif.got.tgz:40445.got - 2010.03.31 09:47:26.
