data_PCOD8048962
_publ_section_title
;
Structure prediction by ZEFSAII (Michael W. Deem and Ramdas Pophale) SiO2 
 PCOD8048962
Probable space group: C 2
;
_chemical_formula_sum "Si O2"
_cell_formula_units_Z 22
_cell_length_a 23.618238
_cell_length_b 9.066960
_cell_length_c 6.068019
_cell_angle_alpha 90.000000
_cell_angle_beta 120.863360
_cell_angle_gamma 90.000000
_cell_volume 1115.430105
_symmetry_space_group_name_H-M "C 2"
_symmetry_group_IT_number 5
_symmetry_cell_setting 'monoclinic'
loop_
_space_group_symop_operation_xyz
x,y,z
-x,y,-z
1/2+x,1/2+y,z
1/2-x,1/2+y,-z
loop_
_atom_site_type_symbol
_atom_site_label
_atom_site_fract_x
_atom_site_fract_y
_atom_site_fract_z
Si Si1 0.201698 0.526810 0.441566
Si Si2 0.385256 0.238537 0.491742
Si Si3 0.314417 0.826335 0.206731
Si Si4 0.903459 0.526703 0.143460
Si Si5 0.500000 0.117152 0.000000
Si Si6 0.298655 0.498745 0.279594
O O1 0.183726 0.658141 0.575355
O O2 0.190094 0.371956 0.544458
O O3 0.275116 0.531062 0.485050
O O4 0.155636 0.549682 0.141155
O O5 0.409720 0.170685 0.310235
O O6 0.367912 0.410598 0.428494
O O7 0.441849 0.220051 0.789382
O O8 0.311498 0.650855 0.176852
O O9 0.385338 0.882188 0.252285
O O10 0.253705 0.901725 0.959576
O O11 0.971584 0.512642 0.140149
#
# Coordination Sequence:
#
# PCOD8048962 Si02
#       6
#     4   4   4   4   2   4
#     4   9  18  33  53  82 113 145 179 218 275 335
#     4  10  20  35  59  84 110 148 190 230 272 327
#     4  10  20  33  54  85 118 147 179 225 280 337
#     4   9  19  36  57  80 105 143 188 230 274 324
#     4  10  20  38  62  78 104 150 200 234 268 324
#     4  11  20  33  54  85 120 148 179 224 281 336
#
# _framework density 19.723331000000002
#
# number of rings (size 3 to 8) (size 9 to 14) (size 15 to 20)
#    0.000    2.182    0.000    4.909    0.000    2.909 
#    0.000    0.000    0.000   26.182    0.000    0.000 
#    0.000    0.000    0.000    0.000    0.000    0.000 
#
# Total GULP energy -136322.923413 kJ/mol
# GULP energy per Si atom -12392.993038 kJ/mol
# Density = 1.967844 g / cm^3
# Si number density = 19.723331 Si / 1000 Ang^3
#
#
#
# Elastic Constant Matrix: (Units=GPa)
#
#
# Indices 1 2 3 4 5 6 
#
# 1 135.9712 61.1847 32.4426 0.0000 -21.7110 0.0000
# 2 61.1847 143.7926 33.4409 0.0000 -0.3035 0.0000
# 3 32.4426 33.4409 80.3191 0.0000 -5.8935 0.0000
# 4 0.0000 0.0000 0.0000 22.3906 0.0000 6.2208
# 5 -21.7110 -0.3035 -5.8935 0.0000 35.6710 0.0000
# 6 0.0000 0.0000 0.0000 6.2208 0.0000 16.7427
#
#
#
# Elastic Compliance Matrix: (Units=1/GPa)
#
#
# Indices 1 2 3 4 5 6 
#
# 1 0.010654 -0.004012 -0.002186 0.000000 0.006089 0.000000
# 2 -0.004012 0.009219 -0.002420 0.000000 -0.002763 0.000000
# 3 -0.002186 -0.002420 0.014417 0.000000 0.001031 0.000000
# 4 0.000000 0.000000 0.000000 0.049803 0.000000 -0.018504
# 5 0.006089 -0.002763 0.001031 0.000000 0.031887 0.000000
# 6 0.000000 0.000000 0.000000 -0.018504 0.000000 0.066603
#
#
# Mechanical properties :
#
#
# Convention : Reuss Voigt Hill
#
# Bulk Modulus (GPa) = 58.64377 68.24659 63.44518
# Shear Modulus (GPa) = 24.33059 30.49515 27.41287
#
# Velocity S-wave (km/s) = 3.51607 3.93637 3.73214
# Velocity P-wave (km/s) = 6.80304 7.43889 7.12806
#
# Compressibility (1/GPa) = 0.01705211
#
# Stress axis : x y z
#
# Youngs Moduli (GPa) = 93.86459 108.47582 69.36385
#
# Poissons Ratio (x) = 0.43520 0.15163
# Poissons Ratio (y) = 0.37658 0.16789
# Poissons Ratio (z) = 0.20519 0.26256
#
# Static dielectric constant tensor:
#      x y z
#    x 4.034980 0.000000 -0.359590 
#    y 0.000000 3.441450 0.000000 
#    z -0.359590 0.000000 3.642390 
# 
# 
# High freq. dielectric constant tensor:
#      x y z
#    x 1.761550 0.000000 -0.024240 
#    y 0.000000 1.736460 0.000000 
#    z -0.024240 0.000000 1.774370 
# 
# From -- ./inp_files/9231.got.cif
#   From: 2010.03.12/outbox.cif.g09.slc.cpg/sg5_5_cif.got.tgz:9231.got - 2010.03.31 09:47:26.
