data_PCOD8048355
_publ_section_title
;
Structure prediction by ZEFSAII (Michael W. Deem and Ramdas Pophale) SiO2 
 PCOD8048355
Probable space group: C 2
;
_chemical_formula_sum "Si O2"
_cell_formula_units_Z 26
_cell_length_a 19.690159
_cell_length_b 8.628975
_cell_length_c 13.812756
_cell_angle_alpha 90.000000
_cell_angle_beta 147.889223
_cell_angle_gamma 90.000000
_cell_volume 1247.496564
_symmetry_space_group_name_H-M "C 2"
_symmetry_group_IT_number 5
_symmetry_cell_setting 'monoclinic'
loop_
_space_group_symop_operation_xyz
x,y,z
-x,y,-z
1/2+x,1/2+y,z
1/2-x,1/2+y,-z
loop_
_atom_site_type_symbol
_atom_site_label
_atom_site_fract_x
_atom_site_fract_y
_atom_site_fract_z
Si Si1 0.500000 0.750000 0.500000
Si Si2 0.767762 0.611214 0.806886
Si Si3 0.471351 0.976606 0.636695
Si Si4 0.630674 0.255284 0.871742
Si Si5 0.055221 0.994930 0.920892
Si Si6 0.136951 0.326395 0.989236
Si Si7 0.811458 0.884976 0.738466
O O1 0.616171 0.633503 0.625080
O O2 0.527927 0.864517 0.622971
O O3 0.813313 0.698660 0.762732
O O4 0.826736 0.675414 0.977410
O O5 0.805881 0.428240 0.851688
O O6 0.530023 0.927508 0.808771
O O7 0.318804 0.959108 0.458485
O O8 0.520343 0.154962 0.683164
O O9 0.578128 0.425274 0.840731
O O10 0.747908 0.274872 0.940997
O O11 0.055167 0.179349 0.923716
O O12 0.921346 0.927167 0.796459
O O13 0.169960 0.953152 0.131861
#
# Coordination Sequence:
#
# PCOD8048355 Si02
#       7
#     2   4   4   4   4   4   4
#     4  10  18  36  58  86 128 156 194 264 294 360
#     4   9  19  36  59  86 119 155 203 241 310 355
#     4  10  21  35  60  86 118 162 206 242 308 358
#     4  10  20  35  59  89 118 157 196 246 307 367
#     4  10  21  40  61  82 127 156 201 248 312 359
#     4  11  21  36  60  92 118 160 197 258 305 373
#     4   9  21  41  60  84 114 171 199 250 302 358
#
# _framework density 20.841742
#
# number of rings (size 3 to 8) (size 9 to 14) (size 15 to 20)
#    0.000    2.154    1.538    1.846    4.308    1.231 
#    2.769    9.231    0.000    0.000    0.000    0.000 
#    0.000    0.000    0.000    0.000    0.000    0.000 
#
# Total GULP energy -161066.014483 kJ/mol
# GULP energy per Si atom -12389.693422 kJ/mol
# Density = 2.079431 g / cm^3
# Si number density = 20.841742 Si / 1000 Ang^3
#
#
#
# Elastic Constant Matrix: (Units=GPa)
#
#
# Indices 1 2 3 4 5 6 
#
# 1 78.4550 36.0108 31.9882 0.0000 24.3481 0.0000
# 2 36.0108 132.3701 57.0416 0.0000 16.9281 0.0000
# 3 31.9882 57.0416 115.5182 0.0000 18.7060 0.0000
# 4 0.0000 0.0000 0.0000 36.2253 0.0000 -4.2406
# 5 24.3481 16.9281 18.7060 0.0000 25.8792 0.0000
# 6 0.0000 0.0000 0.0000 -4.2406 0.0000 16.5990
#
#
#
# Elastic Compliance Matrix: (Units=1/GPa)
#
#
# Indices 1 2 3 4 5 6 
#
# 1 0.019360 -0.002622 -0.001579 0.000000 -0.015358 0.000000
# 2 -0.002622 0.010196 -0.004109 0.000000 -0.001232 0.000000
# 3 -0.001579 -0.004109 0.011832 0.000000 -0.004379 0.000000
# 4 0.000000 0.000000 0.000000 0.028456 0.000000 0.007270
# 5 -0.015358 -0.001232 -0.004379 0.000000 0.057061 0.000000
# 6 0.000000 0.000000 0.000000 0.007270 0.000000 0.062102
#
#
# Mechanical properties :
#
#
# Convention : Reuss Voigt Hill
#
# Bulk Modulus (GPa) = 40.37629 64.04716 52.21172
# Shear Modulus (GPa) = 23.37714 29.16088 26.26901
#
# Velocity S-wave (km/s) = 3.35274 3.74459 3.55407
# Velocity P-wave (km/s) = 5.86538 7.03512 6.47671
#
# Compressibility (1/GPa) = 0.02476701
#
# Stress axis : x y z
#
# Youngs Moduli (GPa) = 51.65326 98.07512 84.51615
#
# Poissons Ratio (x) = 0.25718 0.13347
# Poissons Ratio (y) = 0.13545 0.34729
# Poissons Ratio (z) = 0.08157 0.40300
#
# Static dielectric constant tensor:
#      x y z
#    x 3.482520 0.000000 -0.050550 
#    y 0.000000 4.308440 0.000000 
#    z -0.050550 0.000000 3.836980 
# 
# 
# High freq. dielectric constant tensor:
#      x y z
#    x 1.792130 0.000000 0.011590 
#    y 0.000000 1.818810 0.000000 
#    z 0.011590 0.000000 1.814040 
# 
# From -- ./inp_files/41822.got.cif
#   From: 2010.03.12/outbox.cif.g09.slc.cpg/sg5_21_cif.got.tgz:41822.got - 2010.03.31 09:47:26.
