data_PCOD8048749
_publ_section_title
;
Structure prediction by ZEFSAII (Michael W. Deem and Ramdas Pophale) SiO2 
 PCOD8048749
Probable space group: C 2
;
_chemical_formula_sum "Si O2"
_cell_formula_units_Z 18
_cell_length_a 17.858394
_cell_length_b 8.274939
_cell_length_c 14.914926
_cell_angle_alpha 90.000000
_cell_angle_beta 158.057933
_cell_angle_gamma 90.000000
_cell_volume 823.597966
_symmetry_space_group_name_H-M "C 2"
_symmetry_group_IT_number 5
_symmetry_cell_setting 'monoclinic'
loop_
_space_group_symop_operation_xyz
x,y,z
-x,y,-z
1/2+x,1/2+y,z
1/2-x,1/2+y,-z
loop_
_atom_site_type_symbol
_atom_site_label
_atom_site_fract_x
_atom_site_fract_y
_atom_site_fract_z
Si Si1 0.263463 0.470660 0.936692
Si Si2 0.963737 0.682834 0.704315
Si Si3 0.669315 0.230653 0.254052
Si Si4 0.086911 0.107913 0.188549
Si Si5 0.500000 0.799789 0.500000
O O1 0.094867 0.530947 0.817608
O O2 0.167064 0.405469 0.736848
O O3 0.391865 0.336001 0.130734
O O4 0.413326 0.614068 0.071906
O O5 0.861289 0.638426 0.685923
O O6 0.780179 0.713486 0.431657
O O7 0.655803 0.422449 0.254603
O O8 0.884785 0.191974 0.447080
O O9 0.500000 0.165001 0.000000
O O10 0.000000 0.180919 0.000000
#
# Coordination Sequence:
#
# PCOD8048749 Si02
#       5
#     4   4   4   4   2
#     4  11  23  37  67  95 126 166 212 261 314 371
#     4  11  23  37  64 100 128 161 214 264 313 369
#     4  10  20  37  61  95 122 167 213 257 299 376
#     4  10  19  37  61  92 125 164 213 258 305 372
#     4  12  18  40  68  94 116 174 226 246 298 392
#
# _framework density 21.855322999999999
#
# number of rings (size 3 to 8) (size 9 to 14) (size 15 to 20)
#    0.000    1.333    8.889    0.000    3.111    0.000 
#    0.000    0.000    0.000   32.000    0.000    0.000 
#    0.000    0.000    0.000    0.000    0.000    0.000 
#
# Total GULP energy -111566.852353 kJ/mol
# GULP energy per Si atom -12396.316928 kJ/mol
# Density = 2.180558 g / cm^3
# Si number density = 21.855323 Si / 1000 Ang^3
#
#
#
# Elastic Constant Matrix: (Units=GPa)
#
#
# Indices 1 2 3 4 5 6 
#
# 1 186.8800 33.7190 71.8442 -0.0001 23.1583 -0.0001
# 2 33.7190 25.5282 37.9210 -0.0001 -5.4559 -0.0001
# 3 71.8442 37.9210 187.4069 -0.0001 -10.5639 -0.0001
# 4 -0.0001 -0.0001 -0.0001 16.7006 -0.0001 6.6754
# 5 23.1583 -5.4559 -10.5639 -0.0001 53.9122 0.0000
# 6 -0.0001 -0.0001 -0.0001 6.6754 0.0000 31.7725
#
#
#
# Elastic Compliance Matrix: (Units=1/GPa)
#
#
# Indices 1 2 3 4 5 6 
#
# 1 0.008281 -0.009795 -0.001465 0.000000 -0.004835 0.000000
# 2 -0.009795 0.068247 -0.009534 0.000000 0.009246 0.000000
# 3 -0.001465 -0.009534 0.007895 0.000000 0.001212 0.000000
# 4 0.000000 0.000000 0.000000 0.065368 0.000000 -0.013734
# 5 -0.004835 0.009246 0.001212 0.000000 0.021799 0.000000
# 6 0.000000 0.000000 0.000000 -0.013734 0.000000 0.034359
#
#
# Mechanical properties :
#
#
# Convention : Reuss Voigt Hill
#
# Bulk Modulus (GPa) = 23.34461 76.30928 49.82694
# Shear Modulus (GPa) = 19.09751 37.56579 28.33165
#
# Velocity S-wave (km/s) = 2.95924 4.15039 3.60436
# Velocity P-wave (km/s) = 4.73083 7.61308 6.33797
#
# Compressibility (1/GPa) = 0.04283644
#
# Stress axis : x y z
#
# Youngs Moduli (GPa) = 120.76197 14.65260 126.66203
#
# Poissons Ratio (x) = 0.14352 0.18558
# Poissons Ratio (y) = 1.18282 1.20753
# Poissons Ratio (z) = 0.17694 0.13969
#
# Static dielectric constant tensor:
#      x y z
#    x 4.379470 0.000000 0.195130 
#    y 0.000000 3.173750 0.000000 
#    z 0.195130 0.000000 4.269670 
# 
# 
# High freq. dielectric constant tensor:
#      x y z
#    x 1.880090 0.000000 0.010480 
#    y 0.000000 1.780120 0.000000 
#    z 0.010480 0.000000 1.884350 
# 
# From -- ./inp_files/38569.got.cif
#   From: 2010.03.12/outbox.cif.g09.slc.cpg/sg5_20_cif.got.tgz:38569.got - 2010.03.31 09:47:26.
