data_PCOD8048762
_publ_section_title
;
Structure prediction by ZEFSAII (Michael W. Deem and Ramdas Pophale) SiO2 
 PCOD8048762
Probable space group: C 2
;
_chemical_formula_sum "Si O2"
_cell_formula_units_Z 32
_cell_length_a 16.621609
_cell_length_b 15.002262
_cell_length_c 11.931986
_cell_angle_alpha 90.000000
_cell_angle_beta 30.374378
_cell_angle_gamma 90.000000
_cell_volume 1504.495327
_symmetry_space_group_name_H-M "C 2"
_symmetry_group_IT_number 5
_symmetry_cell_setting 'monoclinic'
loop_
_space_group_symop_operation_xyz
x,y,z
-x,y,-z
1/2+x,1/2+y,z
1/2-x,1/2+y,-z
loop_
_atom_site_type_symbol
_atom_site_label
_atom_site_fract_x
_atom_site_fract_y
_atom_site_fract_z
Si Si1 0.489064 0.286980 0.843358
Si Si2 0.324764 0.960110 0.084609
Si Si3 0.227177 0.157388 0.193312
Si Si4 0.181319 0.493149 0.653573
Si Si5 0.997696 0.982779 0.131267
Si Si6 0.217379 0.188018 0.445619
Si Si7 0.862669 0.792106 0.752558
Si Si8 0.110059 0.158051 0.094082
O O1 0.426732 0.384239 0.956611
O O2 0.673862 0.273399 0.656680
O O3 0.459916 0.273432 0.747783
O O4 0.389404 0.210961 0.025864
O O5 0.293643 0.947033 0.255066
O O6 0.236059 0.883501 0.122115
O O7 0.249639 0.053669 0.141728
O O8 0.508407 0.958761 0.822428
O O9 0.134285 0.179136 0.421014
O O10 0.144606 0.190004 0.179665
O O11 0.322019 0.469752 0.397369
O O12 0.173534 0.600000 0.672646
O O13 0.108522 0.052055 0.068120
O O14 0.000000 0.016990 0.000000
O O15 0.071603 0.190337 0.709879
O O16 0.000000 0.800291 0.500000
O O17 0.741701 0.711276 0.863643
#
# Coordination Sequence:
#
# PCOD8048762 Si02
#       8
#     4   4   4   4   4   4   4   4
#     4  11  22  38  63  91 125 163 209 257 314 377
#     4  10  19  38  64  94 123 155 207 271 326 362
#     4  10  19  37  65  93 126 154 201 266 321 369
#     4   9  20  36  62  96 120 154 215 264 314 367
#     4  11  23  40  60  89 128 174 211 247 307 383
#     4  10  19  37  64  95 120 158 203 265 317 363
#     4  11  25  42  61  90 125 168 211 259 318 371
#     4  10  24  40  58  91 126 168 211 250 307 378
#
# _framework density 21.269590999999998
#
# number of rings (size 3 to 8) (size 9 to 14) (size 15 to 20)
#    0.000    1.750    1.250    3.000    1.750    4.000 
#    2.250    0.000    0.000    0.000    0.000    0.000 
#    0.000    0.000    0.000    0.000    0.000    0.000 
#
# Total GULP energy -198238.522968 kJ/mol
# GULP energy per Si atom -12389.907685 kJ/mol
# Density = 2.122118 g / cm^3
# Si number density = 21.269591 Si / 1000 Ang^3
#
#
#
# Elastic Constant Matrix: (Units=GPa)
#
#
# Indices 1 2 3 4 5 6 
#
# 1 57.7785 16.7035 12.8471 0.0003 0.8937 -0.0002
# 2 16.7035 105.9103 8.4690 0.0006 -11.1401 -0.0005
# 3 12.8471 8.4690 73.5635 0.0008 -1.8860 -0.0009
# 4 0.0003 0.0006 0.0008 23.5468 -0.0006 -5.3473
# 5 0.8937 -11.1401 -1.8860 -0.0006 23.9688 0.0005
# 6 -0.0002 -0.0005 -0.0009 -5.3473 0.0005 35.3048
#
#
#
# Elastic Compliance Matrix: (Units=1/GPa)
#
#
# Indices 1 2 3 4 5 6 
#
# 1 0.018875 -0.002981 -0.003013 0.000000 -0.002326 0.000000
# 2 -0.002981 0.010476 -0.000559 0.000000 0.004936 0.000000
# 3 -0.003013 -0.000559 0.014209 0.000000 0.000971 0.000000
# 4 0.000000 0.000000 0.000000 0.043981 0.000001 0.006662
# 5 -0.002326 0.004936 0.000971 0.000001 0.044178 0.000000
# 6 0.000000 0.000000 0.000000 0.006662 0.000000 0.029334
#
#
# Mechanical properties :
#
#
# Convention : Reuss Voigt Hill
#
# Bulk Modulus (GPa) = 32.83501 34.81015 33.82258
# Shear Modulus (GPa) = 27.12821 29.84625 28.48723
#
# Velocity S-wave (km/s) = 3.57521 3.75004 3.66367
# Velocity P-wave (km/s) = 5.70210 5.92892 5.81662
#
# Compressibility (1/GPa) = 0.03045530
#
# Stress axis : x y z
#
# Youngs Moduli (GPa) = 52.97999 95.45688 70.37750
#
# Poissons Ratio (x) = 0.28452 0.21204
# Poissons Ratio (y) = 0.15791 0.03934
# Poissons Ratio (z) = 0.15962 0.05336
#
# Static dielectric constant tensor:
#      x y z
#    x 3.724240 0.000000 0.039620 
#    y 0.000000 3.897590 0.000000 
#    z 0.039620 0.000000 3.980100 
# 
# 
# High freq. dielectric constant tensor:
#      x y z
#    x 1.823380 0.000000 -0.003920 
#    y 0.000000 1.830150 0.000000 
#    z -0.003920 0.000000 1.834100 
# 
# From -- ./inp_files/44969.got.cif
#   From: 2010.03.12/outbox.cif.g09.slc.cpg/sg5_23_cif.got.tgz:44969.got - 2010.03.31 09:47:26.
