data_PCOD8048833
_publ_section_title
;
Structure prediction by ZEFSAII (Michael W. Deem and Ramdas Pophale) SiO2 
 PCOD8048833
Probable space group: C 2
;
_chemical_formula_sum "Si O2"
_cell_formula_units_Z 28
_cell_length_a 9.233315
_cell_length_b 13.275646
_cell_length_c 21.607700
_cell_angle_alpha 90.000000
_cell_angle_beta 29.852786
_cell_angle_gamma 90.000000
_cell_volume 1318.418775
_symmetry_space_group_name_H-M "C 2"
_symmetry_group_IT_number 5
_symmetry_cell_setting 'monoclinic'
loop_
_space_group_symop_operation_xyz
x,y,z
-x,y,-z
1/2+x,1/2+y,z
1/2-x,1/2+y,-z
loop_
_atom_site_type_symbol
_atom_site_label
_atom_site_fract_x
_atom_site_fract_y
_atom_site_fract_z
Si Si1 0.000000 0.904330 0.500000
Si Si2 0.054068 0.464717 0.759572
Si Si3 0.526898 0.584872 0.320934
Si Si4 0.500000 0.928104 0.500000
Si Si5 0.196526 0.297803 0.076708
Si Si6 0.019906 0.298665 0.612077
Si Si7 0.833657 0.090779 0.870080
Si Si8 0.426695 0.415798 0.145842
O O1 0.774010 0.973958 0.620418
O O2 0.842672 0.835712 0.507708
O O3 0.159276 0.543781 0.772033
O O4 0.055049 0.355763 0.792720
O O5 0.724424 0.478421 0.855267
O O6 0.457299 0.677149 0.393573
O O7 0.573719 0.622532 0.233557
O O8 0.272925 0.499686 0.417842
O O9 0.420194 0.850314 0.584817
O O10 0.088384 0.182335 0.111108
O O11 0.500000 0.289670 0.000000
O O12 0.273999 0.358993 0.985118
O O13 0.796283 0.331032 0.748574
O O14 0.500000 0.060161 0.000000
O O15 0.016818 0.993062 0.820028
#
# Coordination Sequence:
#
# PCOD8048833 Si02
#       8
#     2   4   4   2   4   4   4   4
#     4  10  19  39  62  84 122 174 205 259 326 378
#     4  10  21  38  60  88 127 165 213 265 324 390
#     4  12  24  42  65  95 129 176 214 272 339 386
#     4  12  25  47  64 100 136 170 231 277 320 398
#     4   9  19  37  62  90 122 167 214 261 325 395
#     4  11  23  43  65  93 132 170 223 273 327 396
#     4  11  21  39  67  95 124 171 218 266 338 393
#     4  10  21  41  64  92 127 166 219 275 320 399
#
# _framework density 21.237562
#
# number of rings (size 3 to 8) (size 9 to 14) (size 15 to 20)
#    0.000    1.429    2.857    4.714    0.000    0.571 
#    2.571    0.000    0.000    0.000    0.000    0.000 
#    0.000    0.000    0.000    0.000    0.000    0.000 
#
# Total GULP energy -173467.881550 kJ/mol
# GULP energy per Si atom -12390.562968 kJ/mol
# Density = 2.118922 g / cm^3
# Si number density = 21.237562 Si / 1000 Ang^3
#
#
#
# Elastic Constant Matrix: (Units=GPa)
#
#
# Indices 1 2 3 4 5 6 
#
# 1 79.9227 53.7145 15.2793 0.0089 5.6735 0.0059
# 2 53.7145 124.0393 23.5363 -0.0057 8.2524 0.0129
# 3 15.2793 23.5363 79.4692 0.0141 16.8360 -0.0259
# 4 0.0089 -0.0057 0.0141 24.9521 -0.0139 6.6672
# 5 5.6735 8.2524 16.8360 -0.0139 25.0807 0.0102
# 6 0.0059 0.0129 -0.0259 6.6672 0.0102 36.4009
#
#
#
# Elastic Compliance Matrix: (Units=1/GPa)
#
#
# Indices 1 2 3 4 5 6 
#
# 1 0.017773 -0.007443 -0.001026 -0.000008 -0.000883 0.000001
# 2 -0.007443 0.011696 -0.001835 0.000007 -0.000933 -0.000005
# 3 -0.001026 -0.001835 0.015327 -0.000019 -0.009453 0.000018
# 4 -0.000008 0.000007 -0.000019 0.042139 0.000038 -0.007718
# 5 -0.000883 -0.000933 -0.009453 0.000038 0.046723 -0.000026
# 6 0.000001 -0.000005 0.000018 -0.007718 -0.000026 0.028886
#
#
# Mechanical properties :
#
#
# Convention : Reuss Voigt Hill
#
# Bulk Modulus (GPa) = 41.34401 52.05460 46.69930
# Shear Modulus (GPa) = 26.14868 30.01349 28.08108
#
# Velocity S-wave (km/s) = 3.51272 3.76337 3.64020
# Velocity P-wave (km/s) = 5.99683 6.59149 6.30118
#
# Compressibility (1/GPa) = 0.02418730
#
# Stress axis : x y z
#
# Youngs Moduli (GPa) = 56.26398 85.50296 65.24513
#
# Poissons Ratio (x) = 0.63642 0.06692
# Poissons Ratio (y) = 0.41879 0.11974
# Poissons Ratio (z) = 0.05771 0.15691
#
# Static dielectric constant tensor:
#      x y z
#    x 3.762650 0.000030 0.000290 
#    y 0.000030 3.852100 0.000020 
#    z 0.000290 0.000020 3.879320 
# 
# 
# High freq. dielectric constant tensor:
#      x y z
#    x 1.814640 0.000000 0.007410 
#    y 0.000000 1.825290 0.000000 
#    z 0.007410 0.000000 1.835430 
# 
# From -- ./inp_files/50999.got.cif
#   From: 2010.03.12/outbox.cif.g09.slc.cpg/sg5_26_cif.got.tgz:50999.got - 2010.03.31 09:47:26.
