data_PCOD8048272
_publ_section_title
;
Structure prediction by ZEFSAII (Michael W. Deem and Ramdas Pophale) SiO2 
 PCOD8048272
Probable space group: C 2
;
_chemical_formula_sum "Si O2"
_cell_formula_units_Z 28
_cell_length_a 13.121420
_cell_length_b 8.777771
_cell_length_c 14.394449
_cell_angle_alpha 90.000000
_cell_angle_beta 131.303347
_cell_angle_gamma 90.000000
_cell_volume 1245.462039
_symmetry_space_group_name_H-M "C 2"
_symmetry_group_IT_number 5
_symmetry_cell_setting 'monoclinic'
loop_
_space_group_symop_operation_xyz
x,y,z
-x,y,-z
1/2+x,1/2+y,z
1/2-x,1/2+y,-z
loop_
_atom_site_type_symbol
_atom_site_label
_atom_site_fract_x
_atom_site_fract_y
_atom_site_fract_z
Si Si1 0.550780 0.908010 0.203231
Si Si2 0.279587 0.161272 0.635628
Si Si3 0.500000 0.073572 0.000000
Si Si4 0.575063 0.620896 0.835376
Si Si5 0.723846 0.275651 0.163844
Si Si6 0.012742 0.832286 0.691123
Si Si7 0.794066 0.572925 0.121007
Si Si8 0.500000 0.523404 0.500000
O O1 0.555907 0.725351 0.216713
O O2 0.658657 0.990120 0.335164
O O3 0.581770 0.961869 0.117693
O O4 0.398238 0.968737 0.126950
O O5 0.317315 0.241784 0.755060
O O6 0.358855 0.261142 0.604581
O O7 0.117662 0.137052 0.531175
O O8 0.614840 0.190670 0.029883
O O9 0.632272 0.698833 0.775179
O O10 0.527389 0.451274 0.784802
O O11 0.679804 0.636068 0.983401
O O12 0.721904 0.458040 0.150567
O O13 0.128984 0.705801 0.776276
O O14 0.041962 0.912174 0.609859
#
# Coordination Sequence:
#
# PCOD8048272 Si02
#       8
#     4   4   2   4   4   4   4   2
#     4   9  20  35  62  93 136 172 225 275 338 415
#     4  10  24  47  68  94 131 182 237 295 345 408
#     4  10  18  34  56  94 136 184 220 270 330 420
#     4  11  20  38  68  99 139 184 215 277 352 426
#     4  10  20  38  63  91 138 180 224 280 349 407
#     4  11  25  47  70 104 138 177 239 287 349 418
#     4  10  21  37  64 104 138 179 221 274 348 431
#     4  12  26  52  76  92 138 192 236 302 354 394
#
# _framework density 22.481617
#
# number of rings (size 3 to 8) (size 9 to 14) (size 15 to 20)
#    0.000    1.714    2.857    1.714    4.000    1.143 
#   10.286    0.000    0.000    0.000    0.000    0.000 
#    0.000    0.000    0.000    0.000    0.000    0.000 
#
# Total GULP energy -173452.268319 kJ/mol
# GULP energy per Si atom -12389.447737 kJ/mol
# Density = 2.243045 g / cm^3
# Si number density = 22.481617 Si / 1000 Ang^3
#
#
#
# Elastic Constant Matrix: (Units=GPa)
#
#
# Indices 1 2 3 4 5 6 
#
# 1 65.1119 38.5865 17.0539 0.0000 10.8839 0.0000
# 2 38.5865 137.6457 28.4103 0.0000 4.0034 0.0000
# 3 17.0539 28.4103 59.1014 0.0000 3.6556 0.0000
# 4 0.0000 0.0000 0.0000 25.9663 0.0000 4.5564
# 5 10.8839 4.0034 3.6556 0.0000 29.8223 0.0000
# 6 0.0000 0.0000 0.0000 4.5564 0.0000 41.6650
#
#
#
# Elastic Compliance Matrix: (Units=1/GPa)
#
#
# Indices 1 2 3 4 5 6 
#
# 1 0.020068 -0.004804 -0.003092 0.000000 -0.006300 0.000000
# 2 -0.004804 0.009227 -0.003104 0.000000 0.000895 0.000000
# 3 -0.003092 -0.003104 0.019356 0.000000 -0.000828 0.000000
# 4 0.000000 0.000000 0.000000 0.039265 0.000000 -0.004294
# 5 -0.006300 0.000895 -0.000828 0.000000 0.035812 0.000000
# 6 0.000000 0.000000 0.000000 -0.004294 0.000000 0.024471
#
#
# Mechanical properties :
#
#
# Convention : Reuss Voigt Hill
#
# Bulk Modulus (GPa) = 37.52375 47.77339 42.64857
# Shear Modulus (GPa) = 27.92017 31.34462 29.63239
#
# Velocity S-wave (km/s) = 3.52790 3.73799 3.63447
# Velocity P-wave (km/s) = 5.77251 6.31872 6.05178
#
# Compressibility (1/GPa) = 0.02664979
#
# Stress axis : x y z
#
# Youngs Moduli (GPa) = 49.83004 108.38290 51.66466
#
# Poissons Ratio (x) = 0.52072 0.15973
# Poissons Ratio (y) = 0.23940 0.16038
# Poissons Ratio (z) = 0.15405 0.33645
#
# Static dielectric constant tensor:
#      x y z
#    x 4.070820 0.000000 0.062660 
#    y 0.000000 4.206240 0.000000 
#    z 0.062660 0.000000 3.625230 
# 
# 
# High freq. dielectric constant tensor:
#      x y z
#    x 1.880820 0.000000 0.007060 
#    y 0.000000 1.892470 0.000000 
#    z 0.007060 0.000000 1.852790 
# 
# From -- ./inp_files/47962.got.cif
#   From: 2010.03.12/outbox.cif.g09.slc.cpg/sg5_24_cif.got.tgz:47962.got - 2010.03.31 09:47:26.
