data_PCOD8048109
_publ_section_title
;
Structure prediction by ZEFSAII (Michael W. Deem and Ramdas Pophale) SiO2 
 PCOD8048109
Probable space group: C 2
;
_chemical_formula_sum "Si O2"
_cell_formula_units_Z 28
_cell_length_a 19.275969
_cell_length_b 15.129269
_cell_length_c 5.319924
_cell_angle_alpha 90.000000
_cell_angle_beta 106.201166
_cell_angle_gamma 90.000000
_cell_volume 1489.845033
_symmetry_space_group_name_H-M "C 2"
_symmetry_group_IT_number 5
_symmetry_cell_setting 'monoclinic'
loop_
_space_group_symop_operation_xyz
x,y,z
-x,y,-z
1/2+x,1/2+y,z
1/2-x,1/2+y,-z
loop_
_atom_site_type_symbol
_atom_site_label
_atom_site_fract_x
_atom_site_fract_y
_atom_site_fract_z
Si Si1 0.045220 0.411660 0.795637
Si Si2 0.848621 0.264840 0.120396
Si Si3 0.848336 0.569093 0.098494
Si Si4 0.235871 0.310212 0.465381
Si Si5 0.174041 0.644224 0.424038
Si Si6 0.824927 0.063299 0.077452
Si Si7 0.699450 0.501745 0.447171
O O1 0.073183 0.310751 0.826262
O O2 0.116052 0.472983 0.866472
O O3 0.000000 0.431331 0.500000
O O4 0.000000 0.431193 0.000000
O O5 0.818501 0.288570 0.364394
O O6 0.858971 0.160267 0.111300
O O7 0.798071 0.297366 0.843218
O O8 0.872730 0.622399 0.373606
O O9 0.872700 0.622593 0.872956
O O10 0.762157 0.561149 0.010969
O O11 0.305648 0.247460 0.558169
O O12 0.257106 0.411452 0.514128
O O13 0.246615 0.585530 0.497683
O O14 0.850234 0.010321 0.352994
O O15 0.850557 0.011288 0.852402
#
# Coordination Sequence:
#
# PCOD8048109 Si02
#       7
#     4   4   4   4   4   4   4
#     4  12  26  40  55  83 120 173 209 222 282 360
#     4  12  20  36  55  77 114 151 197 251 275 355
#     4  10  18  35  52  72 114 142 193 242 268 352
#     4  12  19  31  55  82 111 154 180 241 311 352
#     4  10  17  31  48  80 106 144 187 223 307 351
#     4  10  18  33  50  78 102 147 181 239 309 323
#     4  10  18  28  43  72 113 133 177 214 286 375
#
# _framework density 18.793900000000001
#
# number of rings (size 3 to 8) (size 9 to 14) (size 15 to 20)
#    0.000    1.143    5.714    6.000    0.000    0.000 
#    0.000    0.000    0.000    0.000    0.000    0.000 
#    0.000   22.857    0.000    0.000    0.000    0.000 
#
# Total GULP energy -173524.444654 kJ/mol
# GULP energy per Si atom -12394.603190 kJ/mol
# Density = 1.875112 g / cm^3
# Si number density = 18.793900 Si / 1000 Ang^3
#
#
#
# Elastic Constant Matrix: (Units=GPa)
#
#
# Indices 1 2 3 4 5 6 
#
# 1 34.3882 12.9642 24.8953 0.0000 -8.9280 0.0000
# 2 12.9642 45.7275 14.6145 0.0000 -0.3585 0.0000
# 3 24.8953 14.6145 148.5955 0.0000 -39.9150 0.0000
# 4 0.0000 0.0000 0.0000 29.9992 0.0000 -2.2860
# 5 -8.9280 -0.3585 -39.9150 0.0000 29.2952 0.0000
# 6 0.0000 0.0000 0.0000 -2.2860 0.0000 24.9400
#
#
#
# Elastic Compliance Matrix: (Units=1/GPa)
#
#
# Indices 1 2 3 4 5 6 
#
# 1 0.036766 -0.009229 -0.003584 0.000000 0.006208 0.000000
# 2 -0.009229 0.025250 -0.002539 0.000000 -0.005963 0.000000
# 3 -0.003584 -0.002539 0.011480 0.000000 0.014518 0.000000
# 4 0.000000 0.000000 0.000000 0.033569 0.000000 0.003077
# 5 0.006208 -0.005963 0.014518 0.000000 0.055735 0.000000
# 6 0.000000 0.000000 0.000000 0.003077 0.000000 0.040378
#
#
# Mechanical properties :
#
#
# Convention : Reuss Voigt Hill
#
# Bulk Modulus (GPa) = 23.36976 37.07324 30.22150
# Shear Modulus (GPa) = 20.14948 28.59601 24.37274
#
# Velocity S-wave (km/s) = 3.27789 3.90495 3.60508
# Velocity P-wave (km/s) = 5.17570 6.33250 5.78309
#
# Compressibility (1/GPa) = 0.04279034
#
# Stress axis : x y z
#
# Youngs Moduli (GPa) = 27.19914 39.60404 87.11156
#
# Poissons Ratio (x) = 0.36552 0.31224
# Poissons Ratio (y) = 0.25103 0.22116
# Poissons Ratio (z) = 0.09749 0.10055
#
# Static dielectric constant tensor:
#      x y z
#    x 3.249690 0.000000 -1.290650 
#    y 0.000000 3.522460 0.000000 
#    z -1.290650 0.000000 6.288890 
# 
# 
# High freq. dielectric constant tensor:
#      x y z
#    x 1.656840 0.000000 -0.044420 
#    y 0.000000 1.729630 0.000000 
#    z -0.044420 0.000000 1.763960 
# 
# From -- ./inp_files/8517.got.cif
#   From: 2010.03.12/outbox.cif.g09.slc.cpg/sg5_5_cif.got.tgz:8517.got - 2010.03.31 09:47:26.
