data_PCOD8048612
_publ_section_title
;
Structure prediction by ZEFSAII (Michael W. Deem and Ramdas Pophale) SiO2 
 PCOD8048612
Probable space group: C 2
;
_chemical_formula_sum "Si O2"
_cell_formula_units_Z 32
_cell_length_a 15.162803
_cell_length_b 11.763664
_cell_length_c 15.863304
_cell_angle_alpha 90.000000
_cell_angle_beta 35.975723
_cell_angle_gamma 90.000000
_cell_volume 1662.191459
_symmetry_space_group_name_H-M "C 2"
_symmetry_group_IT_number 5
_symmetry_cell_setting 'monoclinic'
loop_
_space_group_symop_operation_xyz
x,y,z
-x,y,-z
1/2+x,1/2+y,z
1/2-x,1/2+y,-z
loop_
_atom_site_type_symbol
_atom_site_label
_atom_site_fract_x
_atom_site_fract_y
_atom_site_fract_z
Si Si1 0.705587 0.051160 0.847970
Si Si2 0.506140 0.124440 0.853658
Si Si3 0.153989 0.484740 0.599271
Si Si4 0.512962 0.540384 0.672716
Si Si5 0.558776 0.293790 0.232385
Si Si6 0.088616 0.254998 0.717987
Si Si7 0.387702 0.806930 0.023584
Si Si8 0.103154 0.658942 0.500719
O O1 0.637467 0.119395 0.821877
O O2 0.885946 0.058442 0.699110
O O3 0.644567 0.922498 0.898956
O O4 0.653484 0.106263 0.977133
O O5 0.498846 0.245140 0.812159
O O6 0.537112 0.030776 0.758343
O O7 0.323287 0.522341 0.494701
O O8 0.138687 0.348156 0.608782
O O9 0.117637 0.536483 0.535466
O O10 0.458343 0.428934 0.766424
O O11 0.506855 0.649588 0.737424
O O12 0.728064 0.251416 0.123502
O O13 0.458649 0.252576 0.387322
O O14 0.234908 0.206233 0.653596
O O15 0.977919 0.320052 0.866834
O O16 0.500000 0.736018 0.000000
O O17 0.000000 0.642580 0.500000
#
# Coordination Sequence:
#
# PCOD8048612 Si02
#       8
#     4   4   4   4   4   4   4   4
#     4  10  19  35  56  87 112 137 195 232 273 323
#     4  10  19  36  58  81 111 147 180 236 283 327
#     4  10  20  37  57  80 110 147 185 227 290 328
#     4  10  22  36  54  84 112 149 188 233 273 338
#     4  10  21  36  57  81 115 148 188 227 288 328
#     4  11  20  37  59  79 116 149 188 226 284 335
#     4  11  19  33  57  86 111 143 187 239 270 326
#     4  10  21  37  59  83 109 145 189 233 276 336
#
# _framework density 19.251693
#
# number of rings (size 3 to 8) (size 9 to 14) (size 15 to 20)
#    0.000    1.750    3.750    1.500    0.000    1.500 
#    0.000    2.500    2.750    0.000    0.000    0.000 
#    0.000    0.000    0.000    0.000    0.000    0.000 
#
# Total GULP energy -198267.761366 kJ/mol
# GULP energy per Si atom -12391.735085 kJ/mol
# Density = 1.920788 g / cm^3
# Si number density = 19.251693 Si / 1000 Ang^3
#
#
#
# Elastic Constant Matrix: (Units=GPa)
#
#
# Indices 1 2 3 4 5 6 
#
# 1 120.2034 52.3380 29.9419 -0.0001 -13.4807 0.0000
# 2 52.3380 91.5500 15.2319 0.0000 -3.7657 0.0000
# 3 29.9419 15.2319 57.3893 -0.0001 -6.6682 0.0000
# 4 -0.0001 0.0000 -0.0001 14.4462 0.0000 -4.5682
# 5 -13.4807 -3.7657 -6.6682 0.0000 29.6007 0.0000
# 6 0.0000 0.0000 0.0000 -4.5682 0.0000 23.2028
#
#
#
# Elastic Compliance Matrix: (Units=1/GPa)
#
#
# Indices 1 2 3 4 5 6 
#
# 1 0.012617 -0.006311 -0.004450 0.000000 0.003941 0.000000
# 2 -0.006311 0.014602 -0.000720 0.000000 -0.001179 0.000000
# 3 -0.004450 -0.000720 0.020221 0.000000 0.002437 0.000000
# 4 0.000000 0.000000 0.000000 0.073818 0.000000 0.014533
# 5 0.003941 -0.001179 0.002437 0.000000 0.035977 0.000000
# 6 0.000000 0.000000 0.000000 0.014533 0.000000 0.045960
#
#
# Mechanical properties :
#
#
# Convention : Reuss Voigt Hill
#
# Bulk Modulus (GPa) = 40.85181 51.57403 46.21292
# Shear Modulus (GPa) = 21.33871 24.89202 23.11537
#
# Velocity S-wave (km/s) = 3.33289 3.59970 3.46886
# Velocity P-wave (km/s) = 6.00639 6.64264 6.33251
#
# Compressibility (1/GPa) = 0.02447872
#
# Stress axis : x y z
#
# Youngs Moduli (GPa) = 79.25530 68.48336 49.45392
#
# Poissons Ratio (x) = 0.43218 0.22007
# Poissons Ratio (y) = 0.50016 0.03561
# Poissons Ratio (z) = 0.35269 0.04931
#
# Static dielectric constant tensor:
#      x y z
#    x 3.546780 0.000000 -0.274090 
#    y 0.000000 3.421510 0.000000 
#    z -0.274090 0.000000 3.605390 
# 
# 
# High freq. dielectric constant tensor:
#      x y z
#    x 1.743840 0.000000 -0.020420 
#    y 0.000000 1.729110 0.000000 
#    z -0.020420 0.000000 1.754700 
# 
# From -- ./inp_files/54579.got.cif
#   From: 2010.03.12/outbox.cif.g09.slc.cpg/sg5_28_cif.got.tgz:54579.got - 2010.03.31 09:47:26.
