data_PCOD8048813
_publ_section_title
;
Structure prediction by ZEFSAII (Michael W. Deem and Ramdas Pophale) SiO2 
 PCOD8048813
Probable space group: C 2
;
_chemical_formula_sum "Si O2"
_cell_formula_units_Z 26
_cell_length_a 5.149861
_cell_length_b 17.661912
_cell_length_c 15.020949
_cell_angle_alpha 90.000000
_cell_angle_beta 65.625252
_cell_angle_gamma 90.000000
_cell_volume 1244.471385
_symmetry_space_group_name_H-M "C 2"
_symmetry_group_IT_number 5
_symmetry_cell_setting 'monoclinic'
loop_
_space_group_symop_operation_xyz
x,y,z
-x,y,-z
1/2+x,1/2+y,z
1/2-x,1/2+y,-z
loop_
_atom_site_type_symbol
_atom_site_label
_atom_site_fract_x
_atom_site_fract_y
_atom_site_fract_z
Si Si1 0.504581 0.480320 0.305597
Si Si2 0.066083 0.731988 0.684528
Si Si3 0.000000 0.935806 0.500000
Si Si4 0.544888 0.857393 0.380934
Si Si5 0.515214 0.650647 0.737180
Si Si6 0.329949 0.736815 0.935454
Si Si7 0.357353 0.847284 0.211652
O O1 0.562015 0.486764 0.404340
O O2 0.220575 0.432344 0.331579
O O3 0.463378 0.560213 0.265579
O O4 0.766522 0.435372 0.220030
O O5 0.269822 0.789542 0.598659
O O6 0.262332 0.671710 0.706605
O O7 0.825893 0.684564 0.663933
O O8 0.907164 0.790567 0.775426
O O9 0.723934 0.882182 0.519018
O O10 0.432656 0.823967 0.302741
O O11 0.438480 0.676856 0.847165
O O12 0.390825 0.823535 0.891875
O O13 0.500000 0.718400 0.000000
O O14 0.000000 0.726748 0.000000
#
# Coordination Sequence:
#
# PCOD8048813 Si02
#       7
#     4   4   2   4   4   4   4
#     4  10  23  39  70  90 136 174 213 261 322 397
#     4  10  19  38  66  92 121 169 218 253 309 394
#     4  10  22  40  66  98 124 172 226 264 316 370
#     4  10  19  40  68  93 125 168 221 261 315 391
#     4  11  23  40  67  95 132 175 211 257 339 384
#     4  11  22  39  67  96 128 166 221 271 313 381
#     4   9  20  39  66  95 121 172 215 255 329 374
#
# _framework density 20.892406999999999
#
# number of rings (size 3 to 8) (size 9 to 14) (size 15 to 20)
#    0.000    1.846    3.077    2.308    6.462    0.000 
#    0.000    0.769   13.538    0.000    0.000    0.000 
#    0.000    0.000    0.000    0.000    0.000    0.000 
#
# Total GULP energy -161062.917556 kJ/mol
# GULP energy per Si atom -12389.455197 kJ/mol
# Density = 2.084486 g / cm^3
# Si number density = 20.892407 Si / 1000 Ang^3
#
#
#
# Elastic Constant Matrix: (Units=GPa)
#
#
# Indices 1 2 3 4 5 6 
#
# 1 121.4008 54.7863 30.2265 0.0000 -13.5818 0.0000
# 2 54.7863 157.9343 42.5360 0.0000 -11.6553 0.0000
# 3 30.2265 42.5360 86.1684 0.0000 -6.3064 0.0000
# 4 0.0000 0.0000 0.0000 28.5869 0.0000 0.8022
# 5 -13.5818 -11.6553 -6.3064 0.0000 25.0264 0.0000
# 6 0.0000 0.0000 0.0000 0.8022 0.0000 34.8892
#
#
#
# Elastic Compliance Matrix: (Units=1/GPa)
#
#
# Indices 1 2 3 4 5 6 
#
# 1 0.010427 -0.002795 -0.001996 0.000000 0.003854 0.000000
# 2 -0.002795 0.008214 -0.002960 0.000000 0.001563 0.000000
# 3 -0.001996 -0.002960 0.013841 0.000000 0.001026 0.000000
# 4 0.000000 0.000000 0.000000 0.035004 0.000000 -0.000805
# 5 0.003854 0.001563 0.001026 0.000000 0.043036 0.000000
# 6 0.000000 0.000000 0.000000 -0.000805 0.000000 0.028681
#
#
# Mechanical properties :
#
#
# Convention : Reuss Voigt Hill
#
# Bulk Modulus (GPa) = 58.89026 68.95568 63.92297
# Shear Modulus (GPa) = 31.17924 33.56414 32.37169
#
# Velocity S-wave (km/s) = 3.86731 4.01249 3.94057
# Velocity P-wave (km/s) = 6.94191 7.38536 7.16707
#
# Compressibility (1/GPa) = 0.01698074
#
# Stress axis : x y z
#
# Youngs Moduli (GPa) = 95.90882 121.74636 72.24675
#
# Poissons Ratio (x) = 0.34028 0.14418
# Poissons Ratio (y) = 0.26806 0.21384
# Poissons Ratio (z) = 0.19141 0.36035
#
# Static dielectric constant tensor:
#      x y z
#    x 4.184530 0.000000 -0.238880 
#    y 0.000000 3.586400 0.000000 
#    z -0.238880 0.000000 3.619520 
# 
# 
# High freq. dielectric constant tensor:
#      x y z
#    x 1.847340 0.000000 -0.010110 
#    y 0.000000 1.800980 0.000000 
#    z -0.010110 0.000000 1.784130 
# 
# From -- ./inp_files/49085.got.cif
#   From: 2010.03.12/outbox.cif.g09.slc.cpg/sg5_25_cif.got.tgz:49085.got - 2010.03.31 09:47:26.
