data_PCOD8048287
_publ_section_title
;
Structure prediction by ZEFSAII (Michael W. Deem and Ramdas Pophale) SiO2 
 PCOD8048287
Probable space group: C 2
;
_chemical_formula_sum "Si O2"
_cell_formula_units_Z 30
_cell_length_a 12.565013
_cell_length_b 17.553060
_cell_length_c 14.560728
_cell_angle_alpha 90.000000
_cell_angle_beta 150.387420
_cell_angle_gamma 90.000000
_cell_volume 1586.874273
_symmetry_space_group_name_H-M "C 2"
_symmetry_group_IT_number 5
_symmetry_cell_setting 'monoclinic'
loop_
_space_group_symop_operation_xyz
x,y,z
-x,y,-z
1/2+x,1/2+y,z
1/2-x,1/2+y,-z
loop_
_atom_site_type_symbol
_atom_site_label
_atom_site_fract_x
_atom_site_fract_y
_atom_site_fract_z
Si Si1 0.674456 0.123690 0.552420
Si Si2 0.000000 0.897098 0.000000
Si Si3 0.142690 0.412891 0.235548
Si Si4 0.994507 0.513934 0.715163
Si Si5 0.323443 0.398605 0.177465
Si Si6 0.805861 0.795138 0.495547
Si Si7 0.964776 0.008619 0.134072
Si Si8 0.462463 0.863093 0.364039
O O1 0.500000 0.109553 0.500000
O O2 0.606529 0.088635 0.404131
O O3 0.700143 0.211783 0.550569
O O4 0.894302 0.084761 0.752050
O O5 0.213683 0.845248 0.147616
O O6 0.061903 0.949093 0.133942
O O7 0.139013 0.489053 0.294777
O O8 0.260974 0.432493 0.229848
O O9 0.277003 0.348511 0.386356
O O10 0.898504 0.380575 0.042196
O O11 0.982654 0.447971 0.629210
O O12 0.234365 0.535311 0.925109
O O13 0.464808 0.320939 0.287893
O O14 0.455898 0.464924 0.225113
O O15 0.615474 0.802889 0.427328
O O16 0.500000 0.855393 0.500000
#
# Coordination Sequence:
#
# PCOD8048287 Si02
#       8
#     4   2   4   4   4   4   4   4
#     4  12  23  35  51  76 112 143 168 208 265 323
#     4  10  18  34  60  82 100 130 178 230 266 300
#     4   9  19  36  57  79 104 138 181 222 260 303
#     4   9  19  35  56  81 103 133 178 221 259 305
#     4  10  19  35  58  80 104 138 180 223 260 303
#     4  11  23  35  51  80 112 142 174 211 262 319
#     4  10  20  34  56  81 103 133 177 221 261 305
#     4  10  19  35  58  80 102 133 178 224 264 307
#
# _framework density 18.905090000000001
#
# number of rings (size 3 to 8) (size 9 to 14) (size 15 to 20)
#    0.000    1.867    0.000    7.200    0.000    1.067 
#    0.000    2.667    0.000    1.600    0.000    0.000 
#    0.000    0.000    0.000    0.000    0.000    0.000 
#
# Total GULP energy -185986.567712 kJ/mol
# GULP energy per Si atom -12399.104514 kJ/mol
# Density = 1.886206 g / cm^3
# Si number density = 18.905090 Si / 1000 Ang^3
#
#
#
# Elastic Constant Matrix: (Units=GPa)
#
#
# Indices 1 2 3 4 5 6 
#
# 1 117.7256 27.5885 33.7514 -0.0074 -1.1218 0.0088
# 2 27.5885 67.6154 38.9192 -0.0257 3.9202 0.0097
# 3 33.7514 38.9192 86.8220 0.0041 0.2082 0.0264
# 4 -0.0074 -0.0257 0.0041 16.5765 -0.0167 2.5063
# 5 -1.1218 3.9202 0.2082 -0.0167 29.9736 0.0046
# 6 0.0088 0.0097 0.0264 2.5063 0.0046 19.1478
#
#
#
# Elastic Compliance Matrix: (Units=1/GPa)
#
#
# Indices 1 2 3 4 5 6 
#
# 1 0.009866 -0.002505 -0.002714 0.000002 0.000716 0.000000
# 2 -0.002505 0.020764 -0.008328 0.000031 -0.002752 -0.000001
# 3 -0.002714 -0.008328 0.016304 -0.000015 0.000874 -0.000015
# 4 0.000002 0.000031 -0.000015 0.061544 0.000032 -0.008056
# 5 0.000716 -0.002752 0.000874 0.000032 0.033743 -0.000012
# 6 0.000000 -0.000001 -0.000015 -0.008056 -0.000012 0.053280
#
#
# Mechanical properties :
#
#
# Convention : Reuss Voigt Hill
#
# Bulk Modulus (GPa) = 50.40047 52.52013 51.46030
# Shear Modulus (GPa) = 21.81410 24.59984 23.20697
#
# Velocity S-wave (km/s) = 3.40056 3.61117 3.50744
# Velocity P-wave (km/s) = 6.49123 6.72522 6.60926
#
# Compressibility (1/GPa) = 0.01984108
#
# Stress axis : x y z
#
# Youngs Moduli (GPa) = 101.35473 48.15930 61.33503
#
# Poissons Ratio (x) = 0.12063 0.16649
# Poissons Ratio (y) = 0.25387 0.51078
# Poissons Ratio (z) = 0.27512 0.40105
#
# Static dielectric constant tensor:
#      x y z
#    x 3.713470 0.000000 0.058720 
#    y 0.000000 3.068890 -0.000010 
#    z 0.058720 -0.000010 3.734510 
# 
# 
# High freq. dielectric constant tensor:
#      x y z
#    x 1.752830 0.000000 0.000430 
#    y 0.000000 1.681750 0.000000 
#    z 0.000430 0.000000 1.756920 
# 
# From -- ./inp_files/53427.got.cif
#   From: 2010.03.12/outbox.cif.g09.slc.cpg/sg5_27_cif.got.tgz:53427.got - 2010.03.31 09:47:26.
