data_PCOD8048099
_publ_section_title
;
Structure prediction by ZEFSAII (Michael W. Deem and Ramdas Pophale) SiO2 
 PCOD8048099
Probable space group: C 2
;
_chemical_formula_sum "Si O2"
_cell_formula_units_Z 30
_cell_length_a 14.673009
_cell_length_b 19.469110
_cell_length_c 12.619265
_cell_angle_alpha 90.000000
_cell_angle_beta 149.318498
_cell_angle_gamma 90.000000
_cell_volume 1839.481261
_symmetry_space_group_name_H-M "C 2"
_symmetry_group_IT_number 5
_symmetry_cell_setting 'monoclinic'
loop_
_space_group_symop_operation_xyz
x,y,z
-x,y,-z
1/2+x,1/2+y,z
1/2-x,1/2+y,-z
loop_
_atom_site_type_symbol
_atom_site_label
_atom_site_fract_x
_atom_site_fract_y
_atom_site_fract_z
Si Si1 0.703146 0.531170 0.203218
Si Si2 0.297406 0.193360 0.913159
Si Si3 0.294560 0.145104 0.132227
Si Si4 0.202804 0.693349 0.318403
Si Si5 0.499752 0.753826 0.113951
Si Si6 0.000000 0.418931 0.500000
Si Si7 0.293972 0.144985 0.456490
Si Si8 0.000055 0.300722 0.662175
O O1 0.741497 0.574502 0.135355
O O2 0.741334 0.574263 0.347873
O O3 0.823146 0.464135 0.323095
O O4 0.500000 0.506339 0.000000
O O5 0.263146 0.158560 0.763238
O O6 0.175248 0.260084 0.801482
O O7 0.258879 0.138836 0.969217
O O8 0.500120 0.220055 0.124393
O O9 0.500354 0.162325 0.362774
O O10 0.176191 0.206755 0.058328
O O11 0.241512 0.638815 0.451649
O O12 0.325035 0.760054 0.451068
O O13 0.675077 0.706415 0.292921
O O14 0.500122 0.808916 0.209826
O O15 0.500000 0.792135 0.000000
O O16 0.000020 0.374395 0.607224
#
# Coordination Sequence:
#
# PCOD8048099 Si02
#       8
#     4   4   4   4   4   2   4   4
#     4  12  22  34  50  74 104 140 172 211 246 302
#     4   9  17  29  50  75 104 130 158 216 255 299
#     4  10  17  29  49  76 105 127 165 206 263 299
#     4   9  17  29  50  75 104 130 158 216 255 299
#     4  10  18  30  54  78 104 124 160 226 255 298
#     4  12  24  36  52  68 108 148 172 206 236 320
#     4  10  17  29  49  76 105 127 165 206 263 299
#     4  10  20  34  48  74 102 140 172 193 259 302
#
# _framework density 16.308945999999999
#
# number of rings (size 3 to 8) (size 9 to 14) (size 15 to 20)
#    0.000    1.867    5.333    0.000    0.000    1.067 
#    0.000    0.000    0.000    1.600    0.000    0.000 
#    0.000    0.000    0.000    0.000    0.000    0.000 
#
# Total GULP energy -185891.184806 kJ/mol
# GULP energy per Si atom -12392.745654 kJ/mol
# Density = 1.627183 g / cm^3
# Si number density = 16.308946 Si / 1000 Ang^3
#
#
#
# Elastic Constant Matrix: (Units=GPa)
#
#
# Indices 1 2 3 4 5 6 
#
# 1 132.3155 52.1861 71.1829 0.0000 -26.4469 0.0000
# 2 52.1861 82.8990 44.5147 0.0000 -9.4496 0.0000
# 3 71.1829 44.5147 108.6042 0.0000 -2.8550 0.0000
# 4 0.0000 0.0000 0.0000 22.8399 0.0000 -2.5782
# 5 -26.4469 -9.4496 -2.8550 0.0000 48.6132 0.0000
# 6 0.0000 0.0000 0.0000 -2.5782 0.0000 25.0174
#
#
#
# Elastic Compliance Matrix: (Units=1/GPa)
#
#
# Indices 1 2 3 4 5 6 
#
# 1 0.014789 -0.004401 -0.007712 0.000000 0.006737 0.000000
# 2 -0.004401 0.017122 -0.004115 0.000000 0.000692 0.000000
# 3 -0.007712 -0.004115 0.015843 0.000000 -0.004065 0.000000
# 4 0.000000 0.000000 0.000000 0.044298 0.000000 0.004565
# 5 0.006737 0.000692 -0.004065 0.000000 0.024132 0.000000
# 6 0.000000 0.000000 0.000000 0.004565 0.000000 0.040443
#
#
# Mechanical properties :
#
#
# Convention : Reuss Voigt Hill
#
# Bulk Modulus (GPa) = 65.37318 73.28733 69.33025
# Shear Modulus (GPa) = 25.74901 29.68978 27.71939
#
# Velocity S-wave (km/s) = 3.97776 4.27131 4.12715
# Velocity P-wave (km/s) = 7.82739 8.32826 8.08171
#
# Compressibility (1/GPa) = 0.01529679
#
# Stress axis : x y z
#
# Youngs Moduli (GPa) = 67.61749 58.40465 63.12049
#
# Poissons Ratio (x) = 0.25701 0.48681
# Poissons Ratio (y) = 0.29756 0.25977
# Poissons Ratio (z) = 0.52150 0.24036
#
# Static dielectric constant tensor:
#      x y z
#    x 3.594130 0.000000 -0.128440 
#    y 0.000000 2.547830 0.000000 
#    z -0.128440 0.000000 3.490120 
# 
# 
# High freq. dielectric constant tensor:
#      x y z
#    x 1.654110 0.000000 0.000630 
#    y 0.000000 1.555500 0.000000 
#    z 0.000630 0.000000 1.654630 
# 
# From -- ./inp_files/43450.got.cif
#   From: 2010.03.12/outbox.cif.g09.slc.cpg/sg5_22_cif.got.tgz:43450.got - 2010.03.31 09:47:26.
