data_PCOD8048940
_publ_section_title
;
Structure prediction by ZEFSAII (Michael W. Deem and Ramdas Pophale) SiO2 
 PCOD8048940
Probable space group: C 2
;
_chemical_formula_sum "Si O2"
_cell_formula_units_Z 20
_cell_length_a 7.312189
_cell_length_b 24.620218
_cell_length_c 6.269997
_cell_angle_alpha 90.000000
_cell_angle_beta 134.163281
_cell_angle_gamma 90.000000
_cell_volume 809.733538
_symmetry_space_group_name_H-M "C 2"
_symmetry_group_IT_number 5
_symmetry_cell_setting 'monoclinic'
loop_
_space_group_symop_operation_xyz
x,y,z
-x,y,-z
1/2+x,1/2+y,z
1/2-x,1/2+y,-z
loop_
_atom_site_type_symbol
_atom_site_label
_atom_site_fract_x
_atom_site_fract_y
_atom_site_fract_z
Si Si1 0.000000 0.972620 0.500000
Si Si2 0.000000 0.406115 0.000000
Si Si3 0.425020 0.802609 0.167340
Si Si4 0.572190 0.128610 0.315630
Si Si5 0.433191 0.574090 0.188710
Si Si6 0.921788 0.754452 0.679465
O O1 0.262464 0.938277 0.700566
O O2 0.058541 0.009749 0.755629
O O3 0.106688 0.367720 0.894230
O O4 0.661828 0.788845 0.518942
O O5 0.500000 0.774816 0.000000
O O6 0.157174 0.775028 0.020949
O O7 0.500000 0.117822 0.500000
O O8 0.619974 0.191473 0.307634
O O9 0.836552 0.097669 0.478379
O O10 0.337244 0.104675 0.982467
O O11 0.500000 0.584879 0.000000
O O12 0.000000 0.766964 0.500000
#
# Coordination Sequence:
#
# PCOD8048940 Si02
#       6
#     2   2   4   4   4   4
#     4  12  22  36  56  72 112 148 178 226 268 290
#     4  10  20  32  48  78 110 136 184 230 256 320
#     4   8  15  24  40  66 106 122 160 220 252 303
#     4   9  17  29  49  74 109 135 170 215 259 322
#     4  10  21  36  51  77 108 137 183 221 255 320
#     4   9  13  23  42  69 100 133 153 206 269 301
#
# _framework density 24.699480999999999
#
# number of rings (size 3 to 8) (size 9 to 14) (size 15 to 20)
#    0.600    2.000    0.000    3.600    0.000    4.800 
#    0.000    0.000    0.000    0.000    0.000    0.000 
#   60.000    0.000    0.000    0.000    0.000    0.000 
#
# Total GULP energy -123979.811016 kJ/mol
# GULP energy per Si atom -12397.981102 kJ/mol
# Density = 2.464326 g / cm^3
# Si number density = 24.699481 Si / 1000 Ang^3
#
#
#
# Elastic Constant Matrix: (Units=GPa)
#
#
# Indices 1 2 3 4 5 6 
#
# 1 78.5593 22.2925 58.6213 0.0000 30.3027 0.0000
# 2 22.2925 168.7516 85.2630 0.0000 44.9727 0.0000
# 3 58.6213 85.2630 240.5494 0.0000 25.5080 0.0000
# 4 0.0000 0.0000 0.0000 60.0294 0.0000 15.3043
# 5 30.3027 44.9727 25.5080 0.0000 48.7229 0.0000
# 6 0.0000 0.0000 0.0000 15.3043 0.0000 12.9882
#
#
#
# Elastic Compliance Matrix: (Units=1/GPa)
#
#
# Indices 1 2 3 4 5 6 
#
# 1 0.020425 0.003197 -0.004712 0.000000 -0.013187 0.000000
# 2 0.003197 0.009552 -0.003197 0.000000 -0.009132 0.000000
# 3 -0.004712 -0.003197 0.006157 0.000000 0.002658 0.000000
# 4 0.000000 0.000000 0.000000 0.023812 0.000000 -0.028058
# 5 -0.013187 -0.009132 0.002658 0.000000 0.035763 0.000000
# 6 0.000000 0.000000 0.000000 -0.028058 0.000000 0.110054
#
#
# Mechanical properties :
#
#
# Convention : Reuss Voigt Hill
#
# Bulk Modulus (GPa) = 37.43853 91.13489 64.28671
# Shear Modulus (GPa) = 22.31243 45.79366 34.05305
#
# Velocity S-wave (km/s) = 3.00885 4.31052 3.71711
# Velocity P-wave (km/s) = 5.22125 7.85823 6.67132
#
# Compressibility (1/GPa) = 0.02671045
#
# Stress axis : x y z
#
# Youngs Moduli (GPa) = 48.95938 104.68652 162.42396
#
# Poissons Ratio (x) = -0.33470 0.76541
# Poissons Ratio (y) = -0.15653 0.51921
# Poissons Ratio (z) = 0.23072 0.33464
#
# Static dielectric constant tensor:
#      x y z
#    x 4.503550 0.000000 0.105340 
#    y 0.000000 4.053190 0.000000 
#    z 0.105340 0.000000 5.119210 
# 
# 
# High freq. dielectric constant tensor:
#      x y z
#    x 2.032770 0.000000 -0.009760 
#    y 0.000000 1.949390 0.000000 
#    z -0.009760 0.000000 2.035330 
# 
# From -- ./inp_files/17499.got.cif
#   From: 2010.03.12/outbox.cif.g09.slc.cpg/sg5_9_cif.got.tgz:17499.got - 2010.03.31 09:47:26.
