data_PCOD8048532
_publ_section_title
;
Structure prediction by ZEFSAII (Michael W. Deem and Ramdas Pophale) SiO2 
 PCOD8048532
Probable space group: C 2
;
_chemical_formula_sum "Si O2"
_cell_formula_units_Z 24
_cell_length_a 27.075860
_cell_length_b 9.278992
_cell_length_c 13.381832
_cell_angle_alpha 90.000000
_cell_angle_beta 158.387267
_cell_angle_gamma 90.000000
_cell_volume 1238.332030
_symmetry_space_group_name_H-M "C 2"
_symmetry_group_IT_number 5
_symmetry_cell_setting 'monoclinic'
loop_
_space_group_symop_operation_xyz
x,y,z
-x,y,-z
1/2+x,1/2+y,z
1/2-x,1/2+y,-z
loop_
_atom_site_type_symbol
_atom_site_label
_atom_site_fract_x
_atom_site_fract_y
_atom_site_fract_z
Si Si1 0.365779 0.701120 0.787513
Si Si2 0.508921 0.834929 0.634548
Si Si3 0.203000 0.155462 0.122677
Si Si4 0.835316 0.462840 0.592935
Si Si5 0.505305 0.108970 0.271789
Si Si6 0.271174 0.334398 0.799427
O O1 0.374572 0.706994 0.923698
O O2 0.242541 0.605369 0.516447
O O3 0.366125 0.864932 0.746274
O O4 0.500000 0.624372 0.000000
O O5 0.500000 0.830960 0.500000
O O6 0.369186 0.776786 0.418887
O O7 0.540079 0.996984 0.728757
O O8 0.636072 0.737059 0.904479
O O9 0.360697 0.191376 0.437165
O O10 0.188076 0.985233 0.071840
O O11 0.964899 0.520419 0.774977
O O12 0.744226 0.366761 0.347223
O O13 0.387048 0.220071 0.032905
#
# Coordination Sequence:
#
# PCOD8048532 Si02
#       6
#     4   4   4   4   4   4
#     4  10  19  33  52  77 110 144 182 223 264 316
#     4  10  21  38  59  83 109 138 180 231 277 325
#     4   9  21  38  54  80 112 142 184 228 268 321
#     4   9  21  34  51  82 112 144 185 223 261 317
#     4   9  20  39  57  80 114 145 179 224 271 324
#     4   9  20  38  56  80 113 145 181 221 268 327
#
# _framework density 19.380908000000002
#
# number of rings (size 3 to 8) (size 9 to 14) (size 15 to 20)
#    0.000    3.333    0.000    2.000    0.000   12.000 
#    0.000    0.833    0.000    0.000    0.000    0.000 
#    0.000    0.000    0.000    0.000    0.000    0.000 
#
# Total GULP energy -148713.437301 kJ/mol
# GULP energy per Si atom -12392.786442 kJ/mol
# Density = 1.933680 g / cm^3
# Si number density = 19.380908 Si / 1000 Ang^3
#
#
#
# Elastic Constant Matrix: (Units=GPa)
#
#
# Indices 1 2 3 4 5 6 
#
# 1 41.6184 25.8373 17.7058 0.0000 -2.2312 0.0000
# 2 25.8373 82.8783 61.8516 0.0000 -0.3487 0.0000
# 3 17.7058 61.8516 97.4275 0.0000 10.3387 0.0000
# 4 0.0000 0.0000 0.0000 49.7591 0.0000 1.1624
# 5 -2.2312 -0.3487 10.3387 0.0000 19.2667 0.0000
# 6 0.0000 0.0000 0.0000 1.1624 0.0000 17.6431
#
#
#
# Elastic Compliance Matrix: (Units=1/GPa)
#
#
# Indices 1 2 3 4 5 6 
#
# 1 0.030006 -0.009543 0.000270 0.000000 0.003157 0.000000
# 2 -0.009543 0.027436 -0.016562 0.000000 0.008279 0.000000
# 3 0.000270 -0.016562 0.022011 0.000000 -0.012080 0.000000
# 4 0.000000 0.000000 0.000000 0.020128 0.000000 -0.001326
# 5 0.003157 0.008279 -0.012080 0.000000 0.058901 0.000000
# 6 0.000000 0.000000 0.000000 -0.001326 0.000000 0.056767
#
#
# Mechanical properties :
#
#
# Convention : Reuss Voigt Hill
#
# Bulk Modulus (GPa) = 35.99168 48.07928 42.03548
# Shear Modulus (GPa) = 18.10425 25.10241 21.60333
#
# Velocity S-wave (km/s) = 3.05967 3.60281 3.34229
# Velocity P-wave (km/s) = 5.57612 6.49372 6.05233
#
# Compressibility (1/GPa) = 0.02778420
#
# Stress axis : x y z
#
# Youngs Moduli (GPa) = 33.32612 36.44907 45.43182
#
# Poissons Ratio (x) = 0.34782 -0.01226
# Poissons Ratio (y) = 0.31802 0.75243
# Poissons Ratio (z) = -0.00900 0.60366
#
# Static dielectric constant tensor:
#      x y z
#    x 3.386090 0.000000 0.111270 
#    y 0.000000 3.428570 0.000000 
#    z 0.111270 0.000000 3.517940 
# 
# 
# High freq. dielectric constant tensor:
#      x y z
#    x 1.740300 0.000000 0.005080 
#    y 0.000000 1.745830 0.000000 
#    z 0.005080 0.000000 1.754810 
# 
# From -- ./inp_files/58386.got.cif
#   From: 2010.03.12/outbox.cif.g09.slc.cpg/sg5_30_cif.got.tgz:58386.got - 2010.03.31 09:47:26.
