data_PCOD8048892
_publ_section_title
;
Structure prediction by ZEFSAII (Michael W. Deem and Ramdas Pophale) SiO2 
 PCOD8048892
Probable space group: C 2
;
_chemical_formula_sum "Si O2"
_cell_formula_units_Z 22
_cell_length_a 14.909001
_cell_length_b 14.767428
_cell_length_c 10.305846
_cell_angle_alpha 90.000000
_cell_angle_beta 26.348224
_cell_angle_gamma 90.000000
_cell_volume 1007.046168
_symmetry_space_group_name_H-M "C 2"
_symmetry_group_IT_number 5
_symmetry_cell_setting 'monoclinic'
loop_
_space_group_symop_operation_xyz
x,y,z
-x,y,-z
1/2+x,1/2+y,z
1/2-x,1/2+y,-z
loop_
_atom_site_type_symbol
_atom_site_label
_atom_site_fract_x
_atom_site_fract_y
_atom_site_fract_z
Si Si1 0.730155 0.711650 0.984892
Si Si2 0.500000 0.578234 0.000000
Si Si3 0.676421 0.912169 0.669452
Si Si4 0.310601 0.221456 0.579527
Si Si5 0.434607 0.899196 0.729355
Si Si6 0.069006 0.019148 0.176203
O O1 0.614536 0.792772 0.205290
O O2 0.602915 0.621465 0.181863
O O3 0.745056 0.735626 0.813776
O O4 0.956503 0.696075 0.743967
O O5 0.671682 0.639850 0.706134
O O6 0.398006 0.516312 0.022598
O O7 0.766766 0.811586 0.556235
O O8 0.604045 0.927631 0.614982
O O9 0.500000 0.924734 0.000000
O O10 0.844163 0.984433 0.497223
O O11 0.500000 0.927637 0.500000
O O12 0.230776 0.952681 0.031908
#
# Coordination Sequence:
#
# PCOD8048892 Si02
#       6
#     4   2   4   4   4   4
#     4  10  22  43  67  99 136 179 222 280 332 394
#     4  10  20  40  66 100 132 180 232 270 328 402
#     4  12  23  44  73 100 128 179 231 277 331 399
#     4  10  19  40  75  94 127 182 238 272 321 399
#     4  12  26  44  66 100 140 175 216 278 348 393
#     4  11  25  41  67 100 137 174 228 276 330 401
#
# _framework density 21.846067999999999
#
# number of rings (size 3 to 8) (size 9 to 14) (size 15 to 20)
#    0.000    1.091    4.545    2.182    7.636    0.727 
#    3.273    0.000    0.000    0.000    0.000    0.000 
#    0.000    0.000    0.000    0.000    0.000    0.000 
#
# Total GULP energy -136417.437553 kJ/mol
# GULP energy per Si atom -12401.585232 kJ/mol
# Density = 2.179635 g / cm^3
# Si number density = 21.846068 Si / 1000 Ang^3
#
#
#
# Elastic Constant Matrix: (Units=GPa)
#
#
# Indices 1 2 3 4 5 6 
#
# 1 100.2129 27.8135 36.1373 -0.0035 -19.8361 0.0029
# 2 27.8135 104.2176 28.5849 -0.0111 -16.5317 0.0037
# 3 36.1373 28.5849 84.8184 -0.0175 -24.4432 0.0029
# 4 -0.0035 -0.0111 -0.0175 39.0298 0.0017 -7.4398
# 5 -19.8361 -16.5317 -24.4432 0.0017 38.1637 -0.0010
# 6 0.0029 0.0037 0.0029 -7.4398 -0.0010 33.6430
#
#
#
# Elastic Compliance Matrix: (Units=1/GPa)
#
#
# Indices 1 2 3 4 5 6 
#
# 1 0.012485 -0.001774 -0.003768 -0.000001 0.003307 -0.000001
# 2 -0.001774 0.011078 -0.002282 0.000002 0.002415 0.000000
# 3 -0.003768 -0.002282 0.016329 0.000006 0.007511 0.000001
# 4 -0.000001 0.000002 0.000006 0.026749 0.000003 0.005915
# 5 0.003307 0.002415 0.007511 0.000003 0.033779 0.000000
# 6 -0.000001 0.000000 0.000001 0.005915 0.000000 0.031032
#
#
# Mechanical properties :
#
#
# Convention : Reuss Voigt Hill
#
# Bulk Modulus (GPa) = 41.24713 52.70228 46.97470
# Shear Modulus (GPa) = 32.22075 35.28152 33.75113
#
# Velocity S-wave (km/s) = 3.84461 4.02307 3.93485
# Velocity P-wave (km/s) = 6.21529 6.76438 6.49564
#
# Compressibility (1/GPa) = 0.02424411
#
# Stress axis : x y z
#
# Youngs Moduli (GPa) = 80.09926 90.27235 61.24087
#
# Poissons Ratio (x) = 0.16011 0.23077
# Poissons Ratio (y) = 0.14207 0.13972
# Poissons Ratio (z) = 0.30184 0.20596
#
# Static dielectric constant tensor:
#      x y z
#    x 4.039210 -0.000010 -0.427260 
#    y -0.000010 3.946510 0.000010 
#    z -0.427260 0.000010 3.735130 
# 
# 
# High freq. dielectric constant tensor:
#      x y z
#    x 1.858870 0.000000 -0.034370 
#    y 0.000000 1.863130 0.000000 
#    z -0.034370 0.000000 1.844100 
# 
# From -- ./inp_files/44879.got.cif
#   From: 2010.03.12/outbox.cif.g09.slc.cpg/sg5_23_cif.got.tgz:44879.got - 2010.03.31 09:47:26.
