data_PCOD8048447
_publ_section_title
;
Structure prediction by ZEFSAII (Michael W. Deem and Ramdas Pophale) SiO2 
 PCOD8048447
Probable space group: C 2
;
_chemical_formula_sum "Si O2"
_cell_formula_units_Z 26
_cell_length_a 13.889078
_cell_length_b 9.487848
_cell_length_c 11.237176
_cell_angle_alpha 90.000000
_cell_angle_beta 60.145508
_cell_angle_gamma 90.000000
_cell_volume 1284.292251
_symmetry_space_group_name_H-M "C 2"
_symmetry_group_IT_number 5
_symmetry_cell_setting 'monoclinic'
loop_
_space_group_symop_operation_xyz
x,y,z
-x,y,-z
1/2+x,1/2+y,z
1/2-x,1/2+y,-z
loop_
_atom_site_type_symbol
_atom_site_label
_atom_site_fract_x
_atom_site_fract_y
_atom_site_fract_z
Si Si1 0.628037 0.386790 0.949139
Si Si2 0.000000 0.470439 0.000000
Si Si3 0.949261 0.684839 0.826122
Si Si4 0.301976 0.184930 0.294093
Si Si5 0.213643 0.598303 0.267797
Si Si6 0.166756 0.372334 0.727678
Si Si7 0.115673 0.368007 0.494184
O O1 0.688892 0.264766 0.836916
O O2 0.696570 0.530054 0.879933
O O3 0.500000 0.415170 0.000000
O O4 0.620792 0.325207 0.089162
O O5 0.943272 0.571270 0.936720
O O6 0.082012 0.360484 0.888483
O O7 0.897093 0.627477 0.737739
O O8 0.078857 0.712775 0.714791
O O9 0.198852 0.236928 0.434141
O O10 0.271690 0.021484 0.292011
O O11 0.253602 0.739205 0.309391
O O12 0.180599 0.499346 0.397570
O O13 0.098061 0.384377 0.646061
O O14 0.000000 0.336735 0.500000
#
# Coordination Sequence:
#
# PCOD8048447 Si02
#       7
#     4   2   4   4   4   4   4
#     4   9  18  37  57  86 130 166 201 253 304 362
#     4  10  20  38  62  90 126 176 192 260 308 370
#     4  10  18  39  64  90 125 164 207 248 314 369
#     4   9  19  40  64  82 122 170 204 249 312 363
#     4  11  25  35  65 100 120 169 207 256 312 372
#     4  11  22  40  61  92 129 158 214 255 311 368
#     4  11  23  44  65  88 122 167 213 261 311 368
#
# _framework density 20.244613000000001
#
# number of rings (size 3 to 8) (size 9 to 14) (size 15 to 20)
#    0.000    1.846    3.846    2.769    3.231    0.000 
#    0.000    6.923    0.000    0.000    0.000    0.000 
#    0.000    0.000    0.000    0.000    0.000    0.000 
#
# Total GULP energy -161046.958986 kJ/mol
# GULP energy per Si atom -12388.227614 kJ/mol
# Density = 2.019854 g / cm^3
# Si number density = 20.244613 Si / 1000 Ang^3
#
#
#
# Elastic Constant Matrix: (Units=GPa)
#
#
# Indices 1 2 3 4 5 6 
#
# 1 83.2862 46.0663 43.5801 0.0000 1.8107 0.0000
# 2 46.0663 113.2045 31.4324 0.0000 -5.5839 0.0000
# 3 43.5801 31.4324 83.1247 0.0000 -8.9651 0.0000
# 4 0.0000 0.0000 0.0000 24.0767 0.0000 -6.3924
# 5 1.8107 -5.5839 -8.9651 0.0000 34.5109 0.0000
# 6 0.0000 0.0000 0.0000 -6.3924 0.0000 24.7825
#
#
#
# Elastic Compliance Matrix: (Units=1/GPa)
#
#
# Indices 1 2 3 4 5 6 
#
# 1 0.019892 -0.005901 -0.008656 0.000000 -0.004247 0.000000
# 2 -0.005901 0.011634 -0.001100 0.000000 0.001906 0.000000
# 3 -0.008656 -0.001100 0.017504 0.000000 0.004823 0.000000
# 4 0.000000 0.000000 0.000000 0.044587 0.000000 0.011501
# 5 -0.004247 0.001906 0.004823 0.000000 0.030761 0.000000
# 6 0.000000 0.000000 0.000000 0.011501 0.000000 0.043318
#
#
# Mechanical properties :
#
#
# Convention : Reuss Voigt Hill
#
# Bulk Modulus (GPa) = 56.44145 57.97478 57.20811
# Shear Modulus (GPa) = 24.40036 27.24312 25.82174
#
# Velocity S-wave (km/s) = 3.47548 3.67235 3.57527
# Velocity P-wave (km/s) = 6.63668 6.83234 6.73522
#
# Compressibility (1/GPa) = 0.01771748
#
# Stress axis : x y z
#
# Youngs Moduli (GPa) = 50.27140 85.95296 57.12914
#
# Poissons Ratio (x) = 0.50719 0.49449
# Poissons Ratio (y) = 0.29664 0.06285
# Poissons Ratio (z) = 0.43513 0.09455
#
# Static dielectric constant tensor:
#      x y z
#    x 3.411410 0.000000 -0.099660 
#    y 0.000000 3.723870 0.000000 
#    z -0.099660 0.000000 3.904540 
# 
# 
# High freq. dielectric constant tensor:
#      x y z
#    x 1.767200 0.000000 -0.006320 
#    y 0.000000 1.787330 0.000000 
#    z -0.006320 0.000000 1.798470 
# 
# From -- ./inp_files/41620.got.cif
#   From: 2010.03.12/outbox.cif.g09.slc.cpg/sg5_21_cif.got.tgz:41620.got - 2010.03.31 09:47:26.
