data_PCOD8048051
_publ_section_title
;
Structure prediction by ZEFSAII (Michael W. Deem and Ramdas Pophale) SiO2 
 PCOD8048051
Probable space group: C 2
;
_chemical_formula_sum "Si O2"
_cell_formula_units_Z 26
_cell_length_a 22.002323
_cell_length_b 8.298077
_cell_length_c 15.891213
_cell_angle_alpha 90.000000
_cell_angle_beta 151.628434
_cell_angle_gamma 90.000000
_cell_volume 1378.694851
_symmetry_space_group_name_H-M "C 2"
_symmetry_group_IT_number 5
_symmetry_cell_setting 'monoclinic'
loop_
_space_group_symop_operation_xyz
x,y,z
-x,y,-z
1/2+x,1/2+y,z
1/2-x,1/2+y,-z
loop_
_atom_site_type_symbol
_atom_site_label
_atom_site_fract_x
_atom_site_fract_y
_atom_site_fract_z
Si Si1 0.892501 0.785620 0.010674
Si Si2 0.635472 0.885175 0.624890
Si Si3 0.774794 0.194455 0.423059
Si Si4 0.756708 0.693243 0.312271
Si Si5 0.500000 0.508307 0.000000
Si Si6 0.125519 0.865889 0.387957
Si Si7 0.124017 0.490889 0.111136
O O1 0.972635 0.826113 0.192812
O O2 0.742123 0.829349 0.823525
O O3 0.904137 0.593497 0.007064
O O4 0.968346 0.894874 0.038122
O O5 0.500000 0.846710 0.500000
O O6 0.640620 0.795021 0.540932
O O7 0.652827 0.075681 0.630823
O O8 0.710258 0.318213 0.409667
O O9 0.857226 0.055701 0.570326
O O10 0.664302 0.114183 0.233477
O O11 0.828850 0.750847 0.482457
O O12 0.726837 0.850652 0.217786
O O13 0.623725 0.610751 0.177030
O O14 0.000000 0.404437 0.000000
#
# Coordination Sequence:
#
# PCOD8048051 Si02
#       7
#     4   4   4   4   2   4   4
#     4  10  18  32  56  77 110 148 182 229 280 335
#     4  10  22  42  56  71 107 163 204 226 262 328
#     4  10  20  32  58  84 119 146 176 230 287 343
#     4  10  21  31  54  83 114 144 187 233 275 340
#     4  10  16  30  48  78 110 148 182 212 276 334
#     4  11  19  33  54  93 118 137 173 240 305 330
#     4  10  16  31  51  83 114 147 177 215 284 347
#
# _framework density 18.858415000000001
#
# number of rings (size 3 to 8) (size 9 to 14) (size 15 to 20)
#    0.000    1.846    3.077    3.692    0.000    0.000 
#    0.000    8.462    0.000    0.000    0.000    0.000 
#    0.000    0.000    0.000    0.000    0.000    0.000 
#
# Total GULP energy -161073.798119 kJ/mol
# GULP energy per Si atom -12390.292163 kJ/mol
# Density = 1.881549 g / cm^3
# Si number density = 18.858415 Si / 1000 Ang^3
#
#
#
# Elastic Constant Matrix: (Units=GPa)
#
#
# Indices 1 2 3 4 5 6 
#
# 1 57.2450 31.3859 34.2899 0.0000 15.2019 0.0000
# 2 31.3859 116.6433 48.0695 0.0000 -1.6530 0.0000
# 3 34.2899 48.0695 119.6044 0.0000 5.6347 0.0000
# 4 0.0000 0.0000 0.0000 89.9802 0.0000 32.8168
# 5 15.2019 -1.6530 5.6347 0.0000 23.5634 0.0000
# 6 0.0000 0.0000 0.0000 32.8168 0.0000 40.6758
#
#
#
# Elastic Compliance Matrix: (Units=1/GPa)
#
#
# Indices 1 2 3 4 5 6 
#
# 1 0.028249 -0.005812 -0.004941 0.000000 -0.017451 0.000000
# 2 -0.005812 0.011541 -0.003223 0.000000 0.005330 0.000000
# 3 -0.004941 -0.003223 0.011058 0.000000 0.000317 0.000000
# 4 0.000000 0.000000 0.000000 0.015747 0.000000 -0.012705
# 5 -0.017451 0.005330 0.000317 0.000000 0.053995 0.000000
# 6 0.000000 0.000000 0.000000 -0.012705 0.000000 0.034835
#
#
# Mechanical properties :
#
#
# Convention : Reuss Voigt Hill
#
# Bulk Modulus (GPa) = 43.67642 57.88703 50.78173
# Shear Modulus (GPa) = 26.17671 42.82705 34.50188
#
# Velocity S-wave (km/s) = 3.72972 4.77065 4.28193
# Velocity P-wave (km/s) = 6.46206 7.81714 7.17168
#
# Compressibility (1/GPa) = 0.02289565
#
# Stress axis : x y z
#
# Youngs Moduli (GPa) = 35.39898 86.64820 90.43394
#
# Poissons Ratio (x) = 0.50364 0.44681
# Poissons Ratio (y) = 0.20575 0.29147
# Poissons Ratio (z) = 0.17490 0.27927
#
# Static dielectric constant tensor:
#      x y z
#    x 2.910700 0.000000 -0.131490 
#    y 0.000000 3.786100 0.000000 
#    z -0.131490 0.000000 3.844510 
# 
# 
# High freq. dielectric constant tensor:
#      x y z
#    x 1.666000 0.000000 -0.005390 
#    y 0.000000 1.753780 0.000000 
#    z -0.005390 0.000000 1.745250 
# 
# From -- ./inp_files/41632.got.cif
#   From: 2010.03.12/outbox.cif.g09.slc.cpg/sg5_21_cif.got.tgz:41632.got - 2010.03.31 09:47:26.
