data_PCOD8048470
_publ_section_title
;
Structure prediction by ZEFSAII (Michael W. Deem and Ramdas Pophale) SiO2 
 PCOD8048470
Probable space group: C 2
;
_chemical_formula_sum "Si O2"
_cell_formula_units_Z 26
_cell_length_a 11.317161
_cell_length_b 8.804316
_cell_length_c 22.345236
_cell_angle_alpha 90.000000
_cell_angle_beta 31.078854
_cell_angle_gamma 90.000000
_cell_volume 1149.345486
_symmetry_space_group_name_H-M "C 2"
_symmetry_group_IT_number 5
_symmetry_cell_setting 'monoclinic'
loop_
_space_group_symop_operation_xyz
x,y,z
-x,y,-z
1/2+x,1/2+y,z
1/2-x,1/2+y,-z
loop_
_atom_site_type_symbol
_atom_site_label
_atom_site_fract_x
_atom_site_fract_y
_atom_site_fract_z
Si Si1 0.534077 0.371990 0.862721
Si Si2 0.782640 0.368642 0.309978
Si Si3 0.949637 0.362892 0.366866
Si Si4 0.109110 0.217141 0.078245
Si Si5 0.001771 0.677028 0.768181
Si Si6 0.613531 0.201137 0.584243
Si Si7 0.000000 0.208235 0.000000
O O1 0.437992 0.540407 0.913937
O O2 0.523907 0.329802 0.796941
O O3 0.794937 0.347052 0.769757
O O4 0.378124 0.255354 0.969253
O O5 0.786275 0.344816 0.379879
O O6 0.541410 0.316385 0.387619
O O7 0.975283 0.268873 0.194240
O O8 0.831564 0.547116 0.277634
O O9 0.872824 0.239671 0.450098
O O10 0.934185 0.525026 0.407314
O O11 0.031202 0.302261 0.049184
O O12 0.738056 0.613596 0.886152
O O13 0.074611 0.730708 0.670886
#
# Coordination Sequence:
#
# PCOD8048470 Si02
#       7
#     4   4   4   4   4   4   2
#     4  11  24  43  64 106 134 182 230 287 351 417
#     4  11  22  44  72  98 130 185 229 287 345 416
#     4  11  26  45  70  99 143 181 235 284 351 405
#     4  11  21  41  70  95 137 175 229 285 352 411
#     4  10  23  41  71  97 140 182 231 282 356 404
#     4  11  24  47  69  99 137 188 232 289 338 420
#     4  10  18  40  66  94 134 178 214 286 346 402
#
# _framework density 22.621570999999999
#
# number of rings (size 3 to 8) (size 9 to 14) (size 15 to 20)
#    0.000    1.231    3.077    3.231    2.154    2.462 
#    2.769    3.077    0.000    0.000    0.000    0.000 
#    0.000    0.000    0.000    0.000    0.000    0.000 
#
# Total GULP energy -161060.209437 kJ/mol
# GULP energy per Si atom -12389.246880 kJ/mol
# Density = 2.257008 g / cm^3
# Si number density = 22.621571 Si / 1000 Ang^3
#
#
#
# Elastic Constant Matrix: (Units=GPa)
#
#
# Indices 1 2 3 4 5 6 
#
# 1 60.8535 40.9277 12.0109 0.0003 4.2223 0.0000
# 2 40.9277 58.5152 34.0925 -0.0001 -3.5733 0.0000
# 3 12.0109 34.0925 113.0139 -0.0011 5.7216 0.0003
# 4 0.0003 -0.0001 -0.0011 43.0306 0.0000 3.2598
# 5 4.2223 -3.5733 5.7216 0.0000 37.1239 0.0000
# 6 0.0000 0.0000 0.0003 3.2598 0.0000 30.8284
#
#
#
# Elastic Compliance Matrix: (Units=1/GPa)
#
#
# Indices 1 2 3 4 5 6 
#
# 1 0.034385 -0.027399 0.004981 0.000000 -0.007316 0.000000
# 2 -0.027399 0.042899 -0.010478 0.000000 0.008860 0.000000
# 3 0.004981 -0.010478 0.011651 0.000000 -0.003371 0.000000
# 4 0.000000 0.000000 0.000000 0.023427 0.000000 -0.002477
# 5 -0.007316 0.008860 -0.003371 0.000000 0.029141 0.000000
# 6 0.000000 0.000000 0.000000 -0.002477 0.000000 0.032700
#
#
# Mechanical properties :
#
#
# Convention : Reuss Voigt Hill
#
# Bulk Modulus (GPa) = 43.20872 45.16055 44.18464
# Shear Modulus (GPa) = 20.18501 31.88669 26.03585
#
# Velocity S-wave (km/s) = 2.99036 3.75850 3.39622
# Velocity P-wave (km/s) = 5.57361 6.23233 5.91215
#
# Compressibility (1/GPa) = 0.02314347
#
# Stress axis : x y z
#
# Youngs Moduli (GPa) = 29.08249 23.31035 85.83281
#
# Poissons Ratio (x) = 0.63868 -0.42757
# Poissons Ratio (y) = 0.79684 0.89935
# Poissons Ratio (z) = -0.14487 0.24425
#
# Static dielectric constant tensor:
#      x y z
#    x 4.102350 0.000000 -0.069650 
#    y 0.000000 3.831490 0.000000 
#    z -0.069650 0.000000 4.452450 
# 
# 
# High freq. dielectric constant tensor:
#      x y z
#    x 1.883920 0.000000 0.005870 
#    y 0.000000 1.861620 0.000000 
#    z 0.005870 0.000000 1.922880 
# 
# From -- ./inp_files/68252.got.cif
#   From: 2010.03.12/outbox.cif.g09.slc.cpg/sg5_35_cif.got.tgz:68252.got - 2010.03.31 09:47:26.
