data_PCOD8048732
_publ_section_title
;
Structure prediction by ZEFSAII (Michael W. Deem and Ramdas Pophale) SiO2 
 PCOD8048732
Probable space group: C 2
;
_chemical_formula_sum "Si O2"
_cell_formula_units_Z 32
_cell_length_a 23.103028
_cell_length_b 9.248319
_cell_length_c 9.301568
_cell_angle_alpha 90.000000
_cell_angle_beta 125.325106
_cell_angle_gamma 90.000000
_cell_volume 1621.498121
_symmetry_space_group_name_H-M "C 2"
_symmetry_group_IT_number 5
_symmetry_cell_setting 'monoclinic'
loop_
_space_group_symop_operation_xyz
x,y,z
-x,y,-z
1/2+x,1/2+y,z
1/2-x,1/2+y,-z
loop_
_atom_site_type_symbol
_atom_site_label
_atom_site_fract_x
_atom_site_fract_y
_atom_site_fract_z
Si Si1 0.764150 0.040110 0.717997
Si Si2 0.275796 0.738165 0.216184
Si Si3 0.161006 0.043245 0.467188
Si Si4 0.133617 0.759846 0.855165
Si Si5 0.509980 0.588915 0.173889
Si Si6 0.633163 0.600154 0.887632
Si Si7 0.864419 0.731330 0.465847
Si Si8 0.498059 0.245149 0.836900
O O1 0.810933 0.992797 0.648523
O O2 0.704407 0.148483 0.575181
O O3 0.726584 0.904637 0.740702
O O4 0.815660 0.123231 0.902299
O O5 0.282202 0.642890 0.369546
O O6 0.342402 0.703589 0.207586
O O7 0.204571 0.696120 0.028756
O O8 0.087195 0.133369 0.345724
O O9 0.147946 0.901743 0.542218
O O10 0.123674 0.692076 0.683739
O O11 0.069809 0.701083 0.860261
O O12 0.135488 0.932897 0.845475
O O13 0.447144 0.646402 0.186669
O O14 0.508428 0.416456 0.164374
O O15 0.500000 0.653986 0.000000
O O16 0.931562 0.679195 0.655254
O O17 0.500000 0.178941 0.000000
#
# Coordination Sequence:
#
# PCOD8048732 Si02
#       8
#     4   4   4   4   4   4   4   4
#     4  11  23  37  59  88 125 153 191 244 295 357
#     4  11  23  37  59  89 124 156 190 239 302 357
#     4  11  22  37  62  91 115 154 199 245 295 345
#     4  10  20  36  58  85 116 150 197 244 286 349
#     4   9  17  33  59  87 116 146 195 252 292 331
#     4  10  19  37  59  85 118 153 195 243 294 345
#     4  11  21  37  61  86 115 155 196 241 294 349
#     4   9  20  33  58  88 113 145 195 254 295 330
#
# _framework density 19.734836000000001
#
# number of rings (size 3 to 8) (size 9 to 14) (size 15 to 20)
#    0.000    1.750    3.750    1.125    7.000    0.500 
#    0.000    0.000    5.500    0.750    0.000    0.000 
#    0.000    0.000    0.000    0.000    0.000    0.000 
#
# Total GULP energy -198420.767578 kJ/mol
# GULP energy per Si atom -12401.297974 kJ/mol
# Density = 1.968992 g / cm^3
# Si number density = 19.734836 Si / 1000 Ang^3
#
#
#
# Elastic Constant Matrix: (Units=GPa)
#
#
# Indices 1 2 3 4 5 6 
#
# 1 143.6574 24.4672 58.9531 0.0000 3.7782 0.0000
# 2 24.4672 32.4978 30.3869 0.0000 5.9154 0.0000
# 3 58.9531 30.3869 145.8761 0.0000 5.0725 0.0000
# 4 0.0000 0.0000 0.0000 26.3171 0.0000 0.0989
# 5 3.7782 5.9154 5.0725 0.0000 37.2606 0.0000
# 6 0.0000 0.0000 0.0000 0.0989 0.0000 23.5685
#
#
#
# Elastic Compliance Matrix: (Units=1/GPa)
#
#
# Indices 1 2 3 4 5 6 
#
# 1 0.008760 -0.004104 -0.002690 0.000000 0.000129 0.000000
# 2 -0.004104 0.041090 -0.006720 0.000000 -0.005192 0.000000
# 3 -0.002690 -0.006720 0.009340 0.000000 0.000068 0.000000
# 4 0.000000 0.000000 0.000000 0.037999 0.000000 -0.000160
# 5 0.000129 -0.005192 0.000068 0.000000 0.027640 0.000000
# 6 0.000000 0.000000 0.000000 -0.000160 0.000000 0.042430
#
#
# Mechanical properties :
#
#
# Convention : Reuss Voigt Hill
#
# Bulk Modulus (GPa) = 31.09270 61.07173 46.08221
# Shear Modulus (GPa) = 24.38930 31.31085 27.85008
#
# Velocity S-wave (km/s) = 3.51928 3.98751 3.76069
# Velocity P-wave (km/s) = 5.68359 7.22590 6.50065
#
# Compressibility (1/GPa) = 0.03216190
#
# Stress axis : x y z
#
# Youngs Moduli (GPa) = 114.14907 24.33682 107.06938
#
# Poissons Ratio (x) = 0.09988 0.28802
# Poissons Ratio (y) = 0.46846 0.71953
# Poissons Ratio (z) = 0.30706 0.16355
#
# Static dielectric constant tensor:
#      x y z
#    x 3.701670 0.000000 0.055150 
#    y 0.000000 2.996950 0.000000 
#    z 0.055150 0.000000 3.822460 
# 
# 
# High freq. dielectric constant tensor:
#      x y z
#    x 1.782750 0.000000 -0.003190 
#    y 0.000000 1.709930 0.000000 
#    z -0.003190 0.000000 1.786330 
# 
# From -- ./inp_files/29455.got.cif
#   From: 2010.03.12/outbox.cif.g09.slc.cpg/sg5_15_cif.got.tgz:29455.got - 2010.03.31 09:47:26.
