data_PCOD8048013
_publ_section_title
;
Structure prediction by ZEFSAII (Michael W. Deem and Ramdas Pophale) SiO2 
 PCOD8048013
Probable space group: P 21
;
_chemical_formula_sum "Si O2"
_cell_formula_units_Z 14
_cell_length_a 10.083449
_cell_length_b 5.665761
_cell_length_c 16.699396
_cell_angle_alpha 90.000000
_cell_angle_beta 145.523159
_cell_angle_gamma 90.000000
_cell_volume 540.058270
_symmetry_space_group_name_H-M "P 21"
_symmetry_group_IT_number 4
_symmetry_cell_setting 'monoclinic'
loop_
_space_group_symop_operation_xyz
x,y,z
-x,1/2+y,-z
loop_
_atom_site_type_symbol
_atom_site_label
_atom_site_fract_x
_atom_site_fract_y
_atom_site_fract_z
Si Si1 0.790325 0.939440 0.172138
Si Si2 0.041270 0.009917 0.976070
Si Si3 0.554449 0.751809 0.906220
Si Si4 0.742124 0.696925 0.568994
Si Si5 0.399214 0.362018 0.333581
Si Si6 0.241323 0.146052 0.691104
Si Si7 0.736221 0.011685 0.426289
O O1 0.759291 0.716333 0.215403
O O2 0.628604 0.148853 0.122389
O O3 0.736550 0.895847 0.051972
O O4 0.057381 0.018028 0.306100
O O5 0.298845 0.050560 0.067227
O O6 0.859922 0.948078 0.815670
O O7 0.958874 0.265380 0.972083
O O8 0.408258 0.912674 0.769369
O O9 0.571816 0.582543 0.418031
O O10 0.596742 0.765097 0.574368
O O11 0.829451 0.914334 0.558957
O O12 0.505757 0.172041 0.325038
O O13 0.354899 0.346184 0.691221
O O14 0.980616 0.133812 0.521646
#
# Coordination Sequence:
#
# PCOD8048013 Si02
#       7
#     2   2   2   2   2   2   2
#     4  12  27  50  82 120 163 221 287 360 435 512
#     4  12  36  58  84 126 182 236 288 348 434 532
#     4  12  30  51  84 119 171 225 283 357 433 522
#     4  12  27  50  82 120 163 221 287 360 435 512
#     4  12  30  51  84 119 171 225 283 357 433 522
#     4  12  28  50  80 125 167 220 289 362 437 515
#     4  12  28  50  80 125 167 220 289 362 437 515
#
# _framework density 25.923127999999998
#
# number of rings (size 3 to 8) (size 9 to 14) (size 15 to 20)
#    0.000    0.000    5.714    0.857   16.000    0.000 
#    0.000    0.000    0.000    0.000    0.000    0.000 
#    0.000    0.000    0.000    0.000    0.000    0.000 
#
# Total GULP energy -173550.527417 kJ/mol
# GULP energy per Si atom -12396.466244 kJ/mol
# Density = 2.586413 g / cm^3
# Si number density = 25.923128 Si / 1000 Ang^3
#
#
#
# Elastic Constant Matrix: (Units=GPa)
#
#
# Indices 1 2 3 4 5 6 
#
# 1 92.1632 28.2940 21.2864 0.0000 -2.8922 0.0000
# 2 28.2940 97.6555 9.9068 0.0000 -0.8144 0.0000
# 3 21.2864 9.9068 105.1441 0.0000 4.6273 0.0000
# 4 0.0000 0.0000 0.0000 53.2956 0.0000 2.4777
# 5 -2.8922 -0.8144 4.6273 0.0000 35.4685 0.0000
# 6 0.0000 0.0000 0.0000 2.4777 0.0000 45.1402
#
#
#
# Elastic Compliance Matrix: (Units=1/GPa)
#
#
# Indices 1 2 3 4 5 6 
#
# 1 0.012443 -0.003366 -0.002256 0.000000 0.001232 0.000000
# 2 -0.003366 0.011254 -0.000380 0.000000 0.000034 0.000000
# 3 -0.002256 -0.000380 0.010070 0.000000 -0.001506 0.000000
# 4 0.000000 0.000000 0.000000 0.018811 0.000000 -0.001033
# 5 0.001232 0.000034 -0.001506 0.000000 0.028492 0.000000
# 6 0.000000 0.000000 0.000000 -0.001033 0.000000 0.022210
#
#
# Mechanical properties :
#
#
# Convention : Reuss Voigt Hill
#
# Bulk Modulus (GPa) = 45.95188 45.99299 45.97244
# Shear Modulus (GPa) = 40.80311 42.47924 41.64118
#
# Velocity S-wave (km/s) = 3.97168 4.05243 4.01226
# Velocity P-wave (km/s) = 6.22872 6.29896 6.26394
#
# Compressibility (1/GPa) = 0.02176190
#
# Stress axis : x y z
#
# Youngs Moduli (GPa) = 80.36341 88.85555 99.30817
#
# Poissons Ratio (x) = 0.29910 0.22406
# Poissons Ratio (y) = 0.27051 0.03778
# Poissons Ratio (z) = 0.18132 0.03380
#
# Static dielectric constant tensor:
#      x y z
#    x 4.571490 0.000000 -0.019310 
#    y 0.000000 4.898490 0.000000 
#    z -0.019310 0.000000 4.599860 
# 
# 
# High freq. dielectric constant tensor:
#      x y z
#    x 2.044140 0.000000 0.000280 
#    y 0.000000 2.040470 0.000000 
#    z 0.000280 0.000000 2.054070 
# 
# From -- ./inp_files/13628.got.cif
#   From: 2010.03.12/outbox.cif.g09.slc.cpg/sg4_7_cif.got.tgz:13628.got - 2010.03.31 09:31:35.
