data_PCOD8048127
_publ_section_title
;
Structure prediction by ZEFSAII (Michael W. Deem and Ramdas Pophale) SiO2 
 PCOD8048127
Probable space group: C 2
;
_chemical_formula_sum "Si O2"
_cell_formula_units_Z 28
_cell_length_a 17.431128
_cell_length_b 9.612575
_cell_length_c 12.339819
_cell_angle_alpha 90.000000
_cell_angle_beta 134.083966
_cell_angle_gamma 90.000000
_cell_volume 1485.226184
_symmetry_space_group_name_H-M "C 2"
_symmetry_group_IT_number 5
_symmetry_cell_setting 'monoclinic'
loop_
_space_group_symop_operation_xyz
x,y,z
-x,y,-z
1/2+x,1/2+y,z
1/2-x,1/2+y,-z
loop_
_atom_site_type_symbol
_atom_site_label
_atom_site_fract_x
_atom_site_fract_y
_atom_site_fract_z
Si Si1 0.250496 0.406840 0.632868
Si Si2 0.752838 0.619611 0.748463
Si Si3 0.442377 0.320097 0.684511
Si Si4 0.405517 0.408669 0.330903
Si Si5 0.456113 0.095333 0.070317
Si Si6 0.782531 0.712277 0.343787
Si Si7 0.864428 0.413886 0.700461
O O1 0.237318 0.281297 0.705118
O O2 0.369320 0.406014 0.697006
O O3 0.231659 0.547243 0.683156
O O4 0.160244 0.398248 0.451083
O O5 0.640018 0.557805 0.676822
O O6 0.795206 0.543993 0.680928
O O7 0.828915 0.589187 0.927746
O O8 0.538530 0.417117 0.732153
O O9 0.509635 0.197547 0.802562
O O10 0.365869 0.251971 0.519927
O O11 0.500000 0.361725 0.500000
O O12 0.317573 0.284876 0.264113
O O13 0.510124 0.945558 0.153445
O O14 0.500000 0.154485 0.000000
O O15 0.667758 0.774824 0.266760
#
# Coordination Sequence:
#
# PCOD8048127 Si02
#       7
#     4   4   4   4   4   4   4
#     4  11  17  31  59  90 104 137 202 246 269 321
#     4  10  20  34  58  81 116 154 190 237 287 352
#     4  10  18  33  59  80 109 152 189 230 286 346
#     4   9  20  37  56  77 113 152 189 229 296 344
#     4  10  17  33  57  82 110 155 192 227 288 346
#     4   9  18  31  55  86 109 140 187 249 279 326
#     4   9  16  30  54  84 110 143 192 231 279 338
#
# _framework density 18.852347000000002
#
# number of rings (size 3 to 8) (size 9 to 14) (size 15 to 20)
#    0.000    2.286    4.286    1.714    0.000    0.000 
#    0.000    3.571   25.143    0.000    0.000    0.000 
#    0.000    0.000    0.000    0.000    0.000    0.000 
#
# Total GULP energy -173433.027344 kJ/mol
# GULP energy per Si atom -12388.073382 kJ/mol
# Density = 1.880944 g / cm^3
# Si number density = 18.852347 Si / 1000 Ang^3
#
#
#
# Elastic Constant Matrix: (Units=GPa)
#
#
# Indices 1 2 3 4 5 6 
#
# 1 89.6004 48.2406 17.7499 0.0000 7.9622 0.0000
# 2 48.2406 132.1171 25.0533 0.0000 11.2244 0.0000
# 3 17.7499 25.0533 72.0754 0.0000 5.7434 0.0000
# 4 0.0000 0.0000 0.0000 24.5555 0.0000 -1.9843
# 5 7.9622 11.2244 5.7434 0.0000 11.3570 0.0000
# 6 0.0000 0.0000 0.0000 -1.9843 0.0000 19.4988
#
#
#
# Elastic Compliance Matrix: (Units=1/GPa)
#
#
# Indices 1 2 3 4 5 6 
#
# 1 0.014336 -0.004530 -0.001575 0.000000 -0.004777 0.000000
# 2 -0.004530 0.010082 -0.001926 0.000000 -0.005815 0.000000
# 3 -0.001575 -0.001926 0.015309 0.000000 -0.004734 0.000000
# 4 0.000000 0.000000 0.000000 0.041062 0.000000 0.004179
# 5 -0.004777 -0.005815 -0.004734 0.000000 0.099541 0.000000
# 6 0.000000 0.000000 0.000000 0.004179 0.000000 0.051710
#
#
# Mechanical properties :
#
#
# Convention : Reuss Voigt Hill
#
# Bulk Modulus (GPa) = 42.25559 52.87561 47.56560
# Shear Modulus (GPa) = 19.53191 24.59888 22.06539
#
# Velocity S-wave (km/s) = 3.22226 3.61614 3.42487
# Velocity P-wave (km/s) = 6.02549 6.74859 6.39727
#
# Compressibility (1/GPa) = 0.02366551
#
# Stress axis : x y z
#
# Youngs Moduli (GPa) = 69.75339 99.18364 65.32144
#
# Poissons Ratio (x) = 0.44931 0.10290
# Poissons Ratio (y) = 0.31599 0.12578
# Poissons Ratio (z) = 0.10988 0.19099
#
# Static dielectric constant tensor:
#      x y z
#    x 3.826500 0.000000 0.280920 
#    y 0.000000 3.326320 0.000000 
#    z 0.280920 0.000000 3.599160 
# 
# 
# High freq. dielectric constant tensor:
#      x y z
#    x 1.711930 0.000000 0.008270 
#    y 0.000000 1.714160 0.000000 
#    z 0.008270 0.000000 1.714780 
# 
# From -- ./inp_files/56695.got.cif
#   From: 2010.03.12/outbox.cif.g09.slc.cpg/sg5_29_cif.got.tgz:56695.got - 2010.03.31 09:47:26.
