data_PCOD8048152
_publ_section_title
;
Structure prediction by ZEFSAII (Michael W. Deem and Ramdas Pophale) SiO2 
 PCOD8048152
Probable space group: C 2
;
_chemical_formula_sum "Si O2"
_cell_formula_units_Z 28
_cell_length_a 8.840046
_cell_length_b 16.323332
_cell_length_c 10.440782
_cell_angle_alpha 90.000000
_cell_angle_beta 105.660476
_cell_angle_gamma 90.000000
_cell_volume 1450.666940
_symmetry_space_group_name_H-M "C 2"
_symmetry_group_IT_number 5
_symmetry_cell_setting 'monoclinic'
loop_
_space_group_symop_operation_xyz
x,y,z
-x,y,-z
1/2+x,1/2+y,z
1/2-x,1/2+y,-z
loop_
_atom_site_type_symbol
_atom_site_label
_atom_site_fract_x
_atom_site_fract_y
_atom_site_fract_z
Si Si1 0.500000 0.101980 0.500000
Si Si2 0.881134 0.175981 0.363641
Si Si3 0.968542 0.737825 0.687595
Si Si4 0.134618 0.822609 0.942823
Si Si5 0.438786 0.753159 0.119445
Si Si6 0.000000 0.878956 0.500000
Si Si7 0.756223 0.509586 0.604342
Si Si8 0.386674 0.917930 0.863184
O O1 0.547112 0.161492 0.629326
O O2 0.354776 0.044482 0.506688
O O3 0.716870 0.222920 0.340349
O O4 0.957874 0.191708 0.242192
O O5 0.000000 0.208160 0.500000
O O6 0.860623 0.078681 0.369481
O O7 0.995842 0.823741 0.624227
O O8 0.058556 0.749013 0.841572
O O9 0.214549 0.896077 0.880561
O O10 0.258358 0.778818 0.064212
O O11 0.000000 0.863279 0.000000
O O12 0.541386 0.833551 0.173776
O O13 0.500000 0.712725 0.000000
O O14 0.842627 0.932665 0.465573
O O15 0.873111 0.483474 0.746288
O O16 0.500000 0.954762 0.000000
#
# Coordination Sequence:
#
# PCOD8048152 Si02
#       8
#     2   4   4   4   4   2   4   4
#     4   9  24  40  56  89 120 156 196 247 298 370
#     4  11  23  38  60  91 123 157 202 256 304 358
#     4  10  21  38  65  87 113 158 212 243 293 360
#     4  10  17  36  63  89 114 146 209 247 286 344
#     4   9  21  37  61  88 117 158 201 247 294 359
#     4  11  22  38  62  89 116 162 194 249 304 362
#     4  11  22  42  58  85 127 155 193 249 316 351
#     4   9  21  39  61  86 119 155 199 248 294 361
#
# _framework density 19.301468
#
# number of rings (size 3 to 8) (size 9 to 14) (size 15 to 20)
#    0.000    2.286    3.571    0.000    2.000    4.571 
#    5.143    0.714    0.000    0.000    0.000    0.000 
#    0.000    0.000    0.000    0.000    0.000    0.000 
#
# Total GULP energy -173575.292619 kJ/mol
# GULP energy per Si atom -12398.235187 kJ/mol
# Density = 1.925754 g / cm^3
# Si number density = 19.301468 Si / 1000 Ang^3
#
#
#
# Elastic Constant Matrix: (Units=GPa)
#
#
# Indices 1 2 3 4 5 6 
#
# 1 121.5531 45.9134 53.3141 0.0000 -7.1952 0.0000
# 2 45.9134 83.5395 37.2791 0.0000 -7.7044 0.0000
# 3 53.3141 37.2791 100.2014 0.0000 -7.3431 0.0000
# 4 0.0000 0.0000 0.0000 26.0564 0.0000 0.9087
# 5 -7.1952 -7.7044 -7.3431 0.0000 32.0744 0.0000
# 6 0.0000 0.0000 0.0000 0.9087 0.0000 31.0934
#
#
#
# Elastic Compliance Matrix: (Units=1/GPa)
#
#
# Indices 1 2 3 4 5 6 
#
# 1 0.011996 -0.004451 -0.004687 0.000000 0.000549 0.000000
# 2 -0.004451 0.016168 -0.003494 0.000000 0.002085 0.000000
# 3 -0.004687 -0.003494 0.013868 0.000000 0.001284 0.000000
# 4 0.000000 0.000000 0.000000 0.038417 0.000000 -0.001123
# 5 0.000549 0.002085 0.001284 0.000000 0.032096 0.000000
# 6 0.000000 0.000000 0.000000 -0.001123 0.000000 0.032194
#
#
# Mechanical properties :
#
#
# Convention : Reuss Voigt Hill
#
# Bulk Modulus (GPa) = 59.63622 64.25635 61.94628
# Shear Modulus (GPa) = 28.47506 29.09733 28.78620
#
# Velocity S-wave (km/s) = 3.84510 3.88689 3.86605
# Velocity P-wave (km/s) = 7.11881 7.31485 7.21750
#
# Compressibility (1/GPa) = 0.01676833
#
# Stress axis : x y z
#
# Youngs Moduli (GPa) = 83.35958 61.84943 72.11073
#
# Poissons Ratio (x) = 0.27530 0.33795
# Poissons Ratio (y) = 0.37105 0.25197
# Poissons Ratio (z) = 0.39067 0.21611
#
# Static dielectric constant tensor:
#      x y z
#    x 3.584620 0.000000 -0.021990 
#    y 0.000000 3.305580 0.000000 
#    z -0.021990 0.000000 3.572230 
# 
# 
# High freq. dielectric constant tensor:
#      x y z
#    x 1.758640 0.000000 0.001580 
#    y 0.000000 1.726710 0.000000 
#    z 0.001580 0.000000 1.755750 
# 
# From -- ./inp_files/36219.got.cif
#   From: 2010.03.12/outbox.cif.g09.slc.cpg/sg5_19_cif.got.tgz:36219.got - 2010.03.31 09:47:26.
