data_PCOD8048132
_publ_section_title
;
Structure prediction by ZEFSAII (Michael W. Deem and Ramdas Pophale) SiO2 
 PCOD8048132
Probable space group: C 2
;
_chemical_formula_sum "Si O2"
_cell_formula_units_Z 30
_cell_length_a 20.521724
_cell_length_b 7.994638
_cell_length_c 12.406197
_cell_angle_alpha 90.000000
_cell_angle_beta 41.736618
_cell_angle_gamma 90.000000
_cell_volume 1354.985672
_symmetry_space_group_name_H-M "C 2"
_symmetry_group_IT_number 5
_symmetry_cell_setting 'monoclinic'
loop_
_space_group_symop_operation_xyz
x,y,z
-x,y,-z
1/2+x,1/2+y,z
1/2-x,1/2+y,-z
loop_
_atom_site_type_symbol
_atom_site_label
_atom_site_fract_x
_atom_site_fract_y
_atom_site_fract_z
Si Si1 0.632762 0.993750 0.664561
Si Si2 0.676901 0.686951 0.483589
Si Si3 0.968343 0.813236 0.659815
Si Si4 0.585096 0.994798 0.160316
Si Si5 0.339304 0.079211 0.145808
Si Si6 0.965077 0.181453 0.660682
Si Si7 0.877465 0.870892 0.347966
Si Si8 0.000000 0.831309 0.000000
O O1 0.699243 0.865995 0.512471
O O2 0.524348 0.996113 0.751702
O O3 0.632535 0.947427 0.792796
O O4 0.673194 0.190823 0.622143
O O5 0.733700 0.667252 0.299449
O O6 0.560796 0.672368 0.616538
O O7 0.700095 0.519975 0.529354
O O8 0.898769 0.663409 0.788478
O O9 0.000000 0.765650 0.500000
O O10 0.064217 0.826404 0.615491
O O11 0.914547 0.996526 0.725376
O O12 0.604661 0.828180 0.207339
O O13 0.663702 0.986741 0.965886
O O14 0.422383 0.219949 0.030616
O O15 0.000000 0.235746 0.500000
O O16 0.945307 0.934293 0.163048
#
# Coordination Sequence:
#
# PCOD8048132 Si02
#       8
#     4   4   4   4   4   4   4   2
#     4   9  19  35  51  75 110 143 173 214 258 320
#     4  10  22  34  56  82 105 140 182 218 262 321
#     4   9  16  30  55  80  98 135 184 221 257 313
#     4  10  17  34  54  78 105 141 178 213 272 318
#     4  11  19  34  54  79 113 140 171 224 267 314
#     4   9  19  36  58  78 103 137 184 222 259 316
#     4   9  18  36  53  77 106 142 180 213 266 321
#     4  10  18  36  54  72 116 144 166 222 264 318
#
# _framework density 22.140454999999999
#
# number of rings (size 3 to 8) (size 9 to 14) (size 15 to 20)
#    0.000    2.400    4.000    0.400    3.733    0.000 
#    7.200    1.333    8.800    0.000    0.000    0.000 
#    0.000    0.000    0.000    0.000    0.000    0.000 
#
# Total GULP energy -185875.046880 kJ/mol
# GULP energy per Si atom -12391.669792 kJ/mol
# Density = 2.209006 g / cm^3
# Si number density = 22.140455 Si / 1000 Ang^3
#
#
#
# Elastic Constant Matrix: (Units=GPa)
#
#
# Indices 1 2 3 4 5 6 
#
# 1 26.7866 13.8531 18.7518 0.0002 22.0015 -0.0001
# 2 13.8531 142.6914 88.6393 0.0014 18.5493 -0.0011
# 3 18.7518 88.6393 166.1535 0.0002 35.2685 -0.0002
# 4 0.0002 0.0014 0.0002 32.3871 -0.0005 6.1250
# 5 22.0015 18.5493 35.2685 -0.0005 40.3829 0.0003
# 6 -0.0001 -0.0011 -0.0002 6.1250 0.0003 23.2151
#
#
#
# Elastic Compliance Matrix: (Units=1/GPa)
#
#
# Indices 1 2 3 4 5 6 
#
# 1 0.068349 -0.002862 0.001766 -0.000001 -0.037465 0.000001
# 2 -0.002862 0.010602 -0.005684 0.000000 0.001654 0.000001
# 3 0.001766 -0.005684 0.010436 0.000000 -0.007466 0.000000
# 4 -0.000001 0.000000 0.000000 0.032498 0.000001 -0.008574
# 5 -0.037465 0.001654 -0.007466 0.000001 0.050936 -0.000001
# 6 0.000001 0.000001 0.000000 -0.008574 -0.000001 0.045338
#
#
# Mechanical properties :
#
#
# Convention : Reuss Voigt Hill
#
# Bulk Modulus (GPa) = 13.18802 64.23554 38.71178
# Shear Modulus (GPa) = 19.45571 33.48950 26.47260
#
# Velocity S-wave (km/s) = 2.96757 3.89343 3.46159
# Velocity P-wave (km/s) = 4.20849 7.02050 5.78787
#
# Compressibility (1/GPa) = 0.07582640
#
# Stress axis : x y z
#
# Youngs Moduli (GPa) = 14.63083 94.32369 95.82103
#
# Poissons Ratio (x) = 0.26996 -0.16919
# Poissons Ratio (y) = 0.04187 0.54463
# Poissons Ratio (z) = -0.02583 0.53612
#
# Static dielectric constant tensor:
#      x y z
#    x 3.847000 0.000000 0.167400 
#    y 0.000000 4.560390 0.000000 
#    z 0.167400 0.000000 3.971300 
# 
# 
# High freq. dielectric constant tensor:
#      x y z
#    x 1.867910 0.000000 0.008730 
#    y 0.000000 1.869450 0.000000 
#    z 0.008730 0.000000 1.864610 
# 
# From -- ./inp_files/44146.got.cif
#   From: 2010.03.12/outbox.cif.g09.slc.cpg/sg5_23_cif.got.tgz:44146.got - 2010.03.31 09:47:26.
