data_PCOD8048795
_publ_section_title
;
Structure prediction by ZEFSAII (Michael W. Deem and Ramdas Pophale) SiO2 
 PCOD8048795
Probable space group: C 2
;
_chemical_formula_sum "Si O2"
_cell_formula_units_Z 28
_cell_length_a 11.768180
_cell_length_b 14.314097
_cell_length_c 8.482827
_cell_angle_alpha 90.000000
_cell_angle_beta 116.012046
_cell_angle_gamma 90.000000
_cell_volume 1284.190669
_symmetry_space_group_name_H-M "C 2"
_symmetry_group_IT_number 5
_symmetry_cell_setting 'monoclinic'
loop_
_space_group_symop_operation_xyz
x,y,z
-x,y,-z
1/2+x,1/2+y,z
1/2-x,1/2+y,-z
loop_
_atom_site_type_symbol
_atom_site_label
_atom_site_fract_x
_atom_site_fract_y
_atom_site_fract_z
Si Si1 0.910274 0.671360 0.813801
Si Si2 0.303195 0.200895 0.428606
Si Si3 0.523925 0.660458 0.344660
Si Si4 0.961554 0.360337 0.222296
Si Si5 0.207654 0.368437 0.175545
Si Si6 0.101557 0.554919 0.742161
Si Si7 0.707329 0.561852 0.879554
O O1 0.867708 0.733046 0.634550
O O2 0.782229 0.634371 0.813583
O O3 0.994457 0.585464 0.801906
O O4 0.000000 0.724608 0.000000
O O5 0.166670 0.154791 0.372694
O O6 0.296835 0.286810 0.302202
O O7 0.390927 0.118389 0.409792
O O8 0.500000 0.614401 0.500000
O O9 0.477347 0.767146 0.331212
O O10 0.434768 0.598938 0.176911
O O11 0.922754 0.445931 0.314118
O O12 0.093595 0.389523 0.224005
O O13 0.852240 0.338305 0.027639
O O14 0.292448 0.460319 0.203114
O O15 0.235274 0.560222 0.911699
#
# Coordination Sequence:
#
# PCOD8048795 Si02
#       7
#     4   4   4   4   4   4   4
#     4  10  20  37  61  86 116 158 205 249 301 351
#     4  11  22  37  60  95 120 155 206 252 298 353
#     4  11  22  36  57  89 123 159 194 244 304 360
#     4   9  18  35  60  92 119 153 205 251 288 340
#     4   9  18  36  62  88 120 161 199 240 297 363
#     4  10  20  36  64  91 117 151 203 258 290 343
#     4  10  19  38  62  86 122 164 193 236 306 363
#
# _framework density 21.803616999999999
#
# number of rings (size 3 to 8) (size 9 to 14) (size 15 to 20)
#    0.000    2.000    2.857    1.286    0.000    2.857 
#    0.000    1.429    3.143    0.000    0.000    0.000 
#    0.000    0.000    0.000    0.000    0.000    0.000 
#
# Total GULP energy -173511.083653 kJ/mol
# GULP energy per Si atom -12393.648832 kJ/mol
# Density = 2.175399 g / cm^3
# Si number density = 21.803617 Si / 1000 Ang^3
#
#
#
# Elastic Constant Matrix: (Units=GPa)
#
#
# Indices 1 2 3 4 5 6 
#
# 1 73.9918 21.9208 25.8668 0.0000 13.3462 0.0000
# 2 21.9208 70.2588 30.0674 0.0000 6.7504 0.0000
# 3 25.8668 30.0674 115.2935 0.0000 6.9626 0.0000
# 4 0.0000 0.0000 0.0000 12.7039 0.0000 -7.5074
# 5 13.3462 6.7504 6.9626 0.0000 32.4568 0.0000
# 6 0.0000 0.0000 0.0000 -7.5074 0.0000 23.2065
#
#
#
# Elastic Compliance Matrix: (Units=1/GPa)
#
#
# Indices 1 2 3 4 5 6 
#
# 1 0.016404 -0.003555 -0.002422 0.000000 -0.005487 0.000000
# 2 -0.003555 0.016989 -0.003554 0.000000 -0.001309 0.000000
# 3 -0.002422 -0.003554 0.010171 0.000000 -0.000447 0.000000
# 4 0.000000 0.000000 0.000000 0.097321 0.000000 0.031484
# 5 -0.005487 -0.001309 -0.000447 0.000000 0.033434 0.000000
# 6 0.000000 0.000000 0.000000 0.031484 0.000000 0.053276
#
#
# Mechanical properties :
#
#
# Convention : Reuss Voigt Hill
#
# Bulk Modulus (GPa) = 40.81162 46.13936 43.47549
# Shear Modulus (GPa) = 19.62134 25.78606 22.70370
#
# Velocity S-wave (km/s) = 3.00311 3.44270 3.23039
# Velocity P-wave (km/s) = 5.54827 6.08360 5.82209
#
# Compressibility (1/GPa) = 0.02450283
#
# Stress axis : x y z
#
# Youngs Moduli (GPa) = 60.95905 58.86224 98.32113
#
# Poissons Ratio (x) = 0.20923 0.23815
# Poissons Ratio (y) = 0.21668 0.34943
# Poissons Ratio (z) = 0.14765 0.20919
#
# Static dielectric constant tensor:
#      x y z
#    x 3.663850 0.000000 0.133020 
#    y 0.000000 3.668090 0.000000 
#    z 0.133020 0.000000 4.179110 
# 
# 
# High freq. dielectric constant tensor:
#      x y z
#    x 1.840770 0.000000 0.009780 
#    y 0.000000 1.823720 0.000000 
#    z 0.009780 0.000000 1.872910 
# 
# From -- ./inp_files/20332.got.cif
#   From: 2010.03.12/outbox.cif.g09.slc.cpg/sg5_11_cif.got.tgz:20332.got - 2010.03.31 09:47:26.
