data_PCOD8048078
_publ_section_title
;
Structure prediction by ZEFSAII (Michael W. Deem and Ramdas Pophale) SiO2 
 PCOD8048078
Probable space group: C 2
;
_chemical_formula_sum "Si O2"
_cell_formula_units_Z 20
_cell_length_a 7.685874
_cell_length_b 17.436758
_cell_length_c 7.735634
_cell_angle_alpha 90.000000
_cell_angle_beta 70.575479
_cell_angle_gamma 90.000000
_cell_volume 977.695555
_symmetry_space_group_name_H-M "C 2"
_symmetry_group_IT_number 5
_symmetry_cell_setting 'monoclinic'
loop_
_space_group_symop_operation_xyz
x,y,z
-x,y,-z
1/2+x,1/2+y,z
1/2-x,1/2+y,-z
loop_
_atom_site_type_symbol
_atom_site_label
_atom_site_fract_x
_atom_site_fract_y
_atom_site_fract_z
Si Si1 0.212353 0.292260 0.634172
Si Si2 0.302330 0.766296 0.766209
Si Si3 0.705944 0.607483 0.350315
Si Si4 0.500000 0.372387 0.000000
Si Si5 0.500000 0.172408 0.500000
Si Si6 0.871522 0.945226 0.705052
O O1 0.226958 0.294589 0.421152
O O2 0.365387 0.231064 0.653378
O O3 0.237353 0.375767 0.706780
O O4 0.010574 0.270556 0.763321
O O5 0.253385 0.676273 0.797526
O O6 0.178955 0.818133 0.932040
O O7 0.500000 0.619174 0.500000
O O8 0.867789 0.615237 0.438660
O O9 0.733279 0.526841 0.241394
O O10 0.486466 0.427916 0.839616
O O11 0.000000 0.958388 0.500000
#
# Coordination Sequence:
#
# PCOD8048078 Si02
#       6
#     4   4   4   2   2   4
#     4  10  18  38  66  94 125 169 222 253 318 397
#     4  10  20  39  66  96 127 170 219 263 317 390
#     4  10  20  38  65  97 128 171 218 262 324 385
#     4  12  24  42  66  92 134 172 216 272 318 382
#     4  10  16  34  66 100 120 168 220 256 314 386
#     4  11  22  40  64  95 131 169 211 270 325 378
#
# _framework density 20.456264000000001
#
# number of rings (size 3 to 8) (size 9 to 14) (size 15 to 20)
#    0.000    1.600    7.000    1.200    0.000    2.400 
#    0.000    4.000    4.400    0.000    0.000    0.000 
#    0.000    0.000    0.000    0.000    0.000    0.000 
#
# Total GULP energy -123912.419733 kJ/mol
# GULP energy per Si atom -12391.241973 kJ/mol
# Density = 2.040970 g / cm^3
# Si number density = 20.456264 Si / 1000 Ang^3
#
#
#
# Elastic Constant Matrix: (Units=GPa)
#
#
# Indices 1 2 3 4 5 6 
#
# 1 142.8165 65.2365 27.3866 0.0000 -11.8031 0.0000
# 2 65.2365 181.9568 36.5539 0.0000 17.1486 0.0000
# 3 27.3866 36.5539 59.2838 0.0000 -1.6167 0.0000
# 4 0.0000 0.0000 0.0000 -10.7537 0.0000 -7.0180
# 5 -11.8031 17.1486 -1.6167 0.0000 22.5582 0.0000
# 6 0.0000 0.0000 0.0000 -7.0180 0.0000 33.9568
#
#
#
# Elastic Compliance Matrix: (Units=1/GPa)
#
#
# Indices 1 2 3 4 5 6 
#
# 1 0.009795 -0.003874 -0.001920 0.000000 0.007932 0.000000
# 2 -0.003874 0.008438 -0.003651 0.000000 -0.008703 0.000000
# 3 -0.001920 -0.003651 0.020094 0.000000 0.003211 0.000000
# 4 0.000000 0.000000 0.000000 -0.081939 0.000000 -0.016935
# 5 0.007932 -0.008703 0.003211 0.000000 0.055327 0.000000
# 6 0.000000 0.000000 0.000000 -0.016935 0.000000 0.025949
#
#
# Mechanical properties :
#
#
# Convention : Reuss Voigt Hill
#
# Bulk Modulus (GPa) = 51.44615 71.37900 61.41258
# Shear Modulus (GPa) = 79.32457 26.14426 52.73441
#
# Velocity S-wave (km/s) = 6.23393 3.57887 5.08282
# Velocity P-wave (km/s) = 8.77609 7.21436 8.03326
#
# Compressibility (1/GPa) = 0.01943780
#
# Stress axis : x y z
#
# Youngs Moduli (GPa) = 102.09066 118.50716 49.76683
#
# Poissons Ratio (x) = 0.45906 0.09556
# Poissons Ratio (y) = 0.39547 0.18169
# Poissons Ratio (z) = 0.19603 0.43265
#
# Static dielectric constant tensor:
#      x y z
#    x 3.878300 0.000000 -0.048090 
#    y 0.000000 4.210520 0.000000 
#    z -0.048090 0.000000 3.374970 
# 
# 
# High freq. dielectric constant tensor:
#      x y z
#    x 1.812620 0.000000 -0.002870 
#    y 0.000000 1.810260 0.000000 
#    z -0.002870 0.000000 1.754750 
# 
# From -- ./inp_files/15626.got.cif
#   From: 2010.03.12/outbox.cif.g09.slc.cpg/sg5_8_cif.got.tgz:15626.got - 2010.03.31 09:47:26.
