data_PCOD8048145
_publ_section_title
;
Structure prediction by ZEFSAII (Michael W. Deem and Ramdas Pophale) SiO2 
 PCOD8048145
Probable space group: C 2
;
_chemical_formula_sum "Si O2"
_cell_formula_units_Z 28
_cell_length_a 10.493195
_cell_length_b 11.352549
_cell_length_c 19.080521
_cell_angle_alpha 90.000000
_cell_angle_beta 137.376155
_cell_angle_gamma 90.000000
_cell_volume 1539.206637
_symmetry_space_group_name_H-M "C 2"
_symmetry_group_IT_number 5
_symmetry_cell_setting 'monoclinic'
loop_
_space_group_symop_operation_xyz
x,y,z
-x,y,-z
1/2+x,1/2+y,z
1/2-x,1/2+y,-z
loop_
_atom_site_type_symbol
_atom_site_label
_atom_site_fract_x
_atom_site_fract_y
_atom_site_fract_z
Si Si1 0.288442 0.977270 0.265155
Si Si2 0.833274 0.277508 0.380277
Si Si3 0.610547 0.567597 0.862800
Si Si4 0.055472 0.590463 0.900083
Si Si5 0.936428 0.684840 0.251235
Si Si6 0.708606 0.734101 0.788252
Si Si7 0.351669 0.880240 0.882457
O O1 0.336138 0.916333 0.359454
O O2 0.292329 0.876257 0.205852
O O3 0.437803 0.079772 0.308874
O O4 0.084690 0.035103 0.181486
O O5 0.634951 0.251231 0.337680
O O6 0.856859 0.199979 0.318340
O O7 0.000000 0.245770 0.500000
O O8 0.578323 0.675951 0.795107
O O9 0.690496 0.455824 0.854490
O O10 0.747797 0.604380 0.980875
O O11 0.092018 0.624261 0.835246
O O12 0.919178 0.684043 0.883272
O O13 0.963070 0.459577 0.870172
O O14 0.760405 0.771244 0.197215
O O15 0.500000 0.833480 0.000000
#
# Coordination Sequence:
#
# PCOD8048145 Si02
#       7
#     4   4   4   4   4   4   4
#     4  10  22  36  55  83 114 146 187 236 279 331
#     4   9  20  44  60  78 111 144 192 247 289 325
#     4  10  17  36  55  80 118 154 182 224 277 328
#     4   9  19  33  55  79 117 159 182 221 272 330
#     4  11  21  38  54  85 115 142 195 229 276 344
#     4   8  18  37  55  79 112 144 194 223 273 333
#     4   9  18  33  52  77 112 154 185 218 271 323
#
# _framework density 18.191191
#
# number of rings (size 3 to 8) (size 9 to 14) (size 15 to 20)
#    0.857    1.714    1.429    1.286    2.000    1.143 
#   10.286    0.000    0.000    0.000    0.000    1.000 
#    0.000    0.000    0.000    0.000    0.000    0.000 
#
# Total GULP energy -173478.935603 kJ/mol
# GULP energy per Si atom -12391.352543 kJ/mol
# Density = 1.814979 g / cm^3
# Si number density = 18.191191 Si / 1000 Ang^3
#
#
#
# Elastic Constant Matrix: (Units=GPa)
#
#
# Indices 1 2 3 4 5 6 
#
# 1 50.9138 42.3742 28.2232 0.0000 2.0376 0.0000
# 2 42.3742 101.3219 30.4235 0.0000 4.5453 0.0000
# 3 28.2232 30.4235 93.5529 0.0000 7.1885 0.0000
# 4 0.0000 0.0000 0.0000 17.3230 0.0000 -3.7483
# 5 2.0376 4.5453 7.1885 0.0000 13.4691 0.0000
# 6 0.0000 0.0000 0.0000 -3.7483 0.0000 36.1730
#
#
#
# Elastic Compliance Matrix: (Units=1/GPa)
#
#
# Indices 1 2 3 4 5 6 
#
# 1 0.033026 -0.012049 -0.006229 0.000000 0.002394 0.000000
# 2 -0.012049 0.015379 -0.001155 0.000000 -0.002751 0.000000
# 3 -0.006229 -0.001155 0.013391 0.000000 -0.005815 0.000000
# 4 0.000000 0.000000 0.000000 0.059051 0.000000 0.006119
# 5 0.002394 -0.002751 -0.005815 0.000000 0.077914 0.000000
# 6 0.000000 0.000000 0.000000 0.006119 0.000000 0.028279
#
#
# Mechanical properties :
#
#
# Convention : Reuss Voigt Hill
#
# Bulk Modulus (GPa) = 43.61135 49.75895 46.68515
# Shear Modulus (GPa) = 18.27830 23.04418 20.66124
#
# Velocity S-wave (km/s) = 3.17328 3.56304 3.37379
# Velocity P-wave (km/s) = 6.11982 6.65881 6.39499
#
# Compressibility (1/GPa) = 0.02292981
#
# Stress axis : x y z
#
# Youngs Moduli (GPa) = 30.27884 65.02459 74.67884
#
# Poissons Ratio (x) = 0.78349 0.46518
# Poissons Ratio (y) = 0.36483 0.08624
# Poissons Ratio (z) = 0.18861 0.07509
#
# Static dielectric constant tensor:
#      x y z
#    x 3.294480 0.000000 0.025650 
#    y 0.000000 3.425400 0.000000 
#    z 0.025650 0.000000 2.954200 
# 
# 
# High freq. dielectric constant tensor:
#      x y z
#    x 1.699140 0.000000 0.006340 
#    y 0.000000 1.704690 0.000000 
#    z 0.006340 0.000000 1.667450 
# 
# From -- ./inp_files/65198.got.cif
#   From: 2010.03.12/outbox.cif.g09.slc.cpg/sg5_33_cif.got.tgz:65198.got - 2010.03.31 09:47:26.
