data_PCOD8048400
_publ_section_title
;
Structure prediction by ZEFSAII (Michael W. Deem and Ramdas Pophale) SiO2 
 PCOD8048400
Probable space group: C 2
;
_chemical_formula_sum "Si O2"
_cell_formula_units_Z 30
_cell_length_a 25.000671
_cell_length_b 8.687661
_cell_length_c 9.677248
_cell_angle_alpha 90.000000
_cell_angle_beta 133.689532
_cell_angle_gamma 90.000000
_cell_volume 1519.850164
_symmetry_space_group_name_H-M "C 2"
_symmetry_group_IT_number 5
_symmetry_cell_setting 'monoclinic'
loop_
_space_group_symop_operation_xyz
x,y,z
-x,y,-z
1/2+x,1/2+y,z
1/2-x,1/2+y,-z
loop_
_atom_site_type_symbol
_atom_site_label
_atom_site_fract_x
_atom_site_fract_y
_atom_site_fract_z
Si Si1 0.692582 0.029930 0.443558
Si Si2 0.360114 0.243936 0.424403
Si Si3 0.002633 0.539467 0.659202
Si Si4 0.446002 0.831119 0.783591
Si Si5 0.000000 0.998810 0.500000
Si Si6 0.379259 0.592431 0.486150
Si Si7 0.380951 0.274047 0.157767
Si Si8 0.736096 0.253733 0.281605
O O1 0.694920 0.147034 0.578002
O O2 0.713503 0.109885 0.337393
O O3 0.611019 0.962774 0.272387
O O4 0.747534 0.893438 0.584780
O O5 0.441599 0.171678 0.574670
O O6 0.361250 0.416032 0.486958
O O7 0.334551 0.249516 0.217722
O O8 0.082500 0.615042 0.827886
O O9 0.000000 0.474789 0.500000
O O10 0.993165 0.393093 0.739085
O O11 0.406726 0.671045 0.676300
O O12 0.500000 0.786513 0.000000
O O13 0.943701 0.105562 0.485983
O O14 0.947287 0.896244 0.305349
O O15 0.306210 0.693262 0.315227
O O16 0.325433 0.317796 0.934858
#
# Coordination Sequence:
#
# PCOD8048400 Si02
#       8
#     4   4   4   4   2   4   4   4
#     4  10  22  41  57  86 127 164 192 253 303 370
#     4   9  18  37  62  81 118 154 199 252 302 354
#     4   9  16  33  58  86 113 154 194 250 297 350
#     4  10  21  36  56  85 121 153 208 245 294 354
#     4  10  20  42  64  92 124 154 210 264 300 362
#     4  10  21  39  59  85 126 156 196 260 302 356
#     4  10  18  37  66  91 115 159 208 247 304 373
#     4  11  23  38  63  89 126 164 205 244 315 366
#
# _framework density 19.738786000000001
#
# number of rings (size 3 to 8) (size 9 to 14) (size 15 to 20)
#    0.000    2.133    3.333    1.600    0.933    2.133 
#    7.200    0.667    5.867    0.000    0.000    0.000 
#    0.000    0.000    0.000    0.000    0.000    0.000 
#
# Total GULP energy -185882.723004 kJ/mol
# GULP energy per Si atom -12392.181534 kJ/mol
# Density = 1.969386 g / cm^3
# Si number density = 19.738786 Si / 1000 Ang^3
#
#
#
# Elastic Constant Matrix: (Units=GPa)
#
#
# Indices 1 2 3 4 5 6 
#
# 1 93.8323 28.6618 39.7567 0.0000 -2.5816 0.0000
# 2 28.6618 97.7496 41.8868 0.0000 -3.8695 0.0000
# 3 39.7567 41.8868 131.7602 0.0000 2.2129 0.0000
# 4 0.0000 0.0000 0.0000 16.3371 0.0000 -6.1973
# 5 -2.5816 -3.8695 2.2129 0.0000 18.5910 0.0000
# 6 0.0000 0.0000 0.0000 -6.1973 0.0000 32.2652
#
#
#
# Elastic Compliance Matrix: (Units=1/GPa)
#
#
# Indices 1 2 3 4 5 6 
#
# 1 0.012741 -0.002328 -0.003132 0.000000 0.001658 0.000000
# 2 -0.002328 0.012429 -0.003293 0.000000 0.002656 0.000000
# 3 -0.003132 -0.003293 0.009620 0.000000 -0.002265 0.000000
# 4 0.000000 0.000000 0.000000 0.066021 0.000000 0.012681
# 5 0.001658 0.002656 -0.002265 0.000000 0.054842 0.000000
# 6 0.000000 0.000000 0.000000 0.012681 0.000000 0.033429
#
#
# Mechanical properties :
#
#
# Convention : Reuss Voigt Hill
#
# Bulk Modulus (GPa) = 57.86149 60.43917 59.15033
# Shear Modulus (GPa) = 23.54603 27.64113 25.59358
#
# Velocity S-wave (km/s) = 3.45756 3.74618 3.60476
# Velocity P-wave (km/s) = 6.73178 7.02836 6.88167
#
# Compressibility (1/GPa) = 0.01728265
#
# Stress axis : x y z
#
# Youngs Moduli (GPa) = 78.48581 80.45539 103.95380
#
# Poissons Ratio (x) = 0.18731 0.32560
# Poissons Ratio (y) = 0.18272 0.34236
# Poissons Ratio (z) = 0.24583 0.26497
#
# Static dielectric constant tensor:
#      x y z
#    x 3.850470 0.000000 -0.067570 
#    y 0.000000 3.540460 0.000000 
#    z -0.067570 0.000000 3.402490 
# 
# 
# High freq. dielectric constant tensor:
#      x y z
#    x 1.772920 0.000000 -0.002410 
#    y 0.000000 1.769560 0.000000 
#    z -0.002410 0.000000 1.746120 
# 
# From -- ./inp_files/31669.got.cif
#   From: 2010.03.12/outbox.cif.g09.slc.cpg/sg5_16_cif.got.tgz:31669.got - 2010.03.31 09:47:26.
