data_PCOD8048787
_publ_section_title
;
Structure prediction by ZEFSAII (Michael W. Deem and Ramdas Pophale) SiO2 
 PCOD8048787
Probable space group: C 2
;
_chemical_formula_sum "Si O2"
_cell_formula_units_Z 30
_cell_length_a 18.707578
_cell_length_b 8.382544
_cell_length_c 11.571556
_cell_angle_alpha 90.000000
_cell_angle_beta 121.064136
_cell_angle_gamma 90.000000
_cell_volume 1554.383898
_symmetry_space_group_name_H-M "C 2"
_symmetry_group_IT_number 5
_symmetry_cell_setting 'monoclinic'
loop_
_space_group_symop_operation_xyz
x,y,z
-x,y,-z
1/2+x,1/2+y,z
1/2-x,1/2+y,-z
loop_
_atom_site_type_symbol
_atom_site_label
_atom_site_fract_x
_atom_site_fract_y
_atom_site_fract_z
Si Si1 0.354992 0.830130 0.018866
Si Si2 0.808805 0.463389 0.747172
Si Si3 0.227018 0.557916 0.870314
Si Si4 0.500000 0.495140 0.500000
Si Si5 0.461416 0.763619 0.307643
Si Si6 0.617741 0.968193 0.437095
Si Si7 0.850474 0.756727 0.381467
Si Si8 0.788200 0.290916 0.301290
O O1 0.440741 0.773164 0.152901
O O2 0.312634 0.975429 0.051765
O O3 0.367353 0.899602 0.900540
O O4 0.298704 0.672865 0.974648
O O5 0.868981 0.478492 0.688513
O O6 0.738605 0.332572 0.663261
O O7 0.764826 0.630767 0.739940
O O8 0.155412 0.657419 0.742697
O O9 0.264558 0.425335 0.812471
O O10 0.505872 0.600946 0.387390
O O11 0.417108 0.394051 0.420856
O O12 0.525242 0.905766 0.389112
O O13 0.375455 0.777623 0.305680
O O14 0.689225 0.853513 0.551628
O O15 0.622837 0.145911 0.490485
#
# Coordination Sequence:
#
# PCOD8048787 Si02
#       8
#     4   4   4   2   4   4   4   4
#     4  10  21  35  57  87 116 159 199 240 302 358
#     4  11  21  40  58  87 125 159 198 242 302 370
#     4   9  20  34  58  85 116 148 204 257 284 347
#     4  12  22  36  62  88 120 146 202 264 306 344
#     4  11  21  38  60  85 117 158 196 248 304 354
#     4  11  22  36  62  87 123 158 197 249 303 363
#     4  10  23  35  59  95 113 151 204 254 302 351
#     4  10  19  38  60  86 117 156 203 249 299 345
#
# _framework density 19.300250999999999
#
# number of rings (size 3 to 8) (size 9 to 14) (size 15 to 20)
#    0.000    1.600    2.667    2.400    7.467    0.533 
#    0.000    1.333    0.000    0.000    0.000    0.000 
#    0.000    0.000    0.000    0.000    0.000    0.000 
#
# Total GULP energy -185941.327180 kJ/mol
# GULP energy per Si atom -12396.088479 kJ/mol
# Density = 1.925632 g / cm^3
# Si number density = 19.300251 Si / 1000 Ang^3
#
#
#
# Elastic Constant Matrix: (Units=GPa)
#
#
# Indices 1 2 3 4 5 6 
#
# 1 49.4893 29.5955 22.3745 0.0000 -11.5288 0.0000
# 2 29.5955 126.5471 56.6319 0.0000 -0.4827 0.0000
# 3 22.3745 56.6319 133.0726 0.0000 -10.6611 0.0000
# 4 0.0000 0.0000 0.0000 40.1851 0.0000 5.9871
# 5 -11.5288 -0.4827 -10.6611 0.0000 24.8849 0.0000
# 6 0.0000 0.0000 0.0000 5.9871 0.0000 19.3620
#
#
#
# Elastic Compliance Matrix: (Units=1/GPa)
#
#
# Indices 1 2 3 4 5 6 
#
# 1 0.026919 -0.005745 -0.001130 0.000000 0.011876 0.000000
# 2 -0.005745 0.011053 -0.004074 0.000000 -0.004192 0.000000
# 3 -0.001130 -0.004074 0.009724 0.000000 0.003563 0.000000
# 4 0.000000 0.000000 0.000000 0.026087 0.000000 -0.008067
# 5 0.011876 -0.004192 0.003563 0.000000 0.047132 0.000000
# 6 0.000000 0.000000 0.000000 -0.008067 0.000000 0.054142
#
#
# Mechanical properties :
#
#
# Convention : Reuss Voigt Hill
#
# Bulk Modulus (GPa) = 38.76095 58.47921 48.62008
# Shear Modulus (GPa) = 24.32466 30.25352 27.28909
#
# Velocity S-wave (km/s) = 3.55396 3.96349 3.76430
# Velocity P-wave (km/s) = 6.08010 7.16318 6.64375
#
# Compressibility (1/GPa) = 0.02579916
#
# Stress axis : x y z
#
# Youngs Moduli (GPa) = 37.14830 90.47534 102.84027
#
# Poissons Ratio (x) = 0.51974 0.11621
# Poissons Ratio (y) = 0.21340 0.41894
# Poissons Ratio (z) = 0.04198 0.36857
#
# Static dielectric constant tensor:
#      x y z
#    x 3.117660 0.000000 -0.062090 
#    y 0.000000 3.844420 0.000000 
#    z -0.062090 0.000000 4.047460 
# 
# 
# High freq. dielectric constant tensor:
#      x y z
#    x 1.705790 0.000000 -0.002810 
#    y 0.000000 1.767850 0.000000 
#    z -0.002810 0.000000 1.770030 
# 
# From -- ./inp_files/44331.got.cif
#   From: 2010.03.12/outbox.cif.g09.slc.cpg/sg5_23_cif.got.tgz:44331.got - 2010.03.31 09:47:26.
