data_PCOD8048396
_publ_section_title
;
Structure prediction by ZEFSAII (Michael W. Deem and Ramdas Pophale) SiO2 
 PCOD8048396
Probable space group: C 2
;
_chemical_formula_sum "Si O2"
_cell_formula_units_Z 26
_cell_length_a 19.883250
_cell_length_b 15.791342
_cell_length_c 8.411850
_cell_angle_alpha 90.000000
_cell_angle_beta 30.907303
_cell_angle_gamma 90.000000
_cell_volume 1356.643528
_symmetry_space_group_name_H-M "C 2"
_symmetry_group_IT_number 5
_symmetry_cell_setting 'monoclinic'
loop_
_space_group_symop_operation_xyz
x,y,z
-x,y,-z
1/2+x,1/2+y,z
1/2-x,1/2+y,-z
loop_
_atom_site_type_symbol
_atom_site_label
_atom_site_fract_x
_atom_site_fract_y
_atom_site_fract_z
Si Si1 0.381985 0.413100 0.650387
Si Si2 0.550762 0.147694 0.220966
Si Si3 0.901907 0.780476 0.341987
Si Si4 0.500000 0.839946 0.500000
Si Si5 0.365333 0.965151 0.011620
Si Si6 0.744471 0.791449 0.168990
Si Si7 0.649130 0.833939 0.700747
O O1 0.500000 0.464185 0.500000
O O2 0.430492 0.356153 0.405753
O O3 0.269843 0.475707 0.814235
O O4 0.337517 0.351106 0.880318
O O5 0.500000 0.132893 0.500000
O O6 0.435429 0.191111 0.354468
O O7 0.684313 0.202387 0.942480
O O8 0.573909 0.057315 0.092850
O O9 0.748729 0.775404 0.602027
O O10 0.000000 0.799152 0.000000
O O11 0.613855 0.777346 0.329088
O O12 0.458089 0.899789 0.730786
O O13 0.347455 0.927345 0.225391
O O14 0.706830 0.839396 0.407589
O O15 0.500000 0.797098 0.000000
#
# Coordination Sequence:
#
# PCOD8048396 Si02
#       7
#     4   4   4   2   4   4   4
#     4  10  18  37  62  88 115 161 213 248 296 374
#     4  12  22  39  61  94 124 155 206 265 306 362
#     4  11  20  36  61  95 118 160 208 255 303 367
#     4  10  20  38  60  88 114 162 206 240 298 378
#     4  10  23  36  60  89 125 153 201 254 312 357
#     4  11  20  37  63  88 116 164 210 254 298 371
#     4  11  22  38  60  89 122 162 207 256 301 373
#
# _framework density 19.164947000000002
#
# number of rings (size 3 to 8) (size 9 to 14) (size 15 to 20)
#    0.000    1.231    6.923    0.000    0.000    0.615 
#    1.385    0.000    0.000    3.692    0.000    0.000 
#    0.000    0.000    0.000    0.000    0.000    0.000 
#
# Total GULP energy -161125.885070 kJ/mol
# GULP energy per Si atom -12394.298852 kJ/mol
# Density = 1.912133 g / cm^3
# Si number density = 19.164947 Si / 1000 Ang^3
#
#
#
# Elastic Constant Matrix: (Units=GPa)
#
#
# Indices 1 2 3 4 5 6 
#
# 1 94.7122 33.9413 34.3661 0.0000 -23.8654 0.0000
# 2 33.9413 86.8770 31.6201 0.0000 -5.2867 0.0000
# 3 34.3661 31.6201 84.7247 0.0000 1.3049 0.0000
# 4 0.0000 0.0000 0.0000 20.3251 0.0000 0.2571
# 5 -23.8654 -5.2867 1.3049 0.0000 63.0388 0.0000
# 6 0.0000 0.0000 0.0000 0.2571 0.0000 20.3002
#
#
#
# Elastic Compliance Matrix: (Units=1/GPa)
#
#
# Indices 1 2 3 4 5 6 
#
# 1 0.015027 -0.003806 -0.004759 0.000000 0.005468 0.000000
# 2 -0.003806 0.014378 -0.003820 0.000000 -0.000156 0.000000
# 3 -0.004759 -0.003820 0.015196 0.000000 -0.002437 0.000000
# 4 0.000000 0.000000 0.000000 0.049208 0.000000 -0.000623
# 5 0.005468 -0.000156 -0.002437 0.000000 0.017971 0.000000
# 6 0.000000 0.000000 0.000000 -0.000623 0.000000 0.049269
#
#
# Mechanical properties :
#
#
# Convention : Reuss Voigt Hill
#
# Bulk Modulus (GPa) = 50.42392 51.79655 51.11024
# Shear Modulus (GPa) = 25.98356 31.82525 28.90441
#
# Velocity S-wave (km/s) = 3.68609 4.07946 3.88776
# Velocity P-wave (km/s) = 6.66963 7.01960 6.84685
#
# Compressibility (1/GPa) = 0.01983186
#
# Stress axis : x y z
#
# Youngs Moduli (GPa) = 66.54755 69.54945 65.80476
#
# Poissons Ratio (x) = 0.26470 0.31317
# Poissons Ratio (y) = 0.25327 0.25137
# Poissons Ratio (z) = 0.31670 0.26568
#
# Static dielectric constant tensor:
#      x y z
#    x 3.993750 0.000000 -0.145210 
#    y 0.000000 3.039290 0.000000 
#    z -0.145210 0.000000 3.824030 
# 
# 
# High freq. dielectric constant tensor:
#      x y z
#    x 1.775350 0.000000 -0.001800 
#    y 0.000000 1.689010 0.000000 
#    z -0.001800 0.000000 1.759680 
# 
# From -- ./inp_files/20081.got.cif
#   From: 2010.03.12/outbox.cif.g09.slc.cpg/sg5_11_cif.got.tgz:20081.got - 2010.03.31 09:47:26.
