data_PCOD8048048
_publ_section_title
;
Structure prediction by ZEFSAII (Michael W. Deem and Ramdas Pophale) SiO2 
 PCOD8048048
Probable space group: C 2
;
_chemical_formula_sum "Si O2"
_cell_formula_units_Z 28
_cell_length_a 32.596580
_cell_length_b 5.215492
_cell_length_c 10.041272
_cell_angle_alpha 90.000000
_cell_angle_beta 61.924547
_cell_angle_gamma 90.000000
_cell_volume 1506.213022
_symmetry_space_group_name_H-M "C 2"
_symmetry_group_IT_number 5
_symmetry_cell_setting 'monoclinic'
loop_
_space_group_symop_operation_xyz
x,y,z
-x,y,-z
1/2+x,1/2+y,z
1/2-x,1/2+y,-z
loop_
_atom_site_type_symbol
_atom_site_label
_atom_site_fract_x
_atom_site_fract_y
_atom_site_fract_z
Si Si1 0.811274 0.691450 0.902007
Si Si2 0.717154 0.691291 0.199127
Si Si3 0.370625 0.699112 0.194819
Si Si4 0.885200 0.699107 0.005097
Si Si5 0.492938 0.212118 0.853100
Si Si6 0.468045 0.712178 0.178733
Si Si7 0.723022 0.699483 0.501757
O O1 0.806460 0.457375 0.807048
O O2 0.810753 0.957034 0.823270
O O3 0.770851 0.682865 0.074119
O O4 0.860158 0.665862 0.902165
O O5 0.714360 0.660763 0.360067
O O6 0.372540 0.477344 0.081707
O O7 0.414551 0.674705 0.224604
O O8 0.325222 0.658594 0.350565
O O9 0.368849 0.976936 0.129882
O O10 0.939767 0.673795 0.894755
O O11 0.513952 0.474248 0.759060
O O12 0.523573 0.974419 0.751170
O O13 0.500000 0.254073 0.000000
O O14 0.500000 0.754122 0.000000
O O15 0.758374 0.484515 0.500053
#
# Coordination Sequence:
#
# PCOD8048048 Si02
#       7
#     4   4   4   4   4   4   4
#     4  10  21  35  58  75  99 148 180 233 261 311
#     4  10  21  40  53  74 108 137 188 223 272 310
#     4  12  21  32  55  81 117 144 175 219 284 335
#     4  12  20  32  54  88 112 137 187 220 276 335
#     4  10  16  29  47  74 119 135 159 230 275 322
#     4  10  16  30  46  76 112 140 166 214 280 329
#     4  12  25  40  57  82 112 149 179 227 273 332
#
# _framework density 18.589666000000001
#
# number of rings (size 3 to 8) (size 9 to 14) (size 15 to 20)
#    0.000    1.143    5.714    4.286    0.000    2.286 
#    0.000    0.000    0.000    0.000    0.000    6.000 
#    0.000    0.000    0.000    0.000    0.000    0.000 
#
# Total GULP energy -173605.978885 kJ/mol
# GULP energy per Si atom -12400.427063 kJ/mol
# Density = 1.854736 g / cm^3
# Si number density = 18.589666 Si / 1000 Ang^3
#
#
#
# Elastic Constant Matrix: (Units=GPa)
#
#
# Indices 1 2 3 4 5 6 
#
# 1 118.0660 11.1561 26.0395 0.0000 1.7200 0.0000
# 2 11.1561 117.7764 6.0430 0.0000 0.4343 0.0000
# 3 26.0395 6.0430 34.3760 0.0000 2.6906 0.0000
# 4 0.0000 0.0000 0.0000 16.9033 0.0000 -0.1173
# 5 1.7200 0.4343 2.6906 0.0000 21.4996 0.0000
# 6 0.0000 0.0000 0.0000 -0.1173 0.0000 30.1845
#
#
#
# Elastic Compliance Matrix: (Units=1/GPa)
#
#
# Indices 1 2 3 4 5 6 
#
# 1 0.010208 -0.000575 -0.007643 0.000000 0.000151 0.000000
# 2 -0.000575 0.008600 -0.001077 0.000000 0.000007 0.000000
# 3 -0.007643 -0.001077 0.035366 0.000000 -0.003793 0.000000
# 4 0.000000 0.000000 0.000000 0.059162 0.000000 0.000230
# 5 0.000151 0.000007 -0.003793 0.000000 0.046975 0.000000
# 6 0.000000 0.000000 0.000000 0.000230 0.000000 0.033130
#
#
# Mechanical properties :
#
#
# Convention : Reuss Voigt Hill
#
# Bulk Modulus (GPa) = 28.10258 39.63284 33.86771
# Shear Modulus (GPa) = 22.33222 28.84946 25.59084
#
# Velocity S-wave (km/s) = 3.46977 3.94370 3.71430
# Velocity P-wave (km/s) = 5.58592 6.48869 6.05416
#
# Compressibility (1/GPa) = 0.03558393
#
# Stress axis : x y z
#
# Youngs Moduli (GPa) = 97.96580 116.27400 28.27604
#
# Poissons Ratio (x) = 0.06689 0.21611
# Poissons Ratio (y) = 0.05636 0.03044
# Poissons Ratio (z) = 0.74874 0.12519
#
# Static dielectric constant tensor:
#      x y z
#    x 3.482730 0.000000 -0.074800 
#    y 0.000000 4.433670 0.000000 
#    z -0.074800 0.000000 2.906580 
# 
# 
# High freq. dielectric constant tensor:
#      x y z
#    x 1.731420 0.000000 -0.005360 
#    y 0.000000 1.759330 0.000000 
#    z -0.005360 0.000000 1.658670 
# 
# From -- ./inp_files/32143.got.cif
#   From: 2010.03.12/outbox.cif.g09.slc.cpg/sg5_17_cif.got.tgz:32143.got - 2010.03.31 09:47:26.
