data_PCOD8048855
_publ_section_title
;
Structure prediction by ZEFSAII (Michael W. Deem and Ramdas Pophale) SiO2 
 PCOD8048855
Probable space group: C 2
;
_chemical_formula_sum "Si O2"
_cell_formula_units_Z 30
_cell_length_a 12.230364
_cell_length_b 14.145020
_cell_length_c 12.310379
_cell_angle_alpha 90.000000
_cell_angle_beta 134.800439
_cell_angle_gamma 90.000000
_cell_volume 1511.147177
_symmetry_space_group_name_H-M "C 2"
_symmetry_group_IT_number 5
_symmetry_cell_setting 'monoclinic'
loop_
_space_group_symop_operation_xyz
x,y,z
-x,y,-z
1/2+x,1/2+y,z
1/2-x,1/2+y,-z
loop_
_atom_site_type_symbol
_atom_site_label
_atom_site_fract_x
_atom_site_fract_y
_atom_site_fract_z
Si Si1 0.369484 0.135950 0.833650
Si Si2 0.054187 0.867803 0.800960
Si Si3 0.403045 0.721350 0.591944
Si Si4 0.000000 0.548417 0.500000
Si Si5 0.426927 0.530541 0.347728
Si Si6 0.208563 0.300541 0.857161
Si Si7 0.217768 0.384273 0.649873
Si Si8 0.565886 0.188736 0.367862
O O1 0.242881 0.056317 0.732958
O O2 0.307197 0.225976 0.856398
O O3 0.432010 0.161975 0.758348
O O4 0.500000 0.090072 0.000000
O O5 0.900681 0.881741 0.763845
O O6 0.025621 0.787977 0.689485
O O7 0.087043 0.968216 0.769374
O O8 0.201539 0.837177 0.975205
O O9 0.464916 0.622611 0.589146
O O10 0.536650 0.760977 0.766855
O O11 0.365759 0.795477 0.468063
O O12 0.240044 0.701664 0.537687
O O13 0.145460 0.484486 0.564292
O O14 0.971167 0.614444 0.374320
O O15 0.500000 0.472124 0.500000
O O16 0.181468 0.384812 0.753095
#
# Coordination Sequence:
#
# PCOD8048855 Si02
#       8
#     4   4   4   2   4   4   4   4
#     4  11  20  39  65  92 122 163 210 262 305 372
#     4  11  24  38  63  93 126 166 201 258 325 371
#     4  10  19  39  66  92 115 161 213 262 302 369
#     4  12  26  38  62  98 130 158 218 260 324 368
#     4  11  22  37  63  93 124 156 214 255 309 372
#     4  11  18  37  65  94 120 156 214 260 304 372
#     4  11  20  38  64  92 121 159 208 257 311 373
#     4  11  23  41  62  88 130 168 208 259 317 373
#
# _framework density 19.852467000000001
#
# number of rings (size 3 to 8) (size 9 to 14) (size 15 to 20)
#    0.000    1.067    6.667    2.000    0.933    1.067 
#    0.000    0.000    0.000    0.000    0.000    0.000 
#    0.000    0.000    0.000    0.000    0.000    0.000 
#
# Total GULP energy -185857.641729 kJ/mol
# GULP energy per Si atom -12390.509449 kJ/mol
# Density = 1.980728 g / cm^3
# Si number density = 19.852467 Si / 1000 Ang^3
#
#
#
# Elastic Constant Matrix: (Units=GPa)
#
#
# Indices 1 2 3 4 5 6 
#
# 1 42.3230 29.6922 35.9031 0.0000 -2.2412 0.0000
# 2 29.6922 91.9839 40.8929 0.0000 -9.1298 0.0000
# 3 35.9031 40.8929 137.8703 0.0000 13.3135 0.0000
# 4 0.0000 0.0000 0.0000 23.5382 0.0000 -7.6030
# 5 -2.2412 -9.1298 13.3135 0.0000 26.8284 0.0000
# 6 0.0000 0.0000 0.0000 -7.6030 0.0000 26.3551
#
#
#
# Elastic Compliance Matrix: (Units=1/GPa)
#
#
# Indices 1 2 3 4 5 6 
#
# 1 0.035529 -0.007829 -0.007310 0.000000 0.003931 0.000000
# 2 -0.007829 0.015394 -0.003119 0.000000 0.006133 0.000000
# 3 -0.007310 -0.003119 0.010759 0.000000 -0.007011 0.000000
# 4 0.000000 0.000000 0.000000 0.046850 0.000000 0.013515
# 5 0.003931 0.006133 -0.007011 0.000000 0.043169 0.000000
# 6 0.000000 0.000000 0.000000 0.013515 0.000000 0.041842
#
#
# Mechanical properties :
#
#
# Convention : Reuss Voigt Hill
#
# Bulk Modulus (GPa) = 39.73573 53.90597 46.82085
# Shear Modulus (GPa) = 20.96890 26.39028 23.67959
#
# Velocity S-wave (km/s) = 3.25351 3.64994 3.45741
# Velocity P-wave (km/s) = 5.84574 6.70634 6.29077
#
# Compressibility (1/GPa) = 0.02516627
#
# Stress axis : x y z
#
# Youngs Moduli (GPa) = 28.14566 64.96004 92.94490
#
# Poissons Ratio (x) = 0.50856 0.67942
# Poissons Ratio (y) = 0.22035 0.28993
# Poissons Ratio (z) = 0.20574 0.20264
#
# Static dielectric constant tensor:
#      x y z
#    x 3.471560 0.000000 0.314950 
#    y 0.000000 3.613720 0.000000 
#    z 0.314950 0.000000 3.830380 
# 
# 
# High freq. dielectric constant tensor:
#      x y z
#    x 1.749540 0.000000 0.021660 
#    y 0.000000 1.765850 0.000000 
#    z 0.021660 0.000000 1.777010 
# 
# From -- ./inp_files/40073.got.cif
#   From: 2010.03.12/outbox.cif.g09.slc.cpg/sg5_21_cif.got.tgz:40073.got - 2010.03.31 09:47:26.
