data_PCOD8048991
_publ_section_title
;
Structure prediction by ZEFSAII (Michael W. Deem and Ramdas Pophale) SiO2 
 PCOD8048991
Probable space group: C 2
;
_chemical_formula_sum "Si O2"
_cell_formula_units_Z 20
_cell_length_a 5.076544
_cell_length_b 23.978467
_cell_length_c 7.761281
_cell_angle_alpha 90.000000
_cell_angle_beta 82.926006
_cell_angle_gamma 90.000000
_cell_volume 937.571620
_symmetry_space_group_name_H-M "C 2"
_symmetry_group_IT_number 5
_symmetry_cell_setting 'monoclinic'
loop_
_space_group_symop_operation_xyz
x,y,z
-x,y,-z
1/2+x,1/2+y,z
1/2-x,1/2+y,-z
loop_
_atom_site_type_symbol
_atom_site_label
_atom_site_fract_x
_atom_site_fract_y
_atom_site_fract_z
Si Si1 0.927845 0.131400 0.204831
Si Si2 0.231906 0.243713 0.614895
Si Si3 0.279111 0.338210 0.882674
Si Si4 0.727754 0.461121 0.113885
Si Si5 0.577191 0.070706 0.793342
O O1 0.852462 0.194436 0.250515
O O2 0.692598 0.088283 0.282994
O O3 0.195619 0.114354 0.284177
O O4 0.000000 0.126060 0.000000
O O5 0.500000 0.225199 0.500000
O O6 0.286902 0.299294 0.716817
O O7 0.000000 0.256741 0.500000
O O8 0.356557 0.400589 0.805463
O O9 0.500000 0.317898 0.000000
O O10 0.000000 0.334151 0.000000
O O11 0.798763 0.508674 0.251199
O O12 0.500000 0.483828 0.000000
O O13 0.000000 0.447177 0.000000
O O14 0.500000 0.074050 0.000000
#
# Coordination Sequence:
#
# PCOD8048991 Si02
#       5
#     4   4   4   4   4
#     4  10  20  34  56  81 108 143 185 225 267 328
#     4  12  25  40  57  80 116 153 188 234 285 330
#     4  10  21  38  61  85 110 145 191 234 274 331
#     4   9  16  29  52  84 113 135 172 230 282 321
#     4   9  16  29  52  84 111 134 172 227 278 320
#
# _framework density 21.331704999999999
#
# number of rings (size 3 to 8) (size 9 to 14) (size 15 to 20)
#    0.000    2.000    0.000    6.000    0.000    2.400 
#    0.000    0.000    0.000    7.200    0.000    0.000 
#    0.000    0.000    0.000    0.000    0.000    0.000 
#
# Total GULP energy -123901.142844 kJ/mol
# GULP energy per Si atom -12390.114284 kJ/mol
# Density = 2.128315 g / cm^3
# Si number density = 21.331705 Si / 1000 Ang^3
#
#
#
# Elastic Constant Matrix: (Units=GPa)
#
#
# Indices 1 2 3 4 5 6 
#
# 1 165.4047 46.6038 37.9526 0.0000 2.4132 0.0000
# 2 46.6038 146.0347 29.8325 0.0000 4.0659 0.0000
# 3 37.9526 29.8325 25.5444 0.0000 -2.3435 0.0000
# 4 0.0000 0.0000 0.0000 11.3510 0.0000 -0.6467
# 5 2.4132 4.0659 -2.3435 0.0000 27.3214 0.0000
# 6 0.0000 0.0000 0.0000 -0.6467 0.0000 38.5378
#
#
#
# Elastic Compliance Matrix: (Units=1/GPa)
#
#
# Indices 1 2 3 4 5 6 
#
# 1 0.009283 -0.000068 -0.013896 0.000000 -0.002002 0.000000
# 2 -0.000068 0.009134 -0.010775 0.000000 -0.002278 0.000000
# 3 -0.013896 -0.010775 0.073214 0.000000 0.009111 0.000000
# 4 0.000000 0.000000 0.000000 0.088183 0.000000 0.001480
# 5 -0.002002 -0.002278 0.009111 0.000000 0.037899 0.000000
# 6 0.000000 0.000000 0.000000 0.001480 0.000000 0.025973
#
#
# Mechanical properties :
#
#
# Convention : Reuss Voigt Hill
#
# Bulk Modulus (GPa) = 23.72388 62.86243 43.29316
# Shear Modulus (GPa) = 16.27530 30.28168 23.27849
#
# Velocity S-wave (km/s) = 2.76518 3.77180 3.30701
# Velocity P-wave (km/s) = 4.61958 6.96431 5.90940
#
# Compressibility (1/GPa) = 0.04215163
#
# Stress axis : x y z
#
# Youngs Moduli (GPa) = 107.72859 109.48099 13.65866
#
# Poissons Ratio (x) = 0.00743 0.18980
# Poissons Ratio (y) = 0.00731 0.14718
# Poissons Ratio (z) = 1.49699 1.17970
#
# Static dielectric constant tensor:
#      x y z
#    x 4.282660 0.000000 -0.157130 
#    y 0.000000 4.184410 0.000000 
#    z -0.157130 0.000000 3.253940 
# 
# 
# High freq. dielectric constant tensor:
#      x y z
#    x 1.867170 0.000000 -0.015400 
#    y 0.000000 1.852880 0.000000 
#    z -0.015400 0.000000 1.772830 
# 
# From -- ./inp_files/12447.got.cif
#   From: 2010.03.12/outbox.cif.g09.slc.cpg/sg5_7_cif.got.tgz:12447.got - 2010.03.31 09:47:26.
