data_PCOD8048579
_publ_section_title
;
Structure prediction by ZEFSAII (Michael W. Deem and Ramdas Pophale) SiO2 
 PCOD8048579
Probable space group: C 2
;
_chemical_formula_sum "Si O2"
_cell_formula_units_Z 32
_cell_length_a 20.450242
_cell_length_b 8.847165
_cell_length_c 14.127987
_cell_angle_alpha 90.000000
_cell_angle_beta 139.834755
_cell_angle_gamma 90.000000
_cell_volume 1648.688900
_symmetry_space_group_name_H-M "C 2"
_symmetry_group_IT_number 5
_symmetry_cell_setting 'monoclinic'
loop_
_space_group_symop_operation_xyz
x,y,z
-x,y,-z
1/2+x,1/2+y,z
1/2-x,1/2+y,-z
loop_
_atom_site_type_symbol
_atom_site_label
_atom_site_fract_x
_atom_site_fract_y
_atom_site_fract_z
Si Si1 0.165199 0.491630 0.319444
Si Si2 0.386822 0.721910 0.392728
Si Si3 0.318465 0.354623 0.157247
Si Si4 0.465289 0.422379 0.685241
Si Si5 0.330854 0.391519 0.371843
Si Si6 0.995716 0.720851 0.101725
Si Si7 0.160216 0.214333 0.454719
Si Si8 0.726799 0.172222 0.068312
O O1 0.216820 0.433697 0.278928
O O2 0.150009 0.349129 0.370326
O O3 0.236776 0.618671 0.446974
O O4 0.056291 0.562548 0.175506
O O5 0.500000 0.785610 0.500000
O O6 0.390812 0.540878 0.404714
O O7 0.343475 0.787487 0.443909
O O8 0.311565 0.763541 0.222823
O O9 0.421134 0.417252 0.226105
O O10 0.331134 0.284486 0.278454
O O11 0.242255 0.493744 0.083544
O O12 0.269592 0.229253 0.035860
O O13 0.393399 0.328975 0.531461
O O14 0.452343 0.343860 0.772510
O O15 0.433494 0.597470 0.660282
O O16 0.880585 0.698101 0.002707
O O17 0.000000 0.784326 0.000000
#
# Coordination Sequence:
#
# PCOD8048579 Si02
#       8
#     4   4   4   4   4   4   4   4
#     4  10  20  34  54  80 107 140 179 220 269 318
#     4   9  17  33  56  78  99 134 181 220 262 317
#     4  10  19  35  52  76 106 135 176 222 269 321
#     4   9  19  34  57  79 100 138 182 224 269 313
#     4   9  16  31  55  77  99 135 178 217 255 309
#     4  11  21  36  53  76 111 147 180 218 270 326
#     4  10  19  34  57  81 106 137 181 230 265 311
#     4  10  21  33  53  77 105 142 173 217 275 325
#
# _framework density 19.409362000000002
#
# number of rings (size 3 to 8) (size 9 to 14) (size 15 to 20)
#    0.000    2.500    0.000    7.125    0.000    2.000 
#    0.000    5.625    0.000    0.000    0.000    0.000 
#    0.000    0.000    0.000    0.000    0.000    0.000 
#
# Total GULP energy -198304.267431 kJ/mol
# GULP energy per Si atom -12394.016714 kJ/mol
# Density = 1.936519 g / cm^3
# Si number density = 19.409362 Si / 1000 Ang^3
#
#
#
# Elastic Constant Matrix: (Units=GPa)
#
#
# Indices 1 2 3 4 5 6 
#
# 1 102.4485 32.3215 59.6569 0.0000 -24.8773 0.0000
# 2 32.3215 38.9581 34.1479 0.0000 -15.3004 0.0000
# 3 59.6569 34.1479 126.6928 0.0000 -18.2788 0.0000
# 4 0.0000 0.0000 0.0000 31.1837 0.0000 -3.8053
# 5 -24.8773 -15.3004 -18.2788 0.0000 46.0059 0.0000
# 6 0.0000 0.0000 0.0000 -3.8053 0.0000 18.7136
#
#
#
# Elastic Compliance Matrix: (Units=1/GPa)
#
#
# Indices 1 2 3 4 5 6 
#
# 1 0.015959 -0.007227 -0.004952 0.000000 0.004259 0.000000
# 2 -0.007227 0.039939 -0.006375 0.000000 0.006842 0.000000
# 3 -0.004952 -0.006375 0.011935 0.000000 -0.000056 0.000000
# 4 0.000000 0.000000 0.000000 0.032884 0.000000 0.006687
# 5 0.004259 0.006842 -0.000056 0.000000 0.026292 0.000000
# 6 0.000000 0.000000 0.000000 0.006687 0.000000 0.054797
#
#
# Mechanical properties :
#
#
# Convention : Reuss Voigt Hill
#
# Bulk Modulus (GPa) = 32.54665 57.81690 45.18177
# Shear Modulus (GPa) = 21.81916 28.64551 25.23233
#
# Velocity S-wave (km/s) = 3.35648 3.84586 3.60947
# Velocity P-wave (km/s) = 5.64147 7.04086 6.37965
#
# Compressibility (1/GPa) = 0.03072513
#
# Stress axis : x y z
#
# Youngs Moduli (GPa) = 62.66069 25.03810 83.78549
#
# Poissons Ratio (x) = 0.18095 0.41494
# Poissons Ratio (y) = 0.45284 0.53412
# Poissons Ratio (z) = 0.31032 0.15961
#
# Static dielectric constant tensor:
#      x y z
#    x 3.863290 0.000000 -0.325420 
#    y 0.000000 3.104320 0.000000 
#    z -0.325420 0.000000 3.937220 
# 
# 
# High freq. dielectric constant tensor:
#      x y z
#    x 1.774550 0.000000 -0.004740 
#    y 0.000000 1.700340 0.000000 
#    z -0.004740 0.000000 1.764330 
# 
# From -- ./inp_files/56831.got.cif
#   From: 2010.03.12/outbox.cif.g09.slc.cpg/sg5_29_cif.got.tgz:56831.got - 2010.03.31 09:47:26.
