data_PCOD8048569
_publ_section_title
;
Structure prediction by ZEFSAII (Michael W. Deem and Ramdas Pophale) SiO2 
 PCOD8048569
Probable space group: C 2
;
_chemical_formula_sum "Si O2"
_cell_formula_units_Z 26
_cell_length_a 7.632410
_cell_length_b 16.814421
_cell_length_c 14.032825
_cell_angle_alpha 90.000000
_cell_angle_beta 48.407447
_cell_angle_gamma 90.000000
_cell_volume 1346.862247
_symmetry_space_group_name_H-M "C 2"
_symmetry_group_IT_number 5
_symmetry_cell_setting 'monoclinic'
loop_
_space_group_symop_operation_xyz
x,y,z
-x,y,-z
1/2+x,1/2+y,z
1/2-x,1/2+y,-z
loop_
_atom_site_type_symbol
_atom_site_label
_atom_site_fract_x
_atom_site_fract_y
_atom_site_fract_z
Si Si1 0.438033 0.119070 0.417915
Si Si2 0.500000 0.613264 0.000000
Si Si3 0.845104 0.009408 0.230732
Si Si4 0.257512 0.525459 0.766047
Si Si5 0.517671 0.346811 0.106457
Si Si6 0.000000 0.414344 0.000000
Si Si7 0.485088 0.181447 0.807877
Si Si8 0.000000 0.043285 0.500000
O O1 0.500000 0.154704 0.500000
O O2 0.582435 0.036826 0.349276
O O3 0.511766 0.181860 0.309046
O O4 0.163621 0.099580 0.507076
O O5 0.451354 0.555407 0.104053
O O6 0.278272 0.669048 0.058778
O O7 0.007083 0.032269 0.259867
O O8 0.848025 0.915649 0.207456
O O9 0.068522 0.468461 0.884099
O O10 0.337146 0.492584 0.632051
O O11 0.148464 0.612410 0.790966
O O12 0.423375 0.265424 0.186469
O O13 0.500000 0.341204 0.000000
O O14 0.784549 0.360816 0.044084
#
# Coordination Sequence:
#
# PCOD8048569 Si02
#       8
#     4   2   4   4   4   2   4   2
#     4  10  20  39  64  87 111 157 203 249 281 357
#     4  10  19  34  55  90 110 156 198 246 281 364
#     4  10  20  36  61  84 118 152 199 242 299 347
#     4  10  20  36  62  89 114 153 205 250 284 353
#     4  11  23  37  56  89 127 158 183 248 306 356
#     4  10  23  40  59  86 126 154 206 242 293 358
#     4  10  22  35  59  86 122 150 203 237 305 345
#     4  10  20  34  62  92 116 142 202 252 296 332
#
# _framework density 19.304127000000001
#
# number of rings (size 3 to 8) (size 9 to 14) (size 15 to 20)
#    0.000    1.846    2.308    2.308    7.538    0.000 
#    0.000    0.000   13.538    0.000    0.000    0.000 
#    0.000    0.000    0.000    0.000    0.000    0.000 
#
# Total GULP energy -161151.099955 kJ/mol
# GULP energy per Si atom -12396.238458 kJ/mol
# Density = 1.926019 g / cm^3
# Si number density = 19.304127 Si / 1000 Ang^3
#
#
#
# Elastic Constant Matrix: (Units=GPa)
#
#
# Indices 1 2 3 4 5 6 
#
# 1 102.1529 33.0379 29.3287 0.0000 17.8115 0.0000
# 2 33.0379 105.5604 42.2416 0.0000 14.4641 0.0000
# 3 29.3287 42.2416 95.1624 0.0000 8.4362 0.0000
# 4 0.0000 0.0000 0.0000 14.0270 0.0000 3.9232
# 5 17.8115 14.4641 8.4362 0.0000 32.1073 0.0000
# 6 0.0000 0.0000 0.0000 3.9232 0.0000 32.7370
#
#
#
# Elastic Compliance Matrix: (Units=1/GPa)
#
#
# Indices 1 2 3 4 5 6 
#
# 1 0.012035 -0.002145 -0.002304 0.000000 -0.005104 0.000000
# 2 -0.002145 0.012409 -0.004564 0.000000 -0.003201 0.000000
# 3 -0.002304 -0.004564 0.013257 0.000000 -0.000149 0.000000
# 4 0.000000 0.000000 0.000000 0.073764 0.000000 -0.008840
# 5 -0.005104 -0.003201 -0.000149 0.000000 0.035459 0.000000
# 6 0.000000 0.000000 0.000000 -0.008840 0.000000 0.031606
#
#
# Mechanical properties :
#
#
# Convention : Reuss Voigt Hill
#
# Bulk Modulus (GPa) = 50.82415 56.89910 53.86163
# Shear Modulus (GPa) = 24.61674 28.99210 26.80442
#
# Velocity S-wave (km/s) = 3.57488 3.87959 3.73034
# Velocity P-wave (km/s) = 6.58976 7.04325 6.82027
#
# Compressibility (1/GPa) = 0.01967569
#
# Stress axis : x y z
#
# Youngs Moduli (GPa) = 83.09391 80.58413 75.42911
#
# Poissons Ratio (x) = 0.17285 0.17382
# Poissons Ratio (y) = 0.17824 0.34422
# Poissons Ratio (z) = 0.19148 0.36775
#
# Static dielectric constant tensor:
#      x y z
#    x 3.715730 0.000000 0.093050 
#    y 0.000000 3.231610 0.000000 
#    z 0.093050 0.000000 3.835300 
# 
# 
# High freq. dielectric constant tensor:
#      x y z
#    x 1.771920 0.000000 0.005660 
#    y 0.000000 1.710660 0.000000 
#    z 0.005660 0.000000 1.761680 
# 
# From -- ./inp_files/35898.got.cif
#   From: 2010.03.12/outbox.cif.g09.slc.cpg/sg5_18_cif.got.tgz:35898.got - 2010.03.31 09:47:26.
