data_PCOD8048869
_publ_section_title
;
Structure prediction by ZEFSAII (Michael W. Deem and Ramdas Pophale) SiO2 
 PCOD8048869
Probable space group: C 2
;
_chemical_formula_sum "Si O2"
_cell_formula_units_Z 30
_cell_length_a 22.270398
_cell_length_b 10.514545
_cell_length_c 6.832204
_cell_angle_alpha 90.000000
_cell_angle_beta 112.323895
_cell_angle_gamma 90.000000
_cell_volume 1479.943537
_symmetry_space_group_name_H-M "C 2"
_symmetry_group_IT_number 5
_symmetry_cell_setting 'monoclinic'
loop_
_space_group_symop_operation_xyz
x,y,z
-x,y,-z
1/2+x,1/2+y,z
1/2-x,1/2+y,-z
loop_
_atom_site_type_symbol
_atom_site_label
_atom_site_fract_x
_atom_site_fract_y
_atom_site_fract_z
Si Si1 0.054364 0.192500 0.737243
Si Si2 0.719137 0.310639 0.000645
Si Si3 0.500000 0.506400 0.000000
Si Si4 0.942895 0.856719 0.585353
Si Si5 0.858370 0.414981 0.113467
Si Si6 0.837294 0.025304 0.277411
Si Si7 0.854041 0.638531 0.395793
Si Si8 0.701705 0.098751 0.261316
O O1 0.037155 0.099486 0.895907
O O2 0.075738 0.332079 0.840454
O O3 0.120823 0.146580 0.723038
O O4 0.000000 0.197482 0.500000
O O5 0.686844 0.450521 0.948119
O O6 0.695423 0.223128 0.791590
O O7 0.796885 0.324571 0.088010
O O8 0.693842 0.241718 0.165641
O O9 0.459060 0.405512 0.822522
O O10 0.921168 0.709120 0.544755
O O11 0.000000 0.886654 0.500000
O O12 0.878657 0.931289 0.457174
O O13 0.874243 0.510795 0.309415
O O14 0.844637 0.496641 0.902093
O O15 0.776510 0.063126 0.332066
O O16 0.814046 0.595525 0.533074
#
# Coordination Sequence:
#
# PCOD8048869 Si02
#       8
#     4   4   2   4   4   4   4   4
#     4  12  24  43  61  93 130 168 213 267 328 384
#     4   9  20  37  64  91 123 164 200 274 320 374
#     4  12  24  38  68  94 114 174 228 270 324 384
#     4  11  23  43  63  95 127 165 223 275 326 378
#     4  10  23  42  61  89 137 170 209 265 325 394
#     4  10  19  40  60  89 131 154 205 277 319 375
#     4  10  24  40  65  96 128 174 214 267 326 388
#     4  10  21  40  63 100 124 170 217 257 334 387
#
# _framework density 20.271042999999999
#
# number of rings (size 3 to 8) (size 9 to 14) (size 15 to 20)
#    0.000    1.600    4.000    0.000    1.867    6.933 
#    0.000    0.000    0.000    0.000    0.000    0.000 
#    0.000    0.000    0.000    0.000    0.000    0.000 
#
# Total GULP energy -185881.880599 kJ/mol
# GULP energy per Si atom -12392.125373 kJ/mol
# Density = 2.022491 g / cm^3
# Si number density = 20.271043 Si / 1000 Ang^3
#
#
#
# Elastic Constant Matrix: (Units=GPa)
#
#
# Indices 1 2 3 4 5 6 
#
# 1 85.6573 47.9677 53.9067 0.0000 10.9117 0.0000
# 2 47.9677 94.3839 40.9047 0.0000 10.2483 0.0000
# 3 53.9067 40.9047 93.3924 0.0000 2.2633 0.0000
# 4 0.0000 0.0000 0.0000 20.9813 0.0000 6.5736
# 5 10.9117 10.2483 2.2633 0.0000 30.2764 0.0000
# 6 0.0000 0.0000 0.0000 6.5736 0.0000 29.2583
#
#
#
# Elastic Compliance Matrix: (Units=1/GPa)
#
#
# Indices 1 2 3 4 5 6 
#
# 1 0.022094 -0.006426 -0.009816 0.000000 -0.005054 0.000000
# 2 -0.006426 0.015450 -0.002993 0.000000 -0.002690 0.000000
# 3 -0.009816 -0.002993 0.017606 0.000000 0.003235 0.000000
# 4 0.000000 0.000000 0.000000 0.051270 0.000000 -0.011519
# 5 -0.005054 -0.002690 0.003235 0.000000 0.035519 0.000000
# 6 0.000000 0.000000 0.000000 -0.011519 0.000000 0.036766
#
#
# Mechanical properties :
#
#
# Convention : Reuss Voigt Hill
#
# Bulk Modulus (GPa) = 59.94898 62.11019 61.02958
# Shear Modulus (GPa) = 22.44821 24.81350 23.63085
#
# Velocity S-wave (km/s) = 3.33138 3.50249 3.41800
# Velocity P-wave (km/s) = 6.66598 6.86024 6.76381
#
# Compressibility (1/GPa) = 0.01668085
#
# Stress axis : x y z
#
# Youngs Moduli (GPa) = 45.26090 64.72589 56.79982
#
# Poissons Ratio (x) = 0.41591 0.55755
# Poissons Ratio (y) = 0.29084 0.16998
# Poissons Ratio (z) = 0.44428 0.19370
#
# Static dielectric constant tensor:
#      x y z
#    x 3.681640 0.000000 0.337420 
#    y 0.000000 4.103500 0.000000 
#    z 0.337420 0.000000 3.762440 
# 
# 
# High freq. dielectric constant tensor:
#      x y z
#    x 1.779490 0.000000 0.015330 
#    y 0.000000 1.807280 0.000000 
#    z 0.015330 0.000000 1.788240 
# 
# From -- ./inp_files/10354.got.cif
#   From: 2010.03.12/outbox.cif.g09.slc.cpg/sg5_6_cif.got.tgz:10354.got - 2010.03.31 09:47:26.
