data_PCOD8048184
_publ_section_title
;
Structure prediction by ZEFSAII (Michael W. Deem and Ramdas Pophale) SiO2 
 PCOD8048184
Probable space group: C 2
;
_chemical_formula_sum "Si O2"
_cell_formula_units_Z 28
_cell_length_a 5.306288
_cell_length_b 17.331505
_cell_length_c 15.970812
_cell_angle_alpha 90.000000
_cell_angle_beta 70.023734
_cell_angle_gamma 90.000000
_cell_volume 1380.401252
_symmetry_space_group_name_H-M "C 2"
_symmetry_group_IT_number 5
_symmetry_cell_setting 'monoclinic'
loop_
_space_group_symop_operation_xyz
x,y,z
-x,y,-z
1/2+x,1/2+y,z
1/2-x,1/2+y,-z
loop_
_atom_site_type_symbol
_atom_site_label
_atom_site_fract_x
_atom_site_fract_y
_atom_site_fract_z
Si Si1 0.396935 0.625000 0.104174
Si Si2 0.500000 0.868325 0.500000
Si Si3 0.440094 0.139789 0.596161
Si Si4 0.402897 0.733020 0.630165
Si Si5 0.801320 0.666837 0.193156
Si Si6 0.691649 0.508766 0.305578
Si Si7 0.000000 0.969378 0.500000
Si Si8 0.744868 0.009476 0.251554
O O1 0.620228 0.672891 0.130263
O O2 0.358384 0.541003 0.151101
O O3 0.114047 0.669746 0.133351
O O4 0.500000 0.609763 0.000000
O O5 0.426233 0.817990 0.589488
O O6 0.757008 0.918650 0.493894
O O7 0.500000 0.097097 0.500000
O O8 0.711412 0.183590 0.591215
O O9 0.354130 0.080953 0.678475
O O10 0.201063 0.199754 0.607353
O O11 0.265409 0.738369 0.738171
O O12 0.722212 0.590455 0.255090
O O13 0.602008 0.523039 0.411681
O O14 0.467033 0.461404 0.278130
O O15 0.971582 0.460830 0.268091
#
# Coordination Sequence:
#
# PCOD8048184 Si02
#       8
#     4   2   4   4   4   4   2   4
#     4  10  18  30  48  76 120 138 150 202 266 344
#     4  12  26  39  48  71 104 146 186 218 254 302
#     4  12  19  29  50  78 101 131 176 212 252 290
#     4  12  20  36  52  71 107 133 180 221 243 308
#     4  10  19  33  52  82  98 135 176 206 269 310
#     4  10  20  34  52  69 105 131 170 223 242 309
#     4  12  26  39  48  71 104 146 186 212 268 294
#     4  10  19  31  48  80 103 132 171 199 258 311
#
# _framework density 20.283957999999998
#
# number of rings (size 3 to 8) (size 9 to 14) (size 15 to 20)
#    0.000    1.143    7.143    2.143    2.000    0.571 
#    0.000    0.000    0.000    0.000    0.000    0.000 
#    0.000   91.429    0.000    0.000    0.000    0.000 
#
# Total GULP energy -173454.130320 kJ/mol
# GULP energy per Si atom -12389.580737 kJ/mol
# Density = 2.023779 g / cm^3
# Si number density = 20.283958 Si / 1000 Ang^3
#
#
#
# Elastic Constant Matrix: (Units=GPa)
#
#
# Indices 1 2 3 4 5 6 
#
# 1 187.7138 14.7230 35.1509 0.0000 9.1511 0.0000
# 2 14.7230 27.5472 14.5916 0.0000 -1.0250 0.0000
# 3 35.1509 14.5916 163.0381 0.0000 3.2238 0.0000
# 4 0.0000 0.0000 0.0000 15.7642 0.0000 1.2275
# 5 9.1511 -1.0250 3.2238 0.0000 29.0413 0.0000
# 6 0.0000 0.0000 0.0000 1.2275 0.0000 8.4589
#
#
#
# Elastic Compliance Matrix: (Units=1/GPa)
#
#
# Indices 1 2 3 4 5 6 
#
# 1 0.005807 -0.002653 -0.000979 0.000000 -0.001815 0.000000
# 2 -0.002653 0.039406 -0.003005 0.000000 0.002560 0.000000
# 3 -0.000979 -0.003005 0.006624 0.000000 -0.000533 0.000000
# 4 0.000000 0.000000 0.000000 0.064160 0.000000 -0.009311
# 5 -0.001815 0.002560 -0.000533 0.000000 0.035155 0.000000
# 6 0.000000 0.000000 0.000000 -0.009311 0.000000 0.119570
#
#
# Mechanical properties :
#
#
# Convention : Reuss Voigt Hill
#
# Bulk Modulus (GPa) = 25.93122 56.35889 41.14505
# Shear Modulus (GPa) = 16.84350 31.57513 24.20931
#
# Velocity S-wave (km/s) = 2.88477 3.94973 3.45848
# Velocity P-wave (km/s) = 4.88955 6.97465 6.02302
#
# Compressibility (1/GPa) = 0.03856356
#
# Stress axis : x y z
#
# Youngs Moduli (GPa) = 172.20398 25.37662 150.96462
#
# Poissons Ratio (x) = 0.06732 0.14775
# Poissons Ratio (y) = 0.45682 0.45372
# Poissons Ratio (z) = 0.16854 0.07627
#
# Static dielectric constant tensor:
#      x y z
#    x 5.602900 0.000000 0.059620 
#    y 0.000000 3.007850 0.000000 
#    z 0.059620 0.000000 3.746460 
# 
# 
# High freq. dielectric constant tensor:
#      x y z
#    x 1.848550 0.000000 0.003940 
#    y 0.000000 1.708110 0.000000 
#    z 0.003940 0.000000 1.785300 
# 
# From -- ./inp_files/49198.got.cif
#   From: 2010.03.12/outbox.cif.g09.slc.cpg/sg5_25_cif.got.tgz:49198.got - 2010.03.31 09:47:26.
