data_PCOD8048250
_publ_section_title
;
Structure prediction by ZEFSAII (Michael W. Deem and Ramdas Pophale) SiO2 
 PCOD8048250
Probable space group: C 2
;
_chemical_formula_sum "Si O2"
_cell_formula_units_Z 24
_cell_length_a 16.776456
_cell_length_b 8.013043
_cell_length_c 9.300819
_cell_angle_alpha 90.000000
_cell_angle_beta 89.710070
_cell_angle_gamma 90.000000
_cell_volume 1250.297400
_symmetry_space_group_name_H-M "C 2"
_symmetry_group_IT_number 5
_symmetry_cell_setting 'monoclinic'
loop_
_space_group_symop_operation_xyz
x,y,z
-x,y,-z
1/2+x,1/2+y,z
1/2-x,1/2+y,-z
loop_
_atom_site_type_symbol
_atom_site_label
_atom_site_fract_x
_atom_site_fract_y
_atom_site_fract_z
Si Si1 0.669973 0.074440 0.604953
Si Si2 0.902128 0.162657 0.646287
Si Si3 0.759259 0.280721 0.821991
Si Si4 0.577111 0.768570 0.667807
Si Si5 0.685173 0.342016 0.364080
Si Si6 0.215142 0.157786 0.862704
O O1 0.689345 0.170396 0.752434
O O2 0.654645 0.203312 0.475970
O O3 0.590162 0.966059 0.634824
O O4 0.743149 0.949545 0.564393
O O5 0.835425 0.281843 0.715824
O O6 0.896604 0.169408 0.474269
O O7 0.985888 0.228485 0.706488
O O8 0.886253 0.967121 0.681819
O O9 0.726175 0.463204 0.842878
O O10 0.784882 0.198804 0.970507
O O11 0.629638 0.709885 0.801022
O O12 0.714318 0.256042 0.217617
#
# Coordination Sequence:
#
# PCOD8048250 Si02
#       6
#     4   4   4   4   4   4
#     4  10  18  33  58  84 109 143 184 226 267 318
#     4  10  21  37  55  80 112 145 178 222 275 321
#     4  11  21  36  57  81 108 144 185 225 268 323
#     4  10  21  37  55  80 112 145 178 222 275 321
#     4  10  18  33  58  84 109 143 184 226 267 318
#     4  11  21  36  57  81 108 144 185 225 268 323
#
# _framework density 19.195432
#
# number of rings (size 3 to 8) (size 9 to 14) (size 15 to 20)
#    0.000    1.667    0.000   10.000    0.000    0.667 
#    0.000   11.667    0.000    2.000    0.000    0.000 
#    0.000    0.000    0.000    0.000    0.000    0.000 
#
# Total GULP energy -148809.924929 kJ/mol
# GULP energy per Si atom -12400.827077 kJ/mol
# Density = 1.915174 g / cm^3
# Si number density = 19.195432 Si / 1000 Ang^3
#
#
#
# Elastic Constant Matrix: (Units=GPa)
#
#
# Indices 1 2 3 4 5 6 
#
# 1 85.2602 43.0280 12.6356 0.0000 3.6347 0.0000
# 2 43.0280 115.7606 -3.9115 0.0000 -0.8427 0.0000
# 3 12.6356 -3.9115 52.1802 0.0000 2.3548 0.0000
# 4 0.0000 0.0000 0.0000 38.5567 0.0000 -0.5676
# 5 3.6347 -0.8427 2.3548 0.0000 11.1065 0.0000
# 6 0.0000 0.0000 0.0000 -0.5676 0.0000 32.3425
#
#
#
# Elastic Compliance Matrix: (Units=1/GPa)
#
#
# Indices 1 2 3 4 5 6 
#
# 1 0.015516 -0.005936 -0.003991 0.000000 -0.004682 0.000000
# 2 -0.005936 0.010935 0.002153 0.000000 0.002316 0.000000
# 3 -0.003991 0.002153 0.020421 0.000000 -0.002860 0.000000
# 4 0.000000 0.000000 0.000000 0.025943 0.000000 0.000455
# 5 -0.004682 0.002316 -0.002860 0.000000 0.092352 0.000000
# 6 0.000000 0.000000 0.000000 0.000455 0.000000 0.030927
#
#
# Mechanical properties :
#
#
# Convention : Reuss Voigt Hill
#
# Bulk Modulus (GPa) = 31.92573 39.63393 35.77983
# Shear Modulus (GPa) = 22.51421 29.83107 26.17264
#
# Velocity S-wave (km/s) = 3.42847 3.94645 3.69654
# Velocity P-wave (km/s) = 5.68688 6.43882 6.07449
#
# Compressibility (1/GPa) = 0.03132270
#
# Stress axis : x y z
#
# Youngs Moduli (GPa) = 64.45151 91.45348 48.96876
#
# Poissons Ratio (x) = 0.54287 0.19543
# Poissons Ratio (y) = 0.38259 -0.10541
# Poissons Ratio (z) = 0.25721 -0.19686
#
# Static dielectric constant tensor:
#      x y z
#    x 3.397780 0.000000 -0.254960 
#    y 0.000000 3.789550 0.000000 
#    z -0.254960 0.000000 4.873100 
# 
# 
# High freq. dielectric constant tensor:
#      x y z
#    x 1.718950 0.000000 0.001220 
#    y 0.000000 1.764490 0.000000 
#    z 0.001220 0.000000 1.744790 
# 
# From -- ./inp_files/15750.got.cif
#   From: 2010.03.12/outbox.cif.g09.slc.cpg/sg5_8_cif.got.tgz:15750.got - 2010.03.31 09:47:26.
