data_PCOD8048428
_publ_section_title
;
Structure prediction by ZEFSAII (Michael W. Deem and Ramdas Pophale) SiO2 
 PCOD8048428
Probable space group: C 2
;
_chemical_formula_sum "Si O2"
_cell_formula_units_Z 30
_cell_length_a 19.421564
_cell_length_b 11.242465
_cell_length_c 14.799759
_cell_angle_alpha 90.000000
_cell_angle_beta 28.402213
_cell_angle_gamma 90.000000
_cell_volume 1537.076071
_symmetry_space_group_name_H-M "C 2"
_symmetry_group_IT_number 5
_symmetry_cell_setting 'monoclinic'
loop_
_space_group_symop_operation_xyz
x,y,z
-x,y,-z
1/2+x,1/2+y,z
1/2-x,1/2+y,-z
loop_
_atom_site_type_symbol
_atom_site_label
_atom_site_fract_x
_atom_site_fract_y
_atom_site_fract_z
Si Si1 0.366367 0.326070 0.047624
Si Si2 0.997875 0.424921 0.795594
Si Si3 0.500000 0.536475 0.000000
Si Si4 0.120589 0.679572 0.665588
Si Si5 0.171680 0.243899 0.713874
Si Si6 0.447067 0.849555 0.653880
Si Si7 0.199891 0.176644 0.375863
Si Si8 0.156731 0.454396 0.857712
O O1 0.414709 0.456218 0.025261
O O2 0.224057 0.329759 0.149224
O O3 0.327455 0.251668 0.181003
O O4 0.487067 0.260348 0.849575
O O5 0.094077 0.540110 0.699359
O O6 0.073464 0.309953 0.752135
O O7 0.976325 0.417661 0.713057
O O8 0.850039 0.446311 0.024644
O O9 0.393296 0.617288 0.182343
O O10 0.168743 0.721420 0.510578
O O11 0.263733 0.693632 0.561543
O O12 0.189488 0.323255 0.782523
O O13 0.500000 0.918594 0.500000
O O14 0.538103 0.725486 0.545963
O O15 0.214701 0.042062 0.321944
O O16 0.000000 0.498929 0.000000
#
# Coordination Sequence:
#
# PCOD8048428 Si02
#       8
#     4   4   2   4   4   4   4   4
#     4  11  24  42  62  95 129 174 218 266 316 392
#     4  11  21  42  65  90 135 168 209 272 331 378
#     4  12  24  40  66  92 140 166 220 264 324 382
#     4  12  22  37  70  96 122 165 224 268 319 377
#     4  11  24  36  62 107 124 163 214 273 324 379
#     4  10  25  42  63  95 132 171 217 260 332 386
#     4  11  18  39  68  95 117 164 217 274 312 380
#     4  10  18  38  64  96 132 157 209 275 327 369
#
# _framework density 19.517576999999999
#
# number of rings (size 3 to 8) (size 9 to 14) (size 15 to 20)
#    0.000    1.067    8.667    0.000    5.600    0.000 
#    2.400    0.000    0.000    0.000    0.000    0.000 
#    0.000    0.000    0.000    0.000    0.000    0.000 
#
# Total GULP energy -185875.744894 kJ/mol
# GULP energy per Si atom -12391.716326 kJ/mol
# Density = 1.947315 g / cm^3
# Si number density = 19.517577 Si / 1000 Ang^3
#
#
#
# Elastic Constant Matrix: (Units=GPa)
#
#
# Indices 1 2 3 4 5 6 
#
# 1 92.2580 35.0237 55.3879 0.0000 15.4538 0.0000
# 2 35.0237 110.9696 51.2342 0.0000 -5.9204 0.0000
# 3 55.3879 51.2342 119.3081 0.0000 6.6393 0.0000
# 4 0.0000 0.0000 0.0000 34.3887 0.0000 8.3654
# 5 15.4538 -5.9204 6.6393 0.0000 37.0182 0.0000
# 6 0.0000 0.0000 0.0000 8.3654 0.0000 16.5438
#
#
#
# Elastic Compliance Matrix: (Units=1/GPa)
#
#
# Indices 1 2 3 4 5 6 
#
# 1 0.016654 -0.002722 -0.006213 0.000000 -0.006273 0.000000
# 2 -0.002722 0.011957 -0.004081 0.000000 0.003781 0.000000
# 3 -0.006213 -0.004081 0.013041 0.000000 -0.000398 0.000000
# 4 0.000000 0.000000 0.000000 0.033158 0.000000 -0.016766
# 5 -0.006273 0.003781 -0.000398 0.000000 0.030309 0.000000
# 6 0.000000 0.000000 0.000000 -0.016766 0.000000 0.068924
#
#
# Mechanical properties :
#
#
# Convention : Reuss Voigt Hill
#
# Bulk Modulus (GPa) = 64.02919 67.31416 65.67167
# Shear Modulus (GPa) = 24.35700 29.64947 27.00324
#
# Velocity S-wave (km/s) = 3.53647 3.90181 3.72362
# Velocity P-wave (km/s) = 7.03936 7.40694 7.22549
#
# Compressibility (1/GPa) = 0.01561788
#
# Stress axis : x y z
#
# Youngs Moduli (GPa) = 60.04728 83.63602 76.68258
#
# Poissons Ratio (x) = 0.22767 0.47644
# Poissons Ratio (y) = 0.16346 0.31295
# Poissons Ratio (z) = 0.37309 0.34133
#
# Static dielectric constant tensor:
#      x y z
#    x 3.482550 0.000000 0.362890 
#    y 0.000000 3.530770 0.000000 
#    z 0.362890 0.000000 3.837470 
# 
# 
# High freq. dielectric constant tensor:
#      x y z
#    x 1.737070 0.000000 0.025300 
#    y 0.000000 1.756290 0.000000 
#    z 0.025300 0.000000 1.768860 
# 
# From -- ./inp_files/57003.got.cif
#   From: 2010.03.12/outbox.cif.g09.slc.cpg/sg5_29_cif.got.tgz:57003.got - 2010.03.31 09:47:26.
