data_PCOD8048321
_publ_section_title
;
Structure prediction by ZEFSAII (Michael W. Deem and Ramdas Pophale) SiO2 
 PCOD8048321
Probable space group: C 2
;
_chemical_formula_sum "Si O2"
_cell_formula_units_Z 30
_cell_length_a 16.435088
_cell_length_b 8.304693
_cell_length_c 21.230205
_cell_angle_alpha 90.000000
_cell_angle_beta 147.989716
_cell_angle_gamma 90.000000
_cell_volume 1535.975312
_symmetry_space_group_name_H-M "C 2"
_symmetry_group_IT_number 5
_symmetry_cell_setting 'monoclinic'
loop_
_space_group_symop_operation_xyz
x,y,z
-x,y,-z
1/2+x,1/2+y,z
1/2-x,1/2+y,-z
loop_
_atom_site_type_symbol
_atom_site_label
_atom_site_fract_x
_atom_site_fract_y
_atom_site_fract_z
Si Si1 0.668501 0.428110 0.226725
Si Si2 0.500000 0.508296 0.000000
Si Si3 0.799897 0.800599 0.620190
Si Si4 0.238721 0.219185 0.091046
Si Si5 0.059387 0.013264 0.746564
Si Si6 0.965264 0.309171 0.354061
Si Si7 0.520934 0.005021 0.266753
Si Si8 0.495749 0.713814 0.825306
O O1 0.542580 0.396493 0.088427
O O2 0.639903 0.315837 0.268229
O O3 0.837328 0.389883 0.313349
O O4 0.643340 0.613454 0.233588
O O5 0.649196 0.618419 0.085731
O O6 0.619371 0.826133 0.495827
O O7 0.834581 0.617981 0.622798
O O8 0.892828 0.925519 0.636936
O O9 0.304033 0.382019 0.165759
O O10 0.376369 0.114497 0.151847
O O11 0.124847 0.261349 0.960006
O O12 0.071142 0.125440 0.691780
O O13 0.076015 0.115446 0.821507
O O14 0.976786 0.411936 0.299681
O O15 0.570586 0.881400 0.244593
#
# Coordination Sequence:
#
# PCOD8048321 Si02
#       8
#     4   2   4   4   4   4   4   4
#     4  10  21  39  58  83 117 155 187 235 298 341
#     4  10  20  38  58  86 120 148 184 248 284 358
#     4  10  21  38  60  84 117 152 196 245 282 339
#     4  10  18  35  57  83 122 152 188 237 292 342
#     4   9  20  35  56  89 111 153 200 233 287 346
#     4  11  20  38  60  83 120 152 198 235 289 341
#     4  10  20  36  60  89 112 152 198 237 290 338
#     4   9  19  35  59  83 120 147 196 233 288 350
#
# _framework density 19.531563999999999
#
# number of rings (size 3 to 8) (size 9 to 14) (size 15 to 20)
#    0.000    2.133    1.333    2.000    0.000    1.067 
#    7.200    0.000    0.000    0.000    0.000    0.000 
#    0.000    0.000    0.000    0.000    0.000    0.000 
#
# Total GULP energy -185931.994310 kJ/mol
# GULP energy per Si atom -12395.466287 kJ/mol
# Density = 1.948711 g / cm^3
# Si number density = 19.531564 Si / 1000 Ang^3
#
#
#
# Elastic Constant Matrix: (Units=GPa)
#
#
# Indices 1 2 3 4 5 6 
#
# 1 76.3365 34.0827 24.7077 -0.0001 13.8907 0.0001
# 2 34.0827 101.9746 35.1919 0.0002 10.5100 0.0000
# 3 24.7077 35.1919 66.4116 0.0000 18.4541 0.0001
# 4 -0.0001 0.0002 0.0000 22.9725 0.0002 3.5672
# 5 13.8907 10.5100 18.4541 0.0002 29.9874 -0.0001
# 6 0.0001 0.0000 0.0001 3.5672 -0.0001 28.8211
#
#
#
# Elastic Compliance Matrix: (Units=1/GPa)
#
#
# Indices 1 2 3 4 5 6 
#
# 1 0.016674 -0.004160 -0.002724 0.000000 -0.004590 0.000000
# 2 -0.004160 0.013042 -0.005583 0.000000 0.000792 0.000000
# 3 -0.002724 -0.005583 0.021876 0.000000 -0.010244 0.000000
# 4 0.000000 0.000000 0.000000 0.044383 0.000000 -0.005493
# 5 -0.004590 0.000792 -0.010244 0.000000 0.041500 0.000000
# 6 0.000000 0.000000 0.000000 -0.005493 0.000000 0.035377
#
#
# Mechanical properties :
#
#
# Convention : Reuss Voigt Hill
#
# Bulk Modulus (GPa) = 37.51220 48.07635 42.79428
# Shear Modulus (GPa) = 24.19296 26.40557 25.29926
#
# Velocity S-wave (km/s) = 3.52328 3.68087 3.60293
# Velocity P-wave (km/s) = 5.98322 6.53706 6.26626
#
# Compressibility (1/GPa) = 0.02665799
#
# Stress axis : x y z
#
# Youngs Moduli (GPa) = 59.97389 76.67559 45.71196
#
# Poissons Ratio (x) = 0.31896 0.12450
# Poissons Ratio (y) = 0.24949 0.25523
# Poissons Ratio (z) = 0.16335 0.42811
#
# Static dielectric constant tensor:
#      x y z
#    x 3.716620 0.000000 0.102840 
#    y 0.000000 3.731870 0.000000 
#    z 0.102840 0.000000 3.715370 
# 
# 
# High freq. dielectric constant tensor:
#      x y z
#    x 1.752100 0.000000 -0.005150 
#    y 0.000000 1.757500 0.000000 
#    z -0.005150 0.000000 1.758750 
# 
# From -- ./inp_files/41752.got.cif
#   From: 2010.03.12/outbox.cif.g09.slc.cpg/sg5_21_cif.got.tgz:41752.got - 2010.03.31 09:47:26.
