data_PCOD8048908
_publ_section_title
;
Structure prediction by ZEFSAII (Michael W. Deem and Ramdas Pophale) SiO2 
 PCOD8048908
Probable space group: C 2
;
_chemical_formula_sum "Si O2"
_cell_formula_units_Z 26
_cell_length_a 21.018102
_cell_length_b 6.584465
_cell_length_c 12.381158
_cell_angle_alpha 90.000000
_cell_angle_beta 47.536218
_cell_angle_gamma 90.000000
_cell_volume 1264.030455
_symmetry_space_group_name_H-M "C 2"
_symmetry_group_IT_number 5
_symmetry_cell_setting 'monoclinic'
loop_
_space_group_symop_operation_xyz
x,y,z
-x,y,-z
1/2+x,1/2+y,z
1/2-x,1/2+y,-z
loop_
_atom_site_type_symbol
_atom_site_label
_atom_site_fract_x
_atom_site_fract_y
_atom_site_fract_z
Si Si1 0.893061 0.399450 0.299004
Si Si2 0.449147 0.489688 0.160144
Si Si3 0.321573 0.166368 0.207861
Si Si4 0.059086 0.651215 0.124190
Si Si5 0.000000 0.088681 0.500000
Si Si6 0.081388 0.691034 0.344077
Si Si7 0.143241 0.373800 0.421538
O O1 0.900884 0.157367 0.285471
O O2 0.828137 0.471501 0.279142
O O3 0.855285 0.462818 0.458712
O O4 0.988228 0.487556 0.170867
O O5 0.375998 0.341019 0.201922
O O6 0.517235 0.373899 0.158819
O O7 0.500000 0.585571 0.000000
O O8 0.223070 0.227072 0.306747
O O9 0.358772 0.116363 0.046657
O O10 0.089314 0.619058 0.212092
O O11 0.943230 0.234848 0.489134
O O12 0.929026 0.937746 0.639678
O O13 0.155083 0.570448 0.327532
O O14 0.000000 0.592564 0.500000
#
# Coordination Sequence:
#
# PCOD8048908 Si02
#       7
#     4   4   4   4   2   4   4
#     4  11  20  37  65  86 123 164 196 241 307 371
#     4   9  19  36  62  90 117 158 196 239 309 370
#     4  10  25  37  57  95 128 150 197 261 305 354
#     4  10  19  42  62  86 124 157 204 253 296 364
#     4  10  20  40  64  84 114 162 206 248 296 358
#     4  10  21  40  63  83 112 163 209 246 289 362
#     4  12  23  40  60  94 122 155 210 250 300 363
#
# _framework density 20.569123999999999
#
# number of rings (size 3 to 8) (size 9 to 14) (size 15 to 20)
#    0.462    1.231    2.308    3.231    2.154    1.231 
#    2.769    0.000    0.000    0.000    0.000    0.000 
#    0.000    0.000    0.000    0.000    0.000    0.000 
#
# Total GULP energy -161093.757897 kJ/mol
# GULP energy per Si atom -12391.827531 kJ/mol
# Density = 2.052231 g / cm^3
# Si number density = 20.569124 Si / 1000 Ang^3
#
#
#
# Elastic Constant Matrix: (Units=GPa)
#
#
# Indices 1 2 3 4 5 6 
#
# 1 70.6929 21.4437 59.1369 -0.0003 13.7930 0.0003
# 2 21.4437 73.7588 30.3206 -0.0007 11.6757 0.0010
# 3 59.1369 30.3206 125.1428 0.0000 21.3928 0.0002
# 4 -0.0003 -0.0007 0.0000 25.0014 0.0001 4.5638
# 5 13.7930 11.6757 21.3928 0.0001 40.6149 -0.0001
# 6 0.0003 0.0010 0.0002 4.5638 -0.0001 23.1959
#
#
#
# Elastic Compliance Matrix: (Units=1/GPa)
#
#
# Indices 1 2 3 4 5 6 
#
# 1 0.023958 -0.002374 -0.010409 0.000000 -0.001971 0.000000
# 2 -0.002374 0.015556 -0.002220 0.000001 -0.002496 -0.000001
# 3 -0.010409 -0.002220 0.013995 0.000000 -0.003198 0.000000
# 4 0.000000 0.000001 0.000000 0.041488 0.000000 -0.008163
# 5 -0.001971 -0.002496 -0.003198 0.000000 0.027693 0.000000
# 6 0.000000 -0.000001 0.000000 -0.008163 0.000000 0.044717
#
#
# Mechanical properties :
#
#
# Convention : Reuss Voigt Hill
#
# Bulk Modulus (GPa) = 42.55212 54.59965 48.57588
# Shear Modulus (GPa) = 24.36082 28.34200 26.35141
#
# Velocity S-wave (km/s) = 3.44516 3.71602 3.58315
# Velocity P-wave (km/s) = 6.04630 6.70924 6.38638
#
# Compressibility (1/GPa) = 0.02350059
#
# Stress axis : x y z
#
# Youngs Moduli (GPa) = 41.73932 64.28463 71.45663
#
# Poissons Ratio (x) = 0.15263 0.74382
# Poissons Ratio (y) = 0.09910 0.15866
# Poissons Ratio (z) = 0.43448 0.14273
#
# Static dielectric constant tensor:
#      x y z
#    x 3.575520 0.000000 0.145590 
#    y 0.000000 3.671810 0.000000 
#    z 0.145590 0.000000 3.587570 
# 
# 
# High freq. dielectric constant tensor:
#      x y z
#    x 1.786940 0.000000 0.016500 
#    y 0.000000 1.805950 0.000000 
#    z 0.016500 0.000000 1.794070 
# 
# From -- ./inp_files/45580.got.cif
#   From: 2010.03.12/outbox.cif.g09.slc.cpg/sg5_23_cif.got.tgz:45580.got - 2010.03.31 09:47:26.
