data_PCOD8048307
_publ_section_title
;
Structure prediction by ZEFSAII (Michael W. Deem and Ramdas Pophale) SiO2 
 PCOD8048307
Probable space group: C 2
;
_chemical_formula_sum "Si O2"
_cell_formula_units_Z 28
_cell_length_a 18.893962
_cell_length_b 6.316768
_cell_length_c 11.345506
_cell_angle_alpha 90.000000
_cell_angle_beta 66.668566
_cell_angle_gamma 90.000000
_cell_volume 1243.348717
_symmetry_space_group_name_H-M "C 2"
_symmetry_group_IT_number 5
_symmetry_cell_setting 'monoclinic'
loop_
_space_group_symop_operation_xyz
x,y,z
-x,y,-z
1/2+x,1/2+y,z
1/2-x,1/2+y,-z
loop_
_atom_site_type_symbol
_atom_site_label
_atom_site_fract_x
_atom_site_fract_y
_atom_site_fract_z
Si Si1 0.500000 0.786240 0.000000
Si Si2 0.883781 0.732747 0.567556
Si Si3 0.624728 0.093310 0.856393
Si Si4 0.374991 0.479878 0.981595
Si Si5 0.500000 0.886328 0.500000
Si Si6 0.047805 0.031197 0.295196
Si Si7 0.280874 0.703244 0.226155
Si Si8 0.617860 0.439498 0.671303
O O1 0.554779 0.635723 0.036944
O O2 0.552016 0.938758 0.884488
O O3 0.929428 0.524687 0.493080
O O4 0.807804 0.664507 0.687400
O O5 0.857820 0.889311 0.478956
O O6 0.944297 0.852434 0.611233
O O7 0.612355 0.238665 0.981799
O O8 0.635042 0.232460 0.734857
O O9 0.701577 0.948775 0.815169
O O10 0.298303 0.566176 0.096433
O O11 0.375619 0.502562 0.838614
O O12 0.537767 0.754495 0.367903
O O13 0.972727 0.990971 0.264190
O O14 0.333204 0.630136 0.303692
#
# Coordination Sequence:
#
# PCOD8048307 Si02
#       8
#     2   4   4   4   2   4   4   4
#     4  10  18  34  64 104 132 168 224 282 342 404
#     4  12  27  46  66 104 139 182 238 289 348 422
#     4  10  21  39  68 100 139 177 222 283 355 400
#     4  10  22  41  64 101 135 177 232 284 338 427
#     4  12  26  46  70  96 136 192 226 290 354 410
#     4  12  24  46  70  99 142 178 239 283 342 429
#     4  10  26  44  66 105 137 181 232 286 355 407
#     4  11  23  41  69 103 133 182 233 285 334 428
#
# _framework density 22.519829000000001
#
# number of rings (size 3 to 8) (size 9 to 14) (size 15 to 20)
#    0.000    1.143    2.857    3.857    6.000    4.571 
#    5.143    0.000    0.000    0.000    0.000    0.000 
#    0.000    0.000    0.000    0.000    0.000    0.000 
#
# Total GULP energy -173521.303033 kJ/mol
# GULP energy per Si atom -12394.378788 kJ/mol
# Density = 2.246857 g / cm^3
# Si number density = 22.519829 Si / 1000 Ang^3
#
#
#
# Elastic Constant Matrix: (Units=GPa)
#
#
# Indices 1 2 3 4 5 6 
#
# 1 64.8142 34.1100 28.5227 0.0000 -15.0080 0.0000
# 2 34.1100 130.0425 47.9951 0.0000 -5.5751 0.0000
# 3 28.5227 47.9951 150.0420 0.0000 -12.1693 0.0000
# 4 0.0000 0.0000 0.0000 14.8516 0.0000 5.0946
# 5 -15.0080 -5.5751 -12.1693 0.0000 38.2610 0.0000
# 6 0.0000 0.0000 0.0000 5.0946 0.0000 11.3778
#
#
#
# Elastic Compliance Matrix: (Units=1/GPa)
#
#
# Indices 1 2 3 4 5 6 
#
# 1 0.020053 -0.004271 -0.001907 0.000000 0.006637 0.000000
# 2 -0.004271 0.009635 -0.002353 0.000000 -0.001020 0.000000
# 3 -0.001907 -0.002353 0.007895 0.000000 0.001420 0.000000
# 4 0.000000 0.000000 0.000000 0.079552 0.000000 -0.035621
# 5 0.006637 -0.001020 0.001420 0.000000 0.029043 0.000000
# 6 0.000000 0.000000 0.000000 -0.035621 0.000000 0.103840
#
#
# Mechanical properties :
#
#
# Convention : Reuss Voigt Hill
#
# Bulk Modulus (GPa) = 48.73342 62.90601 55.81971
# Shear Modulus (GPa) = 18.25348 28.51613 23.38480
#
# Velocity S-wave (km/s) = 2.85011 3.56233 3.22593
# Velocity P-wave (km/s) = 5.70246 6.70183 6.22224
#
# Compressibility (1/GPa) = 0.02051980
#
# Stress axis : x y z
#
# Youngs Moduli (GPa) = 49.86857 103.79103 126.66006
#
# Poissons Ratio (x) = 0.44332 0.24159
# Poissons Ratio (y) = 0.21300 0.29799
# Poissons Ratio (z) = 0.09512 0.24419
#
# Static dielectric constant tensor:
#      x y z
#    x 3.722760 0.000000 -0.086140 
#    y 0.000000 4.357820 0.000000 
#    z -0.086140 0.000000 4.311760 
# 
# 
# High freq. dielectric constant tensor:
#      x y z
#    x 1.857880 0.000000 -0.009970 
#    y 0.000000 1.897860 0.000000 
#    z -0.009970 0.000000 1.899200 
# 
# From -- ./inp_files/45512.got.cif
#   From: 2010.03.12/outbox.cif.g09.slc.cpg/sg5_23_cif.got.tgz:45512.got - 2010.03.31 09:47:26.
