data_PCOD8048856
_publ_section_title
;
Structure prediction by ZEFSAII (Michael W. Deem and Ramdas Pophale) SiO2 
 PCOD8048856
Probable space group: C 2
;
_chemical_formula_sum "Si O2"
_cell_formula_units_Z 32
_cell_length_a 26.815870
_cell_length_b 9.317308
_cell_length_c 10.273034
_cell_angle_alpha 90.000000
_cell_angle_beta 35.604227
_cell_angle_gamma 90.000000
_cell_volume 1494.309493
_symmetry_space_group_name_H-M "C 2"
_symmetry_group_IT_number 5
_symmetry_cell_setting 'monoclinic'
loop_
_space_group_symop_operation_xyz
x,y,z
-x,y,-z
1/2+x,1/2+y,z
1/2-x,1/2+y,-z
loop_
_atom_site_type_symbol
_atom_site_label
_atom_site_fract_x
_atom_site_fract_y
_atom_site_fract_z
Si Si1 0.988822 0.853760 0.728057
Si Si2 0.791792 0.259094 0.410286
Si Si3 0.487334 0.071019 0.874977
Si Si4 0.599061 0.832334 0.580140
Si Si5 0.143028 0.862122 0.218512
Si Si6 0.297173 0.029690 0.246464
Si Si7 0.213961 0.148322 0.162183
Si Si8 0.958298 0.117837 0.961051
O O1 0.915509 0.820742 0.779325
O O2 0.985685 0.739402 0.849979
O O3 0.085001 0.850504 0.469498
O O4 0.965661 0.010213 0.826787
O O5 0.831103 0.335248 0.454064
O O6 0.715034 0.157714 0.622510
O O7 0.755630 0.381837 0.390347
O O8 0.859991 0.158871 0.191819
O O9 0.564991 0.994952 0.628364
O O10 0.500000 0.041895 0.000000
O O11 0.397863 0.002967 0.016417
O O12 0.637812 0.755941 0.369803
O O13 0.512991 0.757497 0.812492
O O14 0.179588 0.025567 0.136682
O O15 0.218619 0.744878 0.060229
O O16 0.252900 0.066461 0.204148
O O17 0.000000 0.044094 0.000000
#
# Coordination Sequence:
#
# PCOD8048856 Si02
#       8
#     4   4   4   4   4   4   4   4
#     4  11  25  43  67  97 130 171 224 274 320 388
#     4  10  22  37  63  97 140 165 207 263 331 399
#     4  12  22  41  70 102 135 167 212 265 335 406
#     4  10  20  41  65  93 129 172 208 258 328 403
#     4  11  26  47  65  91 130 175 229 278 316 376
#     4  11  23  40  62 101 134 171 216 269 328 397
#     4  11  25  46  66  91 132 174 226 279 324 374
#     4  10  19  39  66  94 130 174 203 255 333 408
#
# _framework density 21.414574999999999
#
# number of rings (size 3 to 8) (size 9 to 14) (size 15 to 20)
#    0.000    1.250    5.000    0.750    3.500    2.000 
#    0.000    0.000    0.000    0.000    0.000    0.000 
#    0.000    0.000    0.000    0.000    0.000    0.000 
#
# Total GULP energy -198395.713740 kJ/mol
# GULP energy per Si atom -12399.732109 kJ/mol
# Density = 2.136583 g / cm^3
# Si number density = 21.414575 Si / 1000 Ang^3
#
#
#
# Elastic Constant Matrix: (Units=GPa)
#
#
# Indices 1 2 3 4 5 6 
#
# 1 32.0450 30.9148 19.3548 0.0000 -5.9641 0.0000
# 2 30.9148 110.0363 35.9800 0.0000 -0.5339 0.0000
# 3 19.3548 35.9800 97.3180 0.0000 -9.6466 0.0000
# 4 0.0000 0.0000 0.0000 37.4895 0.0000 6.6348
# 5 -5.9641 -0.5339 -9.6466 0.0000 22.8165 0.0000
# 6 0.0000 0.0000 0.0000 6.6348 0.0000 36.7368
#
#
#
# Elastic Compliance Matrix: (Units=1/GPa)
#
#
# Indices 1 2 3 4 5 6 
#
# 1 0.046935 -0.011852 -0.003929 0.000000 0.010330 0.000000
# 2 -0.011852 0.013375 -0.002989 0.000000 -0.004049 0.000000
# 3 -0.003929 -0.002989 0.012581 0.000000 0.004222 0.000000
# 4 0.000000 0.000000 0.000000 0.027555 0.000000 -0.004977
# 5 0.010330 -0.004049 0.004222 0.000000 0.048219 0.000000
# 6 0.000000 0.000000 0.000000 -0.004977 0.000000 0.028119
#
#
# Mechanical properties :
#
#
# Convention : Reuss Voigt Hill
#
# Bulk Modulus (GPa) = 28.28719 45.76649 37.02684
# Shear Modulus (GPa) = 22.11330 29.61854 25.86592
#
# Velocity S-wave (km/s) = 3.21694 3.72304 3.47921
# Velocity P-wave (km/s) = 5.19964 6.31660 5.78514
#
# Compressibility (1/GPa) = 0.03535169
#
# Stress axis : x y z
#
# Youngs Moduli (GPa) = 21.30588 74.76364 79.48690
#
# Poissons Ratio (x) = 0.88608 0.31229
# Poissons Ratio (y) = 0.25251 0.23762
# Poissons Ratio (z) = 0.08371 0.22350
#
# Static dielectric constant tensor:
#      x y z
#    x 3.620560 0.000000 -0.073510 
#    y 0.000000 3.854150 0.000000 
#    z -0.073510 0.000000 3.965390 
# 
# 
# High freq. dielectric constant tensor:
#      x y z
#    x 1.814950 0.000000 -0.007690 
#    y 0.000000 1.847480 0.000000 
#    z -0.007690 0.000000 1.846810 
# 
# From -- ./inp_files/48384.got.cif
#   From: 2010.03.12/outbox.cif.g09.slc.cpg/sg5_25_cif.got.tgz:48384.got - 2010.03.31 09:47:26.
