data_PCOD8048548
_publ_section_title
;
Structure prediction by ZEFSAII (Michael W. Deem and Ramdas Pophale) SiO2 
 PCOD8048548
Probable space group: C 2
;
_chemical_formula_sum "Si O2"
_cell_formula_units_Z 28
_cell_length_a 16.479845
_cell_length_b 17.797539
_cell_length_c 5.038456
_cell_angle_alpha 90.000000
_cell_angle_beta 106.751885
_cell_angle_gamma 90.000000
_cell_volume 1415.068275
_symmetry_space_group_name_H-M "C 2"
_symmetry_group_IT_number 5
_symmetry_cell_setting 'monoclinic'
loop_
_space_group_symop_operation_xyz
x,y,z
-x,y,-z
1/2+x,1/2+y,z
1/2-x,1/2+y,-z
loop_
_atom_site_type_symbol
_atom_site_label
_atom_site_fract_x
_atom_site_fract_y
_atom_site_fract_z
Si Si1 0.094661 0.333010 0.485216
Si Si2 0.853179 0.719271 0.228682
Si Si3 0.772712 0.953661 0.107790
Si Si4 0.558477 0.374334 0.803044
Si Si5 0.683914 0.992555 0.519802
Si Si6 0.816869 0.294728 0.933139
Si Si7 0.592856 0.135139 0.210977
O O1 0.130571 0.416602 0.490085
O O2 0.107607 0.292333 0.213955
O O3 0.000000 0.339240 0.500000
O O4 0.144443 0.280271 0.740772
O O5 0.898970 0.792678 0.157072
O O6 0.755141 0.734356 0.209867
O O7 0.902346 0.695059 0.543226
O O8 0.850174 0.658582 0.987466
O O9 0.870276 0.939285 0.126265
O O10 0.761411 0.992118 0.382952
O O11 0.724528 0.875813 0.091521
O O12 0.728293 0.006814 0.845209
O O13 0.500000 0.388602 0.500000
O O14 0.500000 0.383095 0.000000
O O15 0.619440 0.057187 0.370858
O O16 0.500000 0.128553 0.000000
#
# Coordination Sequence:
#
# PCOD8048548 Si02
#       7
#     4   4   4   4   4   4   4
#     4  10  19  33  55  82 107 135 174 227 274 309
#     4  11  22  37  53  78 115 148 178 213 259 324
#     4   9  19  35  53  75 106 141 179 219 267 317
#     4  11  20  33  56  84 110 138 175 228 275 310
#     4  10  21  36  52  76 111 146 176 212 259 322
#     4   9  19  34  53  76 106 141 177 218 269 318
#     4  12  24  36  54  81 111 149 183 209 251 318
#
# _framework density 19.787030999999999
#
# number of rings (size 3 to 8) (size 9 to 14) (size 15 to 20)
#    0.000    1.714    0.000    5.571    0.000    9.143 
#    0.000    0.000    0.000    0.000    0.000   35.000 
#    0.000    0.000    0.000    0.000    0.000    0.000 
#
# Total GULP energy -173520.546405 kJ/mol
# GULP energy per Si atom -12394.324743 kJ/mol
# Density = 1.974199 g / cm^3
# Si number density = 19.787031 Si / 1000 Ang^3
#
#
#
# Elastic Constant Matrix: (Units=GPa)
#
#
# Indices 1 2 3 4 5 6 
#
# 1 151.0483 35.8405 54.0870 0.0000 -15.1339 0.0000
# 2 35.8405 49.9045 37.0136 0.0000 5.3436 0.0000
# 3 54.0870 37.0136 134.6433 0.0000 -7.4255 0.0000
# 4 0.0000 0.0000 0.0000 32.3164 0.0000 3.5694
# 5 -15.1339 5.3436 -7.4255 0.0000 37.8247 0.0000
# 6 0.0000 0.0000 0.0000 3.5694 0.0000 21.9941
#
#
#
# Elastic Compliance Matrix: (Units=1/GPa)
#
#
# Indices 1 2 3 4 5 6 
#
# 1 0.009001 -0.005496 -0.001884 0.000000 0.004008 0.000000
# 2 -0.005496 0.029485 -0.006317 0.000000 -0.007605 0.000000
# 3 -0.001884 -0.006317 0.010037 0.000000 0.002109 0.000000
# 4 0.000000 0.000000 0.000000 0.031509 0.000000 -0.005114
# 5 0.004008 -0.007605 0.002109 0.000000 0.029530 0.000000
# 6 0.000000 0.000000 0.000000 -0.005114 0.000000 0.046297
#
#
# Mechanical properties :
#
#
# Convention : Reuss Voigt Hill
#
# Bulk Modulus (GPa) = 47.32929 65.49757 56.41343
# Shear Modulus (GPa) = 26.27517 32.33737 29.30627
#
# Velocity S-wave (km/s) = 3.64799 4.04700 3.85266
# Velocity P-wave (km/s) = 6.45872 7.41692 6.95434
#
# Compressibility (1/GPa) = 0.02112857
#
# Stress axis : x y z
#
# Youngs Moduli (GPa) = 111.10426 33.91557 99.63552
#
# Poissons Ratio (x) = 0.18640 0.18768
# Poissons Ratio (y) = 0.61064 0.62940
# Poissons Ratio (z) = 0.20928 0.21425
#
# Static dielectric constant tensor:
#      x y z
#    x 3.691750 0.000000 -0.174840 
#    y 0.000000 3.328570 0.000000 
#    z -0.174840 0.000000 4.013580 
# 
# 
# High freq. dielectric constant tensor:
#      x y z
#    x 1.774200 0.000000 -0.014080 
#    y 0.000000 1.728000 0.000000 
#    z -0.014080 0.000000 1.793170 
# 
# From -- ./inp_files/7221.got.cif
#   From: 2010.03.12/outbox.cif.g09.slc.cpg/sg5_4_cif.got.tgz:7221.got - 2010.03.31 09:47:26.
