data_PCOD8048546
_publ_section_title
;
Structure prediction by ZEFSAII (Michael W. Deem and Ramdas Pophale) SiO2 
 PCOD8048546
Probable space group: C 2
;
_chemical_formula_sum "Si O2"
_cell_formula_units_Z 32
_cell_length_a 28.038984
_cell_length_b 9.113204
_cell_length_c 22.990678
_cell_angle_alpha 90.000000
_cell_angle_beta 16.203153
_cell_angle_gamma 90.000000
_cell_volume 1639.297422
_symmetry_space_group_name_H-M "C 2"
_symmetry_group_IT_number 5
_symmetry_cell_setting 'monoclinic'
loop_
_space_group_symop_operation_xyz
x,y,z
-x,y,-z
1/2+x,1/2+y,z
1/2-x,1/2+y,-z
loop_
_atom_site_type_symbol
_atom_site_label
_atom_site_fract_x
_atom_site_fract_y
_atom_site_fract_z
Si Si1 0.424424 0.378380 0.826175
Si Si2 0.924134 0.856406 0.465971
Si Si3 0.889587 0.539690 0.861107
Si Si4 0.829771 0.032316 0.045240
Si Si5 0.330571 0.361898 0.161387
Si Si6 0.947236 0.532332 0.446567
Si Si7 0.191251 0.364247 0.940043
Si Si8 0.190109 0.049876 0.301370
O O1 0.587436 0.383930 0.590671
O O2 0.361091 0.211591 0.906961
O O3 0.283380 0.484553 0.964825
O O4 0.456866 0.443393 0.852702
O O5 0.864244 0.693271 0.554918
O O6 0.123512 0.860590 0.247968
O O7 0.816127 0.978076 0.626914
O O8 0.039862 0.511333 0.638355
O O9 0.931454 0.454962 0.872187
O O10 0.630847 0.012963 0.262065
O O11 0.884388 0.202312 0.979758
O O12 0.858728 0.973873 0.075907
O O13 0.175100 0.409870 0.384421
O O14 0.287764 0.202204 0.187225
O O15 0.500000 0.354742 0.000000
O O16 0.199557 0.442125 0.868064
O O17 0.000000 0.072069 0.500000
#
# Coordination Sequence:
#
# PCOD8048546 Si02
#       8
#     4   4   4   4   4   4   4   4
#     4   9  16  27  49  82 115 136 163 209 257 303
#     4   8  16  30  52  84 111 132 166 212 255 301
#     4   9  16  27  48  82 114 136 164 209 257 303
#     4  10  19  34  57  80 104 137 174 213 258 310
#     4  12  25  37  50  73 105 137 176 222 264 309
#     4   9  18  34  56  79 104 136 172 210 255 309
#     4   9  17  30  53  85 111 132 169 215 258 304
#     4  10  19  33  55  79 106 138 172 212 256 307
#
# _framework density 19.520558000000001
#
# number of rings (size 3 to 8) (size 9 to 14) (size 15 to 20)
#    0.000    2.500    0.000    4.875    0.000    8.000 
#    0.000    2.500    0.000    9.000    0.000    0.000 
#    0.000    0.000    0.000    0.000    0.000    0.000 
#
# Total GULP energy -198323.375392 kJ/mol
# GULP energy per Si atom -12395.210962 kJ/mol
# Density = 1.947613 g / cm^3
# Si number density = 19.520558 Si / 1000 Ang^3
#
#
#
# Elastic Constant Matrix: (Units=GPa)
#
#
# Indices 1 2 3 4 5 6 
#
# 1 79.0754 56.2606 48.1998 -0.0025 29.3470 0.0019
# 2 56.2606 145.2193 34.1391 -0.0039 22.6028 0.0039
# 3 48.1998 34.1391 38.8903 -0.0031 22.6716 0.0040
# 4 -0.0025 -0.0039 -0.0031 22.5454 0.0031 20.5379
# 5 29.3470 22.6028 22.6716 0.0031 29.8182 -0.0019
# 6 0.0019 0.0039 0.0040 20.5379 -0.0019 25.2248
#
#
#
# Elastic Compliance Matrix: (Units=1/GPa)
#
#
# Indices 1 2 3 4 5 6 
#
# 1 0.056825 -0.006804 -0.062609 -0.000035 -0.003166 0.000035
# 2 -0.006804 0.009525 0.000676 0.000008 -0.001038 -0.000008
# 3 -0.062609 0.000676 0.120506 0.000114 -0.030517 -0.000110
# 4 -0.000035 0.000008 0.000114 0.171716 -0.000086 -0.139810
# 5 -0.003166 -0.001038 -0.030517 -0.000086 0.060642 0.000080
# 6 0.000035 -0.000008 -0.000110 -0.139810 0.000080 0.153476
#
#
# Mechanical properties :
#
#
# Convention : Reuss Voigt Hill
#
# Bulk Modulus (GPa) = 20.25001 60.04267 40.14634
# Shear Modulus (GPa) = 6.88116 23.82338 15.35227
#
# Velocity S-wave (km/s) = 1.87956 3.49725 2.80744
# Velocity P-wave (km/s) = 3.88671 6.86536 5.57851
#
# Compressibility (1/GPa) = 0.04938268
#
# Stress axis : x y z
#
# Youngs Moduli (GPa) = 17.59801 104.99227 8.29835
#
# Poissons Ratio (x) = 0.71432 0.51955
# Poissons Ratio (y) = 0.11973 -0.00561
# Poissons Ratio (z) = 1.10179 -0.07101
#
# Static dielectric constant tensor:
#      x y z
#    x 3.584330 0.000000 0.660850 
#    y 0.000000 3.758100 0.000010 
#    z 0.660850 0.000010 3.399570 
# 
# 
# High freq. dielectric constant tensor:
#      x y z
#    x 1.739750 0.000000 0.053870 
#    y 0.000000 1.777140 0.000000 
#    z 0.053870 0.000000 1.723950 
# 
# From -- ./inp_files/67556.got.cif
#   From: 2010.03.12/outbox.cif.g09.slc.cpg/sg5_34_cif.got.tgz:67556.got - 2010.03.31 09:47:26.
