data_PCOD8048883
_publ_section_title
;
Structure prediction by ZEFSAII (Michael W. Deem and Ramdas Pophale) SiO2 
 PCOD8048883
Probable space group: C 2
;
_chemical_formula_sum "Si O2"
_cell_formula_units_Z 32
_cell_length_a 13.161760
_cell_length_b 13.263403
_cell_length_c 18.600158
_cell_angle_alpha 90.000000
_cell_angle_beta 151.203475
_cell_angle_gamma 90.000000
_cell_volume 1564.093409
_symmetry_space_group_name_H-M "C 2"
_symmetry_group_IT_number 5
_symmetry_cell_setting 'monoclinic'
loop_
_space_group_symop_operation_xyz
x,y,z
-x,y,-z
1/2+x,1/2+y,z
1/2-x,1/2+y,-z
loop_
_atom_site_type_symbol
_atom_site_label
_atom_site_fract_x
_atom_site_fract_y
_atom_site_fract_z
Si Si1 0.889183 0.790080 0.593049
Si Si2 0.850044 0.935634 0.337990
Si Si3 0.752031 0.005446 0.856349
Si Si4 0.087895 0.620432 0.629134
Si Si5 0.539822 0.762660 0.176691
Si Si6 0.065210 0.294425 0.733147
Si Si7 0.637400 0.135765 0.153350
Si Si8 0.386827 0.191432 0.138004
O O1 0.644346 0.821594 0.442244
O O2 0.027663 0.884916 0.652808
O O3 0.916561 0.698278 0.554014
O O4 0.956354 0.754307 0.713911
O O5 0.642775 0.872779 0.231251
O O6 0.000000 0.943305 0.500000
O O7 0.782437 0.045948 0.271683
O O8 0.628240 0.026131 0.705373
O O9 0.667932 0.081612 0.864633
O O10 0.691511 0.892303 0.839432
O O11 0.000000 0.017029 0.000000
O O12 0.308586 0.677758 0.760475
O O13 0.000000 0.577756 0.500000
O O14 0.499021 0.735887 0.234438
O O15 0.323896 0.758432 0.997949
O O16 0.213421 0.227711 0.775415
O O17 0.485998 0.176833 0.121520
O O18 0.500000 0.099352 0.000000
#
# Coordination Sequence:
#
# PCOD8048883 Si02
#       8
#     4   4   4   4   4   4   4   4
#     4  10  23  41  70  98 127 175 222 276 331 388
#     4  11  24  43  71 104 133 175 227 276 331 396
#     4  11  24  42  67  97 128 171 219 272 336 394
#     4  10  19  40  68 100 124 160 224 273 322 387
#     4  11  20  43  71  94 131 172 216 275 333 391
#     4  12  24  45  64  91 140 178 215 267 335 399
#     4  12  28  45  64  98 138 183 224 270 334 402
#     4  11  25  44  69  98 130 172 224 280 337 393
#
# _framework density 20.459136999999998
#
# number of rings (size 3 to 8) (size 9 to 14) (size 15 to 20)
#    0.000    1.000    5.000    1.875    3.500    1.000 
#    2.250    0.000    0.000    0.000    0.000    0.000 
#    0.000    0.000    0.000    0.000    0.000    0.000 
#
# Total GULP energy -198462.762262 kJ/mol
# GULP energy per Si atom -12403.922641 kJ/mol
# Density = 2.041257 g / cm^3
# Si number density = 20.459137 Si / 1000 Ang^3
#
#
#
# Elastic Constant Matrix: (Units=GPa)
#
#
# Indices 1 2 3 4 5 6 
#
# 1 106.9694 35.2776 40.4519 0.0022 -4.7396 0.0018
# 2 35.2776 96.2155 41.4338 0.0037 5.8074 0.0020
# 3 40.4519 41.4338 110.2694 0.0066 -2.0296 0.0055
# 4 0.0022 0.0037 0.0066 30.7910 0.0042 -0.3955
# 5 -4.7396 5.8074 -2.0296 0.0042 33.7979 0.0020
# 6 0.0018 0.0020 0.0055 -0.3955 0.0020 20.9025
#
#
#
# Elastic Compliance Matrix: (Units=1/GPa)
#
#
# Indices 1 2 3 4 5 6 
#
# 1 0.011604 -0.003049 -0.003075 0.000000 0.001967 0.000000
# 2 -0.003049 0.013401 -0.003971 0.000000 -0.002969 0.000000
# 3 -0.003075 -0.003971 0.011707 -0.000002 0.000954 -0.000003
# 4 0.000000 0.000000 -0.000002 0.032485 -0.000004 0.000615
# 5 0.001967 -0.002969 0.000954 -0.000004 0.030431 -0.000003
# 6 0.000000 0.000000 -0.000003 0.000615 -0.000003 0.047853
#
#
# Mechanical properties :
#
#
# Convention : Reuss Voigt Hill
#
# Bulk Modulus (GPa) = 60.53173 60.86454 60.69813
# Shear Modulus (GPa) = 28.87209 30.18435 29.52822
#
# Velocity S-wave (km/s) = 3.76068 3.84519 3.80317
# Velocity P-wave (km/s) = 6.96476 7.03761 7.00128
#
# Compressibility (1/GPa) = 0.01652026
#
# Stress axis : x y z
#
# Youngs Moduli (GPa) = 86.17696 74.62290 85.42216
#
# Poissons Ratio (x) = 0.22754 0.26267
# Poissons Ratio (y) = 0.26277 0.33925
# Poissons Ratio (z) = 0.26499 0.29636
#
# Static dielectric constant tensor:
#      x y z
#    x 3.806130 0.000000 0.015970 
#    y 0.000000 3.486530 -0.000010 
#    z 0.015970 -0.000010 3.818740 
# 
# 
# High freq. dielectric constant tensor:
#      x y z
#    x 1.805110 0.000000 0.002460 
#    y 0.000000 1.785610 0.000000 
#    z 0.002460 0.000000 1.815360 
# 
# From -- ./inp_files/60727.got.cif
#   From: 2010.03.12/outbox.cif.g09.slc.cpg/sg5_31_cif.got.tgz:60727.got - 2010.03.31 09:47:26.
