data_PCOD8048680
_publ_section_title
;
Structure prediction by ZEFSAII (Michael W. Deem and Ramdas Pophale) SiO2 
 PCOD8048680
Probable space group: C 2
;
_chemical_formula_sum "Si O2"
_cell_formula_units_Z 28
_cell_length_a 16.926618
_cell_length_b 14.157426
_cell_length_c 7.991231
_cell_angle_alpha 90.000000
_cell_angle_beta 131.459150
_cell_angle_gamma 90.000000
_cell_volume 1435.152554
_symmetry_space_group_name_H-M "C 2"
_symmetry_group_IT_number 5
_symmetry_cell_setting 'monoclinic'
loop_
_space_group_symop_operation_xyz
x,y,z
-x,y,-z
1/2+x,1/2+y,z
1/2-x,1/2+y,-z
loop_
_atom_site_type_symbol
_atom_site_label
_atom_site_fract_x
_atom_site_fract_y
_atom_site_fract_z
Si Si1 0.715191 0.083640 0.878968
Si Si2 0.051408 0.563936 0.910458
Si Si3 0.332354 0.735891 0.852253
Si Si4 0.723533 0.934906 0.310447
Si Si5 0.122336 0.442920 0.504163
Si Si6 0.551577 0.740303 0.335251
Si Si7 0.889191 0.057605 0.383342
O O1 0.630243 0.123562 0.898768
O O2 0.742636 0.158420 0.771611
O O3 0.672370 0.984439 0.744352
O O4 0.823931 0.060666 0.121842
O O5 0.961603 0.521338 0.668213
O O6 0.117611 0.479843 0.086855
O O7 0.000000 0.620518 0.000000
O O8 0.268294 0.833826 0.768060
O O9 0.378099 0.724117 0.730729
O O10 0.427975 0.731818 0.118574
O O11 0.713833 0.928563 0.496257
O O12 0.828518 0.995126 0.433301
O O13 0.068821 0.340684 0.452080
O O14 0.587565 0.662259 0.517026
O O15 0.000000 0.006759 0.500000
#
# Coordination Sequence:
#
# PCOD8048680 Si02
#       7
#     4   4   4   4   4   4   4
#     4  11  22  33  55  89 121 152 196 239 292 348
#     4   9  18  35  57  84 117 150 189 243 298 338
#     4  10  19  37  60  90 113 151 196 241 292 345
#     4   9  19  36  59  83 120 153 186 238 299 343
#     4  10  19  36  60  90 112 147 195 248 291 341
#     4  10  20  36  62  85 118 148 194 252 289 332
#     4  11  22  36  51  82 121 158 189 236 289 343
#
# _framework density 19.510121999999999
#
# number of rings (size 3 to 8) (size 9 to 14) (size 15 to 20)
#    0.000    2.000    2.857    1.286    0.000    3.429 
#    0.000    1.429    0.000    0.000    0.000    2.000 
#    0.000    0.000    0.000    0.000    0.000    0.000 
#
# Total GULP energy -173498.899543 kJ/mol
# GULP energy per Si atom -12392.778539 kJ/mol
# Density = 1.946572 g / cm^3
# Si number density = 19.510122 Si / 1000 Ang^3
#
#
#
# Elastic Constant Matrix: (Units=GPa)
#
#
# Indices 1 2 3 4 5 6 
#
# 1 114.6200 39.0483 33.0186 0.0000 7.2975 0.0000
# 2 39.0483 68.0671 28.7044 0.0000 3.6252 0.0000
# 3 33.0186 28.7044 102.8912 0.0000 0.2818 0.0000
# 4 0.0000 0.0000 0.0000 24.8712 0.0000 -10.1705
# 5 7.2975 3.6252 0.2818 0.0000 28.5661 0.0000
# 6 0.0000 0.0000 0.0000 -10.1705 0.0000 9.1873
#
#
#
# Elastic Compliance Matrix: (Units=1/GPa)
#
#
# Indices 1 2 3 4 5 6 
#
# 1 0.011344 -0.005507 -0.002098 0.000000 -0.002178 0.000000
# 2 -0.005507 0.019446 -0.003655 0.000000 -0.001025 0.000000
# 3 -0.002098 -0.003655 0.011410 0.000000 0.000887 0.000000
# 4 0.000000 0.000000 0.000000 0.073463 0.000000 0.081325
# 5 -0.002178 -0.001025 0.000887 0.000000 0.035684 0.000000
# 6 0.000000 0.000000 0.000000 0.081325 0.000000 0.198874
#
#
# Mechanical properties :
#
#
# Convention : Reuss Voigt Hill
#
# Bulk Modulus (GPa) = 50.81372 54.12454 52.46913
# Shear Modulus (GPa) = 13.18216 24.84538 19.01377
#
# Velocity S-wave (km/s) = 2.60216 3.57243 3.12518
# Velocity P-wave (km/s) = 5.92703 6.69465 6.32250
#
# Compressibility (1/GPa) = 0.01967972
#
# Stress axis : x y z
#
# Youngs Moduli (GPa) = 88.15576 51.42322 87.64579
#
# Poissons Ratio (x) = 0.28317 0.18388
# Poissons Ratio (y) = 0.48545 0.32036
# Poissons Ratio (z) = 0.18495 0.18796
#
# Static dielectric constant tensor:
#      x y z
#    x 4.009400 0.000000 -0.032420 
#    y 0.000000 3.357830 0.000000 
#    z -0.032420 0.000000 3.425120 
# 
# 
# High freq. dielectric constant tensor:
#      x y z
#    x 1.781410 0.000000 -0.008020 
#    y 0.000000 1.724240 0.000000 
#    z -0.008020 0.000000 1.752180 
# 
# From -- ./inp_files/24309.got.cif
#   From: 2010.03.12/outbox.cif.g09.slc.cpg/sg5_13_cif.got.tgz:24309.got - 2010.03.31 09:47:26.
