data_PCOD8048822
_publ_section_title
;
Structure prediction by ZEFSAII (Michael W. Deem and Ramdas Pophale) SiO2 
 PCOD8048822
Probable space group: C 2
;
_chemical_formula_sum "Si O2"
_cell_formula_units_Z 30
_cell_length_a 15.602848
_cell_length_b 7.938818
_cell_length_c 29.403767
_cell_angle_alpha 90.000000
_cell_angle_beta 154.321775
_cell_angle_gamma 90.000000
_cell_volume 1578.221756
_symmetry_space_group_name_H-M "C 2"
_symmetry_group_IT_number 5
_symmetry_cell_setting 'monoclinic'
loop_
_space_group_symop_operation_xyz
x,y,z
-x,y,-z
1/2+x,1/2+y,z
1/2-x,1/2+y,-z
loop_
_atom_site_type_symbol
_atom_site_label
_atom_site_fract_x
_atom_site_fract_y
_atom_site_fract_z
Si Si1 0.873141 0.240120 0.896455
Si Si2 0.277522 0.798818 0.473245
Si Si3 0.000000 0.742830 0.500000
Si Si4 0.130180 0.612704 0.105573
Si Si5 0.736850 0.427644 0.208066
Si Si6 0.001367 0.920245 0.731316
Si Si7 0.171902 0.461370 0.644214
Si Si8 0.182179 0.419231 0.407793
O O1 0.944115 0.426741 0.911753
O O2 0.641772 0.255585 0.799503
O O3 0.890369 0.087629 0.869573
O O4 0.000000 0.185353 0.000000
O O5 0.126459 0.928479 0.376358
O O6 0.219998 0.613431 0.432853
O O7 0.261431 0.820209 0.519381
O O8 0.496020 0.826639 0.557708
O O9 0.910526 0.636058 0.415434
O O10 0.817373 0.852815 0.431308
O O11 0.115964 0.755489 0.138088
O O12 0.361014 0.587939 0.200579
O O13 0.000000 0.669861 0.000000
O O14 0.758397 0.472483 0.270862
O O15 0.949525 0.401434 0.285777
O O16 0.858999 0.898432 0.705846
#
# Coordination Sequence:
#
# PCOD8048822 Si02
#       8
#     4   4   2   4   4   4   4   4
#     4   9  20  38  65  83 111 150 201 245 290 345
#     4  11  22  37  58  83 119 155 199 229 291 352
#     4  12  24  36  54  82 130 146 200 236 282 344
#     4   9  20  37  65  85 109 152 205 241 293 348
#     4  11  21  38  61  86 117 154 197 235 302 344
#     4  10  19  39  59  78 120 152 189 241 291 336
#     4  11  24  37  56  88 121 158 183 242 289 348
#     4  11  24  36  56  88 113 161 191 240 284 359
#
# _framework density 19.008735000000001
#
# number of rings (size 3 to 8) (size 9 to 14) (size 15 to 20)
#    0.800    0.800    2.667    2.800    5.600    0.000 
#    0.000    1.333    0.000    0.000    0.000    0.000 
#    0.000    0.000    0.000    0.000    0.000    0.000 
#
# Total GULP energy -185848.653451 kJ/mol
# GULP energy per Si atom -12389.910230 kJ/mol
# Density = 1.896547 g / cm^3
# Si number density = 19.008735 Si / 1000 Ang^3
#
#
#
# Elastic Constant Matrix: (Units=GPa)
#
#
# Indices 1 2 3 4 5 6 
#
# 1 58.3624 26.2061 13.0749 0.0001 -10.3011 -0.0007
# 2 26.2061 98.3539 41.5185 0.0001 -25.6214 0.0000
# 3 13.0749 41.5185 96.2237 -0.0002 -31.6362 0.0017
# 4 0.0001 0.0001 -0.0002 23.0782 0.0003 -0.1817
# 5 -10.3011 -25.6214 -31.6362 0.0003 25.3063 -0.0003
# 6 -0.0007 0.0000 0.0017 -0.1817 -0.0003 21.5763
#
#
#
# Elastic Compliance Matrix: (Units=1/GPa)
#
#
# Indices 1 2 3 4 5 6 
#
# 1 0.019736 -0.004387 0.000666 0.000000 0.004424 0.000001
# 2 -0.004387 0.015095 -0.002512 0.000000 0.010357 0.000000
# 3 0.000666 -0.002512 0.018063 0.000000 0.020309 -0.000001
# 4 0.000000 0.000000 0.000000 0.043334 -0.000001 0.000365
# 5 0.004424 0.010357 0.020309 -0.000001 0.077191 0.000000
# 6 0.000001 0.000000 -0.000001 0.000365 0.000000 0.046350
#
#
# Mechanical properties :
#
#
# Convention : Reuss Voigt Hill
#
# Bulk Modulus (GPa) = 24.73588 46.05989 35.39788
# Shear Modulus (GPa) = 20.34915 25.46820 22.90867
#
# Velocity S-wave (km/s) = 3.27542 3.66432 3.47532
# Velocity P-wave (km/s) = 5.22931 6.49511 5.89628
#
# Compressibility (1/GPa) = 0.04042711
#
# Stress axis : x y z
#
# Youngs Moduli (GPa) = 50.66892 66.24900 55.36206
#
# Poissons Ratio (x) = 0.29064 -0.03686
# Poissons Ratio (y) = 0.22229 0.13906
# Poissons Ratio (z) = -0.03374 0.16641
#
# Static dielectric constant tensor:
#      x y z
#    x 1.620200 0.000000 0.585680 
#    y 0.000000 3.464670 0.000000 
#    z 0.585680 0.000000 3.500280 
# 
# 
# High freq. dielectric constant tensor:
#      x y z
#    x 1.704530 0.000000 -0.005140 
#    y 0.000000 1.741880 0.000000 
#    z -0.005140 0.000000 1.752660 
# 
# From -- ./inp_files/70574.got.cif
#   From: 2010.03.12/outbox.cif.g09.slc.cpg/sg5_36_cif.got.tgz:70574.got - 2010.03.31 09:47:26.
