data_PCOD8048054
_publ_section_title
;
Structure prediction by ZEFSAII (Michael W. Deem and Ramdas Pophale) SiO2 
 PCOD8048054
Probable space group: C 2
;
_chemical_formula_sum "Si O2"
_cell_formula_units_Z 30
_cell_length_a 15.124307
_cell_length_b 12.010579
_cell_length_c 11.618908
_cell_angle_alpha 90.000000
_cell_angle_beta 52.189690
_cell_angle_gamma 90.000000
_cell_volume 1667.463789
_symmetry_space_group_name_H-M "C 2"
_symmetry_group_IT_number 5
_symmetry_cell_setting 'monoclinic'
loop_
_space_group_symop_operation_xyz
x,y,z
-x,y,-z
1/2+x,1/2+y,z
1/2-x,1/2+y,-z
loop_
_atom_site_type_symbol
_atom_site_label
_atom_site_fract_x
_atom_site_fract_y
_atom_site_fract_z
Si Si1 0.902770 0.024700 0.661119
Si Si2 0.066615 0.302973 0.834957
Si Si3 0.300949 0.378661 0.386448
Si Si4 0.082845 0.479868 0.636106
Si Si5 0.754111 0.639150 0.373815
Si Si6 0.827396 0.807598 0.623606
Si Si7 0.500000 0.113848 0.500000
Si Si8 0.934380 0.084303 0.287587
O O1 0.791162 0.090975 0.711219
O O2 0.000000 0.066067 0.500000
O O3 0.944481 0.056313 0.754355
O O4 0.885876 0.891653 0.666261
O O5 0.029487 0.383743 0.759151
O O6 0.197829 0.302171 0.758041
O O7 0.035737 0.176016 0.830355
O O8 0.000000 0.342450 0.000000
O O9 0.175824 0.425471 0.479895
O O10 0.299073 0.264100 0.317129
O O11 0.341050 0.359323 0.485814
O O12 0.385847 0.471189 0.267576
O O13 0.137592 0.569217 0.677817
O O14 0.994109 0.537913 0.620335
O O15 0.660045 0.633538 0.549404
O O16 0.887185 0.688015 0.585395
#
# Coordination Sequence:
#
# PCOD8048054 Si02
#       8
#     4   4   4   4   4   4   2   4
#     4  10  17  27  52  84 112 135 167 220 280 335
#     4  11  23  41  56  70 111 164 193 205 258 348
#     4  10  16  31  51  79 115 133 171 227 287 334
#     4  10  20  31  51  86 110 142 176 225 286 323
#     4  10  16  30  52  82 115 135 166 227 293 326
#     4  11  17  33  55  85 111 146 173 217 287 334
#     4  12  20  30  58  94 118 124 174 256 292 310
#     4  10  18  31  51  81 103 139 187 222 268 321
#
# _framework density 17.991395000000001
#
# number of rings (size 3 to 8) (size 9 to 14) (size 15 to 20)
#    0.000    1.600   10.000    0.800    0.000    1.067 
#    0.000    1.333    0.000    0.800    0.000    0.000 
#    0.000    0.000    0.000    0.000    0.000    0.000 
#
# Total GULP energy -185925.276136 kJ/mol
# GULP energy per Si atom -12395.018409 kJ/mol
# Density = 1.795045 g / cm^3
# Si number density = 17.991395 Si / 1000 Ang^3
#
#
#
# Elastic Constant Matrix: (Units=GPa)
#
#
# Indices 1 2 3 4 5 6 
#
# 1 81.6041 39.5901 22.1756 0.0000 1.4759 0.0000
# 2 39.5901 132.5679 21.6885 0.0000 5.1480 0.0000
# 3 22.1756 21.6885 43.4023 0.0000 1.8085 0.0000
# 4 0.0000 0.0000 0.0000 12.0398 0.0000 0.6387
# 5 1.4759 5.1480 1.8085 0.0000 9.0506 0.0000
# 6 0.0000 0.0000 0.0000 0.6387 0.0000 41.8925
#
#
#
# Elastic Compliance Matrix: (Units=1/GPa)
#
#
# Indices 1 2 3 4 5 6 
#
# 1 0.015729 -0.003711 -0.006215 0.000000 0.000788 0.000000
# 2 -0.003711 0.009228 -0.002543 0.000000 -0.004136 0.000000
# 3 -0.006215 -0.002543 0.027614 0.000000 -0.003058 0.000000
# 4 0.000000 0.000000 0.000000 0.083125 0.000000 -0.001267
# 5 0.000788 -0.004136 -0.003058 0.000000 0.113324 0.000000
# 6 0.000000 0.000000 0.000000 -0.001267 0.000000 0.023890
#
#
# Mechanical properties :
#
#
# Convention : Reuss Voigt Hill
#
# Bulk Modulus (GPa) = 36.18829 47.16475 41.67652
# Shear Modulus (GPa) = 16.28343 24.20459 20.24401
#
# Velocity S-wave (km/s) = 3.01170 3.67187 3.35805
# Velocity P-wave (km/s) = 5.67905 6.65199 6.18468
#
# Compressibility (1/GPa) = 0.02763325
#
# Stress axis : x y z
#
# Youngs Moduli (GPa) = 63.57508 108.36278 36.21378
#
# Poissons Ratio (x) = 0.40216 0.22507
# Poissons Ratio (y) = 0.23594 0.09209
# Poissons Ratio (z) = 0.39512 0.27556
#
# Static dielectric constant tensor:
#      x y z
#    x 3.522830 0.000000 -0.053350 
#    y 0.000000 3.626390 0.000000 
#    z -0.053350 0.000000 2.592460 
# 
# 
# High freq. dielectric constant tensor:
#      x y z
#    x 1.703730 0.000000 -0.008520 
#    y 0.000000 1.717850 0.000000 
#    z -0.008520 0.000000 1.607420 
# 
# From -- ./inp_files/42443.got.cif
#   From: 2010.03.12/outbox.cif.g09.slc.cpg/sg5_22_cif.got.tgz:42443.got - 2010.03.31 09:47:26.
