data_PCOD8048838
_publ_section_title
;
Structure prediction by ZEFSAII (Michael W. Deem and Ramdas Pophale) SiO2 
 PCOD8048838
Probable space group: C 2
;
_chemical_formula_sum "Si O2"
_cell_formula_units_Z 24
_cell_length_a 14.809529
_cell_length_b 8.359033
_cell_length_c 29.240999
_cell_angle_alpha 90.000000
_cell_angle_beta 161.535028
_cell_angle_gamma 90.000000
_cell_volume 1146.493539
_symmetry_space_group_name_H-M "C 2"
_symmetry_group_IT_number 5
_symmetry_cell_setting 'monoclinic'
loop_
_space_group_symop_operation_xyz
x,y,z
-x,y,-z
1/2+x,1/2+y,z
1/2-x,1/2+y,-z
loop_
_atom_site_type_symbol
_atom_site_label
_atom_site_fract_x
_atom_site_fract_y
_atom_site_fract_z
Si Si1 0.574939 0.602770 0.335174
Si Si2 0.713441 0.094406 0.656232
Si Si3 0.744261 0.226960 0.343690
Si Si4 0.771076 0.288245 0.853241
Si Si5 0.464500 0.592848 0.102558
Si Si6 0.864255 0.726039 0.809479
O O1 0.659519 0.686692 0.327194
O O2 0.404583 0.434173 0.253555
O O3 0.379196 0.722916 0.269391
O O4 0.878239 0.590964 0.506621
O O5 0.872412 0.169754 0.775909
O O6 0.789408 0.916666 0.676321
O O7 0.450419 0.170552 0.226709
O O8 0.768474 0.165821 0.303010
O O9 0.000000 0.172138 0.500000
O O10 0.931129 0.180376 0.892775
O O11 0.000000 0.355083 0.000000
O O12 0.525261 0.405929 0.135841
O O13 0.126702 0.609934 0.947089
#
# Coordination Sequence:
#
# PCOD8048838 Si02
#       6
#     4   4   4   4   4   4
#     4  10  21  39  66  89 115 162 209 242 301 361
#     4   9  20  39  62  87 120 158 205 245 296 368
#     4  10  19  39  63  87 119 163 203 241 298 365
#     4  11  21  40  65  88 121 163 202 247 301 364
#     4  11  24  40  59  93 125 156 204 250 302 358
#     4  11  24  39  62  93 122 159 203 250 302 356
#
# _framework density 20.933392000000001
#
# number of rings (size 3 to 8) (size 9 to 14) (size 15 to 20)
#    0.000    1.667    5.000    1.000    7.000    0.000 
#    3.000    0.000    3.667    0.000    0.000    0.000 
#    0.000    0.000    0.000    0.000    0.000    0.000 
#
# Total GULP energy -148663.582222 kJ/mol
# GULP energy per Si atom -12388.631852 kJ/mol
# Density = 2.088575 g / cm^3
# Si number density = 20.933392 Si / 1000 Ang^3
#
#
#
# Elastic Constant Matrix: (Units=GPa)
#
#
# Indices 1 2 3 4 5 6 
#
# 1 133.2550 23.9956 84.7234 0.0009 7.0362 0.0031
# 2 23.9956 30.1343 19.5386 0.0039 -2.5419 0.0015
# 3 84.7234 19.5386 170.8685 0.0325 -6.3381 0.0050
# 4 0.0009 0.0039 0.0325 23.5254 -0.0048 4.2957
# 5 7.0362 -2.5419 -6.3381 -0.0048 51.6406 -0.0016
# 6 0.0031 0.0015 0.0050 4.2957 -0.0016 23.2334
#
#
#
# Elastic Compliance Matrix: (Units=1/GPa)
#
#
# Indices 1 2 3 4 5 6 
#
# 1 0.012270 -0.006465 -0.005443 0.000008 -0.002658 -0.000002
# 2 -0.006465 0.039332 -0.001193 -0.000004 0.002671 -0.000001
# 3 -0.005443 -0.001193 0.008753 -0.000012 0.001757 0.000001
# 4 0.000008 -0.000004 -0.000012 0.043992 0.000001 -0.008134
# 5 -0.002658 0.002671 0.001757 0.000001 0.020074 0.000001
# 6 -0.000002 -0.000001 0.000001 -0.008134 0.000001 0.044545
#
#
# Mechanical properties :
#
#
# Convention : Reuss Voigt Hill
#
# Bulk Modulus (GPa) = 29.28078 65.64143 47.46110
# Shear Modulus (GPa) = 24.20697 33.41324 28.81010
#
# Velocity S-wave (km/s) = 3.40425 3.99954 3.71384
# Velocity P-wave (km/s) = 5.42861 7.26318 6.41185
#
# Compressibility (1/GPa) = 0.03415210
#
# Stress axis : x y z
#
# Youngs Moduli (GPa) = 81.50153 25.42483 114.24730
#
# Poissons Ratio (x) = 0.16438 0.62186
# Poissons Ratio (y) = 0.52693 0.13627
# Poissons Ratio (z) = 0.44362 0.03033
#
# Static dielectric constant tensor:
#      x y z
#    x 4.362270 0.000000 -0.089850 
#    y 0.000000 3.212740 -0.000010 
#    z -0.089850 -0.000010 4.071580 
# 
# 
# High freq. dielectric constant tensor:
#      x y z
#    x 1.840220 0.000000 0.005990 
#    y 0.000000 1.765200 0.000000 
#    z 0.005990 0.000000 1.838590 
# 
# From -- ./inp_files/71899.got.cif
#   From: 2010.03.12/outbox.cif.g09.slc.cpg/sg5_36_cif.got.tgz:71899.got - 2010.03.31 09:47:26.
