data_PCOD8048786
_publ_section_title
;
Structure prediction by ZEFSAII (Michael W. Deem and Ramdas Pophale) SiO2 
 PCOD8048786
Probable space group: C 2
;
_chemical_formula_sum "Si O2"
_cell_formula_units_Z 32
_cell_length_a 30.338701
_cell_length_b 10.328527
_cell_length_c 5.179227
_cell_angle_alpha 90.000000
_cell_angle_beta 100.505880
_cell_angle_gamma 90.000000
_cell_volume 1595.725470
_symmetry_space_group_name_H-M "C 2"
_symmetry_group_IT_number 5
_symmetry_cell_setting 'monoclinic'
loop_
_space_group_symop_operation_xyz
x,y,z
-x,y,-z
1/2+x,1/2+y,z
1/2-x,1/2+y,-z
loop_
_atom_site_type_symbol
_atom_site_label
_atom_site_fract_x
_atom_site_fract_y
_atom_site_fract_z
Si Si1 0.178396 0.231930 0.640175
Si Si2 0.108798 0.689613 0.606101
Si Si3 0.947787 0.436867 0.435803
Si Si4 0.635883 0.613988 0.095237
Si Si5 0.947324 0.275766 0.935925
Si Si6 0.723429 0.136935 0.230158
Si Si7 0.635064 0.312725 0.134136
Si Si8 0.305749 0.019797 0.300584
O O1 0.163650 0.192622 0.338065
O O2 0.231658 0.219917 0.725602
O O3 0.168289 0.383490 0.670707
O O4 0.152271 0.149920 0.826391
O O5 0.071896 0.578970 0.558598
O O6 0.104627 0.778775 0.349150
O O7 0.157746 0.630707 0.662320
O O8 0.104167 0.777811 0.855381
O O9 0.933596 0.373300 0.150186
O O10 0.000000 0.458156 0.500000
O O11 0.932927 0.343805 0.653730
O O12 0.645139 0.463987 0.148436
O O13 0.582827 0.647070 0.065837
O O14 0.000000 0.237629 0.000000
O O15 0.681991 0.236115 0.185100
O O16 0.724165 0.040940 0.476819
O O17 0.723982 0.039708 0.986672
#
# Coordination Sequence:
#
# PCOD8048786 Si02
#       8
#     4   4   4   4   4   4   4   4
#     4  12  25  37  63  85 115 153 201 254 286 356
#     4  10  19  38  60  81 115 154 189 238 289 353
#     4  10  20  36  64  94 120 148 193 253 300 347
#     4  12  24  41  59  90 117 163 202 242 293 366
#     4  10  21  38  62  91 124 154 192 251 304 346
#     4  10  23  38  57  81 114 151 190 249 298 340
#     4  10  23  39  58  81 121 158 193 238 294 352
#     4  10  21  39  56  83 108 147 195 237 296 340
#
# _framework density 20.053574999999999
#
# number of rings (size 3 to 8) (size 9 to 14) (size 15 to 20)
#    0.000    1.500    0.000    5.250    3.500    2.000 
#    0.000    1.250    0.000    0.000    0.000    0.000 
#    0.000    0.000    0.000    0.000    0.000    0.000 
#
# Total GULP energy -198446.191792 kJ/mol
# GULP energy per Si atom -12402.886987 kJ/mol
# Density = 2.000793 g / cm^3
# Si number density = 20.053575 Si / 1000 Ang^3
#
#
#
# Elastic Constant Matrix: (Units=GPa)
#
#
# Indices 1 2 3 4 5 6 
#
# 1 54.4395 23.1276 24.0483 0.0000 -6.3768 0.0000
# 2 23.1276 88.6735 27.8793 0.0000 -5.3740 0.0000
# 3 24.0483 27.8793 140.3973 0.0000 -15.1152 0.0000
# 4 0.0000 0.0000 0.0000 26.8174 0.0000 -3.8560
# 5 -6.3768 -5.3740 -15.1152 0.0000 22.7094 0.0000
# 6 0.0000 0.0000 0.0000 -3.8560 0.0000 25.9922
#
#
#
# Elastic Compliance Matrix: (Units=1/GPa)
#
#
# Indices 1 2 3 4 5 6 
#
# 1 0.021852 -0.004727 -0.002439 0.000000 0.003394 0.000000
# 2 -0.004727 0.013090 -0.001722 0.000000 0.000624 0.000000
# 3 -0.002439 -0.001722 0.008364 0.000000 0.004475 0.000000
# 4 0.000000 0.000000 0.000000 0.038102 0.000000 0.005653
# 5 0.003394 0.000624 0.004475 0.000000 0.048114 0.000000
# 6 0.000000 0.000000 0.000000 0.005653 0.000000 0.039312
#
#
# Mechanical properties :
#
#
# Convention : Reuss Voigt Hill
#
# Bulk Modulus (GPa) = 39.17071 48.18009 43.67540
# Shear Modulus (GPa) = 25.62532 29.00080 27.31306
#
# Velocity S-wave (km/s) = 3.57857 3.80697 3.69454
# Velocity P-wave (km/s) = 6.05395 6.58801 6.32662
#
# Compressibility (1/GPa) = 0.02552928
#
# Stress axis : x y z
#
# Youngs Moduli (GPa) = 45.76222 76.39697 119.55744
#
# Poissons Ratio (x) = 0.36112 0.29159
# Poissons Ratio (y) = 0.21631 0.20593
# Poissons Ratio (z) = 0.11161 0.13159
#
# Static dielectric constant tensor:
#      x y z
#    x 3.521600 0.000000 -0.099500 
#    y 0.000000 3.457460 0.000000 
#    z -0.099500 0.000000 4.284030 
# 
# 
# High freq. dielectric constant tensor:
#      x y z
#    x 1.771850 0.000000 -0.004600 
#    y 0.000000 1.772300 0.000000 
#    z -0.004600 0.000000 1.808450 
# 
# From -- ./inp_files/11238.got.cif
#   From: 2010.03.12/outbox.cif.g09.slc.cpg/sg5_6_cif.got.tgz:11238.got - 2010.03.31 09:47:26.
