data_PCOD8048200
_publ_section_title
;
Structure prediction by ZEFSAII (Michael W. Deem and Ramdas Pophale) SiO2 
 PCOD8048200
Probable space group: C 2
;
_chemical_formula_sum "Si O2"
_cell_formula_units_Z 30
_cell_length_a 26.388718
_cell_length_b 5.249407
_cell_length_c 16.686533
_cell_angle_alpha 90.000000
_cell_angle_beta 142.933664
_cell_angle_gamma 90.000000
_cell_volume 1393.234224
_symmetry_space_group_name_H-M "C 2"
_symmetry_group_IT_number 5
_symmetry_cell_setting 'monoclinic'
loop_
_space_group_symop_operation_xyz
x,y,z
-x,y,-z
1/2+x,1/2+y,z
1/2-x,1/2+y,-z
loop_
_atom_site_type_symbol
_atom_site_label
_atom_site_fract_x
_atom_site_fract_y
_atom_site_fract_z
Si Si1 0.331447 0.637480 0.173807
Si Si2 0.245994 0.139574 0.099820
Si Si3 0.733745 0.671290 0.429868
Si Si4 0.431144 0.612996 0.058318
Si Si5 0.000000 0.796169 0.000000
Si Si6 0.074728 0.464110 0.215138
Si Si7 0.896712 0.578043 0.573833
Si Si8 0.494972 0.560364 0.678459
O O1 0.301565 0.390608 0.185515
O O2 0.432251 0.625890 0.293178
O O3 0.304259 0.891337 0.187566
O O4 0.288783 0.642576 0.033663
O O5 0.169013 0.145674 0.064775
O O6 0.732365 0.436634 0.489461
O O7 0.637589 0.723470 0.279698
O O8 0.795614 0.603919 0.431854
O O9 0.452662 0.450727 0.008229
O O10 0.477787 0.881872 0.106931
O O11 0.465111 0.494933 0.184635
O O12 0.074716 0.633486 0.135404
O O13 0.100995 0.622587 0.326700
O O14 0.947138 0.801307 0.591563
O O15 0.930837 0.297849 0.596315
#
# Coordination Sequence:
#
# PCOD8048200 Si02
#       8
#     4   4   4   4   2   4   4   4
#     4   9  17  29  46  72  96 131 166 215 262 323
#     4   9  18  29  47  67  98 134 175 208 259 311
#     4  10  20  34  54  75 102 139 188 227 270 316
#     4  10  21  33  48  69 103 146 187 218 252 312
#     4  12  22  36  50  72 108 156 198 216 252 304
#     4  10  22  34  51  73 105 149 187 223 261 305
#     4  10  18  32  51  76 101 138 174 219 266 321
#     4  10  18  31  52  75 105 133 175 212 274 319
#
# _framework density 21.532630999999999
#
# number of rings (size 3 to 8) (size 9 to 14) (size 15 to 20)
#    0.000    2.133    1.333    3.600    3.733    3.200 
#    0.000    0.000    0.000    0.000    0.000    0.000 
#    0.000    1.067    1.333    0.133    2.400    0.000 
#
# Total GULP energy -185887.373090 kJ/mol
# GULP energy per Si atom -12392.491539 kJ/mol
# Density = 2.148362 g / cm^3
# Si number density = 21.532631 Si / 1000 Ang^3
#
#
#
# Elastic Constant Matrix: (Units=GPa)
#
#
# Indices 1 2 3 4 5 6 
#
# 1 112.3171 49.3766 42.8749 -0.0012 49.2955 -0.0011
# 2 49.3766 144.5930 26.7637 -0.0053 26.1215 -0.0060
# 3 42.8749 26.7637 32.9789 -0.0009 28.0636 -0.0003
# 4 -0.0012 -0.0053 -0.0009 30.9694 -0.0011 13.9348
# 5 49.2955 26.1215 28.0636 -0.0011 43.5319 -0.0012
# 6 -0.0011 -0.0060 -0.0003 13.9348 -0.0012 28.3730
#
#
#
# Elastic Compliance Matrix: (Units=1/GPa)
#
#
# Indices 1 2 3 4 5 6 
#
# 1 0.021291 -0.002159 -0.014430 0.000000 -0.013512 0.000000
# 2 -0.002159 0.008395 -0.003987 0.000001 -0.000023 0.000001
# 3 -0.014430 -0.003987 0.080584 0.000001 -0.033217 -0.000002
# 4 0.000000 0.000001 0.000001 0.041450 0.000000 -0.020357
# 5 -0.013512 -0.000023 -0.033217 0.000000 0.059701 0.000002
# 6 0.000000 0.000001 -0.000002 -0.020357 0.000002 0.045243
#
#
# Mechanical properties :
#
#
# Convention : Reuss Voigt Hill
#
# Bulk Modulus (GPa) = 14.46778 58.65770 36.56274
# Shear Modulus (GPa) = 15.58336 31.96647 23.77491
#
# Velocity S-wave (km/s) = 2.69310 3.85718 3.32646
# Velocity P-wave (km/s) = 4.05018 6.86568 5.63656
#
# Compressibility (1/GPa) = 0.06911910
#
# Stress axis : x y z
#
# Youngs Moduli (GPa) = 46.96791 119.11480 12.40935
#
# Poissons Ratio (x) = 0.25713 0.17906
# Poissons Ratio (y) = 0.10139 0.04948
# Poissons Ratio (z) = 0.67773 0.47497
#
# Static dielectric constant tensor:
#      x y z
#    x 4.004690 0.000000 0.695730 
#    y 0.000000 3.967630 0.000000 
#    z 0.695730 0.000000 3.919670 
# 
# 
# High freq. dielectric constant tensor:
#      x y z
#    x 1.823790 0.000000 0.048950 
#    y 0.000000 1.857790 0.000000 
#    z 0.048950 0.000000 1.805120 
# 
# From -- ./inp_files/63177.got.cif
#   From: 2010.03.12/outbox.cif.g09.slc.cpg/sg5_32_cif.got.tgz:63177.got - 2010.03.31 09:47:26.
