data_PCOD8048375
_publ_section_title
;
Structure prediction by ZEFSAII (Michael W. Deem and Ramdas Pophale) SiO2 
 PCOD8048375
Probable space group: C 2
;
_chemical_formula_sum "Si O2"
_cell_formula_units_Z 28
_cell_length_a 14.316762
_cell_length_b 6.984821
_cell_length_c 15.326587
_cell_angle_alpha 90.000000
_cell_angle_beta 48.000651
_cell_angle_gamma 90.000000
_cell_volume 1138.999261
_symmetry_space_group_name_H-M "C 2"
_symmetry_group_IT_number 5
_symmetry_cell_setting 'monoclinic'
loop_
_space_group_symop_operation_xyz
x,y,z
-x,y,-z
1/2+x,1/2+y,z
1/2-x,1/2+y,-z
loop_
_atom_site_type_symbol
_atom_site_label
_atom_site_fract_x
_atom_site_fract_y
_atom_site_fract_z
Si Si1 0.093781 0.959570 0.013925
Si Si2 0.125732 0.509218 0.964516
Si Si3 0.882192 0.420583 0.368083
Si Si4 0.132819 0.082810 0.275419
Si Si5 0.707504 0.732871 0.412813
Si Si6 0.862962 0.446366 0.849529
Si Si7 0.432912 0.516087 0.279300
O O1 0.111973 0.732515 0.995021
O O2 0.232048 0.056173 0.909777
O O3 0.045138 0.007659 0.139543
O O4 0.000000 0.041251 0.000000
O O5 0.141807 0.395348 0.044767
O O6 0.239694 0.466210 0.825569
O O7 0.000000 0.427712 0.000000
O O8 0.757189 0.546072 0.433866
O O9 0.888100 0.351654 0.465845
O O10 0.871924 0.228970 0.315412
O O11 0.005522 0.549080 0.262286
O O12 0.134254 0.161722 0.372967
O O13 0.127355 0.252949 0.209982
O O14 0.002284 0.971564 0.331057
O O15 0.827459 0.864795 0.315989
#
# Coordination Sequence:
#
# PCOD8048375 Si02
#       7
#     4   4   4   4   4   4   4
#     4  10  20  38  67 101 142 187 228 295 373 443
#     4  10  18  36  65 100 141 184 230 289 369 440
#     4  11  25  44  73 102 141 191 248 310 363 443
#     4  10  23  40  70 104 140 192 237 305 365 436
#     4  12  24  50  74 100 144 196 254 303 373 439
#     4  10  20  37  64 103 140 176 237 289 360 438
#     4  11  22  44  72 102 143 191 241 306 370 444
#
# _framework density 24.582982000000001
#
# number of rings (size 3 to 8) (size 9 to 14) (size 15 to 20)
#    0.000    1.429    2.857    4.286    0.000    2.286 
#    0.000   12.857    9.429    0.000    0.000    0.000 
#    0.000    0.000    0.000    0.000    0.000    0.000 
#
# Total GULP energy -173455.853711 kJ/mol
# GULP energy per Si atom -12389.703836 kJ/mol
# Density = 2.452703 g / cm^3
# Si number density = 24.582982 Si / 1000 Ang^3
#
#
#
# Elastic Constant Matrix: (Units=GPa)
#
#
# Indices 1 2 3 4 5 6 
#
# 1 148.2723 -0.4254 36.0551 0.0000 16.6760 0.0000
# 2 -0.4254 45.7430 11.9342 0.0001 6.1551 0.0000
# 3 36.0551 11.9342 129.7647 0.0000 5.8583 0.0000
# 4 0.0000 0.0001 0.0000 32.6541 0.0000 9.5665
# 5 16.6760 6.1551 5.8583 0.0000 49.4835 0.0000
# 6 0.0000 0.0000 0.0000 9.5665 0.0000 23.0341
#
#
#
# Elastic Compliance Matrix: (Units=1/GPa)
#
#
# Indices 1 2 3 4 5 6 
#
# 1 0.007520 0.000933 -0.002067 0.000000 -0.002406 0.000000
# 2 0.000933 0.022841 -0.002229 0.000000 -0.002892 0.000000
# 3 -0.002067 -0.002229 0.008487 0.000000 -0.000031 0.000000
# 4 0.000000 0.000000 0.000000 0.034866 0.000000 -0.014481
# 5 -0.002406 -0.002892 -0.000031 0.000000 0.021383 0.000000
# 6 0.000000 0.000000 0.000000 -0.014481 0.000000 0.049428
#
#
# Mechanical properties :
#
#
# Convention : Reuss Voigt Hill
#
# Bulk Modulus (GPa) = 31.13183 46.54532 38.83857
# Shear Modulus (GPa) = 30.87217 39.44874 35.16046
#
# Velocity S-wave (km/s) = 3.54762 4.01024 3.78600
# Velocity P-wave (km/s) = 5.42884 6.35750 5.91143
#
# Compressibility (1/GPa) = 0.03212147
#
# Stress axis : x y z
#
# Youngs Moduli (GPa) = 132.97641 43.78166 117.82877
#
# Poissons Ratio (x) = -0.04084 0.24351
# Poissons Ratio (y) = -0.12404 0.26267
# Poissons Ratio (z) = 0.27482 0.09760
#
# Static dielectric constant tensor:
#      x y z
#    x 4.983230 0.000000 -0.599700 
#    y 0.000000 4.123280 0.000000 
#    z -0.599700 0.000000 4.994530 
# 
# 
# High freq. dielectric constant tensor:
#      x y z
#    x 1.982470 0.000000 -0.017900 
#    y 0.000000 1.950650 0.000000 
#    z -0.017900 0.000000 1.987920 
# 
# From -- ./inp_files/54130.got.cif
#   From: 2010.03.12/outbox.cif.g09.slc.cpg/sg5_28_cif.got.tgz:54130.got - 2010.03.31 09:47:26.
