data_PCOD8048683
_publ_section_title
;
Structure prediction by ZEFSAII (Michael W. Deem and Ramdas Pophale) SiO2 
 PCOD8048683
Probable space group: C 2
;
_chemical_formula_sum "Si O2"
_cell_formula_units_Z 28
_cell_length_a 9.405932
_cell_length_b 13.080941
_cell_length_c 18.570771
_cell_angle_alpha 90.000000
_cell_angle_beta 34.605801
_cell_angle_gamma 90.000000
_cell_volume 1297.667222
_symmetry_space_group_name_H-M "C 2"
_symmetry_group_IT_number 5
_symmetry_cell_setting 'monoclinic'
loop_
_space_group_symop_operation_xyz
x,y,z
-x,y,-z
1/2+x,1/2+y,z
1/2-x,1/2+y,-z
loop_
_atom_site_type_symbol
_atom_site_label
_atom_site_fract_x
_atom_site_fract_y
_atom_site_fract_z
Si Si1 0.628106 0.635410 0.639813
Si Si2 0.980168 0.355415 0.318835
Si Si3 0.565259 0.841085 0.119574
Si Si4 0.203985 0.502876 0.856851
Si Si5 0.246742 0.063858 0.439522
Si Si6 0.724391 0.634359 0.762155
Si Si7 0.513974 0.421951 0.846465
O O1 0.654886 0.751540 0.600668
O O2 0.336917 0.605934 0.774551
O O3 0.720523 0.563493 0.536956
O O4 0.775886 0.624684 0.653900
O O5 0.211833 0.373612 0.275722
O O6 0.097715 0.341198 0.190923
O O7 0.779165 0.445783 0.404098
O O8 0.420584 0.737788 0.155156
O O9 0.408893 0.941239 0.162677
O O10 0.838782 0.851683 0.970020
O O11 0.399431 0.426342 0.814294
O O12 0.000000 0.538110 0.000000
O O13 0.500963 0.127721 0.314195
O O14 0.000000 0.106376 0.500000
O O15 0.551068 0.539069 0.860421
#
# Coordination Sequence:
#
# PCOD8048683 Si02
#       7
#     4   4   4   4   4   4   4
#     4  10  21  38  60  80 111 155 190 233 287 346
#     4  10  22  37  57  84 111 149 197 236 285 343
#     4  10  19  36  61  85 117 153 187 237 290 343
#     4   9  19  35  56  85 116 149 189 232 284 342
#     4  11  23  39  57  83 115 147 195 249 286 330
#     4   9  21  39  59  84 115 156 196 228 286 353
#     4   9  19  36  56  85 118 147 186 237 288 345
#
# _framework density 21.577182000000001
#
# number of rings (size 3 to 8) (size 9 to 14) (size 15 to 20)
#    0.000    2.286    0.000    1.714    0.000    9.143 
#    0.000   11.429    0.000    0.000    0.000    0.000 
#    0.000    0.000    0.000    0.000    0.000    0.000 
#
# Total GULP energy -173521.530161 kJ/mol
# GULP energy per Si atom -12394.395011 kJ/mol
# Density = 2.152807 g / cm^3
# Si number density = 21.577182 Si / 1000 Ang^3
#
#
#
# Elastic Constant Matrix: (Units=GPa)
#
#
# Indices 1 2 3 4 5 6 
#
# 1 73.9274 13.4451 24.0658 -0.0035 -28.6997 0.0022
# 2 13.4451 105.1371 35.5800 -0.0065 -7.2881 0.0028
# 3 24.0658 35.5800 65.7447 -0.0149 -10.9313 0.0046
# 4 -0.0035 -0.0065 -0.0149 29.7756 0.0033 0.4952
# 5 -28.6997 -7.2881 -10.9313 0.0033 35.6146 -0.0024
# 6 0.0022 0.0028 0.0046 0.4952 -0.0024 20.6252
#
#
#
# Elastic Compliance Matrix: (Units=1/GPa)
#
#
# Indices 1 2 3 4 5 6 
#
# 1 0.021247 0.000144 -0.005273 -0.000002 0.015533 0.000001
# 2 0.000144 0.011652 -0.006263 -0.000001 0.000578 0.000000
# 3 -0.005273 -0.006263 0.020665 0.000008 0.000812 -0.000003
# 4 -0.000002 -0.000001 0.000008 0.033598 -0.000002 -0.000807
# 5 0.015533 0.000578 0.000812 -0.000002 0.040963 0.000003
# 6 0.000001 0.000000 -0.000003 -0.000807 0.000003 0.048504
#
#
# Mechanical properties :
#
#
# Convention : Reuss Voigt Hill
#
# Bulk Modulus (GPa) = 32.48709 43.44344 37.96526
# Shear Modulus (GPa) = 23.84671 28.65098 26.24885
#
# Velocity S-wave (km/s) = 3.32803 3.64790 3.49163
# Velocity P-wave (km/s) = 5.46412 6.15797 5.82139
#
# Compressibility (1/GPa) = 0.03078146
#
# Stress axis : x y z
#
# Youngs Moduli (GPa) = 47.06503 85.81887 48.39161
#
# Poissons Ratio (x) = -0.01236 0.25516
# Poissons Ratio (y) = -0.00678 0.30306
# Poissons Ratio (z) = 0.24817 0.53746
#
# Static dielectric constant tensor:
#      x y z
#    x 3.922930 -0.000010 -0.177930 
#    y -0.000010 3.862750 0.000010 
#    z -0.177930 0.000010 3.705280 
# 
# 
# High freq. dielectric constant tensor:
#      x y z
#    x 1.848290 0.000000 -0.019280 
#    y 0.000000 1.837140 0.000000 
#    z -0.019280 0.000000 1.834130 
# 
# From -- ./inp_files/59708.got.cif
#   From: 2010.03.12/outbox.cif.g09.slc.cpg/sg5_30_cif.got.tgz:59708.got - 2010.03.31 09:47:26.
