data_PCOD8048836
_publ_section_title
;
Structure prediction by ZEFSAII (Michael W. Deem and Ramdas Pophale) SiO2 
 PCOD8048836
Probable space group: C 2
;
_chemical_formula_sum "Si O2"
_cell_formula_units_Z 22
_cell_length_a 7.582551
_cell_length_b 10.428055
_cell_length_c 14.661915
_cell_angle_alpha 90.000000
_cell_angle_beta 122.518015
_cell_angle_gamma 90.000000
_cell_volume 977.578225
_symmetry_space_group_name_H-M "C 2"
_symmetry_group_IT_number 5
_symmetry_cell_setting 'monoclinic'
loop_
_space_group_symop_operation_xyz
x,y,z
-x,y,-z
1/2+x,1/2+y,z
1/2-x,1/2+y,-z
loop_
_atom_site_type_symbol
_atom_site_label
_atom_site_fract_x
_atom_site_fract_y
_atom_site_fract_z
Si Si1 0.291365 0.089550 0.228800
Si Si2 0.500000 0.527068 0.000000
Si Si3 0.053888 0.815738 0.618933
Si Si4 0.339440 0.319385 0.730857
Si Si5 0.280762 0.055234 0.756770
Si Si6 0.265696 0.895458 0.926715
O O1 0.291222 0.201816 0.304326
O O2 0.500997 0.067197 0.232782
O O3 0.105058 0.117015 0.105354
O O4 0.244816 0.956064 0.265728
O O5 0.321850 0.438526 0.998649
O O6 0.000000 0.791496 0.500000
O O7 0.842974 0.807973 0.621589
O O8 0.146478 0.957461 0.659201
O O9 0.197188 0.203726 0.732045
O O10 0.588744 0.302356 0.832063
O O11 0.293692 0.016465 0.866040
O O12 0.500000 0.833574 0.000000
#
# Coordination Sequence:
#
# PCOD8048836 Si02
#       6
#     4   2   4   4   4   4
#     4  10  21  41  63  97 129 168 220 262 322 399
#     4  10  20  38  66 100 136 176 212 258 326 402
#     4  10  23  43  65  90 127 172 221 276 330 381
#     4   9  22  40  61  94 127 162 225 266 317 394
#     4  10  21  42  60  94 129 169 216 268 327 380
#     4  10  19  39  62  93 136 178 211 262 318 385
#
# _framework density 22.504591999999999
#
# number of rings (size 3 to 8) (size 9 to 14) (size 15 to 20)
#    0.000    2.182    1.818    0.000    0.000    7.273 
#   21.273    0.909    0.000    0.000    0.000    0.000 
#    0.000    0.000    0.000    0.000    0.000    0.000 
#
# Total GULP energy -136269.354871 kJ/mol
# GULP energy per Si atom -12388.123170 kJ/mol
# Density = 2.245337 g / cm^3
# Si number density = 22.504592 Si / 1000 Ang^3
#
#
#
# Elastic Constant Matrix: (Units=GPa)
#
#
# Indices 1 2 3 4 5 6 
#
# 1 92.2835 28.9669 30.7667 0.0000 -15.1180 0.0000
# 2 28.9669 157.5711 66.0747 0.0000 -9.1001 0.0000
# 3 30.7667 66.0747 126.6487 0.0000 -34.6588 0.0000
# 4 0.0000 0.0000 0.0000 24.8517 0.0000 -1.9338
# 5 -15.1180 -9.1001 -34.6588 0.0000 32.5526 0.0000
# 6 0.0000 0.0000 0.0000 -1.9338 0.0000 27.3579
#
#
#
# Elastic Compliance Matrix: (Units=1/GPa)
#
#
# Indices 1 2 3 4 5 6 
#
# 1 0.012369 -0.001605 -0.001013 0.000000 0.004217 0.000000
# 2 -0.001605 0.008569 -0.005122 0.000000 -0.003803 0.000000
# 3 -0.001013 -0.005122 0.014526 0.000000 0.013563 0.000000
# 4 0.000000 0.000000 0.000000 0.040461 0.000000 0.002860
# 5 0.004217 -0.003803 0.013563 0.000000 0.046056 0.000000
# 6 0.000000 0.000000 0.000000 0.002860 0.000000 0.036755
#
#
# Mechanical properties :
#
#
# Convention : Reuss Voigt Hill
#
# Bulk Modulus (GPa) = 50.04105 69.79110 59.91607
# Shear Modulus (GPa) = 27.64312 33.66545 30.65428
#
# Velocity S-wave (km/s) = 3.50856 3.87193 3.69471
# Velocity P-wave (km/s) = 6.22073 7.14621 6.69947
#
# Compressibility (1/GPa) = 0.01998359
#
# Stress axis : x y z
#
# Youngs Moduli (GPa) = 80.84942 116.69339 68.84328
#
# Poissons Ratio (x) = 0.18734 0.06975
# Poissons Ratio (y) = 0.12979 0.35258
# Poissons Ratio (z) = 0.08192 0.59765
#
# Static dielectric constant tensor:
#      x y z
#    x 4.195730 0.000000 -0.112430 
#    y 0.000000 4.723010 0.000000 
#    z -0.112430 0.000000 3.893350 
# 
# 
# High freq. dielectric constant tensor:
#      x y z
#    x 1.889550 0.000000 -0.021610 
#    y 0.000000 1.901730 0.000000 
#    z -0.021610 0.000000 1.859990 
# 
# From -- ./inp_files/50197.got.cif
#   From: 2010.03.12/outbox.cif.g09.slc.cpg/sg5_26_cif.got.tgz:50197.got - 2010.03.31 09:47:26.
