data_PCOD8048727
_publ_section_title
;
Structure prediction by ZEFSAII (Michael W. Deem and Ramdas Pophale) SiO2 
 PCOD8048727
Probable space group: C 2
;
_chemical_formula_sum "Si O2"
_cell_formula_units_Z 32
_cell_length_a 14.780036
_cell_length_b 8.403574
_cell_length_c 15.129078
_cell_angle_alpha 90.000000
_cell_angle_beta 55.780562
_cell_angle_gamma 90.000000
_cell_volume 1553.816168
_symmetry_space_group_name_H-M "C 2"
_symmetry_group_IT_number 5
_symmetry_cell_setting 'monoclinic'
loop_
_space_group_symop_operation_xyz
x,y,z
-x,y,-z
1/2+x,1/2+y,z
1/2-x,1/2+y,-z
loop_
_atom_site_type_symbol
_atom_site_label
_atom_site_fract_x
_atom_site_fract_y
_atom_site_fract_z
Si Si1 0.230127 0.504270 0.764627
Si Si2 0.068582 0.533606 0.708286
Si Si3 0.776207 0.159979 0.262178
Si Si4 0.786594 0.023979 0.916922
Si Si5 0.014392 0.998989 0.399162
Si Si6 0.015968 0.165723 0.762156
Si Si7 0.906235 0.660201 0.491432
Si Si8 0.665821 0.155780 0.145467
O O1 0.164004 0.595911 0.723557
O O2 0.178451 0.329828 0.795490
O O3 0.221278 0.590121 0.865602
O O4 0.357330 0.467359 0.678713
O O5 0.030742 0.354591 0.747841
O O6 0.115836 0.553384 0.583179
O O7 0.964721 0.647389 0.778676
O O8 0.890519 0.078200 0.229387
O O9 0.703226 0.171473 0.390629
O O10 0.714426 0.084633 0.211454
O O11 0.807334 0.838119 0.888910
O O12 0.899004 0.120917 0.868024
O O13 0.712100 0.043611 0.043291
O O14 0.000000 0.092135 0.500000
O O15 0.948260 0.833686 0.438531
O O16 0.969457 0.103930 0.345122
O O17 0.000000 0.577596 0.500000
#
# Coordination Sequence:
#
# PCOD8048727 Si02
#       8
#     4   4   4   4   4   4   4   4
#     4   9  19  37  58  84 115 156 196 235 291 355
#     4  11  22  36  59  91 121 151 196 246 291 351
#     4  10  20  37  60  86 117 163 196 235 292 362
#     4  10  22  43  65  85 114 156 196 248 296 353
#     4  10  19  37  59  79 118 164 201 230 283 349
#     4  10  23  37  56  90 123 147 201 243 295 345
#     4  11  19  36  63  82 120 163 203 228 287 348
#     4  11  22  42  67  83 115 155 199 242 301 353
#
# _framework density 20.594457999999999
#
# number of rings (size 3 to 8) (size 9 to 14) (size 15 to 20)
#    0.000    1.750    3.750    2.250    1.750    1.500 
#    0.000   12.500    0.000    0.000    0.000    0.000 
#    0.000    0.000    0.000    0.000    0.000    0.000 
#
# Total GULP energy -198239.155552 kJ/mol
# GULP energy per Si atom -12389.947222 kJ/mol
# Density = 2.054758 g / cm^3
# Si number density = 20.594458 Si / 1000 Ang^3
#
#
#
# Elastic Constant Matrix: (Units=GPa)
#
#
# Indices 1 2 3 4 5 6 
#
# 1 155.1268 18.6613 51.8127 0.0000 21.9095 0.0000
# 2 18.6613 39.8858 17.3418 0.0000 5.5449 0.0000
# 3 51.8127 17.3418 131.7093 0.0000 18.1485 0.0000
# 4 0.0000 0.0000 0.0000 34.6450 0.0000 1.3455
# 5 21.9095 5.5449 18.1485 0.0000 23.6329 0.0000
# 6 0.0000 0.0000 0.0000 1.3455 0.0000 22.5286
#
#
#
# Elastic Compliance Matrix: (Units=1/GPa)
#
#
# Indices 1 2 3 4 5 6 
#
# 1 0.008202 -0.002128 -0.002200 0.000000 -0.005415 0.000000
# 2 -0.002128 0.027484 -0.002421 0.000000 -0.002616 0.000000
# 3 -0.002200 -0.002421 0.009414 0.000000 -0.004621 0.000000
# 4 0.000000 0.000000 0.000000 0.028931 0.000000 -0.001728
# 5 -0.005415 -0.002616 -0.004621 0.000000 0.051497 0.000000
# 6 0.000000 0.000000 0.000000 -0.001728 0.000000 0.044491
#
#
# Mechanical properties :
#
#
# Convention : Reuss Voigt Hill
#
# Bulk Modulus (GPa) = 31.64503 55.81704 43.73103
# Shear Modulus (GPa) = 25.76650 32.08837 28.92743
#
# Velocity S-wave (km/s) = 3.54098 3.95157 3.75189
# Velocity P-wave (km/s) = 5.66720 6.92688 6.32846
#
# Compressibility (1/GPa) = 0.03160054
#
# Stress axis : x y z
#
# Youngs Moduli (GPa) = 121.92145 36.38534 106.22983
#
# Poissons Ratio (x) = 0.07743 0.23373
# Poissons Ratio (y) = 0.25945 0.25719
# Poissons Ratio (z) = 0.26825 0.08809
#
# Static dielectric constant tensor:
#      x y z
#    x 4.290610 0.000000 0.340290 
#    y 0.000000 3.351210 0.000000 
#    z 0.340290 0.000000 4.039220 
# 
# 
# High freq. dielectric constant tensor:
#      x y z
#    x 1.822400 0.000000 0.011940 
#    y 0.000000 1.768920 0.000000 
#    z 0.011940 0.000000 1.810560 
# 
# From -- ./inp_files/54164.got.cif
#   From: 2010.03.12/outbox.cif.g09.slc.cpg/sg5_28_cif.got.tgz:54164.got - 2010.03.31 09:47:26.
