data_PCOD8048815
_publ_section_title
;
Structure prediction by ZEFSAII (Michael W. Deem and Ramdas Pophale) SiO2 
 PCOD8048815
Probable space group: C 2
;
_chemical_formula_sum "Si O2"
_cell_formula_units_Z 28
_cell_length_a 11.846509
_cell_length_b 15.245243
_cell_length_c 9.643930
_cell_angle_alpha 90.000000
_cell_angle_beta 53.350415
_cell_angle_gamma 90.000000
_cell_volume 1397.385476
_symmetry_space_group_name_H-M "C 2"
_symmetry_group_IT_number 5
_symmetry_cell_setting 'monoclinic'
loop_
_space_group_symop_operation_xyz
x,y,z
-x,y,-z
1/2+x,1/2+y,z
1/2-x,1/2+y,-z
loop_
_atom_site_type_symbol
_atom_site_label
_atom_site_fract_x
_atom_site_fract_y
_atom_site_fract_z
Si Si1 0.845191 0.677910 0.763073
Si Si2 0.015044 0.397909 0.826001
Si Si3 0.067577 0.204336 0.092214
Si Si4 0.133940 0.486683 0.307008
Si Si5 0.656128 0.220328 0.545531
Si Si6 0.782574 0.917112 0.451301
Si Si7 0.918378 0.096767 0.418571
O O1 0.792295 0.578787 0.778015
O O2 0.829715 0.728980 0.630115
O O3 0.005309 0.679764 0.701503
O O4 0.736152 0.719623 0.953061
O O5 0.163894 0.428206 0.656297
O O6 0.005362 0.294417 0.808085
O O7 0.894694 0.442173 0.820467
O O8 0.000000 0.423408 0.000000
O O9 0.033590 0.129404 0.225635
O O10 0.000000 0.171343 0.000000
O O11 0.231953 0.426178 0.329717
O O12 0.000000 0.508934 0.500000
O O13 0.653781 0.320083 0.599277
O O14 0.776997 0.157156 0.519798
O O15 0.891478 0.994297 0.407526
O O16 0.000000 0.108210 0.500000
#
# Coordination Sequence:
#
# PCOD8048815 Si02
#       7
#     4   4   4   4   4   4   4
#     4  11  21  41  71  91 129 173 225 268 329 391
#     4  10  21  37  66  97 129 168 218 270 329 390
#     4  11  21  42  65  95 129 174 218 266 330 395
#     4  10  19  38  67  91 122 172 222 261 316 398
#     4  11  21  41  68  95 128 174 218 270 326 392
#     4  11  22  40  65  96 129 172 223 264 325 392
#     4  12  26  42  65 100 134 172 224 272 329 386
#
# _framework density 20.037419
#
# number of rings (size 3 to 8) (size 9 to 14) (size 15 to 20)
#    0.000    1.143    5.714    1.714    4.000    1.143 
#    2.571    0.714    0.000    0.000    0.000    0.000 
#    0.000    0.000    0.000    0.000    0.000    0.000 
#
# Total GULP energy -173559.248106 kJ/mol
# GULP energy per Si atom -12397.089150 kJ/mol
# Density = 1.999181 g / cm^3
# Si number density = 20.037419 Si / 1000 Ang^3
#
#
#
# Elastic Constant Matrix: (Units=GPa)
#
#
# Indices 1 2 3 4 5 6 
#
# 1 113.9249 39.2324 45.7758 0.0000 2.1301 0.0000
# 2 39.2324 118.2346 31.6410 0.0000 10.8408 0.0000
# 3 45.7758 31.6410 93.5671 0.0000 3.6412 0.0000
# 4 0.0000 0.0000 0.0000 -1.1548 0.0000 -2.6702
# 5 2.1301 10.8408 3.6412 0.0000 38.9603 0.0000
# 6 0.0000 0.0000 0.0000 -2.6702 0.0000 33.6540
#
#
#
# Elastic Compliance Matrix: (Units=1/GPa)
#
#
# Indices 1 2 3 4 5 6 
#
# 1 0.011601 -0.002611 -0.004814 0.000000 0.000542 0.000000
# 2 -0.002611 0.010097 -0.002041 0.000000 -0.002476 0.000000
# 3 -0.004814 -0.002041 0.013750 0.000000 -0.000454 0.000000
# 4 0.000000 0.000000 0.000000 -0.731697 0.000000 -0.058056
# 5 0.000542 -0.002476 -0.000454 0.000000 0.026369 0.000000
# 6 0.000000 0.000000 0.000000 -0.058056 0.000000 0.025108
#
#
# Mechanical properties :
#
#
# Convention : Reuss Voigt Hill
#
# Bulk Modulus (GPa) = 60.54135 62.11390 61.32762
# Shear Modulus (GPa) = -8.06016 28.23039 10.08511
#
# Velocity S-wave (km/s) = -2.00781 3.75758 2.24590
# Velocity P-wave (km/s) = 4.99046 7.06344 6.11542
#
# Compressibility (1/GPa) = 0.01651764
#
# Stress axis : x y z
#
# Youngs Moduli (GPa) = 86.20048 99.03643 72.72552
#
# Poissons Ratio (x) = 0.25857 0.35008
# Poissons Ratio (y) = 0.22506 0.14842
# Poissons Ratio (z) = 0.41494 0.20212
#
# Static dielectric constant tensor:
#      x y z
#    x 3.817610 0.000000 -0.171340 
#    y 0.000000 3.620980 0.000000 
#    z -0.171340 0.000000 4.057850 
# 
# 
# High freq. dielectric constant tensor:
#      x y z
#    x 1.780520 0.000000 -0.000610 
#    y 0.000000 1.788830 0.000000 
#    z -0.000610 0.000000 1.767140 
# 
# From -- ./inp_files/20549.got.cif
#   From: 2010.03.12/outbox.cif.g09.slc.cpg/sg5_11_cif.got.tgz:20549.got - 2010.03.31 09:47:26.
