data_PCOD8048932
_publ_section_title
;
Structure prediction by ZEFSAII (Michael W. Deem and Ramdas Pophale) SiO2 
 PCOD8048932
Probable space group: C 2
;
_chemical_formula_sum "Si O2"
_cell_formula_units_Z 28
_cell_length_a 21.734844
_cell_length_b 6.115658
_cell_length_c 17.576840
_cell_angle_alpha 90.000000
_cell_angle_beta 140.779276
_cell_angle_gamma 90.000000
_cell_volume 1477.305334
_symmetry_space_group_name_H-M "C 2"
_symmetry_group_IT_number 5
_symmetry_cell_setting 'monoclinic'
loop_
_space_group_symop_operation_xyz
x,y,z
-x,y,-z
1/2+x,1/2+y,z
1/2-x,1/2+y,-z
loop_
_atom_site_type_symbol
_atom_site_label
_atom_site_fract_x
_atom_site_fract_y
_atom_site_fract_z
Si Si1 0.724925 0.275100 0.564233
Si Si2 0.904594 0.449678 0.654756
Si Si3 0.134586 0.856711 0.113560
Si Si4 0.500000 0.321977 0.500000
Si Si5 0.000000 0.233819 0.000000
Si Si6 0.515907 0.112577 0.120640
Si Si7 0.414770 0.643471 0.532893
Si Si8 0.671227 0.006516 0.650190
O O1 0.830658 0.295467 0.629692
O O2 0.683364 0.519306 0.536028
O O3 0.737001 0.141690 0.653795
O O4 0.650969 0.141245 0.441388
O O5 0.977031 0.578811 0.781499
O O6 0.958260 0.284005 0.646239
O O7 0.098001 0.773300 0.162418
O O8 0.089426 0.092701 0.054675
O O9 0.251458 0.888063 0.219053
O O10 0.092623 0.694150 0.007737
O O11 0.487069 0.465376 0.564587
O O12 0.593877 0.175354 0.612439
O O13 0.037168 0.376636 0.105898
O O14 0.391372 0.813980 0.444998
#
# Coordination Sequence:
#
# PCOD8048932 Si02
#       8
#     4   4   4   2   2   4   4   4
#     4  10  20  29  49  81 112 158 182 215 290 341
#     4  11  19  31  49  81 121 156 182 220 284 352
#     4   9  18  31  49  75 112 160 187 226 269 333
#     4  10  22  38  54  80 110 148 200 240 282 332
#     4   8  16  32  46  74 114 156 184 216 276 326
#     4   9  19  29  47  77 119 153 190 215 275 350
#     4  10  21  35  53  78 117 146 183 237 282 336
#     4  10  20  35  55  76 114 148 195 234 279 336
#
# _framework density 18.953427999999999
#
# number of rings (size 3 to 8) (size 9 to 14) (size 15 to 20)
#    0.000    2.571    1.429    2.143    2.000    5.714 
#    0.000    0.000    0.000    0.000    0.000    0.000 
#  192.857    0.000    0.857    0.000    0.000    0.000 
#
# Total GULP energy -173445.377162 kJ/mol
# GULP energy per Si atom -12388.955512 kJ/mol
# Density = 1.891029 g / cm^3
# Si number density = 18.953428 Si / 1000 Ang^3
#
#
#
# Elastic Constant Matrix: (Units=GPa)
#
#
# Indices 1 2 3 4 5 6 
#
# 1 70.0164 33.2684 48.1402 0.0000 5.6904 0.0000
# 2 33.2684 100.4198 36.8496 -0.0001 2.4072 -0.0001
# 3 48.1402 36.8496 105.9101 0.0000 -8.1256 0.0000
# 4 0.0000 -0.0001 0.0000 23.1301 0.0000 0.6445
# 5 5.6904 2.4072 -8.1256 0.0000 19.7367 0.0000
# 6 0.0000 -0.0001 0.0000 0.6445 0.0000 33.3507
#
#
#
# Elastic Compliance Matrix: (Units=1/GPa)
#
#
# Indices 1 2 3 4 5 6 
#
# 1 0.024231 -0.003923 -0.010479 0.000000 -0.010822 0.000000
# 2 -0.003923 0.012241 -0.002585 0.000000 -0.001426 0.000000
# 3 -0.010479 -0.002585 0.015862 0.000000 0.009867 0.000000
# 4 0.000000 0.000000 0.000000 0.043257 0.000000 -0.000836
# 5 -0.010822 -0.001426 0.009867 0.000000 0.058023 0.000000
# 6 0.000000 0.000000 0.000000 -0.000836 0.000000 0.030001
#
#
# Mechanical properties :
#
#
# Convention : Reuss Voigt Hill
#
# Bulk Modulus (GPa) = 54.47033 56.98473 55.72753
# Shear Modulus (GPa) = 22.35050 25.78270 24.06660
#
# Velocity S-wave (km/s) = 3.43772 3.69225 3.56726
# Velocity P-wave (km/s) = 6.67523 6.95039 6.81420
#
# Compressibility (1/GPa) = 0.01835862
#
# Stress axis : x y z
#
# Youngs Moduli (GPa) = 41.26954 81.69500 63.04454
#
# Poissons Ratio (x) = 0.32046 0.66067
# Poissons Ratio (y) = 0.16189 0.16299
# Poissons Ratio (z) = 0.43248 0.21121
#
# Static dielectric constant tensor:
#      x y z
#    x 3.295470 0.000000 -0.132020 
#    y 0.000000 3.778720 0.000000 
#    z -0.132020 0.000000 3.285220 
# 
# 
# High freq. dielectric constant tensor:
#      x y z
#    x 1.694040 0.000000 -0.008910 
#    y 0.000000 1.765300 0.000000 
#    z -0.008910 0.000000 1.708170 
# 
# From -- ./inp_files/56517.got.cif
#   From: 2010.03.12/outbox.cif.g09.slc.cpg/sg5_29_cif.got.tgz:56517.got - 2010.03.31 09:47:26.
