data_PCOD8048763
_publ_section_title
;
Structure prediction by ZEFSAII (Michael W. Deem and Ramdas Pophale) SiO2 
 PCOD8048763
Probable space group: C 2
;
_chemical_formula_sum "Si O2"
_cell_formula_units_Z 18
_cell_length_a 18.287435
_cell_length_b 6.557178
_cell_length_c 8.578823
_cell_angle_alpha 90.000000
_cell_angle_beta 52.093017
_cell_angle_gamma 90.000000
_cell_volume 811.670104
_symmetry_space_group_name_H-M "C 2"
_symmetry_group_IT_number 5
_symmetry_cell_setting 'monoclinic'
loop_
_space_group_symop_operation_xyz
x,y,z
-x,y,-z
1/2+x,1/2+y,z
1/2-x,1/2+y,-z
loop_
_atom_site_type_symbol
_atom_site_label
_atom_site_fract_x
_atom_site_fract_y
_atom_site_fract_z
Si Si1 0.883847 0.279680 0.891574
Si Si2 0.182464 0.046268 0.765025
Si Si3 0.170946 0.878604 0.446486
Si Si4 0.500000 0.536441 0.500000
Si Si5 0.787684 0.657471 0.078912
O O1 0.965805 0.191834 0.679054
O O2 0.783362 0.194499 0.968504
O O3 0.890857 0.207371 0.063960
O O4 0.876392 0.527466 0.897278
O O5 0.284169 0.151928 0.607442
O O6 0.145216 0.957390 0.652306
O O7 0.180871 0.871717 0.896962
O O8 0.243058 0.036457 0.280525
O O9 0.078243 0.884962 0.463236
#
# Coordination Sequence:
#
# PCOD8048763 Si02
#       5
#     4   4   4   2   4
#     4  10  21  37  65  92 133 165 220 264 327 381
#     4  11  20  38  69  95 123 173 226 259 309 403
#     4  10  22  39  66  96 131 165 218 269 323 383
#     4  10  24  44  62 100 140 166 204 286 338 372
#     4  10  19  37  64  96 118 176 221 261 307 396
#
# _framework density 22.176497999999999
#
# number of rings (size 3 to 8) (size 9 to 14) (size 15 to 20)
#    0.000    1.778    4.444    0.000    0.000    0.889 
#    0.000   10.000    0.000    5.333    0.000    0.000 
#    0.000    0.000    0.000    0.000    0.000    0.000 
#
# Total GULP energy -111530.262324 kJ/mol
# GULP energy per Si atom -12392.251369 kJ/mol
# Density = 2.212602 g / cm^3
# Si number density = 22.176498 Si / 1000 Ang^3
#
#
#
# Elastic Constant Matrix: (Units=GPa)
#
#
# Indices 1 2 3 4 5 6 
#
# 1 58.8321 26.3551 23.8161 0.0000 2.6646 0.0000
# 2 26.3551 108.4092 23.9650 0.0000 3.3424 0.0000
# 3 23.8161 23.9650 101.6366 0.0000 12.8417 0.0000
# 4 0.0000 0.0000 0.0000 42.0317 0.0000 3.4575
# 5 2.6646 3.3424 12.8417 0.0000 32.7313 0.0000
# 6 0.0000 0.0000 0.0000 3.4575 0.0000 25.5913
#
#
#
# Elastic Compliance Matrix: (Units=1/GPa)
#
#
# Indices 1 2 3 4 5 6 
#
# 1 0.020383 -0.004115 -0.003840 0.000000 0.000267 0.000000
# 2 -0.004115 0.010562 -0.001507 0.000000 -0.000152 0.000000
# 3 -0.003840 -0.001507 0.011611 0.000000 -0.004089 0.000000
# 4 0.000000 0.000000 0.000000 0.024059 0.000000 -0.003250
# 5 0.000267 -0.000152 -0.004089 0.000000 0.032150 0.000000
# 6 0.000000 0.000000 0.000000 -0.003250 0.000000 0.039515
#
#
# Mechanical properties :
#
#
# Convention : Reuss Voigt Hill
#
# Bulk Modulus (GPa) = 42.31371 46.35004 44.33188
# Shear Modulus (GPa) = 30.28815 33.05363 31.67089
#
# Velocity S-wave (km/s) = 3.69965 3.86486 3.78316
# Velocity P-wave (km/s) = 6.11324 6.39235 6.25435
#
# Compressibility (1/GPa) = 0.02363300
#
# Stress axis : x y z
#
# Youngs Moduli (GPa) = 49.06019 94.67468 86.12720
#
# Poissons Ratio (x) = 0.38956 0.33072
# Poissons Ratio (y) = 0.20187 0.12980
# Poissons Ratio (z) = 0.18838 0.14269
#
# Static dielectric constant tensor:
#      x y z
#    x 3.655910 0.000000 0.257760 
#    y 0.000000 4.289640 0.000000 
#    z 0.257760 0.000000 4.042430 
# 
# 
# High freq. dielectric constant tensor:
#      x y z
#    x 1.832490 0.000000 0.032870 
#    y 0.000000 1.880250 0.000000 
#    z 0.032870 0.000000 1.880040 
# 
# From -- ./inp_files/25822.got.cif
#   From: 2010.03.12/outbox.cif.g09.slc.cpg/sg5_13_cif.got.tgz:25822.got - 2010.03.31 09:47:26.
