data_PCOD8048972
_publ_section_title
;
Structure prediction by ZEFSAII (Michael W. Deem and Ramdas Pophale) SiO2 
 PCOD8048972
Probable space group: C 2
;
_chemical_formula_sum "Si O2"
_cell_formula_units_Z 18
_cell_length_a 17.283150
_cell_length_b 5.735199
_cell_length_c 17.205313
_cell_angle_alpha 90.000000
_cell_angle_beta 146.579403
_cell_angle_gamma 90.000000
_cell_volume 939.318286
_symmetry_space_group_name_H-M "C 2"
_symmetry_group_IT_number 5
_symmetry_cell_setting 'monoclinic'
loop_
_space_group_symop_operation_xyz
x,y,z
-x,y,-z
1/2+x,1/2+y,z
1/2-x,1/2+y,-z
loop_
_atom_site_type_symbol
_atom_site_label
_atom_site_fract_x
_atom_site_fract_y
_atom_site_fract_z
Si Si1 0.858914 0.865790 0.998670
Si Si2 0.796918 0.692448 0.503359
Si Si3 0.000000 0.554706 0.000000
Si Si4 0.076631 0.253134 0.202117
Si Si5 0.577564 0.066954 0.803918
O O1 0.707121 0.982021 0.859915
O O2 0.861087 0.758976 0.086456
O O3 0.877859 0.688776 0.943669
O O4 0.992007 0.031969 0.101692
O O5 0.739641 0.450832 0.493637
O O6 0.733735 0.687494 0.362929
O O7 0.965797 0.677702 0.649882
O O8 0.091530 0.415940 0.139883
O O9 0.993167 0.362872 0.204977
#
# Coordination Sequence:
#
# PCOD8048972 Si02
#       5
#     4   4   2   4   4
#     4  11  19  37  59  91 121 153 207 256 306 365
#     4  10  20  36  61  96 125 155 202 263 314 360
#     4  10  24  36  60  88 122 170 200 246 316 376
#     4  10  20  37  58  89 123 160 201 252 308 372
#     4  10  20  33  62  97 115 151 208 263 305 352
#
# _framework density 19.162834
#
# number of rings (size 3 to 8) (size 9 to 14) (size 15 to 20)
#    0.000    1.778    4.444    0.667    0.000    0.000 
#    0.000    0.000    0.000    8.000    0.000    0.000 
#    0.000    0.000    0.000    0.000    0.000    0.000 
#
# Total GULP energy -111496.275321 kJ/mol
# GULP energy per Si atom -12388.475036 kJ/mol
# Density = 1.911922 g / cm^3
# Si number density = 19.162834 Si / 1000 Ang^3
#
#
#
# Elastic Constant Matrix: (Units=GPa)
#
#
# Indices 1 2 3 4 5 6 
#
# 1 85.9262 34.2724 68.5971 0.0000 -6.6897 0.0000
# 2 34.2724 103.4667 44.8502 -0.0003 -5.0008 -0.0001
# 3 68.5971 44.8502 167.5698 -0.0001 -3.2748 0.0000
# 4 0.0000 -0.0003 -0.0001 7.9458 -0.0001 5.1883
# 5 -6.6897 -5.0008 -3.2748 -0.0001 20.4941 0.0000
# 6 0.0000 -0.0001 0.0000 5.1883 0.0000 10.4916
#
#
#
# Elastic Compliance Matrix: (Units=1/GPa)
#
#
# Indices 1 2 3 4 5 6 
#
# 1 0.018513 -0.003030 -0.006685 0.000000 0.004235 0.000000
# 2 -0.003030 0.011530 -0.001816 0.000000 0.001534 0.000000
# 3 -0.006685 -0.001816 0.009167 0.000000 -0.001160 0.000000
# 4 0.000000 0.000000 0.000000 0.185871 0.000001 -0.091917
# 5 0.004235 0.001534 -0.001160 0.000001 0.050366 -0.000001
# 6 0.000000 0.000000 0.000000 -0.091917 -0.000001 0.140769
#
#
# Mechanical properties :
#
#
# Convention : Reuss Voigt Hill
#
# Bulk Modulus (GPa) = 61.92145 72.48912 67.20528
# Shear Modulus (GPa) = 11.24456 21.73583 16.49019
#
# Velocity S-wave (km/s) = 2.42500 3.37155 2.93666
# Velocity P-wave (km/s) = 6.34226 7.28468 6.82974
#
# Compressibility (1/GPa) = 0.01614949
#
# Stress axis : x y z
#
# Youngs Moduli (GPa) = 54.01699 86.73224 109.08163
#
# Poissons Ratio (x) = 0.26278 0.72918
# Poissons Ratio (y) = 0.16366 0.19806
# Poissons Ratio (z) = 0.36109 0.15748
#
# Static dielectric constant tensor:
#      x y z
#    x 3.095280 0.000000 -0.114140 
#    y 0.000000 3.825430 0.000000 
#    z -0.114140 0.000000 3.896060 
# 
# 
# High freq. dielectric constant tensor:
#      x y z
#    x 1.699550 0.000000 -0.005010 
#    y 0.000000 1.763590 0.000000 
#    z -0.005010 0.000000 1.757170 
# 
# From -- ./inp_files/25789.got.cif
#   From: 2010.03.12/outbox.cif.g09.slc.cpg/sg5_13_cif.got.tgz:25789.got - 2010.03.31 09:47:26.
