data_PCOD8048112
_publ_section_title
;
Structure prediction by ZEFSAII (Michael W. Deem and Ramdas Pophale) SiO2 
 PCOD8048112
Probable space group: C 2
;
_chemical_formula_sum "Si O2"
_cell_formula_units_Z 28
_cell_length_a 14.575797
_cell_length_b 12.450711
_cell_length_c 12.939293
_cell_angle_alpha 90.000000
_cell_angle_beta 138.984005
_cell_angle_gamma 90.000000
_cell_volume 1541.059330
_symmetry_space_group_name_H-M "C 2"
_symmetry_group_IT_number 5
_symmetry_cell_setting 'monoclinic'
loop_
_space_group_symop_operation_xyz
x,y,z
-x,y,-z
1/2+x,1/2+y,z
1/2-x,1/2+y,-z
loop_
_atom_site_type_symbol
_atom_site_label
_atom_site_fract_x
_atom_site_fract_y
_atom_site_fract_z
Si Si1 0.013613 0.618040 0.891109
Si Si2 0.165284 0.817167 0.282581
Si Si3 0.794011 0.039266 0.184041
Si Si4 0.393471 0.757546 0.644928
Si Si5 0.615846 0.763029 0.679073
Si Si6 0.293764 0.948785 0.683737
Si Si7 0.076092 0.010745 0.330020
O O1 0.970965 0.740076 0.827140
O O2 0.909602 0.535482 0.746043
O O3 0.175122 0.587807 0.005084
O O4 0.000000 0.597978 0.000000
O O5 0.280272 0.771465 0.458611
O O6 0.236029 0.818490 0.227176
O O7 0.120302 0.937654 0.270710
O O8 0.859498 0.135367 0.307814
O O9 0.912662 0.988337 0.212786
O O10 0.738292 0.952527 0.220636
O O11 0.549794 0.790717 0.735733
O O12 0.353733 0.830133 0.709463
O O13 0.393689 0.632902 0.677602
O O14 0.500000 0.800178 0.500000
O O15 0.156019 0.973801 0.500970
#
# Coordination Sequence:
#
# PCOD8048112 Si02
#       7
#     4   4   4   4   4   4   4
#     4  10  18  31  51  77  96 130 170 211 245 287
#     4  10  17  31  53  75 105 129 171 210 247 295
#     4  10  18  31  51  76  97 130 171 210 241 294
#     4   9  18  30  52  78  99 132 167 212 252 292
#     4   9  15  29  51  75  96 127 173 208 239 288
#     4  10  17  31  55  72 101 129 172 208 245 295
#     4  10  19  32  52  77 101 133 168 208 253 294
#
# _framework density 18.169319000000002
#
# number of rings (size 3 to 8) (size 9 to 14) (size 15 to 20)
#    0.000    2.286    4.286    2.143    0.000    0.000 
#    5.143    0.000    3.143    6.000    0.000    0.000 
#    0.000    0.000    0.000    0.000    0.000    0.000 
#
# Total GULP energy -173465.280768 kJ/mol
# GULP energy per Si atom -12390.377198 kJ/mol
# Density = 1.812796 g / cm^3
# Si number density = 18.169319 Si / 1000 Ang^3
#
#
#
# Elastic Constant Matrix: (Units=GPa)
#
#
# Indices 1 2 3 4 5 6 
#
# 1 103.7758 66.6009 27.2892 0.0000 22.9195 0.0000
# 2 66.6009 117.1330 22.6858 0.0000 14.0516 0.0000
# 3 27.2892 22.6858 61.6092 0.0000 25.4858 0.0000
# 4 0.0000 0.0000 0.0000 19.7262 0.0000 -0.2411
# 5 22.9195 14.0516 25.4858 0.0000 23.3183 0.0000
# 6 0.0000 0.0000 0.0000 -0.2411 0.0000 32.5152
#
#
#
# Elastic Compliance Matrix: (Units=1/GPa)
#
#
# Indices 1 2 3 4 5 6 
#
# 1 0.018002 -0.008793 0.000715 0.000000 -0.013176 0.000000
# 2 -0.008793 0.013635 -0.002377 0.000000 0.003024 0.000000
# 3 0.000715 -0.002377 0.030094 0.000000 -0.032162 0.000000
# 4 0.000000 0.000000 0.000000 0.050699 0.000000 0.000376
# 5 -0.013176 0.003024 -0.032162 0.000000 0.089165 0.000000
# 6 0.000000 0.000000 0.000000 0.000376 0.000000 0.030758
#
#
# Mechanical properties :
#
#
# Convention : Reuss Voigt Hill
#
# Bulk Modulus (GPa) = 24.49775 57.29666 40.89720
# Shear Modulus (GPa) = 18.73580 26.17474 22.45527
#
# Velocity S-wave (km/s) = 3.21468 3.79964 3.51934
# Velocity P-wave (km/s) = 5.22410 7.13113 6.25077
#
# Compressibility (1/GPa) = 0.04082008
#
# Stress axis : x y z
#
# Youngs Moduli (GPa) = 55.55065 73.34263 33.22882
#
# Poissons Ratio (x) = 0.64493 -0.02375
# Poissons Ratio (y) = 0.48848 0.07898
# Poissons Ratio (z) = -0.03971 0.17432
#
# Static dielectric constant tensor:
#      x y z
#    x 3.454010 0.000000 0.517200 
#    y 0.000000 3.190180 0.000000 
#    z 0.517200 0.000000 3.618320 
# 
# 
# High freq. dielectric constant tensor:
#      x y z
#    x 1.684170 0.000000 0.032870 
#    y 0.000000 1.683030 0.000000 
#    z 0.032870 0.000000 1.693500 
# 
# From -- ./inp_files/23658.got.cif
#   From: 2010.03.12/outbox.cif.g09.slc.cpg/sg5_12_cif.got.tgz:23658.got - 2010.03.31 09:47:26.
