data_PCOD8048395
_publ_section_title
;
Structure prediction by ZEFSAII (Michael W. Deem and Ramdas Pophale) SiO2 
 PCOD8048395
Probable space group: C 2
;
_chemical_formula_sum "Si O2"
_cell_formula_units_Z 22
_cell_length_a 17.382686
_cell_length_b 13.891377
_cell_length_c 8.906916
_cell_angle_alpha 90.000000
_cell_angle_beta 30.484808
_cell_angle_gamma 90.000000
_cell_volume 1091.095748
_symmetry_space_group_name_H-M "C 2"
_symmetry_group_IT_number 5
_symmetry_cell_setting 'monoclinic'
loop_
_space_group_symop_operation_xyz
x,y,z
-x,y,-z
1/2+x,1/2+y,z
1/2-x,1/2+y,-z
loop_
_atom_site_type_symbol
_atom_site_label
_atom_site_fract_x
_atom_site_fract_y
_atom_site_fract_z
Si Si1 0.322769 0.761370 0.585649
Si Si2 0.500000 0.895538 0.500000
Si Si3 0.092090 0.051506 0.569728
Si Si4 0.688947 0.478179 0.094760
Si Si5 0.860747 0.869718 0.343076
Si Si6 0.446334 0.278673 0.739506
O O1 0.454115 0.824752 0.441283
O O2 0.388015 0.661337 0.412637
O O3 0.275910 0.822050 0.518019
O O4 0.185423 0.734967 0.932345
O O5 0.365900 0.970303 0.761328
O O6 0.164812 0.040624 0.283262
O O7 0.180206 0.977868 0.532345
O O8 0.910962 0.027113 0.870984
O O9 0.625516 0.371314 0.221140
O O10 0.906806 0.802600 0.406356
O O11 0.000000 0.880808 0.000000
O O12 0.500000 0.216316 0.500000
#
# Coordination Sequence:
#
# PCOD8048395 Si02
#       6
#     4   2   4   4   4   4
#     4  10  21  34  60  88 121 158 200 250 286 354
#     4  10  20  36  56  90 122 156 198 242 300 348
#     4  10  18  37  62  83 117 162 199 240 301 352
#     4   9  17  33  63  83 111 160 193 240 295 362
#     4   9  18  35  61  86 118 160 196 238 303 354
#     4   9  15  34  63  86 113 154 194 236 304 358
#
# _framework density 20.163217
#
# number of rings (size 3 to 8) (size 9 to 14) (size 15 to 20)
#    0.000    2.545    3.636    2.182    0.000    0.000 
#    1.636    8.182   16.000    0.000    0.000    0.000 
#    0.000    0.000    0.000    0.000    0.000    0.000 
#
# Total GULP energy -136272.837134 kJ/mol
# GULP energy per Si atom -12388.439739 kJ/mol
# Density = 2.011732 g / cm^3
# Si number density = 20.163217 Si / 1000 Ang^3
#
#
#
# Elastic Constant Matrix: (Units=GPa)
#
#
# Indices 1 2 3 4 5 6 
#
# 1 139.3774 57.5110 41.2056 -0.0001 -8.0070 0.0001
# 2 57.5110 108.0067 30.5856 0.0000 -16.3873 0.0000
# 3 41.2056 30.5856 79.7189 -0.0001 -17.7447 0.0001
# 4 -0.0001 0.0000 -0.0001 21.7530 0.0001 3.3451
# 5 -8.0070 -16.3873 -17.7447 0.0001 32.5537 -0.0001
# 6 0.0001 0.0000 0.0001 3.3451 -0.0001 20.2166
#
#
#
# Elastic Compliance Matrix: (Units=1/GPa)
#
#
# Indices 1 2 3 4 5 6 
#
# 1 0.010102 -0.004569 -0.003901 0.000000 -0.001942 0.000000
# 2 -0.004569 0.012812 -0.001557 0.000000 0.004477 0.000000
# 3 -0.003901 -0.001557 0.016809 0.000000 0.007419 0.000000
# 4 0.000000 0.000000 0.000000 0.047171 0.000000 -0.007805
# 5 -0.001942 0.004477 0.007419 0.000000 0.036539 0.000000
# 6 0.000000 0.000000 0.000000 -0.007805 0.000000 0.050756
#
#
# Mechanical properties :
#
#
# Convention : Reuss Voigt Hill
#
# Bulk Modulus (GPa) = 50.84197 65.07862 57.96029
# Shear Modulus (GPa) = 24.90066 28.09138 26.49602
#
# Velocity S-wave (km/s) = 3.51800 3.73661 3.62895
# Velocity P-wave (km/s) = 6.46311 7.13879 6.80933
#
# Compressibility (1/GPa) = 0.01966879
#
# Stress axis : x y z
#
# Youngs Moduli (GPa) = 98.99363 78.05337 59.49105
#
# Poissons Ratio (x) = 0.35662 0.23205
# Poissons Ratio (y) = 0.45229 0.09265
# Poissons Ratio (z) = 0.38614 0.12156
#
# Static dielectric constant tensor:
#      x y z
#    x 4.158700 0.000000 0.024160 
#    y 0.000000 3.360470 0.000000 
#    z 0.024160 0.000000 4.024650 
# 
# 
# High freq. dielectric constant tensor:
#      x y z
#    x 1.790070 0.000000 0.002000 
#    y 0.000000 1.761500 0.000000 
#    z 0.002000 0.000000 1.765720 
# 
# From -- ./inp_files/15085.got.cif
#   From: 2010.03.12/outbox.cif.g09.slc.cpg/sg5_8_cif.got.tgz:15085.got - 2010.03.31 09:47:26.
