data_PCOD8048030
_publ_section_title
;
Structure prediction by ZEFSAII (Michael W. Deem and Ramdas Pophale) SiO2 
 PCOD8048030
Probable space group: P 21
;
_chemical_formula_sum "Si O2"
_cell_formula_units_Z 16
_cell_length_a 15.000000
_cell_length_b 9.000000
_cell_length_c 15.000000
_cell_angle_alpha 90.000000
_cell_angle_beta 20.000000
_cell_angle_gamma 90.000000
_cell_volume 692.590790
_symmetry_space_group_name_H-M "P 21"
_symmetry_group_IT_number 4
_symmetry_cell_setting 'monoclinic'
loop_
_space_group_symop_operation_xyz
x,y,z
-x,1/2+y,-z
loop_
_atom_site_type_symbol
_atom_site_label
_atom_site_fract_x
_atom_site_fract_y
_atom_site_fract_z
Si Si1 0.909838 0.004860 0.368088
Si Si2 0.677795 0.595277 0.769158
Si Si3 0.341275 0.941951 0.837343
Si Si4 0.798833 0.940812 0.677434
Si Si5 0.578151 0.176332 0.354427
Si Si6 0.891934 0.683075 0.063562
Si Si7 0.061447 0.323136 0.152339
Si Si8 0.573646 0.494579 0.676471
O O1 0.976831 0.173884 0.282984
O O2 0.645721 0.947155 0.571637
O O3 0.864796 0.986287 0.514682
O O4 0.154390 0.906216 0.099011
O O5 0.748473 0.763327 0.733680
O O6 0.578768 0.598684 0.759673
O O7 0.934771 0.489888 0.523553
O O8 0.453719 0.528418 0.045680
O O9 0.302742 0.831667 0.790705
O O10 0.244413 0.095968 0.888846
O O11 0.321887 0.202923 0.656981
O O12 0.518786 0.086331 0.321924
O O13 0.832158 0.107851 0.166372
O O14 0.965868 0.826162 0.931683
O O15 0.861924 0.441732 0.380652
O O16 0.360905 0.365242 0.895799
#
# Coordination Sequence:
#
# PCOD8048030 Si02
#       8
#     2   2   2   2   2   2   2   2
#     4  11  24  47  75 101 141 190 241 294 375 430
#     4  12  29  50  78 118 154 198 257 311 387 451
#     4  11  24  45  68  98 138 182 242 293 358 444
#     4  12  28  50  83 112 156 195 257 312 379 459
#     4  12  26  42  72  95 144 190 232 299 366 425
#     4  11  25  43  65 106 136 186 243 294 355 440
#     4  11  25  45  72 107 143 190 244 304 360 446
#     4  12  27  46  73 105 152 189 244 303 378 429
#
# _framework density 23.101664
#
# number of rings (size 3 to 8) (size 9 to 14) (size 15 to 20)
#    0.000    0.500    0.000    8.250   10.500    2.000 
#    0.000    0.000    0.000    0.000    0.000    0.000 
#    0.000    0.000    0.000    0.000    0.000    0.000 
#
# Total GULP energy -198272.403348 kJ/mol
# GULP energy per Si atom -12392.025209 kJ/mol
# Density = 2.304908 g / cm^3
# Si number density = 23.101664 Si / 1000 Ang^3
#
#
#
# Elastic Constant Matrix: (Units=GPa)
#
#
# Indices 1 2 3 4 5 6 
#
# 1 113.8141 29.3569 50.0246 0.0000 20.9268 0.0000
# 2 29.3569 80.4388 47.3747 0.0000 11.2562 0.0000
# 3 50.0246 47.3747 223.6661 0.0000 19.3505 0.0000
# 4 0.0000 0.0000 0.0000 41.6872 0.0000 3.7972
# 5 20.9268 11.2562 19.3505 0.0000 55.9101 0.0000
# 6 0.0000 0.0000 0.0000 3.7972 0.0000 37.5519
#
#
#
# Elastic Compliance Matrix: (Units=1/GPa)
#
#
# Indices 1 2 3 4 5 6 
#
# 1 0.010685 -0.002549 -0.001596 0.000000 -0.002934 0.000000
# 2 -0.002549 0.015005 -0.002504 0.000000 -0.001200 0.000000
# 3 -0.001596 -0.002504 0.005425 0.000000 -0.000776 0.000000
# 4 0.000000 0.000000 0.000000 0.024211 0.000000 -0.002448
# 5 -0.002934 -0.001200 -0.000776 0.000000 0.019494 0.000000
# 6 0.000000 0.000000 0.000000 -0.002448 0.000000 0.026877
#
#
# Mechanical properties :
#
#
# Convention : Reuss Voigt Hill
#
# Bulk Modulus (GPa) = 56.12753 74.60348 65.36550
# Shear Modulus (GPa) = 41.34448 46.44068 43.89258
#
# Velocity S-wave (km/s) = 4.23505 4.48847 4.36360
# Velocity P-wave (km/s) = 6.94714 7.69581 7.33104
#
# Compressibility (1/GPa) = 0.01781657
#
# Stress axis : x y z
#
# Youngs Moduli (GPa) = 93.59245 66.64478 184.31513
#
# Poissons Ratio (x) = 0.16988 0.29417
# Poissons Ratio (y) = 0.23856 0.46158
# Poissons Ratio (z) = 0.14937 0.16690
#
# Static dielectric constant tensor:
#      x y z
#    x 4.432920 0.000000 0.153920 
#    y 0.000000 4.254360 0.000000 
#    z 0.153920 0.000000 4.990630 
# 
# 
# High freq. dielectric constant tensor:
#      x y z
#    x 1.931850 0.000000 0.012320 
#    y 0.000000 1.908560 0.000000 
#    z 0.012320 0.000000 1.966320 
# 
# From -- ./inp_files/14174.got.cif
#   From: 2010.06.25/outbox.ucp.g09.slc.cvg/sg4_8_cif.got.tgz:14174.got - 2010.06.28 13:22:43.
