data_PCOD8048254
_publ_section_title
;
Structure prediction by ZEFSAII (Michael W. Deem and Ramdas Pophale) SiO2 
 PCOD8048254
Probable space group: C 2
;
_chemical_formula_sum "Si O2"
_cell_formula_units_Z 28
_cell_length_a 14.671097
_cell_length_b 14.795785
_cell_length_c 8.472710
_cell_angle_alpha 90.000000
_cell_angle_beta 53.273018
_cell_angle_gamma 90.000000
_cell_volume 1474.087564
_symmetry_space_group_name_H-M "C 2"
_symmetry_group_IT_number 5
_symmetry_cell_setting 'monoclinic'
loop_
_space_group_symop_operation_xyz
x,y,z
-x,y,-z
1/2+x,1/2+y,z
1/2-x,1/2+y,-z
loop_
_atom_site_type_symbol
_atom_site_label
_atom_site_fract_x
_atom_site_fract_y
_atom_site_fract_z
Si Si1 0.753024 0.879910 0.280496
Si Si2 0.000000 0.801101 0.000000
Si Si3 0.881528 0.185770 0.075723
Si Si4 0.500000 0.007498 0.000000
Si Si5 0.477007 0.142732 0.776726
Si Si6 0.614060 0.854427 0.714577
Si Si7 0.669929 0.082565 0.355914
Si Si8 0.921743 0.262616 0.718655
O O1 0.726364 0.857114 0.490627
O O2 0.690608 0.809038 0.232237
O O3 0.694857 0.976726 0.298990
O O4 0.889028 0.867164 0.117808
O O5 0.993546 0.740089 0.846020
O O6 0.870246 0.285777 0.158445
O O7 0.792250 0.124012 0.255371
O O8 0.875181 0.188621 0.891229
O O9 0.000000 0.140527 0.000000
O O10 0.596872 0.950835 0.812325
O O11 0.431030 0.071763 0.952120
O O12 0.596506 0.102855 0.587368
O O13 0.386014 0.139383 0.730201
O O14 0.502740 0.833898 0.724383
O O15 0.000000 0.217412 0.500000
#
# Coordination Sequence:
#
# PCOD8048254 Si02
#       8
#     4   2   4   2   4   4   4   4
#     4  11  22  35  60  85 116 149 193 234 287 347
#     4  11  24  42  57  84 128 162 183 232 308 363
#     4  10  20  34  55  80 115 146 178 234 297 347
#     4  11  16  34  57  86 108 132 191 250 284 317
#     4  10  23  38  59  84 114 154 196 240 285 345
#     4  10  18  33  58  88 108 141 188 245 288 331
#     4  11  22  36  58  85 112 151 199 240 279 342
#     4   9  18  32  56  84 105 139 188 238 281 334
#
# _framework density 18.994800999999999
#
# number of rings (size 3 to 8) (size 9 to 14) (size 15 to 20)
#    0.000    1.714    3.571    2.571    5.000    0.000 
#    0.000    0.000    0.000    0.000    0.000    0.000 
#    0.000    0.000    0.000    0.000    0.000    0.000 
#
# Total GULP energy -173464.235712 kJ/mol
# GULP energy per Si atom -12390.302551 kJ/mol
# Density = 1.895157 g / cm^3
# Si number density = 18.994801 Si / 1000 Ang^3
#
#
#
# Elastic Constant Matrix: (Units=GPa)
#
#
# Indices 1 2 3 4 5 6 
#
# 1 59.7882 15.3459 46.7867 0.0000 -6.9486 0.0000
# 2 15.3459 42.0758 21.5152 0.0000 -4.6332 0.0000
# 3 46.7867 21.5152 110.8251 0.0000 -7.0118 0.0000
# 4 0.0000 0.0000 0.0000 32.5838 0.0000 -5.8734
# 5 -6.9486 -4.6332 -7.0118 0.0000 39.6296 0.0000
# 6 0.0000 0.0000 0.0000 -5.8734 0.0000 14.3193
#
#
#
# Elastic Compliance Matrix: (Units=1/GPa)
#
#
# Indices 1 2 3 4 5 6 
#
# 1 0.025843 -0.004073 -0.009974 0.000000 0.002290 0.000000
# 2 -0.004073 0.027219 -0.003447 0.000000 0.001858 0.000000
# 3 -0.009974 -0.003447 0.013923 0.000000 0.000312 0.000000
# 4 0.000000 0.000000 0.000000 0.033140 0.000000 0.013593
# 5 0.002290 0.001858 0.000312 0.000000 0.025908 0.000000
# 6 0.000000 0.000000 0.000000 0.013593 0.000000 0.075412
#
#
# Mechanical properties :
#
#
# Convention : Reuss Voigt Hill
#
# Bulk Modulus (GPa) = 31.25375 42.22052 36.73713
# Shear Modulus (GPa) = 20.23483 25.90928 23.07205
#
# Velocity S-wave (km/s) = 3.26741 3.69727 3.48897
# Velocity P-wave (km/s) = 5.54294 6.36412 5.96767
#
# Compressibility (1/GPa) = 0.03199616
#
# Stress axis : x y z
#
# Youngs Moduli (GPa) = 38.69587 36.73849 71.82358
#
# Poissons Ratio (x) = 0.14963 0.71639
# Poissons Ratio (y) = 0.15760 0.24760
# Poissons Ratio (z) = 0.38596 0.12665
#
# Static dielectric constant tensor:
#      x y z
#    x 3.430690 0.000000 0.075940 
#    y 0.000000 3.311680 0.000000 
#    z 0.075940 0.000000 3.869180 
# 
# 
# High freq. dielectric constant tensor:
#      x y z
#    x 1.725990 0.000000 0.008900 
#    y 0.000000 1.713310 0.000000 
#    z 0.008900 0.000000 1.758280 
# 
# From -- ./inp_files/23962.got.cif
#   From: 2010.03.12/outbox.cif.g09.slc.cpg/sg5_12_cif.got.tgz:23962.got - 2010.03.31 09:47:26.
