data_PCOD8048453
_publ_section_title
;
Structure prediction by ZEFSAII (Michael W. Deem and Ramdas Pophale) SiO2 
 PCOD8048453
Probable space group: C 2
;
_chemical_formula_sum "Si O2"
_cell_formula_units_Z 32
_cell_length_a 19.512506
_cell_length_b 11.876290
_cell_length_c 14.668722
_cell_angle_alpha 90.000000
_cell_angle_beta 150.774393
_cell_angle_gamma 90.000000
_cell_volume 1659.694459
_symmetry_space_group_name_H-M "C 2"
_symmetry_group_IT_number 5
_symmetry_cell_setting 'monoclinic'
loop_
_space_group_symop_operation_xyz
x,y,z
-x,y,-z
1/2+x,1/2+y,z
1/2-x,1/2+y,-z
loop_
_atom_site_type_symbol
_atom_site_label
_atom_site_fract_x
_atom_site_fract_y
_atom_site_fract_z
Si Si1 0.915557 0.623400 0.540426
Si Si2 0.691854 0.893550 0.030723
Si Si3 0.790856 0.652669 0.205282
Si Si4 0.541260 0.690979 0.444781
Si Si5 0.108309 0.389837 0.393648
Si Si6 0.112681 0.025533 0.865960
Si Si7 0.656222 0.481255 0.636113
Si Si8 0.632899 0.353175 0.434445
O O1 0.802329 0.644563 0.328043
O O2 0.868740 0.514203 0.541900
O O3 0.921980 0.725412 0.620759
O O4 0.068730 0.603717 0.676912
O O5 0.773380 0.780446 0.152493
O O6 0.720698 0.978861 0.147201
O O7 0.759043 0.947813 0.018777
O O8 0.527077 0.878167 0.827955
O O9 0.658745 0.580001 0.015604
O O10 0.500000 0.723115 0.500000
O O11 0.593297 0.804700 0.459993
O O12 0.420262 0.626650 0.244703
O O13 0.668599 0.601415 0.599537
O O14 0.240183 0.353522 0.487983
O O15 0.982343 0.943067 0.733203
O O16 0.500000 0.469161 0.500000
O O17 0.681665 0.383178 0.593152
#
# Coordination Sequence:
#
# PCOD8048453 Si02
#       8
#     4   4   4   4   4   4   4   4
#     4  11  24  41  64  96 131 161 215 269 321 368
#     4  12  20  39  63 101 119 163 228 258 299 376
#     4  11  22  40  68  97 123 165 221 273 300 372
#     4  10  21  38  63  92 123 165 206 259 313 376
#     4  12  28  38  61 100 134 161 205 263 334 375
#     4  11  21  40  68  95 123 167 218 261 311 372
#     4  10  18  39  69  88 113 168 222 254 300 368
#     4  11  24  42  64  89 135 171 200 260 328 384
#
# _framework density 19.280657000000001
#
# number of rings (size 3 to 8) (size 9 to 14) (size 15 to 20)
#    0.000    1.000    8.750    0.000    5.250    0.500 
#    0.000    3.125    0.000    0.000    0.000    0.000 
#    0.000    0.000    0.000    0.000    0.000    0.000 
#
# Total GULP energy -198341.324451 kJ/mol
# GULP energy per Si atom -12396.332778 kJ/mol
# Density = 1.923677 g / cm^3
# Si number density = 19.280657 Si / 1000 Ang^3
#
#
#
# Elastic Constant Matrix: (Units=GPa)
#
#
# Indices 1 2 3 4 5 6 
#
# 1 79.0875 39.9982 38.8994 0.0000 0.7084 0.0000
# 2 39.9982 112.8388 30.2770 0.0000 -7.7882 0.0000
# 3 38.8994 30.2770 100.2902 0.0000 -14.6895 0.0000
# 4 0.0000 0.0000 0.0000 26.3532 0.0000 -4.8485
# 5 0.7084 -7.7882 -14.6895 0.0000 29.8321 0.0000
# 6 0.0000 0.0000 0.0000 -4.8485 0.0000 21.7782
#
#
#
# Elastic Compliance Matrix: (Units=1/GPa)
#
#
# Indices 1 2 3 4 5 6 
#
# 1 0.018397 -0.005170 -0.006290 0.000000 -0.004884 0.000000
# 2 -0.005170 0.011134 -0.000983 0.000000 0.002546 0.000000
# 3 -0.006290 -0.000983 0.013678 0.000000 0.006628 0.000000
# 4 0.000000 0.000000 0.000000 0.039567 0.000000 0.008809
# 5 -0.004884 0.002546 0.006628 0.000000 0.037565 0.000000
# 6 0.000000 0.000000 0.000000 0.008809 0.000000 0.047879
#
#
# Mechanical properties :
#
#
# Convention : Reuss Voigt Hill
#
# Bulk Modulus (GPa) = 54.57781 56.72953 55.65367
# Shear Modulus (GPa) = 25.09862 27.79551 26.44707
#
# Velocity S-wave (km/s) = 3.61189 3.80099 3.70765
# Velocity P-wave (km/s) = 6.76482 6.98214 6.87434
#
# Compressibility (1/GPa) = 0.01832246
#
# Stress axis : x y z
#
# Youngs Moduli (GPa) = 54.35784 89.81113 73.10843
#
# Poissons Ratio (x) = 0.46437 0.45984
# Poissons Ratio (y) = 0.28106 0.07187
# Poissons Ratio (z) = 0.34190 0.08830
#
# Static dielectric constant tensor:
#      x y z
#    x 3.334390 0.000000 -0.292530 
#    y 0.000000 3.701870 0.000000 
#    z -0.292530 0.000000 3.590430 
# 
# 
# High freq. dielectric constant tensor:
#      x y z
#    x 1.728880 0.000000 -0.020700 
#    y 0.000000 1.765340 0.000000 
#    z -0.020700 0.000000 1.739280 
# 
# From -- ./inp_files/56047.got.cif
#   From: 2010.03.12/outbox.cif.g09.slc.cpg/sg5_29_cif.got.tgz:56047.got - 2010.03.31 09:47:26.
