data_PCOD8048551
_publ_section_title
;
Structure prediction by ZEFSAII (Michael W. Deem and Ramdas Pophale) SiO2 
 PCOD8048551
Probable space group: C 2
;
_chemical_formula_sum "Si O2"
_cell_formula_units_Z 24
_cell_length_a 13.956284
_cell_length_b 13.564613
_cell_length_c 14.326414
_cell_angle_alpha 90.000000
_cell_angle_beta 30.227393
_cell_angle_gamma 90.000000
_cell_volume 1365.389213
_symmetry_space_group_name_H-M "C 2"
_symmetry_group_IT_number 5
_symmetry_cell_setting 'monoclinic'
loop_
_space_group_symop_operation_xyz
x,y,z
-x,y,-z
1/2+x,1/2+y,z
1/2-x,1/2+y,-z
loop_
_atom_site_type_symbol
_atom_site_label
_atom_site_fract_x
_atom_site_fract_y
_atom_site_fract_z
Si Si1 0.886598 0.219070 0.345580
Si Si2 0.613404 0.943919 0.654417
Si Si3 0.851474 0.218136 0.047897
Si Si4 0.974278 0.609685 0.413856
Si Si5 0.148525 0.444856 0.952105
Si Si6 0.474280 0.553305 0.413853
O O1 0.867839 0.331494 0.394278
O O2 0.692988 0.189123 0.456321
O O3 0.920427 0.154862 0.408924
O O4 0.061553 0.205612 0.127801
O O5 0.579570 0.008127 0.591079
O O6 0.807019 0.973863 0.543671
O O7 0.438452 0.957380 0.872195
O O8 0.663806 0.152804 0.208690
O O9 0.799017 0.331497 0.113766
O O10 0.000000 0.179084 0.000000
O O11 0.000000 0.584755 0.500000
O O12 0.336191 0.510190 0.791316
O O13 0.000000 0.483909 0.000000
O O14 0.500000 0.578232 0.500000
#
# Coordination Sequence:
#
# PCOD8048551 Si02
#       6
#     4   4   4   4   4   4
#     4  10  22  37  54  79 108 140 176 215 262 312
#     4  10  22  37  54  79 108 140 176 215 262 312
#     4  10  19  33  56  81 105 136 175 219 262 307
#     4  11  21  35  57  80 106 139 176 218 261 311
#     4  10  19  33  56  81 105 136 175 219 262 307
#     4  11  21  35  57  80 106 139 176 218 261 311
#
# _framework density 17.577406
#
# number of rings (size 3 to 8) (size 9 to 14) (size 15 to 20)
#    0.000    1.667    3.333    2.000    0.000    2.000 
#    0.000    0.000    0.000    1.000    0.000    0.000 
#    0.000    0.000    0.000    0.000    0.000    0.000 
#
# Total GULP energy -148864.926354 kJ/mol
# GULP energy per Si atom -12405.410530 kJ/mol
# Density = 1.753740 g / cm^3
# Si number density = 17.577406 Si / 1000 Ang^3
#
#
#
# Elastic Constant Matrix: (Units=GPa)
#
#
# Indices 1 2 3 4 5 6 
#
# 1 104.4218 48.0668 42.7856 -0.0017 -3.0702 0.0002
# 2 48.0668 102.4107 47.6624 0.0006 -1.1774 -0.0004
# 3 42.7856 47.6624 87.4971 -0.0116 -2.0109 -0.0006
# 4 -0.0017 0.0006 -0.0116 -10.7186 0.0182 -9.4813
# 5 -3.0702 -1.1774 -2.0109 0.0182 22.8983 0.0015
# 6 0.0002 -0.0004 -0.0006 -9.4813 0.0015 15.2118
#
#
#
# Elastic Compliance Matrix: (Units=1/GPa)
#
#
# Indices 1 2 3 4 5 6 
#
# 1 0.013281 -0.004300 -0.004124 0.000003 0.001197 0.000001
# 2 -0.004300 0.014473 -0.005789 0.000005 -0.000341 0.000003
# 3 -0.004124 -0.005789 0.016613 -0.000011 0.000608 -0.000006
# 4 0.000003 0.000005 -0.000011 -0.060139 0.000050 -0.037484
# 5 0.001197 -0.000341 0.000608 0.000050 0.043868 0.000027
# 6 0.000001 0.000003 -0.000006 -0.037484 0.000027 0.042375
#
#
# Mechanical properties :
#
#
# Convention : Reuss Voigt Hill
#
# Bulk Modulus (GPa) = 62.73454 63.48434 63.10944
# Shear Modulus (GPa) = 47.97880 15.86596 31.92238
#
# Velocity S-wave (km/s) = 5.23020 3.00765 4.26620
# Velocity P-wave (km/s) = 8.49948 6.94670 7.76202
#
# Compressibility (1/GPa) = 0.01594018
#
# Stress axis : x y z
#
# Youngs Moduli (GPa) = 75.29474 69.09279 60.19305
#
# Poissons Ratio (x) = 0.29712 0.24826
# Poissons Ratio (y) = 0.32379 0.34846
# Poissons Ratio (z) = 0.31054 0.39998
#
# Static dielectric constant tensor:
#      x y z
#    x 3.187160 0.000000 -0.087250 
#    y 0.000000 3.159650 0.000000 
#    z -0.087250 0.000000 3.317500 
# 
# 
# High freq. dielectric constant tensor:
#      x y z
#    x 1.679240 0.000000 -0.002990 
#    y 0.000000 1.673560 0.000000 
#    z -0.002990 0.000000 1.693130 
# 
# From -- ./inp_files/6722.got.cif
#   From: 2010.03.12/outbox.cif.g09.slc.cpg/sg5_4_cif.got.tgz:6722.got - 2010.03.31 09:47:26.
