data_PCOD8048609
_publ_section_title
;
Structure prediction by ZEFSAII (Michael W. Deem and Ramdas Pophale) SiO2 
 PCOD8048609
Probable space group: C 2
;
_chemical_formula_sum "Si O2"
_cell_formula_units_Z 32
_cell_length_a 14.583421
_cell_length_b 13.490879
_cell_length_c 7.970713
_cell_angle_alpha 90.000000
_cell_angle_beta 106.137639
_cell_angle_gamma 90.000000
_cell_volume 1506.391843
_symmetry_space_group_name_H-M "C 2"
_symmetry_group_IT_number 5
_symmetry_cell_setting 'monoclinic'
loop_
_space_group_symop_operation_xyz
x,y,z
-x,y,-z
1/2+x,1/2+y,z
1/2-x,1/2+y,-z
loop_
_atom_site_type_symbol
_atom_site_label
_atom_site_fract_x
_atom_site_fract_y
_atom_site_fract_z
Si Si1 0.257355 0.179620 0.925153
Si Si2 0.746010 0.384832 0.946577
Si Si3 0.235312 0.245467 0.537056
Si Si4 0.895642 0.525117 0.890059
Si Si5 0.888313 0.071632 0.611063
Si Si6 0.898686 0.032805 0.231449
Si Si7 0.721924 0.949927 0.667144
Si Si8 0.099367 0.615764 0.475063
O O1 0.260289 0.265037 0.069606
O O2 0.258486 0.223651 0.741051
O O3 0.349364 0.107509 0.992382
O O4 0.160732 0.116672 0.897209
O O5 0.784366 0.407683 0.150807
O O6 0.823097 0.430539 0.854335
O O7 0.639325 0.427491 0.858813
O O8 0.141839 0.187604 0.418864
O O9 0.217598 0.363450 0.521712
O O10 0.327722 0.208934 0.478619
O O11 0.905207 0.573438 0.713967
O O12 0.000000 0.490853 0.000000
O O13 0.880668 0.028613 0.420563
O O14 0.991143 0.056495 0.748002
O O15 0.818582 0.011452 0.694907
O O16 0.632978 0.023327 0.604235
O O17 0.000000 0.654349 0.500000
#
# Coordination Sequence:
#
# PCOD8048609 Si02
#       8
#     4   4   4   4   4   4   4   4
#     4   8  17  35  57  79 110 150 188 227 282 337
#     4  10  19  35  58  83 112 150 189 234 283 342
#     4   8  17  35  55  80 112 145 186 233 281 334
#     4  10  20  38  58  81 115 152 190 235 287 337
#     4   9  18  36  57  80 112 149 189 235 288 339
#     4   9  18  36  58  80 110 151 189 235 286 339
#     4  10  19  35  56  83 114 148 189 235 286 336
#     4  10  20  38  58  84 114 151 190 236 285 342
#
# _framework density 21.242813000000002
#
# number of rings (size 3 to 8) (size 9 to 14) (size 15 to 20)
#    0.000    2.750    0.000    3.000    0.000    0.500 
#   18.000   11.250    0.000    0.000    0.000    0.000 
#    0.000    0.000    0.000    0.000    0.000    0.000 
#
# Total GULP energy -198287.503689 kJ/mol
# GULP energy per Si atom -12392.968981 kJ/mol
# Density = 2.119446 g / cm^3
# Si number density = 21.242813 Si / 1000 Ang^3
#
#
#
# Elastic Constant Matrix: (Units=GPa)
#
#
# Indices 1 2 3 4 5 6 
#
# 1 119.0572 27.0771 15.6899 0.0000 21.9526 0.0000
# 2 27.0771 90.8168 13.4279 0.0000 6.4794 0.0000
# 3 15.6899 13.4279 35.3088 0.0000 9.7502 0.0000
# 4 0.0000 0.0000 0.0000 27.9037 0.0000 -1.5899
# 5 21.9526 6.4794 9.7502 0.0000 30.9733 0.0000
# 6 0.0000 0.0000 0.0000 -1.5899 0.0000 16.0688
#
#
#
# Elastic Compliance Matrix: (Units=1/GPa)
#
#
# Indices 1 2 3 4 5 6 
#
# 1 0.010340 -0.002346 -0.001987 0.000000 -0.006212 0.000000
# 2 -0.002346 0.012237 -0.003684 0.000000 0.000262 0.000000
# 3 -0.001987 -0.003684 0.032860 0.000000 -0.008165 0.000000
# 4 0.000000 0.000000 0.000000 0.036041 0.000000 0.003566
# 5 -0.006212 0.000262 -0.008165 0.000000 0.039204 0.000000
# 6 0.000000 0.000000 0.000000 0.003566 0.000000 0.062585
#
#
# Mechanical properties :
#
#
# Convention : Reuss Voigt Hill
#
# Bulk Modulus (GPa) = 25.37839 39.73030 32.55435
# Shear Modulus (GPa) = 22.47845 27.58835 25.03340
#
# Velocity S-wave (km/s) = 3.25648 3.60768 3.43657
# Velocity P-wave (km/s) = 5.11002 6.00810 5.57717
#
# Compressibility (1/GPa) = 0.03940360
#
# Stress axis : x y z
#
# Youngs Moduli (GPa) = 96.70985 81.72253 30.43202
#
# Poissons Ratio (x) = 0.19171 0.06047
# Poissons Ratio (y) = 0.22687 0.11210
# Poissons Ratio (z) = 0.19218 0.30103
#
# Static dielectric constant tensor:
#      x y z
#    x 3.888650 0.000000 0.052140 
#    y 0.000000 4.153280 0.000000 
#    z 0.052140 0.000000 3.635000 
# 
# 
# High freq. dielectric constant tensor:
#      x y z
#    x 1.822300 0.000000 -0.000520 
#    y 0.000000 1.827430 0.000000 
#    z -0.000520 0.000000 1.824260 
# 
# From -- ./inp_files/24419.got.cif
#   From: 2010.03.12/outbox.cif.g09.slc.cpg/sg5_13_cif.got.tgz:24419.got - 2010.03.31 09:47:26.
