data_PCOD8048279
_publ_section_title
;
Structure prediction by ZEFSAII (Michael W. Deem and Ramdas Pophale) SiO2 
 PCOD8048279
Probable space group: C 2
;
_chemical_formula_sum "Si O2"
_cell_formula_units_Z 30
_cell_length_a 16.424518
_cell_length_b 10.956828
_cell_length_c 9.890258
_cell_angle_alpha 90.000000
_cell_angle_beta 111.586443
_cell_angle_gamma 90.000000
_cell_volume 1655.024125
_symmetry_space_group_name_H-M "C 2"
_symmetry_group_IT_number 5
_symmetry_cell_setting 'monoclinic'
loop_
_space_group_symop_operation_xyz
x,y,z
-x,y,-z
1/2+x,1/2+y,z
1/2-x,1/2+y,-z
loop_
_atom_site_type_symbol
_atom_site_label
_atom_site_fract_x
_atom_site_fract_y
_atom_site_fract_z
Si Si1 0.126406 0.919040 0.018745
Si Si2 0.262447 0.735152 0.060470
Si Si3 0.392050 0.577025 0.728269
Si Si4 0.653991 0.062912 0.164843
Si Si5 0.587327 0.593629 0.757988
Si Si6 0.000000 0.717923 0.000000
Si Si7 0.795851 0.303717 0.785181
Si Si8 0.809012 0.995953 0.414958
O O1 0.222265 0.859595 0.099608
O O2 0.059889 0.807256 0.946216
O O3 0.095752 0.996142 0.130350
O O4 0.130902 0.000201 0.889628
O O5 0.202345 0.618997 0.063433
O O6 0.361113 0.720523 0.180145
O O7 0.260568 0.737599 0.896999
O O8 0.485017 0.608518 0.718788
O O9 0.348332 0.706629 0.728892
O O10 0.333416 0.500296 0.587182
O O11 0.561373 0.131694 0.132427
O O12 0.640019 0.917131 0.133566
O O13 0.721966 0.079635 0.332862
O O14 0.608037 0.546043 0.620111
O O15 0.714739 0.357220 0.646221
#
# Coordination Sequence:
#
# PCOD8048279 Si02
#       8
#     4   4   4   4   4   2   4   4
#     4  11  20  34  59  95 113 153 202 249 301 351
#     4  10  18  35  61  83 122 147 193 253 294 355
#     4  12  23  36  64  91 121 155 204 256 291 361
#     4   8  20  36  55  84 117 156 192 239 303 351
#     4  11  20  38  57  92 118 151 206 247 298 347
#     4  10  18  34  58  88 118 144 202 254 288 346
#     4  10  21  37  59  85 119 157 196 246 295 362
#     4   9  22  41  55  83 126 158 195 234 314 359
#
# _framework density 18.126622999999999
#
# number of rings (size 3 to 8) (size 9 to 14) (size 15 to 20)
#    0.800    1.067    4.000    0.400    0.000    4.267 
#    0.000    0.000    0.000    0.000    0.000    0.000 
#    0.000    0.000    0.000    0.000    0.000    0.000 
#
# Total GULP energy -185839.110373 kJ/mol
# GULP energy per Si atom -12389.274025 kJ/mol
# Density = 1.808537 g / cm^3
# Si number density = 18.126623 Si / 1000 Ang^3
#
#
#
# Elastic Constant Matrix: (Units=GPa)
#
#
# Indices 1 2 3 4 5 6 
#
# 1 87.2958 31.7415 20.9640 0.0000 11.8210 0.0000
# 2 31.7415 75.3182 29.9857 0.0000 1.0389 0.0000
# 3 20.9640 29.9857 70.2749 0.0000 1.8067 0.0000
# 4 0.0000 0.0000 0.0000 25.9629 0.0000 -0.7020
# 5 11.8210 1.0389 1.8067 0.0000 22.1556 0.0000
# 6 0.0000 0.0000 0.0000 -0.7020 0.0000 31.6084
#
#
#
# Elastic Compliance Matrix: (Units=1/GPa)
#
#
# Indices 1 2 3 4 5 6 
#
# 1 0.014909 -0.005404 -0.001948 0.000000 -0.007543 0.000000
# 2 -0.005404 0.017953 -0.006114 0.000000 0.002540 0.000000
# 3 -0.001948 -0.006114 0.017422 0.000000 -0.000095 0.000000
# 4 0.000000 0.000000 0.000000 0.038540 0.000000 0.000856
# 5 -0.007543 0.002540 -0.000095 0.000000 0.049048 0.000000
# 6 0.000000 0.000000 0.000000 0.000856 0.000000 0.031656
#
#
# Mechanical properties :
#
#
# Convention : Reuss Voigt Hill
#
# Bulk Modulus (GPa) = 42.81989 44.25237 43.53613
# Shear Modulus (GPa) = 24.48048 25.95857 25.21953
#
# Velocity S-wave (km/s) = 3.67894 3.78837 3.73406
# Velocity P-wave (km/s) = 6.45911 6.60315 6.53153
#
# Compressibility (1/GPa) = 0.02335364
#
# Stress axis : x y z
#
# Youngs Moduli (GPa) = 67.07219 55.70006 57.39827
#
# Poissons Ratio (x) = 0.30099 0.11181
# Poissons Ratio (y) = 0.36244 0.35092
# Poissons Ratio (z) = 0.13066 0.34054
#
# Static dielectric constant tensor:
#      x y z
#    x 3.445100 0.000000 0.078020 
#    y 0.000000 3.421840 0.000000 
#    z 0.078020 0.000000 3.075310 
# 
# 
# High freq. dielectric constant tensor:
#      x y z
#    x 1.705140 0.000000 0.000470 
#    y 0.000000 1.698870 0.000000 
#    z 0.000470 0.000000 1.673140 
# 
# From -- ./inp_files/23913.got.cif
#   From: 2010.03.12/outbox.cif.g09.slc.cpg/sg5_12_cif.got.tgz:23913.got - 2010.03.31 09:47:26.
