data_PCOD8048887
_publ_section_title
;
Structure prediction by ZEFSAII (Michael W. Deem and Ramdas Pophale) SiO2 
 PCOD8048887
Probable space group: C 2
;
_chemical_formula_sum "Si O2"
_cell_formula_units_Z 30
_cell_length_a 27.472437
_cell_length_b 8.296075
_cell_length_c 16.560963
_cell_angle_alpha 90.000000
_cell_angle_beta 19.411254
_cell_angle_gamma 90.000000
_cell_volume 1254.429943
_symmetry_space_group_name_H-M "C 2"
_symmetry_group_IT_number 5
_symmetry_cell_setting 'monoclinic'
loop_
_space_group_symop_operation_xyz
x,y,z
-x,y,-z
1/2+x,1/2+y,z
1/2-x,1/2+y,-z
loop_
_atom_site_type_symbol
_atom_site_label
_atom_site_fract_x
_atom_site_fract_y
_atom_site_fract_z
Si Si1 0.949794 0.442250 0.665118
Si Si2 0.641289 0.770301 0.925464
Si Si3 0.905102 0.287602 0.425803
Si Si4 0.462078 0.512103 0.149061
Si Si5 0.684726 0.597049 0.157599
Si Si6 0.297376 0.217276 0.392055
Si Si7 0.102440 0.990058 0.454089
Si Si8 0.500000 0.955740 0.000000
O O1 0.868569 0.272519 0.784176
O O2 0.000000 0.509655 0.500000
O O3 0.087969 0.410649 0.509055
O O4 0.842247 0.572977 0.871698
O O5 0.813245 0.818310 0.665601
O O6 0.588546 0.849183 0.924589
O O7 0.553193 0.824656 0.143128
O O8 0.607461 0.577027 0.968570
O O9 0.761365 0.314383 0.595791
O O10 0.893333 0.100125 0.472230
O O11 0.393385 0.346712 0.293802
O O12 0.344120 0.659227 0.336430
O O13 0.500000 0.463419 0.000000
O O14 0.689769 0.585521 0.246543
O O15 0.566843 0.465244 0.307387
O O16 0.391918 0.063606 0.222102
#
# Coordination Sequence:
#
# PCOD8048887 Si02
#       8
#     4   4   4   4   4   4   4   2
#     4  11  21  42  68  98 134 176 212 275 336 395
#     4  11  22  38  70  97 131 181 225 274 341 397
#     4  10  20  38  68  96 130 177 225 264 337 406
#     4  11  24  42  64  94 131 176 222 281 330 393
#     4  10  21  40  71  98 136 170 218 273 335 392
#     4  11  23  41  65  95 132 177 226 278 338 398
#     4  10  19  40  68  99 130 179 218 271 335 402
#     4  12  22  40  72  94 134 182 222 284 346 388
#
# _framework density 23.915244999999999
#
# number of rings (size 3 to 8) (size 9 to 14) (size 15 to 20)
#    0.000    1.333    6.667    1.600    0.000    0.000 
#    2.400    6.667   14.667    0.000    0.000    0.000 
#    0.000    0.000    0.000    0.000    0.000    0.000 
#
# Total GULP energy -185879.102519 kJ/mol
# GULP energy per Si atom -12391.940168 kJ/mol
# Density = 2.386081 g / cm^3
# Si number density = 23.915245 Si / 1000 Ang^3
#
#
#
# Elastic Constant Matrix: (Units=GPa)
#
#
# Indices 1 2 3 4 5 6 
#
# 1 66.7694 6.8490 5.4804 0.0000 6.0138 0.0000
# 2 6.8490 59.4351 19.1258 0.0000 -1.6763 0.0000
# 3 5.4804 19.1258 71.0748 0.0000 1.7928 0.0000
# 4 0.0000 0.0000 0.0000 42.7787 0.0000 3.1553
# 5 6.0138 -1.6763 1.7928 0.0000 29.5082 0.0000
# 6 0.0000 0.0000 0.0000 3.1553 0.0000 21.1683
#
#
#
# Elastic Compliance Matrix: (Units=1/GPa)
#
#
# Indices 1 2 3 4 5 6 
#
# 1 0.015491 -0.001661 -0.000666 0.000000 -0.003211 0.000000
# 2 -0.001661 0.018652 -0.004934 0.000000 0.001698 0.000000
# 3 -0.000666 -0.004934 0.015476 0.000000 -0.001085 0.000000
# 4 0.000000 0.000000 0.000000 0.023636 0.000000 -0.003523
# 5 -0.003211 0.001698 -0.001085 0.000000 0.034706 0.000000
# 6 0.000000 0.000000 0.000000 -0.003523 0.000000 0.047766
#
#
# Mechanical properties :
#
#
# Convention : Reuss Voigt Hill
#
# Bulk Modulus (GPa) = 28.49308 28.90997 28.70152
# Shear Modulus (GPa) = 27.48028 29.74597 28.61313
#
# Velocity S-wave (km/s) = 3.39347 3.53059 3.46271
# Velocity P-wave (km/s) = 5.22439 5.36049 5.29288
#
# Compressibility (1/GPa) = 0.03509624
#
# Stress axis : x y z
#
# Youngs Moduli (GPa) = 64.55266 53.61334 64.61575
#
# Poissons Ratio (x) = 0.08906 0.04306
# Poissons Ratio (y) = 0.10724 0.31881
# Poissons Ratio (z) = 0.04302 0.26452
#
# Static dielectric constant tensor:
#      x y z
#    x 4.448590 0.000000 -0.038360 
#    y 0.000000 4.057390 0.000000 
#    z -0.038360 0.000000 4.399320 
# 
# 
# High freq. dielectric constant tensor:
#      x y z
#    x 1.941380 0.000000 0.010830 
#    y 0.000000 1.925600 0.000000 
#    z 0.010830 0.000000 1.949710 
# 
# From -- ./inp_files/63791.got.cif
#   From: 2010.03.12/outbox.cif.g09.slc.cpg/sg5_32_cif.got.tgz:63791.got - 2010.03.31 09:47:26.
