data_PCOD8048329
_publ_section_title
;
Structure prediction by ZEFSAII (Michael W. Deem and Ramdas Pophale) SiO2 
 PCOD8048329
Probable space group: C 2
;
_chemical_formula_sum "Si O2"
_cell_formula_units_Z 24
_cell_length_a 8.389057
_cell_length_b 16.500255
_cell_length_c 15.626299
_cell_angle_alpha 90.000000
_cell_angle_beta 145.656453
_cell_angle_gamma 90.000000
_cell_volume 1220.274153
_symmetry_space_group_name_H-M "C 2"
_symmetry_group_IT_number 5
_symmetry_cell_setting 'monoclinic'
loop_
_space_group_symop_operation_xyz
x,y,z
-x,y,-z
1/2+x,1/2+y,z
1/2-x,1/2+y,-z
loop_
_atom_site_type_symbol
_atom_site_label
_atom_site_fract_x
_atom_site_fract_y
_atom_site_fract_z
Si Si1 0.500000 0.741040 0.500000
Si Si2 0.848034 0.471382 0.847646
Si Si3 0.500000 0.362635 0.500000
Si Si4 0.421574 0.134935 0.795088
Si Si5 0.000000 0.192954 0.000000
Si Si6 0.234853 0.898802 0.434407
Si Si7 0.976387 0.309956 0.828643
Si Si8 0.500000 0.230593 0.000000
O O1 0.665892 0.683332 0.638480
O O2 0.268271 0.800475 0.442120
O O3 0.819359 0.543127 0.765648
O O4 0.542213 0.433208 0.735836
O O5 0.034563 0.400346 0.888870
O O6 0.000000 0.504073 0.000000
O O7 0.695130 0.416637 0.519892
O O8 0.691257 0.306910 0.646044
O O9 0.494584 0.174394 0.916606
O O10 0.718662 0.137000 0.875531
O O11 0.037365 0.248428 0.099294
O O12 0.500000 0.939729 0.500000
O O13 0.229272 0.288368 0.877639
#
# Coordination Sequence:
#
# PCOD8048329 Si02
#       8
#     2   4   2   4   2   4   4   2
#     4  10  22  41  66  91 124 174 210 262 316 381
#     4  11  22  39  63  90 129 168 202 266 322 370
#     4  10  18  35  60  95 116 152 208 272 290 357
#     4  11  22  40  61  92 130 163 203 264 327 370
#     4  10  22  40  62  92 126 174 212 254 318 388
#     4   9  22  40  67  92 125 168 219 254 315 381
#     4  10  21  36  63  88 120 166 217 251 307 381
#     4  10  22  36  60  90 122 160 210 256 300 384
#
# _framework density 19.66771
#
# number of rings (size 3 to 8) (size 9 to 14) (size 15 to 20)
#    0.500    1.333    1.667    3.000    2.333    3.333 
#    0.000    3.333   11.000    0.000    0.000    0.000 
#    0.000    0.000    0.000    0.000    0.000    0.000 
#
# Total GULP energy -148658.723158 kJ/mol
# GULP energy per Si atom -12388.226930 kJ/mol
# Density = 1.962295 g / cm^3
# Si number density = 19.667710 Si / 1000 Ang^3
#
#
#
# Elastic Constant Matrix: (Units=GPa)
#
#
# Indices 1 2 3 4 5 6 
#
# 1 127.1548 36.2565 31.8889 0.0013 11.0530 -0.0005
# 2 36.2565 101.2829 29.5910 0.0011 13.0524 0.0001
# 3 31.8889 29.5910 118.8199 0.0002 2.5976 0.0015
# 4 0.0013 0.0011 0.0002 19.8218 0.0012 1.4807
# 5 11.0530 13.0524 2.5976 0.0012 33.3264 -0.0004
# 6 -0.0005 0.0001 0.0015 1.4807 -0.0004 24.9340
#
#
#
# Elastic Compliance Matrix: (Units=1/GPa)
#
#
# Indices 1 2 3 4 5 6 
#
# 1 0.009202 -0.002520 -0.001800 0.000000 -0.001925 0.000000
# 2 -0.002520 0.011890 -0.002205 0.000000 -0.003649 0.000000
# 3 -0.001800 -0.002205 0.009432 0.000000 0.000725 -0.000001
# 4 0.000000 0.000000 0.000000 0.050674 -0.000002 -0.003009
# 5 -0.001925 -0.003649 0.000725 -0.000002 0.032017 0.000001
# 6 0.000000 0.000000 -0.000001 -0.003009 0.000001 0.040285
#
#
# Mechanical properties :
#
#
# Convention : Reuss Voigt Hill
#
# Bulk Modulus (GPa) = 57.22724 60.30337 58.76531
# Shear Modulus (GPa) = 29.00660 32.25119 30.62890
#
# Velocity S-wave (km/s) = 3.84452 4.05384 3.95057
# Velocity P-wave (km/s) = 6.99052 7.25529 7.12413
#
# Compressibility (1/GPa) = 0.01747420
#
# Stress axis : x y z
#
# Youngs Moduli (GPa) = 108.67580 84.10485 106.01736
#
# Poissons Ratio (x) = 0.21195 0.19082
# Poissons Ratio (y) = 0.27387 0.23376
# Poissons Ratio (z) = 0.19560 0.18545
#
# Static dielectric constant tensor:
#      x y z
#    x 3.871090 0.000000 0.140120 
#    y 0.000000 3.421940 0.000000 
#    z 0.140120 0.000000 3.501440 
# 
# 
# High freq. dielectric constant tensor:
#      x y z
#    x 1.775670 0.000000 0.001140 
#    y 0.000000 1.742030 0.000000 
#    z 0.001140 0.000000 1.771020 
# 
# From -- ./inp_files/15872.got.cif
#   From: 2010.03.12/outbox.cif.g09.slc.cpg/sg5_8_cif.got.tgz:15872.got - 2010.03.31 09:47:26.
