data_PCOD8048671
_publ_section_title
;
Structure prediction by ZEFSAII (Michael W. Deem and Ramdas Pophale) SiO2 
 PCOD8048671
Probable space group: C 2
;
_chemical_formula_sum "Si O2"
_cell_formula_units_Z 30
_cell_length_a 14.931820
_cell_length_b 12.554501
_cell_length_c 26.100981
_cell_angle_alpha 90.000000
_cell_angle_beta 160.292796
_cell_angle_gamma 90.000000
_cell_volume 1649.962799
_symmetry_space_group_name_H-M "C 2"
_symmetry_group_IT_number 5
_symmetry_cell_setting 'monoclinic'
loop_
_space_group_symop_operation_xyz
x,y,z
-x,y,-z
1/2+x,1/2+y,z
1/2-x,1/2+y,-z
loop_
_atom_site_type_symbol
_atom_site_label
_atom_site_fract_x
_atom_site_fract_y
_atom_site_fract_z
Si Si1 0.339826 0.375000 0.986714
Si Si2 0.751674 0.821602 0.662501
Si Si3 0.461290 0.149853 0.919547
Si Si4 0.217897 0.430293 0.032147
Si Si5 0.391053 0.932068 0.241565
Si Si6 0.000000 0.282329 0.000000
Si Si7 0.541597 0.170211 0.310386
Si Si8 0.515306 0.750412 0.379836
O O1 0.139388 0.383497 0.831394
O O2 0.409208 0.253351 0.035911
O O3 0.189119 0.413249 0.956175
O O4 0.605176 0.443599 0.116091
O O5 0.500000 0.877918 0.500000
O O6 0.823038 0.714048 0.668768
O O7 0.684488 0.788305 0.683411
O O8 0.980919 0.910765 0.786531
O O9 0.145144 0.153379 0.734848
O O10 0.500000 0.159111 0.000000
O O11 0.620478 0.049519 0.985590
O O12 0.039077 0.353768 0.970616
O O13 0.568810 0.848886 0.369967
O O14 0.545166 0.043097 0.318081
O O15 0.239547 0.207576 0.146050
O O16 0.700599 0.214206 0.445442
#
# Coordination Sequence:
#
# PCOD8048671 Si02
#       8
#     4   4   4   4   4   2   4   4
#     4  10  20  36  59  84 118 150 199 243 281 366
#     4   9  19  38  56  85 116 156 201 243 285 356
#     4  11  20  37  58  85 117 156 199 234 300 347
#     4  11  21  35  61  88 118 158 195 250 292 349
#     4  10  19  36  58  88 110 153 200 235 293 345
#     4  10  22  38  54  92 120 144 208 250 290 344
#     4  10  22  36  62  83 120 154 198 252 290 343
#     4  10  20  39  59  85 120 156 198 239 294 360
#
# _framework density 18.182227999999999
#
# number of rings (size 3 to 8) (size 9 to 14) (size 15 to 20)
#    0.000    1.867    6.000    0.800    1.867    2.133 
#    2.400    0.000    0.000    0.000    0.000    0.000 
#    0.000    0.000    0.000    0.000    0.000    0.000 
#
# Total GULP energy -185891.116701 kJ/mol
# GULP energy per Si atom -12392.741113 kJ/mol
# Density = 1.814084 g / cm^3
# Si number density = 18.182228 Si / 1000 Ang^3
#
#
#
# Elastic Constant Matrix: (Units=GPa)
#
#
# Indices 1 2 3 4 5 6 
#
# 1 142.1486 37.0148 31.6322 0.0054 -17.1639 -0.0018
# 2 37.0148 119.5874 52.6657 0.0095 -7.3859 -0.0033
# 3 31.6322 52.6657 121.1225 0.0352 -20.4181 0.0092
# 4 0.0054 0.0095 0.0352 19.2318 -0.0111 8.4675
# 5 -17.1639 -7.3859 -20.4181 -0.0111 29.3633 0.0063
# 6 -0.0018 -0.0033 0.0092 8.4675 0.0063 12.0438
#
#
#
# Elastic Compliance Matrix: (Units=1/GPa)
#
#
# Indices 1 2 3 4 5 6 
#
# 1 0.008160 -0.002022 -0.000604 0.000003 0.003841 -0.000003
# 2 -0.002022 0.010853 -0.004452 -0.000001 -0.001548 0.000007
# 3 -0.000604 -0.004452 0.011443 -0.000013 0.006484 -0.000004
# 4 0.000003 -0.000001 -0.000013 0.075308 0.000033 -0.052946
# 5 0.003841 -0.001548 0.006484 0.000033 0.040421 -0.000049
# 6 -0.000003 0.000007 -0.000004 -0.052946 -0.000049 0.120254
#
#
# Mechanical properties :
#
#
# Convention : Reuss Voigt Hill
#
# Bulk Modulus (GPa) = 61.35459 69.49821 65.42640
# Shear Modulus (GPa) = 17.48081 29.56417 23.52249
#
# Velocity S-wave (km/s) = 3.10405 4.03673 3.60072
# Velocity P-wave (km/s) = 6.83113 7.74810 7.30402
#
# Compressibility (1/GPa) = 0.01629870
#
# Stress axis : x y z
#
# Youngs Moduli (GPa) = 122.55344 92.14062 87.39275
#
# Poissons Ratio (x) = 0.18634 0.05280
# Poissons Ratio (y) = 0.24784 0.38905
# Poissons Ratio (z) = 0.07405 0.41019
#
# Static dielectric constant tensor:
#      x y z
#    x 3.581320 0.000060 -0.252210 
#    y 0.000060 3.072990 -0.000090 
#    z -0.252210 -0.000090 3.481960 
# 
# 
# High freq. dielectric constant tensor:
#      x y z
#    x 1.710370 0.000000 -0.022410 
#    y 0.000000 1.691540 0.000000 
#    z -0.022410 0.000000 1.701930 
# 
# From -- ./inp_files/70695.got.cif
#   From: 2010.03.12/outbox.cif.g09.slc.cpg/sg5_36_cif.got.tgz:70695.got - 2010.03.31 09:47:26.
