data_PCOD8048192
_publ_section_title
;
Structure prediction by ZEFSAII (Michael W. Deem and Ramdas Pophale) SiO2 
 PCOD8048192
Probable space group: C 2
;
_chemical_formula_sum "Si O2"
_cell_formula_units_Z 26
_cell_length_a 16.159234
_cell_length_b 14.172712
_cell_length_c 7.854750
_cell_angle_alpha 90.000000
_cell_angle_beta 135.048389
_cell_angle_gamma 90.000000
_cell_volume 1270.936958
_symmetry_space_group_name_H-M "C 2"
_symmetry_group_IT_number 5
_symmetry_cell_setting 'monoclinic'
loop_
_space_group_symop_operation_xyz
x,y,z
-x,y,-z
1/2+x,1/2+y,z
1/2-x,1/2+y,-z
loop_
_atom_site_type_symbol
_atom_site_label
_atom_site_fract_x
_atom_site_fract_y
_atom_site_fract_z
Si Si1 0.238659 0.911810 0.355365
Si Si2 0.150231 0.637912 0.882889
Si Si3 0.554409 0.036856 0.262133
Si Si4 0.365594 0.216473 0.781457
Si Si5 0.345690 0.505982 0.096488
Si Si6 0.000000 0.788228 0.500000
Si Si7 0.405524 0.457133 0.545759
O O1 0.221652 0.802994 0.388451
O O2 0.167561 0.973072 0.390571
O O3 0.372308 0.947721 0.561642
O O4 0.189044 0.926830 0.093503
O O5 0.110534 0.725603 0.711867
O O6 0.047571 0.558724 0.749374
O O7 0.186020 0.671515 0.122130
O O8 0.263088 0.596355 0.948954
O O9 0.632610 0.133619 0.359310
O O10 0.500000 0.011002 0.000000
O O11 0.500000 0.252305 0.000000
O O12 0.324251 0.471133 0.260105
O O13 0.484176 0.529746 0.281360
O O14 0.036954 0.852396 0.391219
#
# Coordination Sequence:
#
# PCOD8048192 Si02
#       7
#     4   4   4   4   4   2   4
#     4  12  20  35  63  86 111 150 195 230 281 343
#     4  10  18  34  53  82 114 139 188 234 280 332
#     4   9  20  35  57  84 115 150 184 239 287 327
#     4   9  18  34  57  85 112 144 189 241 281 323
#     4  10  21  33  56  83 110 147 180 228 280 329
#     4  10  18  30  54  80 106 140 182 240 276 314
#     4  10  21  37  54  83 113 138 185 235 278 325
#
# _framework density 20.457348
#
# number of rings (size 3 to 8) (size 9 to 14) (size 15 to 20)
#    0.000    2.462    0.000    7.846    0.000    0.000 
#    0.000    0.000    0.000   30.462    0.000    0.000 
#    0.000    0.000    0.000    0.000    0.000    0.000 
#
# Total GULP energy -161090.967701 kJ/mol
# GULP energy per Si atom -12391.612900 kJ/mol
# Density = 2.041079 g / cm^3
# Si number density = 20.457348 Si / 1000 Ang^3
#
#
#
# Elastic Constant Matrix: (Units=GPa)
#
#
# Indices 1 2 3 4 5 6 
#
# 1 77.7718 18.3000 21.6184 0.0000 4.1117 0.0000
# 2 18.3000 73.9087 34.3942 0.0000 18.6646 0.0000
# 3 21.6184 34.3942 83.3605 0.0000 0.9149 0.0000
# 4 0.0000 0.0000 0.0000 32.1770 0.0000 11.1400
# 5 4.1117 18.6646 0.9149 0.0000 26.3788 0.0000
# 6 0.0000 0.0000 0.0000 11.1400 0.0000 24.8865
#
#
#
# Elastic Compliance Matrix: (Units=1/GPa)
#
#
# Indices 1 2 3 4 5 6 
#
# 1 0.014156 -0.002014 -0.002832 0.000000 -0.000683 0.000000
# 2 -0.002014 0.021547 -0.008207 0.000000 -0.014647 0.000000
# 3 -0.002832 -0.008207 0.016054 0.000000 0.005692 0.000000
# 4 0.000000 0.000000 0.000000 0.036778 0.000000 -0.016463
# 5 -0.000683 -0.014647 0.005692 0.000000 0.048182 0.000000
# 6 0.000000 0.000000 0.000000 -0.016463 0.000000 0.047552
#
#
# Mechanical properties :
#
#
# Convention : Reuss Voigt Hill
#
# Bulk Modulus (GPa) = 38.98743 42.62958 40.80851
# Shear Modulus (GPa) = 22.83872 27.40369 25.12121
#
# Velocity S-wave (km/s) = 3.34489 3.66396 3.50806
# Velocity P-wave (km/s) = 5.83241 6.22760 6.03324
#
# Compressibility (1/GPa) = 0.02564929
#
# Stress axis : x y z
#
# Youngs Moduli (GPa) = 70.64361 46.40960 62.28812
#
# Poissons Ratio (x) = 0.09349 0.17643
# Poissons Ratio (y) = 0.14230 0.51121
# Poissons Ratio (z) = 0.20009 0.38089
#
# Static dielectric constant tensor:
#      x y z
#    x 3.705840 0.000000 -0.118180 
#    y 0.000000 3.522850 0.000000 
#    z -0.118180 0.000000 3.629320 
# 
# 
# High freq. dielectric constant tensor:
#      x y z
#    x 1.792470 0.000000 -0.019930 
#    y 0.000000 1.768320 0.000000 
#    z -0.019930 0.000000 1.792960 
# 
# From -- ./inp_files/27564.got.cif
#   From: 2010.03.12/outbox.cif.g09.slc.cpg/sg5_14_cif.got.tgz:27564.got - 2010.03.31 09:47:26.
