data_PCOD8048779
_publ_section_title
;
Structure prediction by ZEFSAII (Michael W. Deem and Ramdas Pophale) SiO2 
 PCOD8048779
Probable space group: C 2
;
_chemical_formula_sum "Si O2"
_cell_formula_units_Z 20
_cell_length_a 16.724977
_cell_length_b 10.652993
_cell_length_c 12.391473
_cell_angle_alpha 90.000000
_cell_angle_beta 156.152213
_cell_angle_gamma 90.000000
_cell_volume 892.632571
_symmetry_space_group_name_H-M "C 2"
_symmetry_group_IT_number 5
_symmetry_cell_setting 'monoclinic'
loop_
_space_group_symop_operation_xyz
x,y,z
-x,y,-z
1/2+x,1/2+y,z
1/2-x,1/2+y,-z
loop_
_atom_site_type_symbol
_atom_site_label
_atom_site_fract_x
_atom_site_fract_y
_atom_site_fract_z
Si Si1 0.447930 0.758450 0.699794
Si Si2 0.527443 0.971354 0.416800
Si Si3 0.312095 0.914433 0.839569
Si Si4 0.231573 0.100165 0.919739
Si Si5 0.610534 0.224891 0.444364
O O1 0.359890 0.873026 0.520513
O O2 0.525686 0.653210 0.711266
O O3 0.267091 0.703329 0.542737
O O4 0.619411 0.806105 0.992723
O O5 0.500000 0.911322 0.500000
O O6 0.643701 0.104309 0.564529
O O7 0.308747 0.992048 0.095974
O O8 0.143666 0.852958 0.553664
O O9 0.218451 0.036147 0.784206
O O10 0.500000 0.958103 0.000000
O O11 0.392424 0.215797 0.120890
#
# Coordination Sequence:
#
# PCOD8048779 Si02
#       5
#     4   4   4   4   4
#     4  10  19  38  58  85 124 154 207 259 297 366
#     4   9  19  38  57  83 121 155 200 255 300 363
#     4   9  18  37  63  88 123 158 204 255 301 370
#     4   9  20  37  61  88 119 154 208 249 296 371
#     4   9  20  38  62  82 121 162 199 253 308 362
#
# _framework density 22.405636999999999
#
# number of rings (size 3 to 8) (size 9 to 14) (size 15 to 20)
#    1.200    1.600    0.000    1.200    0.000    0.000 
#   10.800    4.000    0.000    0.000    0.000    0.000 
#    0.000    0.000    0.000    0.000    0.000    0.000 
#
# Total GULP energy -123881.218281 kJ/mol
# GULP energy per Si atom -12388.121828 kJ/mol
# Density = 2.235464 g / cm^3
# Si number density = 22.405637 Si / 1000 Ang^3
#
#
#
# Elastic Constant Matrix: (Units=GPa)
#
#
# Indices 1 2 3 4 5 6 
#
# 1 154.4484 59.0722 31.4682 -0.0001 0.4785 -0.0001
# 2 59.0722 67.5393 18.1810 -0.0001 -7.8977 -0.0001
# 3 31.4682 18.1810 41.3179 -0.0001 -3.0818 -0.0001
# 4 -0.0001 -0.0001 -0.0001 19.9657 -0.0001 -12.4744
# 5 0.4785 -7.8977 -3.0818 -0.0001 20.9996 -0.0001
# 6 -0.0001 -0.0001 -0.0001 -12.4744 -0.0001 53.5847
#
#
#
# Elastic Compliance Matrix: (Units=1/GPa)
#
#
# Indices 1 2 3 4 5 6 
#
# 1 0.010741 -0.008618 -0.004700 0.000000 -0.004176 0.000000
# 2 -0.008618 0.024312 -0.003476 0.000000 0.008830 0.000000
# 3 -0.004700 -0.003476 0.029546 0.000000 0.003136 0.000000
# 4 0.000000 0.000000 0.000000 0.058611 0.000000 0.013644
# 5 -0.004176 0.008830 0.003136 0.000000 0.051496 0.000000
# 6 0.000000 0.000000 0.000000 0.013644 0.000000 0.021838
#
#
# Mechanical properties :
#
#
# Convention : Reuss Voigt Hill
#
# Bulk Modulus (GPa) = 32.24636 53.41647 42.83142
# Shear Modulus (GPa) = 20.79275 29.21560 25.00417
#
# Velocity S-wave (km/s) = 3.04964 3.61493 3.34425
# Velocity P-wave (km/s) = 5.17916 6.42775 5.83694
#
# Compressibility (1/GPa) = 0.03101125
#
# Stress axis : x y z
#
# Youngs Moduli (GPa) = 93.09892 41.13239 33.84597
#
# Poissons Ratio (x) = 0.35447 0.15908
# Poissons Ratio (y) = 0.80230 0.11764
# Poissons Ratio (z) = 0.43757 0.14297
#
# Static dielectric constant tensor:
#      x y z
#    x 4.030440 0.000000 -0.064120 
#    y 0.000000 3.829890 0.000000 
#    z -0.064120 0.000000 3.659860 
# 
# 
# High freq. dielectric constant tensor:
#      x y z
#    x 1.893230 0.000000 -0.002660 
#    y 0.000000 1.869620 0.000000 
#    z -0.002660 0.000000 1.841110 
# 
# From -- ./inp_files/18961.got.cif
#   From: 2010.03.12/outbox.cif.g09.slc.cpg/sg5_10_cif.got.tgz:18961.got - 2010.03.31 09:47:26.
