data_PCOD8048801
_publ_section_title
;
Structure prediction by ZEFSAII (Michael W. Deem and Ramdas Pophale) SiO2 
 PCOD8048801
Probable space group: C 2
;
_chemical_formula_sum "Si O2"
_cell_formula_units_Z 28
_cell_length_a 21.439885
_cell_length_b 15.176866
_cell_length_c 8.650263
_cell_angle_alpha 90.000000
_cell_angle_beta 150.948340
_cell_angle_gamma 90.000000
_cell_volume 1366.818234
_symmetry_space_group_name_H-M "C 2"
_symmetry_group_IT_number 5
_symmetry_cell_setting 'monoclinic'
loop_
_space_group_symop_operation_xyz
x,y,z
-x,y,-z
1/2+x,1/2+y,z
1/2-x,1/2+y,-z
loop_
_atom_site_type_symbol
_atom_site_label
_atom_site_fract_x
_atom_site_fract_y
_atom_site_fract_z
Si Si1 0.713677 0.998920 0.141303
Si Si2 0.356794 0.365306 0.636289
Si Si3 0.489410 0.844516 0.305527
Si Si4 0.350918 0.554910 0.132825
Si Si5 0.795822 0.212084 0.798859
Si Si6 0.636909 0.093938 0.258111
Si Si7 0.785044 0.429878 0.386563
O O1 0.833878 0.956751 0.495212
O O2 0.761038 0.039046 0.084680
O O3 0.653163 0.077938 0.111116
O O4 0.603029 0.927964 0.876500
O O5 0.317697 0.285305 0.436493
O O6 0.273872 0.363768 0.614730
O O7 0.500000 0.356145 0.000000
O O8 0.500000 0.803970 0.500000
O O9 0.625200 0.872050 0.529920
O O10 0.428245 0.767256 0.065703
O O11 0.500000 0.555338 0.500000
O O12 0.305212 0.649580 0.968916
O O13 0.326468 0.476985 0.955942
O O14 0.759931 0.152471 0.573398
O O15 0.631787 0.002863 0.343451
O O16 0.500000 0.141029 0.000000
#
# Coordination Sequence:
#
# PCOD8048801 Si02
#       7
#     4   4   4   4   4   4   4
#     4  10  21  36  67  91 113 164 214 250 312 357
#     4  10  21  41  62  91 123 165 208 261 298 376
#     4  11  20  40  64  94 122 163 207 263 298 384
#     4  11  22  42  60  91 126 163 203 265 302 372
#     4  10  24  38  59  87 134 161 196 257 323 346
#     4  10  19  38  62  92 122 160 204 258 296 375
#     4  10  21  37  70  91 117 164 215 245 312 362
#
# _framework density 20.485534000000001
#
# number of rings (size 3 to 8) (size 9 to 14) (size 15 to 20)
#    0.000    1.714    2.857    1.714    0.000    0.000 
#    7.714    0.000    3.143    0.000    0.000    0.000 
#    0.000    0.000    0.000    0.000    0.000    0.000 
#
# Total GULP energy -173533.348737 kJ/mol
# GULP energy per Si atom -12395.239195 kJ/mol
# Density = 2.043891 g / cm^3
# Si number density = 20.485534 Si / 1000 Ang^3
#
#
#
# Elastic Constant Matrix: (Units=GPa)
#
#
# Indices 1 2 3 4 5 6 
#
# 1 104.7481 43.1009 35.2849 0.0000 -4.0726 0.0000
# 2 43.1009 92.8330 46.0504 0.0000 3.7373 0.0000
# 3 35.2849 46.0504 129.7260 0.0000 1.4563 0.0000
# 4 0.0000 0.0000 0.0000 33.0640 0.0000 -11.4195
# 5 -4.0726 3.7373 1.4563 0.0000 27.2651 0.0000
# 6 0.0000 0.0000 0.0000 -11.4195 0.0000 13.9086
#
#
#
# Elastic Compliance Matrix: (Units=1/GPa)
#
#
# Indices 1 2 3 4 5 6 
#
# 1 0.012239 -0.005002 -0.001583 0.000000 0.002598 0.000000
# 2 -0.005002 0.015184 -0.004000 0.000000 -0.002615 0.000000
# 3 -0.001583 -0.004000 0.009561 0.000000 -0.000199 0.000000
# 4 0.000000 0.000000 0.000000 0.042215 0.000000 0.034660
# 5 0.002598 -0.002615 -0.000199 0.000000 0.037434 0.000000
# 6 0.000000 0.000000 0.000000 0.034660 0.000000 0.100355
#
#
# Mechanical properties :
#
#
# Convention : Reuss Voigt Hill
#
# Bulk Modulus (GPa) = 63.23167 64.01996 63.62582
# Shear Modulus (GPa) = 20.53981 28.37226 24.45604
#
# Velocity S-wave (km/s) = 3.16990 3.72558 3.45892
# Velocity P-wave (km/s) = 6.65817 7.05874 6.86138
#
# Compressibility (1/GPa) = 0.01581486
#
# Stress axis : x y z
#
# Youngs Moduli (GPa) = 81.70623 65.85912 104.58925
#
# Poissons Ratio (x) = 0.32942 0.16551
# Poissons Ratio (y) = 0.40869 0.41837
# Poissons Ratio (z) = 0.12930 0.26345
#
# Static dielectric constant tensor:
#      x y z
#    x 3.581970 0.000000 -0.193400 
#    y 0.000000 3.756630 0.000000 
#    z -0.193400 0.000000 3.942660 
# 
# 
# High freq. dielectric constant tensor:
#      x y z
#    x 1.779140 0.000000 -0.014890 
#    y 0.000000 1.795250 0.000000 
#    z -0.014890 0.000000 1.816820 
# 
# From -- ./inp_files/29872.got.cif
#   From: 2010.03.12/outbox.cif.g09.slc.cpg/sg5_15_cif.got.tgz:29872.got - 2010.03.31 09:47:26.
