data_PCOD8048422
_publ_section_title
;
Structure prediction by ZEFSAII (Michael W. Deem and Ramdas Pophale) SiO2 
 PCOD8048422
Probable space group: C 2
;
_chemical_formula_sum "Si O2"
_cell_formula_units_Z 22
_cell_length_a 14.535491
_cell_length_b 11.257318
_cell_length_c 8.932088
_cell_angle_alpha 90.000000
_cell_angle_beta 50.632404
_cell_angle_gamma 90.000000
_cell_volume 1129.923529
_symmetry_space_group_name_H-M "C 2"
_symmetry_group_IT_number 5
_symmetry_cell_setting 'monoclinic'
loop_
_space_group_symop_operation_xyz
x,y,z
-x,y,-z
1/2+x,1/2+y,z
1/2-x,1/2+y,-z
loop_
_atom_site_type_symbol
_atom_site_label
_atom_site_fract_x
_atom_site_fract_y
_atom_site_fract_z
Si Si1 0.525029 0.798620 0.199126
Si Si2 0.952076 0.550502 0.212098
Si Si3 0.414446 0.263716 0.458758
Si Si4 0.500000 0.651953 0.500000
Si Si5 0.835954 0.192729 0.219795
Si Si6 0.672643 0.508678 0.536368
O O1 0.562262 0.742341 0.318381
O O2 0.386189 0.779226 0.299087
O O3 0.536480 0.941656 0.184368
O O4 0.599878 0.722543 0.001214
O O5 0.975942 0.663649 0.292991
O O6 0.811934 0.519729 0.351832
O O7 0.000000 0.584674 0.000000
O O8 0.500000 0.310044 0.500000
O O9 0.302778 0.209876 0.661924
O O10 0.371471 0.373977 0.403550
O O11 0.599778 0.573182 0.478044
O O12 0.856037 0.060906 0.268502
#
# Coordination Sequence:
#
# PCOD8048422 Si02
#       6
#     4   4   4   2   4   4
#     4  10  18  38  63  83 106 145 209 225 270 335
#     4  11  22  39  60  83 115 158 188 231 280 346
#     4  11  22  37  57  87 124 145 182 242 295 322
#     4  10  22  34  64  86 108 150 192 244 274 336
#     4   9  19  37  63  79 110 158 189 225 278 346
#     4  10  20  40  59  82 116 152 190 230 286 339
#
# _framework density 19.470343
#
# number of rings (size 3 to 8) (size 9 to 14) (size 15 to 20)
#    0.000    1.818    4.545    0.000    1.273    1.455 
#    6.545    0.000    0.000    0.000    0.000    0.000 
#    0.000    0.000    0.000    0.000    0.000    0.000 
#
# Total GULP energy -136275.976681 kJ/mol
# GULP energy per Si atom -12388.725153 kJ/mol
# Density = 1.942603 g / cm^3
# Si number density = 19.470343 Si / 1000 Ang^3
#
#
#
# Elastic Constant Matrix: (Units=GPa)
#
#
# Indices 1 2 3 4 5 6 
#
# 1 58.9301 34.5366 34.2312 0.0000 5.0233 0.0000
# 2 34.5366 131.3565 67.9486 0.0000 14.0677 0.0000
# 3 34.2312 67.9486 121.6562 0.0000 13.4654 0.0000
# 4 0.0000 0.0000 0.0000 24.6275 0.0000 1.8804
# 5 5.0233 14.0677 13.4654 0.0000 23.1470 0.0000
# 6 0.0000 0.0000 0.0000 1.8804 0.0000 28.7417
#
#
#
# Elastic Compliance Matrix: (Units=1/GPa)
#
#
# Indices 1 2 3 4 5 6 
#
# 1 0.021389 -0.003520 -0.004035 0.000000 -0.000155 0.000000
# 2 -0.003520 0.011517 -0.005079 0.000000 -0.003281 0.000000
# 3 -0.004035 -0.005079 0.012562 0.000000 -0.003345 0.000000
# 4 0.000000 0.000000 0.000000 0.040809 0.000000 -0.002670
# 5 -0.000155 -0.003281 -0.003345 0.000000 0.047176 0.000000
# 6 0.000000 0.000000 0.000000 -0.002670 0.000000 0.034967
#
#
# Mechanical properties :
#
#
# Convention : Reuss Voigt Hill
#
# Bulk Modulus (GPa) = 49.50391 65.04173 57.27282
# Shear Modulus (GPa) = 24.94727 26.98500 25.96614
#
# Velocity S-wave (km/s) = 3.58340 3.72688 3.65585
# Velocity P-wave (km/s) = 6.52698 7.21093 6.87747
#
# Compressibility (1/GPa) = 0.02020042
#
# Stress axis : x y z
#
# Youngs Moduli (GPa) = 46.75229 86.82854 79.60220
#
# Poissons Ratio (x) = 0.30560 0.32123
# Poissons Ratio (y) = 0.16455 0.40430
# Poissons Ratio (z) = 0.18867 0.44101
#
# Static dielectric constant tensor:
#      x y z
#    x 3.503680 0.000000 -0.061810 
#    y 0.000000 3.741470 0.000000 
#    z -0.061810 0.000000 3.391860 
# 
# 
# High freq. dielectric constant tensor:
#      x y z
#    x 1.748150 0.000000 -0.002210 
#    y 0.000000 1.767960 0.000000 
#    z -0.002210 0.000000 1.745740 
# 
# From -- ./inp_files/23054.got.cif
#   From: 2010.03.12/outbox.cif.g09.slc.cpg/sg5_12_cif.got.tgz:23054.got - 2010.03.31 09:47:26.
