data_PCOD8048924
_publ_section_title
;
Structure prediction by ZEFSAII (Michael W. Deem and Ramdas Pophale) SiO2 
 PCOD8048924
Probable space group: C 2
;
_chemical_formula_sum "Si O2"
_cell_formula_units_Z 24
_cell_length_a 9.071324
_cell_length_b 11.946941
_cell_length_c 10.519584
_cell_angle_alpha 90.000000
_cell_angle_beta 110.319868
_cell_angle_gamma 90.000000
_cell_volume 1069.108146
_symmetry_space_group_name_H-M "C 2"
_symmetry_group_IT_number 5
_symmetry_cell_setting 'monoclinic'
loop_
_space_group_symop_operation_xyz
x,y,z
-x,y,-z
1/2+x,1/2+y,z
1/2-x,1/2+y,-z
loop_
_atom_site_type_symbol
_atom_site_label
_atom_site_fract_x
_atom_site_fract_y
_atom_site_fract_z
Si Si1 0.765926 0.084830 0.261549
Si Si2 0.000000 0.410823 0.500000
Si Si3 0.000000 0.937997 0.500000
Si Si4 0.495968 0.691898 0.849493
Si Si5 0.854387 0.978539 0.860537
Si Si6 0.681890 0.305459 0.353189
Si Si7 0.000592 0.438499 0.773716
O O1 0.839687 0.142350 0.157880
O O2 0.674325 0.173801 0.324379
O O3 0.899462 0.017435 0.377970
O O4 0.624816 0.002271 0.174391
O O5 0.864923 0.330899 0.409387
O O6 0.962918 0.481983 0.616838
O O7 0.891324 0.848969 0.539195
O O8 0.359835 0.597489 0.785124
O O9 0.458406 0.806664 0.766291
O O10 0.500000 0.720482 0.000000
O O11 0.898057 0.874491 0.785298
O O12 0.680928 0.963436 0.870255
O O13 0.000000 0.988283 0.000000
#
# Coordination Sequence:
#
# PCOD8048924 Si02
#       7
#     4   2   2   4   4   4   4
#     4  12  25  44  72 103 139 183 225 284 352 405
#     4  10  19  43  70 100 140 167 227 278 338 406
#     4  12  25  43  70 106 144 181 221 284 350 412
#     4  11  25  46  69  97 134 185 234 287 338 400
#     4  10  23  47  69  95 138 183 229 287 336 400
#     4  11  23  44  71 104 138 181 227 283 341 414
#     4  11  25  46  70 105 137 182 226 286 346 411
#
# _framework density 22.448616000000001
#
# number of rings (size 3 to 8) (size 9 to 14) (size 15 to 20)
#    0.000    1.000    6.667    0.500    0.000    4.667 
#    6.000    0.833    0.000    0.000    0.000    0.000 
#    0.000    0.000    0.000    0.000    0.000    0.000 
#
# Total GULP energy -148664.963660 kJ/mol
# GULP energy per Si atom -12388.746972 kJ/mol
# Density = 2.239752 g / cm^3
# Si number density = 22.448616 Si / 1000 Ang^3
#
#
#
# Elastic Constant Matrix: (Units=GPa)
#
#
# Indices 1 2 3 4 5 6 
#
# 1 91.5460 55.2570 38.3949 0.0000 -7.7404 0.0000
# 2 55.2570 125.8053 10.4002 0.0000 -4.2515 0.0000
# 3 38.3949 10.4002 76.4922 0.0000 -4.3573 0.0000
# 4 0.0000 0.0000 0.0000 17.2587 0.0000 -5.8960
# 5 -7.7404 -4.2515 -4.3573 0.0000 43.0055 0.0000
# 6 0.0000 0.0000 0.0000 -5.8960 0.0000 45.3526
#
#
#
# Elastic Compliance Matrix: (Units=1/GPa)
#
#
# Indices 1 2 3 4 5 6 
#
# 1 0.019321 -0.007718 -0.008544 0.000000 0.001849 0.000000
# 2 -0.007718 0.011142 0.002356 0.000000 -0.000049 0.000000
# 3 -0.008544 0.002356 0.017065 0.000000 0.000424 0.000000
# 4 0.000000 0.000000 0.000000 0.060635 0.000000 0.007883
# 5 0.001849 -0.000049 0.000424 0.000000 0.023624 0.000000
# 6 0.000000 0.000000 0.000000 0.007883 0.000000 0.023074
#
#
# Mechanical properties :
#
#
# Convention : Reuss Voigt Hill
#
# Bulk Modulus (GPa) = 50.71329 55.77194 53.24262
# Shear Modulus (GPa) = 26.42074 33.77613 30.09843
#
# Velocity S-wave (km/s) = 3.43438 3.88312 3.66563
# Velocity P-wave (km/s) = 6.19407 6.70843 6.45638
#
# Compressibility (1/GPa) = 0.01971870
#
# Stress axis : x y z
#
# Youngs Moduli (GPa) = 51.75591 89.74904 58.59779
#
# Poissons Ratio (x) = 0.69266 0.50064
# Poissons Ratio (y) = 0.39944 -0.13807
# Poissons Ratio (z) = 0.44218 -0.21146
#
# Static dielectric constant tensor:
#      x y z
#    x 4.470320 0.000000 -0.403110 
#    y 0.000000 4.256360 0.000000 
#    z -0.403110 0.000000 3.986130 
# 
# 
# High freq. dielectric constant tensor:
#      x y z
#    x 1.894930 0.000000 -0.015290 
#    y 0.000000 1.890260 0.000000 
#    z -0.015290 0.000000 1.863930 
# 
# From -- ./inp_files/35379.got.cif
#   From: 2010.03.12/outbox.cif.g09.slc.cpg/sg5_18_cif.got.tgz:35379.got - 2010.03.31 09:47:26.
