data_PCOD8048199
_publ_section_title
;
Structure prediction by ZEFSAII (Michael W. Deem and Ramdas Pophale) SiO2 
 PCOD8048199
Probable space group: C 2
;
_chemical_formula_sum "Si O2"
_cell_formula_units_Z 30
_cell_length_a 30.081028
_cell_length_b 5.293962
_cell_length_c 10.864114
_cell_angle_alpha 90.000000
_cell_angle_beta 80.273401
_cell_angle_gamma 90.000000
_cell_volume 1705.216717
_symmetry_space_group_name_H-M "C 2"
_symmetry_group_IT_number 5
_symmetry_cell_setting 'monoclinic'
loop_
_space_group_symop_operation_xyz
x,y,z
-x,y,-z
1/2+x,1/2+y,z
1/2-x,1/2+y,-z
loop_
_atom_site_type_symbol
_atom_site_label
_atom_site_fract_x
_atom_site_fract_y
_atom_site_fract_z
Si Si1 0.257809 0.664480 0.837476
Si Si2 0.435198 0.689725 0.716548
Si Si3 0.500000 0.463641 0.500000
Si Si4 0.097668 0.690956 0.215737
Si Si5 0.092186 0.733181 0.504982
Si Si6 0.869778 0.232057 0.522898
Si Si7 0.696271 0.163952 0.091780
Si Si8 0.735699 0.721707 0.438167
O O1 0.287009 0.412892 0.845304
O O2 0.241274 0.667876 0.704389
O O3 0.287285 0.913168 0.847541
O O4 0.213487 0.664736 0.943325
O O5 0.480279 0.647428 0.614797
O O6 0.428075 0.449887 0.810818
O O7 0.391516 0.709639 0.648124
O O8 0.436139 0.952014 0.792323
O O9 0.538486 0.279701 0.536772
O O10 0.108676 0.710198 0.355702
O O11 0.142323 0.660562 0.113694
O O12 0.107193 0.469578 0.561133
O O13 0.118167 0.971410 0.554826
O O14 0.816920 0.274127 0.557163
O O15 0.742370 0.474876 0.518174
#
# Coordination Sequence:
#
# PCOD8048199 Si02
#       8
#     4   4   2   4   4   4   4   4
#     4  10  20  32  47  70  87 120 160 207 255 271
#     4   9  17  25  42  59  90 117 146 181 218 291
#     4   8  16  26  38  66  88 124 150 172 228 278
#     4   9  15  24  37  60  79 116 142 171 220 262
#     4   9  16  25  43  59  90 116 145 183 219 293
#     4   9  17  29  40  58  79 119 156 182 225 265
#     4  10  18  31  51  66  92 116 160 208 236 299
#     4  12  23  34  49  66  95 130 171 213 235 276
#
# _framework density 17.593071999999999
#
# number of rings (size 3 to 8) (size 9 to 14) (size 15 to 20)
#    0.000    2.667    0.000    5.600    0.000    8.533 
#    0.000    0.000    0.000    0.000    0.000    0.000 
#    0.000    0.000    0.000  124.800    0.000    6.667 
#
# Total GULP energy -185851.151249 kJ/mol
# GULP energy per Si atom -12390.076750 kJ/mol
# Density = 1.755303 g / cm^3
# Si number density = 17.593072 Si / 1000 Ang^3
#
#
#
# Elastic Constant Matrix: (Units=GPa)
#
#
# Indices 1 2 3 4 5 6 
#
# 1 74.8071 29.7565 32.6113 0.0000 -26.9171 0.0000
# 2 29.7565 178.4242 20.2641 0.0000 -15.7943 0.0000
# 3 32.6113 20.2641 53.0725 0.0000 -15.1176 0.0000
# 4 0.0000 0.0000 0.0000 -2.5184 0.0000 -1.6042
# 5 -26.9171 -15.7943 -15.1176 0.0000 27.6119 0.0000
# 6 0.0000 0.0000 0.0000 -1.6042 0.0000 24.2283
#
#
#
# Elastic Compliance Matrix: (Units=1/GPa)
#
#
# Indices 1 2 3 4 5 6 
#
# 1 0.024470 -0.001430 -0.009393 0.000000 0.017893 0.000000
# 2 -0.001430 0.006094 -0.001010 0.000000 0.001539 0.000000
# 3 -0.009393 -0.001010 0.026333 0.000000 0.004684 0.000000
# 4 0.000000 0.000000 0.000000 -0.381013 0.000000 -0.025227
# 5 0.017893 0.001539 0.004684 0.000000 0.057104 0.000000
# 6 0.000000 0.000000 0.000000 -0.025227 0.000000 0.039604
#
#
# Mechanical properties :
#
#
# Convention : Reuss Voigt Hill
#
# Bulk Modulus (GPa) = 30.09192 52.39642 41.24417
# Shear Modulus (GPa) = -25.95169 24.77581 -0.58794
#
# Velocity S-wave (km/s) = -3.84488 3.75676 -0.57872
# Velocity P-wave (km/s) = 1.60289 6.97601 4.80081
#
# Compressibility (1/GPa) = 0.03323152
#
# Stress axis : x y z
#
# Youngs Moduli (GPa) = 40.86691 164.09489 37.97460
#
# Poissons Ratio (x) = 0.23469 0.35669
# Poissons Ratio (y) = 0.05845 0.03834
# Poissons Ratio (z) = 0.38386 0.16568
#
# Static dielectric constant tensor:
#      x y z
#    x 2.990680 0.000000 -0.308110 
#    y 0.000000 4.981780 0.000000 
#    z -0.308110 0.000000 2.857080 
# 
# 
# High freq. dielectric constant tensor:
#      x y z
#    x 1.652020 0.000000 -0.046240 
#    y 0.000000 1.724950 0.000000 
#    z -0.046240 0.000000 1.612660 
# 
# From -- ./inp_files/47704.got.cif
#   From: 2010.03.12/outbox.cif.g09.slc.cpg/sg5_24_cif.got.tgz:47704.got - 2010.03.31 09:47:26.
