data_PCOD8048280
_publ_section_title
;
Structure prediction by ZEFSAII (Michael W. Deem and Ramdas Pophale) SiO2 
 PCOD8048280
Probable space group: C 2
;
_chemical_formula_sum "Si O2"
_cell_formula_units_Z 26
_cell_length_a 10.680192
_cell_length_b 18.090112
_cell_length_c 10.350339
_cell_angle_alpha 90.000000
_cell_angle_beta 139.986909
_cell_angle_gamma 90.000000
_cell_volume 1285.762085
_symmetry_space_group_name_H-M "C 2"
_symmetry_group_IT_number 5
_symmetry_cell_setting 'monoclinic'
loop_
_space_group_symop_operation_xyz
x,y,z
-x,y,-z
1/2+x,1/2+y,z
1/2-x,1/2+y,-z
loop_
_atom_site_type_symbol
_atom_site_label
_atom_site_fract_x
_atom_site_fract_y
_atom_site_fract_z
Si Si1 0.232763 0.134030 0.841800
Si Si2 0.743452 0.274307 0.990147
Si Si3 0.447058 0.059313 0.772560
Si Si4 0.000000 0.177130 0.000000
Si Si5 0.180186 0.135442 0.388185
Si Si6 0.046618 0.385886 0.185233
Si Si7 0.115334 0.784646 0.464912
O O1 0.317647 0.104019 0.775259
O O2 0.003752 0.117754 0.665505
O O3 0.279077 0.221591 0.901547
O O4 0.333560 0.089215 0.040631
O O5 0.858333 0.227859 0.972447
O O6 0.534498 0.301217 0.770396
O O7 0.872371 0.346642 0.128642
O O8 0.356072 0.079824 0.561733
O O9 0.446851 0.972616 0.789840
O O10 0.873350 0.125287 0.804861
O O11 0.239765 0.219900 0.463682
O O12 0.257235 0.356429 0.397485
O O13 0.000000 0.367400 0.000000
O O14 0.000000 0.757816 0.500000
#
# Coordination Sequence:
#
# PCOD8048280 Si02
#       7
#     4   4   4   2   4   4   4
#     4  10  21  38  57  87 123 165 203 242 304 375
#     4  11  19  36  59  90 121 157 199 255 306 364
#     4  11  24  38  59  91 124 167 197 259 314 363
#     4  10  18  34  58  90 112 150 212 266 280 354
#     4  11  21  36  57  92 119 159 214 245 305 368
#     4  12  21  36  57  93 129 146 203 268 313 345
#     4  12  20  31  60  92 117 154 197 256 309 357
#
# _framework density 20.221468999999999
#
# number of rings (size 3 to 8) (size 9 to 14) (size 15 to 20)
#    0.000    0.923   10.000    0.462    0.000    2.462 
#    0.000    0.000    0.000    0.000   24.000    0.000 
#    0.000    0.000    0.000    0.000    0.000    0.000 
#
# Total GULP energy -161138.658774 kJ/mol
# GULP energy per Si atom -12395.281444 kJ/mol
# Density = 2.017544 g / cm^3
# Si number density = 20.221469 Si / 1000 Ang^3
#
#
#
# Elastic Constant Matrix: (Units=GPa)
#
#
# Indices 1 2 3 4 5 6 
#
# 1 42.7290 38.0735 11.2801 0.0000 10.3762 0.0000
# 2 38.0735 137.5360 49.0546 0.0000 3.4909 0.0000
# 3 11.2801 49.0546 135.6298 0.0000 9.2486 0.0000
# 4 0.0000 0.0000 0.0000 22.3654 0.0000 -1.1618
# 5 10.3762 3.4909 9.2486 0.0000 29.9119 0.0000
# 6 0.0000 0.0000 0.0000 -1.1618 0.0000 20.1675
#
#
#
# Elastic Compliance Matrix: (Units=1/GPa)
#
#
# Indices 1 2 3 4 5 6 
#
# 1 0.034459 -0.009765 0.001433 0.000000 -0.011257 0.000000
# 2 -0.009765 0.011115 -0.003423 0.000000 0.003148 0.000000
# 3 0.001433 -0.003423 0.008681 0.000000 -0.002782 0.000000
# 4 0.000000 0.000000 0.000000 0.044846 0.000000 0.002583
# 5 -0.011257 0.003148 -0.002782 0.000000 0.037829 0.000000
# 6 0.000000 0.000000 0.000000 0.002583 0.000000 0.049734
#
#
# Mechanical properties :
#
#
# Convention : Reuss Voigt Hill
#
# Bulk Modulus (GPa) = 32.52269 56.96791 44.74530
# Shear Modulus (GPa) = 22.68379 28.98807 25.83593
#
# Velocity S-wave (km/s) = 3.35291 3.79031 3.57830
# Velocity P-wave (km/s) = 5.57741 6.88392 6.26482
#
# Compressibility (1/GPa) = 0.03074777
#
# Stress axis : x y z
#
# Youngs Moduli (GPa) = 29.01959 89.97036 115.18920
#
# Poissons Ratio (x) = 0.87854 -0.16512
# Poissons Ratio (y) = 0.28337 0.39424
# Poissons Ratio (z) = -0.04160 0.30793
#
# Static dielectric constant tensor:
#      x y z
#    x 3.517070 0.000000 0.130900 
#    y 0.000000 3.521740 0.000000 
#    z 0.130900 0.000000 4.340250 
# 
# 
# High freq. dielectric constant tensor:
#      x y z
#    x 1.755140 0.000000 0.019000 
#    y 0.000000 1.764260 0.000000 
#    z 0.019000 0.000000 1.818700 
# 
# From -- ./inp_files/40386.got.cif
#   From: 2010.03.12/outbox.cif.g09.slc.cpg/sg5_21_cif.got.tgz:40386.got - 2010.03.31 09:47:26.
