data_PCOD8048495
_publ_section_title
;
Structure prediction by ZEFSAII (Michael W. Deem and Ramdas Pophale) SiO2 
 PCOD8048495
Probable space group: C 2
;
_chemical_formula_sum "Si O2"
_cell_formula_units_Z 30
_cell_length_a 11.665124
_cell_length_b 19.553833
_cell_length_c 13.915118
_cell_angle_alpha 90.000000
_cell_angle_beta 146.961884
_cell_angle_gamma 90.000000
_cell_volume 1730.459681
_symmetry_space_group_name_H-M "C 2"
_symmetry_group_IT_number 5
_symmetry_cell_setting 'monoclinic'
loop_
_space_group_symop_operation_xyz
x,y,z
-x,y,-z
1/2+x,1/2+y,z
1/2-x,1/2+y,-z
loop_
_atom_site_type_symbol
_atom_site_label
_atom_site_fract_x
_atom_site_fract_y
_atom_site_fract_z
Si Si1 0.000000 0.350030 0.000000
Si Si2 0.570019 0.984056 0.699677
Si Si3 0.704099 0.239377 0.704103
Si Si4 0.500481 0.136460 0.299390
Si Si5 0.294699 0.954253 0.000001
Si Si6 0.901715 0.136461 0.700629
Si Si7 0.829338 0.984056 0.699677
Si Si8 0.868268 0.608859 0.000008
O O1 0.177324 0.306244 0.177317
O O2 0.887156 0.395364 0.000012
O O3 0.611445 0.944586 0.827503
O O4 0.740286 0.960708 0.740284
O O5 0.335668 0.965386 0.500001
O O6 0.595299 0.065154 0.731376
O O7 0.500000 0.261429 0.500000
O O8 0.637091 0.195849 0.749722
O O9 0.862350 0.195849 0.749730
O O10 0.744532 0.143193 0.500011
O O11 0.484379 0.141506 0.173441
O O12 0.357420 0.027102 0.999999
O O13 0.043559 0.944584 0.827494
O O14 0.867466 0.065153 0.731387
O O15 0.137518 0.141514 0.826592
O O16 0.000000 0.630521 0.000000
#
# Coordination Sequence:
#
# PCOD8048495 Si02
#       8
#     2   4   4   4   4   4   4   4
#     4  12  24  36  48  70 110 154 180 196 230 302
#     4   9  16  30  55  81 102 123 157 218 277 306
#     4  10  20  36  58  80 100 128 173 224 262 294
#     4   9  17  31  53  81 103 121 162 219 269 306
#     4  10  21  33  44  70 109 143 175 199 234 304
#     4   9  17  31  53  81 103 121 162 219 269 306
#     4   9  16  30  55  81 102 123 157 218 277 306
#     4  10  19  31  48  73 108 142 162 196 255 315
#
# _framework density 17.336434000000001
#
# number of rings (size 3 to 8) (size 9 to 14) (size 15 to 20)
#    0.000    2.400    2.000    1.200    0.000    1.600 
#    0.000    0.000    0.000    6.400    0.000    0.000 
#    0.000    0.000    0.000    0.000    0.000    0.000 
#
# Total GULP energy -186016.388363 kJ/mol
# GULP energy per Si atom -12401.092558 kJ/mol
# Density = 1.729698 g / cm^3
# Si number density = 17.336434 Si / 1000 Ang^3
#
#
#
# Elastic Constant Matrix: (Units=GPa)
#
#
# Indices 1 2 3 4 5 6 
#
# 1 152.7709 56.3300 93.8199 0.0000 1.0544 0.0000
# 2 56.3300 78.0817 56.5814 0.0000 -0.0220 0.0000
# 3 93.8199 56.5814 137.6014 0.0000 -0.0892 0.0000
# 4 0.0000 0.0000 0.0000 25.8115 0.0000 0.0967
# 5 1.0544 -0.0220 -0.0892 0.0000 21.3497 -0.0001
# 6 0.0000 0.0000 0.0000 0.0967 -0.0001 27.2870
#
#
#
# Elastic Compliance Matrix: (Units=1/GPa)
#
#
# Indices 1 2 3 4 5 6 
#
# 1 0.012049 -0.003902 -0.006611 0.000000 -0.000627 0.000000
# 2 -0.003902 0.019506 -0.005361 0.000000 0.000190 0.000000
# 3 -0.006611 -0.005361 0.013980 0.000000 0.000379 0.000000
# 4 0.000000 0.000000 0.000000 0.038743 0.000000 -0.000137
# 5 -0.000627 0.000190 0.000379 0.000000 0.046872 0.000000
# 6 0.000000 0.000000 0.000000 -0.000137 0.000000 0.036648
#
#
# Mechanical properties :
#
#
# Convention : Reuss Voigt Hill
#
# Bulk Modulus (GPa) = 72.52794 86.87962 79.70378
# Shear Modulus (GPa) = 24.49295 25.67116 25.08205
#
# Velocity S-wave (km/s) = 3.76280 3.85224 3.80779
# Velocity P-wave (km/s) = 7.79773 8.36714 8.08745
#
# Compressibility (1/GPa) = 0.01378779
#
# Stress axis : x y z
#
# Youngs Moduli (GPa) = 82.99597 51.26506 71.53305
#
# Poissons Ratio (x) = 0.20002 0.47292
# Poissons Ratio (y) = 0.32383 0.38346
# Poissons Ratio (z) = 0.54870 0.27481
#
# Static dielectric constant tensor:
#      x y z
#    x 3.159310 0.000000 -0.021150 
#    y 0.000000 2.847230 0.000000 
#    z -0.021150 0.000000 3.484690 
# 
# 
# High freq. dielectric constant tensor:
#      x y z
#    x 1.666550 0.000000 -0.001370 
#    y 0.000000 1.628110 0.000000 
#    z -0.001370 0.000000 1.687700 
# 
# From -- ./inp_files/53391.got.cif
#   From: 2010.03.12/outbox.cif.g09.slc.cpg/sg5_27_cif.got.tgz:53391.got - 2010.03.31 09:47:26.
