data_PCOD8048065
_publ_section_title
;
Structure prediction by ZEFSAII (Michael W. Deem and Ramdas Pophale) SiO2 
 PCOD8048065
Probable space group: C 2
;
_chemical_formula_sum "Si O2"
_cell_formula_units_Z 28
_cell_length_a 8.943869
_cell_length_b 16.898546
_cell_length_c 11.766437
_cell_angle_alpha 90.000000
_cell_angle_beta 53.293314
_cell_angle_gamma 90.000000
_cell_volume 1425.721903
_symmetry_space_group_name_H-M "C 2"
_symmetry_group_IT_number 5
_symmetry_cell_setting 'monoclinic'
loop_
_space_group_symop_operation_xyz
x,y,z
-x,y,-z
1/2+x,1/2+y,z
1/2-x,1/2+y,-z
loop_
_atom_site_type_symbol
_atom_site_label
_atom_site_fract_x
_atom_site_fract_y
_atom_site_fract_z
Si Si1 0.388066 0.409390 0.431456
Si Si2 0.445893 0.852062 0.291669
Si Si3 0.891593 0.767718 0.664390
Si Si4 0.294460 0.711699 0.817399
Si Si5 0.474187 0.001567 0.142134
Si Si6 0.438284 0.562057 0.652185
Si Si7 0.584030 0.171845 0.130316
O O1 0.500000 0.415054 0.500000
O O2 0.170792 0.387994 0.548881
O O3 0.490319 0.336231 0.321968
O O4 0.417327 0.495859 0.361033
O O5 0.313718 0.799630 0.270582
O O6 0.610597 0.794728 0.259270
O O7 0.539954 0.925137 0.182763
O O8 0.872011 0.695274 0.760258
O O9 0.000000 0.740673 0.500000
O O10 0.437479 0.638307 0.734363
O O11 0.123463 0.698164 0.809904
O O12 0.230687 0.712155 0.977652
O O13 0.260729 0.019487 0.268380
O O14 0.602790 0.076948 0.113790
O O15 0.500000 0.980113 0.000000
O O16 0.500000 0.591796 0.500000
#
# Coordination Sequence:
#
# PCOD8048065 Si02
#       7
#     4   4   4   4   4   4   4
#     4   8  15  32  52  84 111 140 193 241 281 338
#     4  10  20  34  59  90 113 147 211 244 287 350
#     4   9  19  36  59  84 116 154 195 247 292 347
#     4  10  22  35  56  91 121 153 195 249 298 351
#     4  11  19  34  59  87 115 158 203 238 280 364
#     4  10  16  33  57  81 115 154 195 237 284 342
#     4  10  21  39  56  83 128 156 195 240 305 355
#
# _framework density 19.639174000000001
#
# number of rings (size 3 to 8) (size 9 to 14) (size 15 to 20)
#    0.000    2.571    7.143    0.000    2.000    4.571 
#    0.000    0.000    3.143    0.857    0.000    0.000 
#    0.000    0.000    0.000    0.000    0.000    0.000 
#
# Total GULP energy -173508.576600 kJ/mol
# GULP energy per Si atom -12393.469757 kJ/mol
# Density = 1.959447 g / cm^3
# Si number density = 19.639174 Si / 1000 Ang^3
#
#
#
# Elastic Constant Matrix: (Units=GPa)
#
#
# Indices 1 2 3 4 5 6 
#
# 1 27.4623 19.7249 13.4792 0.0000 -0.0737 0.0000
# 2 19.7249 112.4727 24.7955 0.0000 -10.3911 0.0000
# 3 13.4792 24.7955 80.4266 0.0000 -8.7788 0.0000
# 4 0.0000 0.0000 0.0000 41.6271 0.0000 4.9513
# 5 -0.0737 -10.3911 -8.7788 0.0000 20.6252 0.0000
# 6 0.0000 0.0000 0.0000 4.9513 0.0000 52.6003
#
#
#
# Elastic Compliance Matrix: (Units=1/GPa)
#
#
# Indices 1 2 3 4 5 6 
#
# 1 0.044339 -0.007017 -0.005911 0.000000 -0.005893 0.000000
# 2 -0.007017 0.010931 -0.001673 0.000000 0.004770 0.000000
# 3 -0.005911 -0.001673 0.014521 0.000000 0.005316 0.000000
# 4 0.000000 0.000000 0.000000 0.024295 0.000000 -0.002287
# 5 -0.005893 0.004770 0.005316 0.000000 0.053129 0.000000
# 6 0.000000 0.000000 0.000000 -0.002287 0.000000 0.019227
#
#
# Mechanical properties :
#
#
# Convention : Reuss Voigt Hill
#
# Bulk Modulus (GPa) = 24.63790 37.37343 31.00567
# Shear Modulus (GPa) = 23.90353 33.79465 28.84909
#
# Velocity S-wave (km/s) = 3.49253 4.15273 3.83685
# Velocity P-wave (km/s) = 5.36994 6.48574 5.95404
#
# Compressibility (1/GPa) = 0.04058787
#
# Stress axis : x y z
#
# Youngs Moduli (GPa) = 22.55340 91.48034 68.86801
#
# Poissons Ratio (x) = 0.64195 0.40707
# Poissons Ratio (y) = 0.15826 0.11524
# Poissons Ratio (z) = 0.13331 0.15308
#
# Static dielectric constant tensor:
#      x y z
#    x 2.442500 0.000000 0.579770 
#    y 0.000000 4.054080 0.000000 
#    z 0.579770 0.000000 2.534290 
# 
# 
# High freq. dielectric constant tensor:
#      x y z
#    x 1.696470 0.000000 -0.014100 
#    y 0.000000 1.777740 0.000000 
#    z -0.014100 0.000000 1.772220 
# 
# From -- ./inp_files/53040.got.cif
#   From: 2010.03.12/outbox.cif.g09.slc.cpg/sg5_27_cif.got.tgz:53040.got - 2010.03.31 09:47:26.
