data_PCOD8048537
_publ_section_title
;
Structure prediction by ZEFSAII (Michael W. Deem and Ramdas Pophale) SiO2 
 PCOD8048537
Probable space group: C 2
;
_chemical_formula_sum "Si O2"
_cell_formula_units_Z 28
_cell_length_a 9.381612
_cell_length_b 32.005842
_cell_length_c 5.093837
_cell_angle_alpha 90.000000
_cell_angle_beta 116.172397
_cell_angle_gamma 90.000000
_cell_volume 1372.689072
_symmetry_space_group_name_H-M "C 2"
_symmetry_group_IT_number 5
_symmetry_cell_setting 'monoclinic'
loop_
_space_group_symop_operation_xyz
x,y,z
-x,y,-z
1/2+x,1/2+y,z
1/2-x,1/2+y,-z
loop_
_atom_site_type_symbol
_atom_site_label
_atom_site_fract_x
_atom_site_fract_y
_atom_site_fract_z
Si Si1 0.188007 0.113200 0.150615
Si Si2 0.818333 0.480471 0.804469
Si Si3 0.186124 0.163709 0.644223
Si Si4 0.894203 0.832798 0.654261
Si Si5 0.395349 0.891771 0.670470
Si Si6 0.102928 0.738254 0.339203
Si Si7 0.686271 0.022992 0.698437
O O1 0.243611 0.130564 0.475297
O O2 0.274802 0.069570 0.177582
O O3 0.244181 0.146070 0.972203
O O4 0.000000 0.106200 0.000000
O O5 0.803895 0.432327 0.707420
O O6 0.734987 0.509583 0.514871
O O7 0.740164 0.491286 0.022482
O O8 0.000000 0.493535 0.000000
O O9 0.250655 0.208665 0.611483
O O10 0.000000 0.169656 0.500000
O O11 0.732163 0.858664 0.536036
O O12 0.837846 0.785202 0.554051
O O13 0.000000 0.849233 0.500000
O O14 0.000000 0.838092 0.000000
O O15 0.500000 0.904074 0.500000
O O16 0.500000 0.873696 0.000000
O O17 0.000000 0.720921 0.500000
O O18 0.000000 0.739708 0.000000
O O19 0.500000 0.016915 0.500000
#
# Coordination Sequence:
#
# PCOD8048537 Si02
#       7
#     4   4   4   4   4   4   4
#     4  10  21  36  53  77 111 144 178 227 281 327
#     4   9  18  33  53  77 108 140 178 231 277 313
#     4  10  21  37  56  79 110 146 182 227 278 329
#     4  10  22  40  59  85 122 154 182 234 296 341
#     4  11  21  37  62  88 114 152 197 237 279 340
#     4  10  21  38  59  82 112 147 184 228 279 333
#     4  10  19  33  53  76 103 141 183 224 271 325
#
# _framework density 20.397919000000002
#
# number of rings (size 3 to 8) (size 9 to 14) (size 15 to 20)
#    0.000    2.000    0.000    4.714    0.000    2.286 
#    0.000    4.286    0.000    0.000    0.000    0.000 
#    0.000    0.000    0.000    0.000    0.000    0.000 
#
# Total GULP energy -173523.059858 kJ/mol
# GULP energy per Si atom -12394.504276 kJ/mol
# Density = 2.035149 g / cm^3
# Si number density = 20.397919 Si / 1000 Ang^3
#
#
#
# Elastic Constant Matrix: (Units=GPa)
#
#
# Indices 1 2 3 4 5 6 
#
# 1 62.2904 48.9919 40.8789 0.0000 -24.1414 0.0000
# 2 48.9919 119.4737 45.0162 0.0000 -3.1455 0.0000
# 3 40.8789 45.0162 104.0937 0.0000 -26.1195 0.0000
# 4 0.0000 0.0000 0.0000 32.7408 0.0000 0.4576
# 5 -24.1414 -3.1455 -26.1195 0.0000 30.6989 0.0000
# 6 0.0000 0.0000 0.0000 0.4576 0.0000 27.5097
#
#
#
# Elastic Compliance Matrix: (Units=1/GPa)
#
#
# Indices 1 2 3 4 5 6 
#
# 1 0.040117 -0.014850 -0.002286 0.000000 0.028081 0.000000
# 2 -0.014850 0.015779 -0.004471 0.000000 -0.013865 0.000000
# 3 -0.002286 -0.004471 0.015095 0.000000 0.010587 0.000000
# 4 0.000000 0.000000 0.000000 0.030550 0.000000 -0.000508
# 5 0.028081 -0.013865 0.010587 0.000000 0.062244 0.000000
# 6 0.000000 0.000000 0.000000 -0.000508 0.000000 0.036359
#
#
# Mechanical properties :
#
#
# Convention : Reuss Voigt Hill
#
# Bulk Modulus (GPa) = 36.00239 61.73686 48.86962
# Shear Modulus (GPa) = 19.79282 28.25459 24.02371
#
# Velocity S-wave (km/s) = 3.11840 3.72583 3.43556
# Velocity P-wave (km/s) = 5.53663 6.98863 6.30457
#
# Compressibility (1/GPa) = 0.02777594
#
# Stress axis : x y z
#
# Youngs Moduli (GPa) = 24.92725 63.37538 66.24838
#
# Poissons Ratio (x) = 0.94110 0.15147
# Poissons Ratio (y) = 0.37016 0.29621
# Poissons Ratio (z) = 0.05699 0.28336
#
# Static dielectric constant tensor:
#      x y z
#    x 3.553910 0.000000 -0.456190 
#    y 0.000000 3.800380 0.000000 
#    z -0.456190 0.000000 4.082230 
# 
# 
# High freq. dielectric constant tensor:
#      x y z
#    x 1.774430 0.000000 -0.030100 
#    y 0.000000 1.796040 0.000000 
#    z -0.030100 0.000000 1.812880 
# 
# From -- ./inp_files/3995.got.cif
#   From: 2010.03.12/outbox.cif.g09.slc.cpg/sg5_2_cif.got.tgz:3995.got - 2010.03.31 09:47:26.
