data_PCOD8048720
_publ_section_title
;
Structure prediction by ZEFSAII (Michael W. Deem and Ramdas Pophale) SiO2 
 PCOD8048720
Probable space group: C 2
;
_chemical_formula_sum "Si O2"
_cell_formula_units_Z 30
_cell_length_a 9.069562
_cell_length_b 22.076920
_cell_length_c 7.621834
_cell_angle_alpha 90.000000
_cell_angle_beta 97.211102
_cell_angle_gamma 90.000000
_cell_volume 1514.033657
_symmetry_space_group_name_H-M "C 2"
_symmetry_group_IT_number 5
_symmetry_cell_setting 'monoclinic'
loop_
_space_group_symop_operation_xyz
x,y,z
-x,y,-z
1/2+x,1/2+y,z
1/2-x,1/2+y,-z
loop_
_atom_site_type_symbol
_atom_site_label
_atom_site_fract_x
_atom_site_fract_y
_atom_site_fract_z
Si Si1 0.339408 0.800440 0.674925
Si Si2 0.000000 0.706187 0.000000
Si Si3 0.072062 0.488279 0.319883
Si Si4 0.115554 0.382111 0.746713
Si Si5 0.568785 0.125001 0.318670
Si Si6 0.353601 0.701530 0.392331
Si Si7 0.174331 0.907416 0.544579
Si Si8 0.803063 0.271843 0.051112
O O1 0.483875 0.840215 0.644754
O O2 0.296822 0.753573 0.515405
O O3 0.198387 0.846547 0.664888
O O4 0.363303 0.764216 0.862485
O O5 0.973629 0.664530 0.167549
O O6 0.136345 0.750080 0.048122
O O7 0.070001 0.556368 0.246574
O O8 0.242427 0.464362 0.350530
O O9 0.000000 0.485912 0.500000
O O10 0.962954 0.443714 0.191789
O O11 0.247482 0.395553 0.630735
O O12 0.188622 0.344210 0.915423
O O13 0.500000 0.130699 0.500000
O O14 0.737294 0.148001 0.349516
O O15 0.500000 0.671675 0.500000
O O16 0.395367 0.733305 0.211656
O O17 0.000000 0.922357 0.500000
#
# Coordination Sequence:
#
# PCOD8048720 Si02
#       8
#     4   2   4   4   4   4   4   4
#     4  11  20  35  55  84 116 156 194 227 301 361
#     4  10  24  38  54  94 126 146 196 254 290 354
#     4   8  18  37  60  80 110 156 205 240 283 351
#     4  10  19  37  56  84 119 150 194 245 283 355
#     4  10  21  41  60  81 115 162 198 237 298 348
#     4  11  21  35  56  85 118 148 194 245 287 352
#     4  10  20  33  58  86 119 152 192 250 300 343
#     4  11  22  34  57  84 124 151 190 243 295 349
#
# _framework density 19.814617999999999
#
# number of rings (size 3 to 8) (size 9 to 14) (size 15 to 20)
#    0.000    1.867    2.667    2.400    1.867    1.067 
#    4.800    0.000    0.000    0.000    0.000    0.000 
#    0.000    0.000    0.000    0.000    0.000    0.000 
#
# Total GULP energy -185863.641375 kJ/mol
# GULP energy per Si atom -12390.909425 kJ/mol
# Density = 1.976952 g / cm^3
# Si number density = 19.814618 Si / 1000 Ang^3
#
#
#
# Elastic Constant Matrix: (Units=GPa)
#
#
# Indices 1 2 3 4 5 6 
#
# 1 105.1372 49.1561 27.3604 0.0000 5.8725 0.0000
# 2 49.1561 133.6926 32.0542 0.0000 8.8472 0.0000
# 3 27.3604 32.0542 90.0012 0.0000 1.5474 0.0000
# 4 0.0000 0.0000 0.0000 15.8423 0.0000 3.5514
# 5 5.8725 8.8472 1.5474 0.0000 28.5336 0.0000
# 6 0.0000 0.0000 0.0000 3.5514 0.0000 24.4038
#
#
#
# Elastic Compliance Matrix: (Units=1/GPa)
#
#
# Indices 1 2 3 4 5 6 
#
# 1 0.011926 -0.003765 -0.002265 0.000000 -0.001164 0.000000
# 2 -0.003765 0.009531 -0.002215 0.000000 -0.002060 0.000000
# 3 -0.002265 -0.002215 0.012580 0.000000 0.000471 0.000000
# 4 0.000000 0.000000 0.000000 0.065251 0.000000 -0.009496
# 5 -0.001164 -0.002060 0.000471 0.000000 0.035899 0.000000
# 6 0.000000 0.000000 0.000000 -0.009496 0.000000 0.042359
#
#
# Mechanical properties :
#
#
# Convention : Reuss Voigt Hill
#
# Bulk Modulus (GPa) = 56.98297 60.66360 58.82328
# Shear Modulus (GPa) = 25.01436 28.43995 26.72716
#
# Velocity S-wave (km/s) = 3.55691 3.79265 3.67667
# Velocity P-wave (km/s) = 6.75938 7.06123 6.91195
#
# Compressibility (1/GPa) = 0.01754910
#
# Stress axis : x y z
#
# Youngs Moduli (GPa) = 83.85030 104.91542 79.49072
#
# Poissons Ratio (x) = 0.39500 0.18001
# Poissons Ratio (y) = 0.31569 0.17605
# Poissons Ratio (z) = 0.18989 0.23236
#
# Static dielectric constant tensor:
#      x y z
#    x 3.530970 0.000000 0.189670 
#    y 0.000000 3.837790 0.000000 
#    z 0.189670 0.000000 3.687860 
# 
# 
# High freq. dielectric constant tensor:
#      x y z
#    x 1.762680 0.000000 0.004000 
#    y 0.000000 1.760830 0.000000 
#    z 0.004000 0.000000 1.769440 
# 
# From -- ./inp_files/16839.got.cif
#   From: 2010.03.12/outbox.cif.g09.slc.cpg/sg5_9_cif.got.tgz:16839.got - 2010.03.31 09:47:26.
