data_PCOD8048834
_publ_section_title
;
Structure prediction by ZEFSAII (Michael W. Deem and Ramdas Pophale) SiO2 
 PCOD8048834
Probable space group: C 2
;
_chemical_formula_sum "Si O2"
_cell_formula_units_Z 24
_cell_length_a 26.541146
_cell_length_b 9.461530
_cell_length_c 8.764195
_cell_angle_alpha 90.000000
_cell_angle_beta 150.515915
_cell_angle_gamma 90.000000
_cell_volume 1083.224836
_symmetry_space_group_name_H-M "C 2"
_symmetry_group_IT_number 5
_symmetry_cell_setting 'monoclinic'
loop_
_space_group_symop_operation_xyz
x,y,z
-x,y,-z
1/2+x,1/2+y,z
1/2-x,1/2+y,-z
loop_
_atom_site_type_symbol
_atom_site_label
_atom_site_fract_x
_atom_site_fract_y
_atom_site_fract_z
Si Si1 0.531740 0.095530 0.416765
Si Si2 0.299840 0.068589 0.367737
Si Si3 0.655856 0.369886 0.402328
Si Si4 0.490982 0.406421 0.728388
Si Si5 0.636275 0.920189 0.174645
Si Si6 0.425575 0.669917 0.185740
O O1 0.500000 0.037096 0.500000
O O2 0.642675 0.042182 0.643947
O O3 0.534706 0.265135 0.432615
O O4 0.446839 0.040725 0.074393
O O5 0.348771 0.202871 0.580208
O O6 0.323932 0.934876 0.544891
O O7 0.180235 0.104435 0.025601
O O8 0.597524 0.446001 0.385255
O O9 0.767926 0.439204 0.687708
O O10 0.601231 0.392796 0.097844
O O11 0.497360 0.540483 0.638133
O O12 0.592549 0.763771 0.015578
O O13 0.500000 0.757961 0.500000
#
# Coordination Sequence:
#
# PCOD8048834 Si02
#       6
#     4   4   4   4   4   4
#     4  11  23  40  66  93 125 172 218 262 319 388
#     4  10  21  42  66  89 127 173 216 259 311 389
#     4   9  19  36  64  91 120 165 216 265 294 381
#     4  10  19  39  62  91 125 165 217 254 317 381
#     4  11  21  40  65  92 127 170 213 266 318 373
#     4  11  24  41  63  97 139 165 205 277 334 370
#
# _framework density 22.156067
#
# number of rings (size 3 to 8) (size 9 to 14) (size 15 to 20)
#    0.000    1.667    3.333    1.500    0.000    1.333 
#    6.000    5.000    0.000    0.000    0.000    0.000 
#    0.000    0.000    0.000    0.000    0.000    0.000 
#
# Total GULP energy -148672.692515 kJ/mol
# GULP energy per Si atom -12389.391043 kJ/mol
# Density = 2.210564 g / cm^3
# Si number density = 22.156067 Si / 1000 Ang^3
#
#
#
# Elastic Constant Matrix: (Units=GPa)
#
#
# Indices 1 2 3 4 5 6 
#
# 1 137.5288 36.8435 47.4647 0.0000 10.7054 0.0000
# 2 36.8435 67.7710 21.4897 0.0000 9.8077 0.0000
# 3 47.4647 21.4897 102.3631 0.0000 9.5273 0.0000
# 4 0.0000 0.0000 0.0000 21.2292 0.0000 3.6153
# 5 10.7054 9.8077 9.5273 0.0000 30.3163 0.0000
# 6 0.0000 0.0000 0.0000 3.6153 0.0000 29.1460
#
#
#
# Elastic Compliance Matrix: (Units=1/GPa)
#
#
# Indices 1 2 3 4 5 6 
#
# 1 0.009635 -0.003970 -0.003541 0.000000 -0.001005 0.000000
# 2 -0.003970 0.017979 -0.001569 0.000000 -0.003922 0.000000
# 3 -0.003541 -0.001569 0.011925 0.000000 -0.001990 0.000000
# 4 0.000000 0.000000 0.000000 0.048122 0.000000 -0.005969
# 5 -0.001005 -0.003922 -0.001990 0.000000 0.035235 0.000000
# 6 0.000000 0.000000 0.000000 -0.005969 0.000000 0.035050
#
#
# Mechanical properties :
#
#
# Convention : Reuss Voigt Hill
#
# Bulk Modulus (GPa) = 46.77073 57.69542 52.23308
# Shear Modulus (GPa) = 27.28802 29.59597 28.44199
#
# Velocity S-wave (km/s) = 3.51326 3.65882 3.58678
# Velocity P-wave (km/s) = 6.13293 6.62920 6.38589
#
# Compressibility (1/GPa) = 0.02138089
#
# Stress axis : x y z
#
# Youngs Moduli (GPa) = 103.78912 55.62153 83.85446
#
# Poissons Ratio (x) = 0.22081 0.29690
# Poissons Ratio (y) = 0.41202 0.13154
# Poissons Ratio (z) = 0.36748 0.08725
#
# Static dielectric constant tensor:
#      x y z
#    x 4.107730 0.000000 0.198700 
#    y 0.000000 3.773690 0.000000 
#    z 0.198700 0.000000 3.897220 
# 
# 
# High freq. dielectric constant tensor:
#      x y z
#    x 1.868870 0.000000 0.016250 
#    y 0.000000 1.854830 0.000000 
#    z 0.016250 0.000000 1.870030 
# 
# From -- ./inp_files/31893.got.cif
#   From: 2010.03.12/outbox.cif.g09.slc.cpg/sg5_16_cif.got.tgz:31893.got - 2010.03.31 09:47:26.
