data_PCOD8048403
_publ_section_title
;
Structure prediction by ZEFSAII (Michael W. Deem and Ramdas Pophale) SiO2 
 PCOD8048403
Probable space group: C 2
;
_chemical_formula_sum "Si O2"
_cell_formula_units_Z 28
_cell_length_a 21.175634
_cell_length_b 15.287741
_cell_length_c 9.366350
_cell_angle_alpha 90.000000
_cell_angle_beta 152.412045
_cell_angle_gamma 90.000000
_cell_volume 1404.216332
_symmetry_space_group_name_H-M "C 2"
_symmetry_group_IT_number 5
_symmetry_cell_setting 'monoclinic'
loop_
_space_group_symop_operation_xyz
x,y,z
-x,y,-z
1/2+x,1/2+y,z
1/2-x,1/2+y,-z
loop_
_atom_site_type_symbol
_atom_site_label
_atom_site_fract_x
_atom_site_fract_y
_atom_site_fract_z
Si Si1 0.650136 0.095210 0.298701
Si Si2 0.532515 0.345594 0.398148
Si Si3 0.150084 0.601191 0.848688
Si Si4 0.669003 0.518290 0.566723
Si Si5 0.237512 0.685787 0.754678
Si Si6 0.190280 0.742115 0.158050
Si Si7 0.521962 0.692705 0.213306
O O1 0.697479 0.118095 0.551066
O O2 0.645867 0.187684 0.207403
O O3 0.751153 0.025614 0.425009
O O4 0.500000 0.052920 0.000000
O O5 0.500000 0.363718 0.500000
O O6 0.597114 0.426893 0.445322
O O7 0.630973 0.262921 0.571174
O O8 0.391981 0.332219 0.026211
O O9 0.246466 0.622415 0.908223
O O10 0.000000 0.569764 0.500000
O O11 0.221412 0.526592 0.085771
O O12 0.138883 0.689640 0.916581
O O13 0.559132 0.596654 0.348381
O O14 0.385872 0.726896 0.018297
O O15 0.353670 0.757842 0.494259
O O16 0.500000 0.689956 0.000000
#
# Coordination Sequence:
#
# PCOD8048403 Si02
#       7
#     4   4   4   4   4   4   4
#     4  10  18  37  68  97 120 171 217 259 309 397
#     4  12  24  43  62 101 131 167 211 277 329 381
#     4  10  18  38  65  95 120 174 221 258 303 398
#     4  10  25  40  63  94 137 166 212 268 330 374
#     4  12  19  36  70  91 123 168 222 266 306 378
#     4  10  19  38  63  94 126 165 214 261 311 387
#     4  10  21  40  62  95 126 168 220 262 307 394
#
# _framework density 19.939948000000001
#
# number of rings (size 3 to 8) (size 9 to 14) (size 15 to 20)
#    0.000    1.714    7.143    0.857    2.000    1.714 
#    2.571    2.143    3.143    0.000    0.000    0.000 
#    0.000    0.000    0.000    0.000    0.000    0.000 
#
# Total GULP energy -173510.310997 kJ/mol
# GULP energy per Si atom -12393.593643 kJ/mol
# Density = 1.989456 g / cm^3
# Si number density = 19.939948 Si / 1000 Ang^3
#
#
#
# Elastic Constant Matrix: (Units=GPa)
#
#
# Indices 1 2 3 4 5 6 
#
# 1 87.7777 36.4477 15.3389 0.0000 13.4566 0.0000
# 2 36.4477 70.7270 38.8053 0.0000 4.5105 0.0000
# 3 15.3389 38.8053 122.4682 0.0000 16.1189 0.0000
# 4 0.0000 0.0000 0.0000 25.1416 0.0000 9.7301
# 5 13.4566 4.5105 16.1189 0.0000 44.0332 0.0000
# 6 0.0000 0.0000 0.0000 9.7301 0.0000 26.2521
#
#
#
# Elastic Compliance Matrix: (Units=1/GPa)
#
#
# Indices 1 2 3 4 5 6 
#
# 1 0.015272 -0.008300 0.001281 0.000000 -0.004286 0.000000
# 2 -0.008300 0.021627 -0.006152 0.000000 0.002573 0.000000
# 3 0.001281 -0.006152 0.010425 0.000000 -0.003578 0.000000
# 4 0.000000 0.000000 0.000000 0.046436 0.000000 -0.017211
# 5 -0.004286 0.002573 -0.003578 0.000000 0.025066 0.000000
# 6 0.000000 0.000000 0.000000 -0.017211 0.000000 0.044471
#
#
# Mechanical properties :
#
#
# Convention : Reuss Voigt Hill
#
# Bulk Modulus (GPa) = 47.65697 51.35074 49.50386
# Shear Modulus (GPa) = 25.42822 31.77743 28.60282
#
# Velocity S-wave (km/s) = 3.57492 3.99639 3.79152
# Velocity P-wave (km/s) = 6.40252 6.86320 6.63686
#
# Compressibility (1/GPa) = 0.02098329
#
# Stress axis : x y z
#
# Youngs Moduli (GPa) = 65.48024 46.23817 95.92238
#
# Poissons Ratio (x) = 0.38376 -0.12289
# Poissons Ratio (y) = 0.54346 0.59011
# Poissons Ratio (z) = -0.08389 0.28445
#
# Static dielectric constant tensor:
#      x y z
#    x 3.964310 0.000000 0.026640 
#    y 0.000000 3.146030 0.000000 
#    z 0.026640 0.000000 3.989290 
# 
# 
# High freq. dielectric constant tensor:
#      x y z
#    x 1.795530 0.000000 0.001040 
#    y 0.000000 1.720880 0.000000 
#    z 0.001040 0.000000 1.796860 
# 
# From -- ./inp_files/29920.got.cif
#   From: 2010.03.12/outbox.cif.g09.slc.cpg/sg5_15_cif.got.tgz:29920.got - 2010.03.31 09:47:26.
