data_PCOD8048699
_publ_section_title
;
Structure prediction by ZEFSAII (Michael W. Deem and Ramdas Pophale) SiO2 
 PCOD8048699
Probable space group: C 2
;
_chemical_formula_sum "Si O2"
_cell_formula_units_Z 30
_cell_length_a 19.125712
_cell_length_b 6.310591
_cell_length_c 19.488791
_cell_angle_alpha 90.000000
_cell_angle_beta 39.961759
_cell_angle_gamma 90.000000
_cell_volume 1510.756121
_symmetry_space_group_name_H-M "C 2"
_symmetry_group_IT_number 5
_symmetry_cell_setting 'monoclinic'
loop_
_space_group_symop_operation_xyz
x,y,z
-x,y,-z
1/2+x,1/2+y,z
1/2-x,1/2+y,-z
loop_
_atom_site_type_symbol
_atom_site_label
_atom_site_fract_x
_atom_site_fract_y
_atom_site_fract_z
Si Si1 0.793551 0.887810 0.867740
Si Si2 0.378983 0.226443 0.675890
Si Si3 0.078592 0.543996 0.605995
Si Si4 0.882228 0.565881 0.911062
Si Si5 0.500000 0.577423 0.500000
Si Si6 0.907762 0.802938 0.268674
Si Si7 0.518727 0.685505 0.240128
Si Si8 0.820324 0.406008 0.600245
O O1 0.779091 0.790551 0.801994
O O2 0.812794 0.708899 0.910905
O O3 0.901429 0.030579 0.778566
O O4 0.688022 0.026996 0.967215
O O5 0.463875 0.106211 0.659844
O O6 0.435814 0.432600 0.601770
O O7 0.334460 0.068020 0.652001
O O8 0.112672 0.707009 0.639917
O O9 0.170858 0.538057 0.477718
O O10 0.062152 0.309746 0.648857
O O11 0.905139 0.339458 0.860832
O O12 0.997704 0.674754 0.842573
O O13 0.412843 0.727045 0.528074
O O14 0.797177 0.793001 0.307583
O O15 0.942605 0.047667 0.247278
#
# Coordination Sequence:
#
# PCOD8048699 Si02
#       8
#     4   4   4   4   2   4   4   4
#     4  11  20  35  66  99 121 161 215 278 325 377
#     4  12  23  40  63 100 127 167 226 254 329 399
#     4  11  21  39  60  95 126 166 219 253 322 398
#     4  10  20  37  62  98 122 160 216 276 331 376
#     4  12  24  42  66  84 132 180 212 262 318 400
#     4  10  25  39  61  94 132 167 217 267 332 383
#     4  10  19  36  63  90 128 155 203 274 323 375
#     4  12  26  41  60  93 135 178 211 274 314 402
#
# _framework density 19.857607000000002
#
# number of rings (size 3 to 8) (size 9 to 14) (size 15 to 20)
#    0.000    1.067    8.000    0.800    1.867    2.133 
#    0.000    0.000    0.000    4.800    0.000    0.000 
#    0.000    0.000    0.000    0.000    0.000    0.000 
#
# Total GULP energy -185977.385116 kJ/mol
# GULP energy per Si atom -12398.492341 kJ/mol
# Density = 1.981241 g / cm^3
# Si number density = 19.857607 Si / 1000 Ang^3
#
#
#
# Elastic Constant Matrix: (Units=GPa)
#
#
# Indices 1 2 3 4 5 6 
#
# 1 92.0451 41.6505 51.0754 0.0019 -13.6714 -0.0016
# 2 41.6505 105.9944 42.2989 0.0050 1.3468 -0.0036
# 3 51.0754 42.2989 135.4835 -0.0001 7.4690 0.0013
# 4 0.0019 0.0050 -0.0001 38.2483 -0.0031 0.3547
# 5 -13.6714 1.3468 7.4690 -0.0031 27.8717 0.0003
# 6 -0.0016 -0.0036 0.0013 0.3547 0.0003 18.7381
#
#
#
# Elastic Compliance Matrix: (Units=1/GPa)
#
#
# Indices 1 2 3 4 5 6 
#
# 1 0.017828 -0.004827 -0.005794 0.000001 0.010531 0.000001
# 2 -0.004827 0.012088 -0.001818 -0.000002 -0.002464 0.000002
# 3 -0.005794 -0.001818 0.010439 0.000000 -0.005552 -0.000001
# 4 0.000001 -0.000002 0.000000 0.026150 0.000003 -0.000495
# 5 0.010531 -0.002464 -0.005552 0.000003 0.042651 0.000000
# 6 0.000001 0.000002 -0.000001 -0.000495 0.000000 0.053377
#
#
# Mechanical properties :
#
#
# Convention : Reuss Voigt Hill
#
# Bulk Modulus (GPa) = 64.61763 67.06361 65.84062
# Shear Modulus (GPa) = 25.96452 30.20484 28.08468
#
# Velocity S-wave (km/s) = 3.61991 3.90432 3.76480
# Velocity P-wave (km/s) = 7.07692 7.36006 7.21988
#
# Compressibility (1/GPa) = 0.01547565
#
# Stress axis : x y z
#
# Youngs Moduli (GPa) = 56.09212 82.72525 95.79285
#
# Poissons Ratio (x) = 0.39931 0.55506
# Poissons Ratio (y) = 0.27075 0.17420
# Poissons Ratio (z) = 0.32502 0.15043
#
# Static dielectric constant tensor:
#      x y z
#    x 3.343210 0.000000 0.084280 
#    y 0.000000 3.892080 0.000010 
#    z 0.084280 0.000010 3.856540 
# 
# 
# High freq. dielectric constant tensor:
#      x y z
#    x 1.735850 0.000000 0.000390 
#    y 0.000000 1.792640 0.000000 
#    z 0.000390 0.000000 1.775840 
# 
# From -- ./inp_files/66922.got.cif
#   From: 2010.03.12/outbox.cif.g09.slc.cpg/sg5_34_cif.got.tgz:66922.got - 2010.03.31 09:47:26.
