data_PCOD8048404
_publ_section_title
;
Structure prediction by ZEFSAII (Michael W. Deem and Ramdas Pophale) SiO2 
 PCOD8048404
Probable space group: C 2
;
_chemical_formula_sum "Si O2"
_cell_formula_units_Z 28
_cell_length_a 13.048738
_cell_length_b 13.508207
_cell_length_c 7.849804
_cell_angle_alpha 90.000000
_cell_angle_beta 71.486416
_cell_angle_gamma 90.000000
_cell_volume 1312.040225
_symmetry_space_group_name_H-M "C 2"
_symmetry_group_IT_number 5
_symmetry_cell_setting 'monoclinic'
loop_
_space_group_symop_operation_xyz
x,y,z
-x,y,-z
1/2+x,1/2+y,z
1/2-x,1/2+y,-z
loop_
_atom_site_type_symbol
_atom_site_label
_atom_site_fract_x
_atom_site_fract_y
_atom_site_fract_z
Si Si1 0.817341 0.001780 0.316468
Si Si2 0.032271 0.352307 0.786520
Si Si3 0.689497 0.483630 0.079073
Si Si4 0.419000 0.037465 0.903032
Si Si5 0.486158 0.639885 0.808528
Si Si6 0.211352 0.853200 0.373847
Si Si7 0.122855 0.639639 0.388461
O O1 0.912261 0.078204 0.313278
O O2 0.703064 0.054369 0.415604
O O3 0.830172 0.911550 0.438837
O O4 0.829347 0.962515 0.113291
O O5 0.983359 0.251021 0.728951
O O6 0.159782 0.350141 0.694222
O O7 0.974016 0.452859 0.748260
O O8 0.000000 0.362564 0.000000
O O9 0.624107 0.581520 0.171443
O O10 0.658508 0.394682 0.224966
O O11 0.815136 0.495826 0.056325
O O12 0.375399 0.130104 0.817275
O O13 0.500000 0.080515 0.000000
O O14 0.500000 0.658222 0.000000
O O15 0.165233 0.744422 0.426376
O O16 0.000000 0.619216 0.500000
#
# Coordination Sequence:
#
# PCOD8048404 Si02
#       7
#     4   4   4   4   4   4   4
#     4  10  23  44  66  94 134 169 216 272 325 385
#     4  10  18  37  70  92 123 173 215 269 323 372
#     4  10  22  39  68  97 125 174 214 266 329 379
#     4  10  20  39  64  96 128 169 219 265 322 384
#     4   9  19  38  65  94 131 168 214 273 323 381
#     4  12  23  42  68  93 132 171 216 270 324 392
#     4  11  25  42  63  96 133 174 213 268 336 385
#
# _framework density 21.340809
#
# number of rings (size 3 to 8) (size 9 to 14) (size 15 to 20)
#    0.000    1.714    4.286    0.857    4.000    0.000 
#    2.571    2.857    6.286    0.000    0.000    0.000 
#    0.000    0.000    0.000    0.000    0.000    0.000 
#
# Total GULP energy -173450.973558 kJ/mol
# GULP energy per Si atom -12389.355254 kJ/mol
# Density = 2.129224 g / cm^3
# Si number density = 21.340809 Si / 1000 Ang^3
#
#
#
# Elastic Constant Matrix: (Units=GPa)
#
#
# Indices 1 2 3 4 5 6 
#
# 1 91.3944 38.2137 21.1356 0.0000 -15.7463 0.0000
# 2 38.2137 105.6995 33.4021 0.0000 8.7001 0.0000
# 3 21.1356 33.4021 76.4901 0.0000 0.2819 0.0000
# 4 0.0000 0.0000 0.0000 20.0999 0.0000 3.4577
# 5 -15.7463 8.7001 0.2819 0.0000 35.2415 0.0000
# 6 0.0000 0.0000 0.0000 3.4577 0.0000 30.7684
#
#
#
# Elastic Compliance Matrix: (Units=1/GPa)
#
#
# Indices 1 2 3 4 5 6 
#
# 1 0.015074 -0.005560 -0.001767 0.000000 0.008122 0.000000
# 2 -0.005560 0.013283 -0.004243 0.000000 -0.005730 0.000000
# 3 -0.001767 -0.004243 0.015414 0.000000 0.000135 0.000000
# 4 0.000000 0.000000 0.000000 0.050732 0.000000 -0.005701
# 5 0.008122 -0.005730 0.000135 0.000000 0.033418 0.000000
# 6 0.000000 0.000000 0.000000 -0.005701 0.000000 0.033142
#
#
# Mechanical properties :
#
#
# Convention : Reuss Voigt Hill
#
# Bulk Modulus (GPa) = 48.47027 51.00963 49.73995
# Shear Modulus (GPa) = 26.16677 29.27746 27.72211
#
# Velocity S-wave (km/s) = 3.50542 3.70794 3.60810
# Velocity P-wave (km/s) = 6.25666 6.50277 6.38090
#
# Compressibility (1/GPa) = 0.02063120
#
# Stress axis : x y z
#
# Youngs Moduli (GPa) = 66.33786 75.28212 64.87441
#
# Poissons Ratio (x) = 0.41856 0.11465
# Poissons Ratio (y) = 0.36883 0.27528
# Poissons Ratio (z) = 0.11724 0.31944
#
# Static dielectric constant tensor:
#      x y z
#    x 3.870300 0.000000 -0.197580 
#    y 0.000000 4.114070 0.000000 
#    z -0.197580 0.000000 3.834880 
# 
# 
# High freq. dielectric constant tensor:
#      x y z
#    x 1.838160 0.000000 -0.020520 
#    y 0.000000 1.833290 0.000000 
#    z -0.020520 0.000000 1.825840 
# 
# From -- ./inp_files/23766.got.cif
#   From: 2010.03.12/outbox.cif.g09.slc.cpg/sg5_12_cif.got.tgz:23766.got - 2010.03.31 09:47:26.
