data_PCOD8048014
_publ_section_title
;
Structure prediction by ZEFSAII (Michael W. Deem and Ramdas Pophale) SiO2 
 PCOD8048014
Probable space group: P 21
;
_chemical_formula_sum "Si O2"
_cell_formula_units_Z 16
_cell_length_a 9.828883
_cell_length_b 8.813572
_cell_length_c 12.996952
_cell_angle_alpha 90.000000
_cell_angle_beta 145.389570
_cell_angle_gamma 90.000000
_cell_volume 639.500756
_symmetry_space_group_name_H-M "P 21"
_symmetry_group_IT_number 4
_symmetry_cell_setting 'monoclinic'
loop_
_space_group_symop_operation_xyz
x,y,z
-x,1/2+y,-z
loop_
_atom_site_type_symbol
_atom_site_label
_atom_site_fract_x
_atom_site_fract_y
_atom_site_fract_z
Si Si1 0.002217 0.051490 0.273700
Si Si2 0.296207 0.921633 0.123698
Si Si3 0.827103 0.290748 0.294890
Si Si4 0.883902 0.084451 0.966995
Si Si5 0.413274 0.358405 0.895298
Si Si6 0.977740 0.623423 0.399704
Si Si7 0.502485 0.921791 0.616149
Si Si8 0.606092 0.088047 0.475039
O O1 0.010598 0.224550 0.321671
O O2 0.755983 0.990283 0.168754
O O3 0.004359 0.047828 0.152022
O O4 0.220392 0.953688 0.454719
O O5 0.192047 0.758240 0.090655
O O6 0.398044 0.922290 0.071140
O O7 0.508888 0.964081 0.334088
O O8 0.080222 0.042801 0.001804
O O9 0.910966 0.453074 0.387123
O O10 0.832863 0.181161 0.397402
O O11 0.559525 0.295896 0.083705
O O12 0.649114 0.977457 0.807476
O O13 0.264230 0.220798 0.753283
O O14 0.116919 0.626719 0.377761
O O15 0.549256 0.743602 0.626283
O O16 0.602866 0.022646 0.586277
#
# Coordination Sequence:
#
# PCOD8048014 Si02
#       8
#     2   2   2   2   2   2   2   2
#     4  12  27  54  78 118 164 213 276 333 414 485
#     4  12  27  55  81 124 159 215 282 334 412 495
#     4  12  28  50  82 117 162 212 270 341 413 484
#     4  12  29  51  82 114 169 220 270 342 406 496
#     4  12  28  54  83 121 159 213 276 348 407 493
#     4  12  29  49  82 120 161 214 272 342 415 491
#     4  12  29  50  80 116 165 221 269 340 406 493
#     4  12  27  51  80 118 165 216 273 336 413 493
#
# _framework density 25.019517
#
# number of rings (size 3 to 8) (size 9 to 14) (size 15 to 20)
#    0.000    0.000    3.750    4.500    8.750    0.000 
#    2.250    0.000    0.000    0.000    0.000    0.000 
#    0.000    0.000    0.000    0.000    0.000    0.000 
#
# Total GULP energy -198498.005088 kJ/mol
# GULP energy per Si atom -12406.125318 kJ/mol
# Density = 2.496257 g / cm^3
# Si number density = 25.019517 Si / 1000 Ang^3
#
#
#
# Elastic Constant Matrix: (Units=GPa)
#
#
# Indices 1 2 3 4 5 6 
#
# 1 135.8030 46.4818 26.8959 0.0000 16.8184 0.0000
# 2 46.4818 117.2290 40.2020 0.0000 -5.2231 0.0000
# 3 26.8959 40.2020 110.4294 0.0000 5.0064 0.0000
# 4 0.0000 0.0000 0.0000 37.1166 0.0000 0.3472
# 5 16.8184 -5.2231 5.0064 0.0000 31.8448 0.0000
# 6 0.0000 0.0000 0.0000 0.3472 0.0000 42.5763
#
#
#
# Elastic Compliance Matrix: (Units=1/GPa)
#
#
# Indices 1 2 3 4 5 6 
#
# 1 0.009471 -0.003766 -0.000686 0.000000 -0.005512 0.000000
# 2 -0.003766 0.011396 -0.003431 0.000000 0.004397 0.000000
# 3 -0.000686 -0.003431 0.010556 0.000000 -0.001860 0.000000
# 4 0.000000 0.000000 0.000000 0.026944 0.000000 -0.000220
# 5 -0.005512 0.004397 -0.001860 0.000000 0.035327 0.000000
# 6 0.000000 0.000000 0.000000 -0.000220 0.000000 0.023489
#
#
# Mechanical properties :
#
#
# Convention : Reuss Voigt Hill
#
# Bulk Modulus (GPa) = 63.86567 65.62453 64.74510
# Shear Modulus (GPa) = 36.18808 38.96633 37.57721
#
# Velocity S-wave (km/s) = 3.80727 3.95072 3.87966
# Velocity P-wave (km/s) = 6.70141 6.86274 6.78255
#
# Compressibility (1/GPa) = 0.01565786
#
# Stress axis : x y z
#
# Youngs Moduli (GPa) = 105.58630 87.75101 94.73306
#
# Poissons Ratio (x) = 0.33043 0.06498
# Poissons Ratio (y) = 0.39760 0.32502
# Poissons Ratio (z) = 0.07243 0.30106
#
# Static dielectric constant tensor:
#      x y z
#    x 4.423970 0.000000 0.074260 
#    y 0.000000 4.659560 0.000000 
#    z 0.074260 0.000000 4.597030 
# 
# 
# High freq. dielectric constant tensor:
#      x y z
#    x 1.996250 0.000000 0.004130 
#    y 0.000000 2.012120 0.000000 
#    z 0.004130 0.000000 2.004280 
# 
# From -- ./inp_files/11111.got.cif
#   From: 2010.03.12/outbox.cif.g09.slc.cpg/sg4_6_cif.got.tgz:11111.got - 2010.03.31 09:31:35.
