data_PCOD8048635
_publ_section_title
;
Structure prediction by ZEFSAII (Michael W. Deem and Ramdas Pophale) SiO2 
 PCOD8048635
Probable space group: C 2
;
_chemical_formula_sum "Si O2"
_cell_formula_units_Z 28
_cell_length_a 8.803993
_cell_length_b 18.832145
_cell_length_c 8.456309
_cell_angle_alpha 90.000000
_cell_angle_beta 87.794193
_cell_angle_gamma 90.000000
_cell_volume 1401.000852
_symmetry_space_group_name_H-M "C 2"
_symmetry_group_IT_number 5
_symmetry_cell_setting 'monoclinic'
loop_
_space_group_symop_operation_xyz
x,y,z
-x,y,-z
1/2+x,1/2+y,z
1/2-x,1/2+y,-z
loop_
_atom_site_type_symbol
_atom_site_label
_atom_site_fract_x
_atom_site_fract_y
_atom_site_fract_z
Si Si1 0.404366 0.880630 0.359179
Si Si2 0.835142 0.138238 0.552873
Si Si3 0.170979 0.778735 0.539584
Si Si4 0.116788 0.995536 0.623408
Si Si5 0.213900 0.372016 0.219468
Si Si6 0.595909 0.571252 0.134965
Si Si7 0.169597 0.458498 0.932934
O O1 0.500000 0.915192 0.500000
O O2 0.287346 0.821082 0.421793
O O3 0.536624 0.849056 0.240027
O O4 0.318923 0.938730 0.254051
O O5 0.705734 0.195374 0.520036
O O6 0.804088 0.065682 0.456753
O O7 0.836460 0.126063 0.741610
O O8 0.000000 0.169525 0.500000
O O9 0.189288 0.804679 0.722117
O O10 0.000000 0.793799 0.500000
O O11 0.000000 0.961907 0.500000
O O12 0.019843 0.015403 0.780995
O O13 0.244449 0.937946 0.662436
O O14 0.244240 0.395222 0.037403
O O15 0.734958 0.529722 0.047571
O O16 0.500000 0.610858 0.000000
O O17 0.000000 0.475059 0.000000
#
# Coordination Sequence:
#
# PCOD8048635 Si02
#       7
#     4   4   4   4   4   4   4
#     4   9  21  35  58  82 114 156 186 235 291 337
#     4   9  21  40  58  82 119 153 199 232 291 349
#     4  11  23  40  58  85 116 155 201 244 284 341
#     4   9  19  33  59  91 114 149 196 238 284 344
#     4  10  19  36  60  87 119 147 193 234 300 340
#     4  10  19  35  60  86 117 156 186 238 297 336
#     4  10  21  36  55  91 121 147 188 242 291 347
#
# _framework density 19.985710000000001
#
# number of rings (size 3 to 8) (size 9 to 14) (size 15 to 20)
#    0.000    2.571    1.429    1.714   10.000    0.000 
#    5.143    6.429    0.000    0.000    0.000    0.000 
#    0.000    0.000    0.000    0.000    0.000    0.000 
#
# Total GULP energy -173449.025077 kJ/mol
# GULP energy per Si atom -12389.216077 kJ/mol
# Density = 1.994022 g / cm^3
# Si number density = 19.985710 Si / 1000 Ang^3
#
#
#
# Elastic Constant Matrix: (Units=GPa)
#
#
# Indices 1 2 3 4 5 6 
#
# 1 90.1423 40.7341 28.6103 0.0000 6.1963 0.0000
# 2 40.7341 73.8949 23.9216 0.0000 1.5116 0.0000
# 3 28.6103 23.9216 104.4153 0.0000 10.2332 0.0000
# 4 0.0000 0.0000 0.0000 20.0121 0.0000 4.3154
# 5 6.1963 1.5116 10.2332 0.0000 26.3825 0.0000
# 6 0.0000 0.0000 0.0000 4.3154 0.0000 30.8722
#
#
#
# Elastic Compliance Matrix: (Units=1/GPa)
#
#
# Indices 1 2 3 4 5 6 
#
# 1 0.015467 -0.007755 -0.002234 0.000000 -0.002322 0.000000
# 2 -0.007755 0.018511 -0.002277 0.000000 0.001644 0.000000
# 3 -0.002234 -0.002277 0.011067 0.000000 -0.003638 0.000000
# 4 0.000000 0.000000 0.000000 0.051523 0.000000 -0.007202
# 5 -0.002322 0.001644 -0.003638 0.000000 0.039766 0.000000
# 6 0.000000 0.000000 0.000000 -0.007202 0.000000 0.033398
#
#
# Mechanical properties :
#
#
# Convention : Reuss Voigt Hill
#
# Bulk Modulus (GPa) = 48.74896 50.55383 49.65140
# Shear Modulus (GPa) = 24.86299 27.13247 25.99773
#
# Velocity S-wave (km/s) = 3.53092 3.68855 3.61060
# Velocity P-wave (km/s) = 6.40844 6.59473 6.50225
#
# Compressibility (1/GPa) = 0.02051326
#
# Stress axis : x y z
#
# Youngs Moduli (GPa) = 64.65541 54.02111 90.35576
#
# Poissons Ratio (x) = 0.41895 0.20182
# Poissons Ratio (y) = 0.50142 0.20575
# Poissons Ratio (z) = 0.14442 0.12301
#
# Static dielectric constant tensor:
#      x y z
#    x 3.638080 0.000000 0.122940 
#    y 0.000000 3.231130 0.000000 
#    z 0.122940 0.000000 3.912200 
# 
# 
# High freq. dielectric constant tensor:
#      x y z
#    x 1.780540 0.000000 0.007730 
#    y 0.000000 1.738850 0.000000 
#    z 0.007730 0.000000 1.786450 
# 
# From -- ./inp_files/16513.got.cif
#   From: 2010.03.12/outbox.cif.g09.slc.cpg/sg5_9_cif.got.tgz:16513.got - 2010.03.31 09:47:26.
