data_PCOD8048971
_publ_section_title
;
Structure prediction by ZEFSAII (Michael W. Deem and Ramdas Pophale) SiO2 
 PCOD8048971
Probable space group: C 2
;
_chemical_formula_sum "Si O2"
_cell_formula_units_Z 32
_cell_length_a 10.904976
_cell_length_b 16.772646
_cell_length_c 21.431859
_cell_angle_alpha 90.000000
_cell_angle_beta 156.910817
_cell_angle_gamma 90.000000
_cell_volume 1537.280994
_symmetry_space_group_name_H-M "C 2"
_symmetry_group_IT_number 5
_symmetry_cell_setting 'monoclinic'
loop_
_space_group_symop_operation_xyz
x,y,z
-x,y,-z
1/2+x,1/2+y,z
1/2-x,1/2+y,-z
loop_
_atom_site_type_symbol
_atom_site_label
_atom_site_fract_x
_atom_site_fract_y
_atom_site_fract_z
Si Si1 0.374506 0.811130 0.320638
Si Si2 0.824853 0.631418 0.127938
Si Si3 0.305056 0.682614 0.182401
Si Si4 0.873941 0.062687 0.316127
Si Si5 0.194300 0.686193 0.418349
Si Si6 0.306499 0.763875 0.739616
Si Si7 0.298329 0.802161 0.965520
Si Si8 0.590144 0.410518 0.474807
O O1 0.261491 0.746644 0.216860
O O2 0.593286 0.766543 0.474591
O O3 0.545355 0.887757 0.368717
O O4 0.049027 0.841227 0.199925
O O5 0.709081 0.706412 0.034508
O O6 0.016184 0.570675 0.173821
O O7 0.078238 0.669472 0.294313
O O8 0.500000 0.589501 0.000000
O O9 0.397720 0.597582 0.256978
O O10 0.561116 0.714831 0.255712
O O11 0.000000 0.668645 0.000000
O O12 0.122007 0.108225 0.475129
O O13 0.971033 0.969926 0.364607
O O14 0.878979 0.696826 0.309472
O O15 0.074251 0.826035 0.600622
O O16 0.534542 0.818228 0.889805
O O17 0.500000 0.832504 0.000000
O O18 0.500000 0.450044 0.500000
#
# Coordination Sequence:
#
# PCOD8048971 Si02
#       8
#     4   4   4   4   4   4   4   4
#     4  10  21  36  62  96 124 167 223 270 326 390
#     4  11  19  34  58  92 124 159 209 267 326 378
#     4  11  20  38  69  96 124 169 225 282 318 397
#     4  11  24  39  61  95 133 165 211 273 339 387
#     4  10  20  33  60  88 123 161 213 270 314 387
#     4  11  21  37  64  93 121 168 231 272 324 395
#     4  11  20  36  63  95 125 162 225 281 323 378
#     4  11  23  41  62  93 137 176 215 272 340 403
#
# _framework density 20.815974000000001
#
# number of rings (size 3 to 8) (size 9 to 14) (size 15 to 20)
#    0.000    1.250    7.500    1.125    0.000    0.000 
#    0.000    3.750    5.500    0.000    0.000    0.000 
#    0.000    0.000    0.000    0.000    0.000    0.000 
#
# Total GULP energy -198250.353134 kJ/mol
# GULP energy per Si atom -12390.647071 kJ/mol
# Density = 2.076860 g / cm^3
# Si number density = 20.815974 Si / 1000 Ang^3
#
#
#
# Elastic Constant Matrix: (Units=GPa)
#
#
# Indices 1 2 3 4 5 6 
#
# 1 116.0136 29.4447 47.7303 0.0137 14.3623 0.0323
# 2 29.4447 64.4531 15.3700 -0.0376 8.4501 0.0096
# 3 47.7303 15.3700 107.7552 -0.1025 15.9067 0.2539
# 4 0.0137 -0.0376 -0.1025 27.8190 0.0679 -5.9462
# 5 14.3623 8.4501 15.9067 0.0679 43.8733 0.0271
# 6 0.0323 0.0096 0.2539 -5.9462 0.0271 27.3269
#
#
#
# Elastic Compliance Matrix: (Units=1/GPa)
#
#
# Indices 1 2 3 4 5 6 
#
# 1 0.011626 -0.004084 -0.004355 -0.000018 -0.001440 0.000026
# 2 -0.004084 0.017737 -0.000437 0.000032 -0.001921 0.000011
# 3 -0.004355 -0.000437 0.011674 0.000031 -0.002723 -0.000094
# 4 -0.000018 0.000032 0.000031 0.037700 -0.000075 0.008203
# 5 -0.001440 -0.001921 -0.002723 -0.000075 0.024622 -0.000013
# 6 0.000026 0.000011 -0.000094 0.008203 -0.000013 0.038380
#
#
# Mechanical properties :
#
#
# Convention : Reuss Voigt Hill
#
# Bulk Modulus (GPa) = 42.94669 52.59021 47.76845
# Shear Modulus (GPa) = 29.89488 32.84896 31.37192
#
# Velocity S-wave (km/s) = 3.79377 3.97680 3.88636
# Velocity P-wave (km/s) = 6.31400 6.81218 6.56781
#
# Compressibility (1/GPa) = 0.02328468
#
# Stress axis : x y z
#
# Youngs Moduli (GPa) = 86.01301 56.37921 85.66200
#
# Poissons Ratio (x) = 0.23025 0.37303
# Poissons Ratio (y) = 0.35128 0.03747
# Poissons Ratio (z) = 0.37456 0.02466
#
# Static dielectric constant tensor:
#      x y z
#    x 3.863820 0.000310 0.045540 
#    y 0.000310 3.332130 0.000050 
#    z 0.045540 0.000050 3.996630 
# 
# 
# High freq. dielectric constant tensor:
#      x y z
#    x 1.820970 0.000000 0.007560 
#    y 0.000000 1.759480 -0.000010 
#    z 0.007560 -0.000010 1.832790 
# 
# From -- ./inp_files/68449.got.cif
#   From: 2010.03.12/outbox.cif.g09.slc.cpg/sg5_35_cif.got.tgz:68449.got - 2010.03.31 09:47:26.
