data_PCOD8048332
_publ_section_title
;
Structure prediction by ZEFSAII (Michael W. Deem and Ramdas Pophale) SiO2 
 PCOD8048332
Probable space group: C 2
;
_chemical_formula_sum "Si O2"
_cell_formula_units_Z 32
_cell_length_a 24.960303
_cell_length_b 11.488523
_cell_length_c 8.912208
_cell_angle_alpha 90.000000
_cell_angle_beta 139.024942
_cell_angle_gamma 90.000000
_cell_volume 1675.809704
_symmetry_space_group_name_H-M "C 2"
_symmetry_group_IT_number 5
_symmetry_cell_setting 'monoclinic'
loop_
_space_group_symop_operation_xyz
x,y,z
-x,y,-z
1/2+x,1/2+y,z
1/2-x,1/2+y,-z
loop_
_atom_site_type_symbol
_atom_site_label
_atom_site_fract_x
_atom_site_fract_y
_atom_site_fract_z
Si Si1 0.380154 0.394150 0.023739
Si Si2 0.319719 0.246160 0.149692
Si Si3 0.929416 0.133981 0.047739
Si Si4 0.216081 0.579547 0.182464
Si Si5 0.702871 0.805210 0.156429
Si Si6 0.442248 0.310492 0.654350
Si Si7 0.835007 0.746753 0.676301
Si Si8 0.397933 0.572247 0.639510
O O1 0.327861 0.355851 0.055900
O O2 0.462467 0.315907 0.180233
O O3 0.397835 0.529633 0.087566
O O4 0.330297 0.365126 0.766348
O O5 0.236674 0.263048 0.067648
O O6 0.398498 0.245904 0.423590
O O7 0.316645 0.127757 0.045884
O O8 0.888045 0.254472 0.010057
O O9 0.904984 0.088750 0.831908
O O10 0.027333 0.147034 0.274087
O O11 0.199701 0.443391 0.156758
O O12 0.167881 0.635558 0.220480
O O13 0.311185 0.616803 0.396476
O O14 0.758298 0.750248 0.403379
O O15 0.419289 0.240079 0.757991
O O16 0.405254 0.438581 0.604847
#
# Coordination Sequence:
#
# PCOD8048332 Si02
#       8
#     4   4   4   4   4   4   4   4
#     4  10  19  34  60  89 114 141 197 253 300 343
#     4  10  23  34  54  83 118 159 193 238 296 354
#     4  10  20  33  63  93 115 147 187 259 310 344
#     4  11  21  38  56  84 125 159 197 243 289 366
#     4  11  22  37  57  86 126 155 196 240 300 357
#     4  10  18  36  58  90 112 140 192 259 297 338
#     4  10  19  33  59  86 112 153 191 246 298 348
#     4  10  18  35  61  91 118 140 193 252 302 342
#
# _framework density 19.095247000000001
#
# number of rings (size 3 to 8) (size 9 to 14) (size 15 to 20)
#    0.000    1.750    5.000    0.750    1.750    0.000 
#    0.000    0.625   11.000    3.000    0.000    0.000 
#    0.000    0.000    0.000    0.000    0.000    0.000 
#
# Total GULP energy -198326.664218 kJ/mol
# GULP energy per Si atom -12395.416514 kJ/mol
# Density = 1.905178 g / cm^3
# Si number density = 19.095247 Si / 1000 Ang^3
#
#
#
# Elastic Constant Matrix: (Units=GPa)
#
#
# Indices 1 2 3 4 5 6 
#
# 1 103.2723 45.6897 45.1582 0.0000 -2.4350 0.0000
# 2 45.6897 97.4299 30.7964 0.0000 2.2772 0.0000
# 3 45.1582 30.7964 72.9587 0.0000 -2.5992 0.0000
# 4 0.0000 0.0000 0.0000 21.1890 0.0000 6.5006
# 5 -2.4350 2.2772 -2.5992 0.0000 36.6202 0.0000
# 6 0.0000 0.0000 0.0000 6.5006 0.0000 28.6120
#
#
#
# Elastic Compliance Matrix: (Units=1/GPa)
#
#
# Indices 1 2 3 4 5 6 
#
# 1 0.014964 -0.004751 -0.007229 0.000000 0.000777 0.000000
# 2 -0.004751 0.013396 -0.002762 0.000000 -0.001345 0.000000
# 3 -0.007229 -0.002762 0.019385 0.000000 0.001067 0.000000
# 4 0.000000 0.000000 0.000000 0.050730 0.000000 -0.011526
# 5 0.000777 -0.001345 0.001067 0.000000 0.027518 0.000000
# 6 0.000000 0.000000 0.000000 -0.011526 0.000000 0.037569
#
#
# Mechanical properties :
#
#
# Convention : Reuss Voigt Hill
#
# Bulk Modulus (GPa) = 54.76045 57.43882 56.09963
# Shear Modulus (GPa) = 25.10867 27.41869 26.26368
#
# Velocity S-wave (km/s) = 3.63011 3.79343 3.71267
# Velocity P-wave (km/s) = 6.80515 7.02369 6.91528
#
# Compressibility (1/GPa) = 0.01826135
#
# Stress axis : x y z
#
# Youngs Moduli (GPa) = 66.82513 74.64867 51.58648
#
# Poissons Ratio (x) = 0.35463 0.37294
# Poissons Ratio (y) = 0.31746 0.14249
# Poissons Ratio (z) = 0.48310 0.20619
#
# Static dielectric constant tensor:
#      x y z
#    x 3.751320 0.000000 -0.005210 
#    y 0.000000 3.215990 0.000000 
#    z -0.005210 0.000000 3.552200 
# 
# 
# High freq. dielectric constant tensor:
#      x y z
#    x 1.754250 0.000000 -0.007590 
#    y 0.000000 1.711040 0.000000 
#    z -0.007590 0.000000 1.736720 
# 
# From -- ./inp_files/27269.got.cif
#   From: 2010.03.12/outbox.cif.g09.slc.cpg/sg5_14_cif.got.tgz:27269.got - 2010.03.31 09:47:26.
