data_PCOD8048755
_publ_section_title
;
Structure prediction by ZEFSAII (Michael W. Deem and Ramdas Pophale) SiO2 
 PCOD8048755
Probable space group: C 2
;
_chemical_formula_sum "Si O2"
_cell_formula_units_Z 30
_cell_length_a 12.199930
_cell_length_b 14.937791
_cell_length_c 8.548145
_cell_angle_alpha 90.000000
_cell_angle_beta 85.859872
_cell_angle_gamma 90.000000
_cell_volume 1553.748812
_symmetry_space_group_name_H-M "C 2"
_symmetry_group_IT_number 5
_symmetry_cell_setting 'monoclinic'
loop_
_space_group_symop_operation_xyz
x,y,z
-x,y,-z
1/2+x,1/2+y,z
1/2-x,1/2+y,-z
loop_
_atom_site_type_symbol
_atom_site_label
_atom_site_fract_x
_atom_site_fract_y
_atom_site_fract_z
Si Si1 0.875342 0.960230 0.372374
Si Si2 0.388009 0.749591 0.600290
Si Si3 0.500000 0.156059 0.500000
Si Si4 0.892850 0.048631 0.684542
Si Si5 0.234284 0.421055 0.824021
Si Si6 0.820815 0.413613 0.818226
Si Si7 0.973313 0.488241 0.333270
Si Si8 0.321374 0.292451 0.567008
O O1 0.784460 0.962955 0.246356
O O2 0.879398 0.858153 0.434502
O O3 0.840675 0.023093 0.521055
O O4 0.991868 0.996738 0.298269
O O5 0.500000 0.773221 0.500000
O O6 0.403950 0.655251 0.689693
O O7 0.358212 0.821670 0.734675
O O8 0.290635 0.748375 0.484312
O O9 0.405208 0.212935 0.591076
O O10 0.448211 0.093374 0.367660
O O11 0.808193 0.011604 0.823485
O O12 0.127559 0.436903 0.730521
O O13 0.301860 0.341859 0.733822
O O14 0.203120 0.391148 0.000042
O O15 0.922074 0.482141 0.792649
O O16 0.000000 0.441890 0.500000
#
# Coordination Sequence:
#
# PCOD8048755 Si02
#       8
#     4   4   2   4   4   4   4   4
#     4   9  19  37  63  87 113 156 199 243 289 345
#     4  11  21  36  63  91 115 147 206 256 282 332
#     4  10  22  36  64  92 110 144 212 254 278 324
#     4  10  19  37  63  88 115 149 205 249 285 334
#     4  11  22  39  61  84 125 161 187 233 311 365
#     4  11  23  38  58  87 125 162 186 232 309 367
#     4  10  21  38  62  85 112 155 208 238 283 339
#     4  10  20  36  62  88 117 150 199 247 290 343
#
# _framework density 19.308140999999999
#
# number of rings (size 3 to 8) (size 9 to 14) (size 15 to 20)
#    0.400    1.333    1.333    6.400    1.867    0.533 
#    2.400    0.000    8.800    0.000    0.000    0.000 
#    0.000    0.000    0.000    0.000    0.000    0.000 
#
# Total GULP energy -185937.488766 kJ/mol
# GULP energy per Si atom -12395.832584 kJ/mol
# Density = 1.926419 g / cm^3
# Si number density = 19.308141 Si / 1000 Ang^3
#
#
#
# Elastic Constant Matrix: (Units=GPa)
#
#
# Indices 1 2 3 4 5 6 
#
# 1 110.6970 51.1259 52.2068 0.0000 -7.9334 0.0000
# 2 51.1259 105.9352 42.6114 0.0000 -6.8258 0.0000
# 3 52.2068 42.6114 112.2667 0.0000 -17.2348 0.0000
# 4 0.0000 0.0000 0.0000 19.6644 0.0000 -6.1975
# 5 -7.9334 -6.8258 -17.2348 0.0000 18.7230 0.0000
# 6 0.0000 0.0000 0.0000 -6.1975 0.0000 21.3197
#
#
#
# Elastic Compliance Matrix: (Units=1/GPa)
#
#
# Indices 1 2 3 4 5 6 
#
# 1 0.013246 -0.004621 -0.004429 0.000000 -0.000149 0.000000
# 2 -0.004621 0.012753 -0.002654 0.000000 0.000249 0.000000
# 3 -0.004429 -0.002654 0.013436 0.000000 0.009524 0.000000
# 4 0.000000 0.000000 0.000000 0.055982 0.000000 0.016273
# 5 -0.000149 0.000249 0.009524 0.000000 0.062205 0.000000
# 6 0.000000 0.000000 0.000000 0.016273 0.000000 0.051636
#
#
# Mechanical properties :
#
#
# Convention : Reuss Voigt Hill
#
# Bulk Modulus (GPa) = 62.38643 68.97635 65.68139
# Shear Modulus (GPa) = 21.00783 24.13842 22.57312
#
# Velocity S-wave (km/s) = 3.30211 3.53961 3.42292
# Velocity P-wave (km/s) = 6.84979 7.24615 7.05075
#
# Compressibility (1/GPa) = 0.01602913
#
# Stress axis : x y z
#
# Youngs Moduli (GPa) = 75.49586 78.41170 74.42677
#
# Poissons Ratio (x) = 0.36233 0.32960
# Poissons Ratio (y) = 0.34885 0.19749
# Poissons Ratio (z) = 0.33434 0.20807
#
# Static dielectric constant tensor:
#      x y z
#    x 3.658890 0.000000 -0.197000 
#    y 0.000000 3.542190 0.000000 
#    z -0.197000 0.000000 3.262240 
# 
# 
# High freq. dielectric constant tensor:
#      x y z
#    x 1.764750 0.000000 -0.017830 
#    y 0.000000 1.752210 0.000000 
#    z -0.017830 0.000000 1.717620 
# 
# From -- ./inp_files/20594.got.cif
#   From: 2010.03.12/outbox.cif.g09.slc.cpg/sg5_11_cif.got.tgz:20594.got - 2010.03.31 09:47:26.
