data_PCOD8048573
_publ_section_title
;
Structure prediction by ZEFSAII (Michael W. Deem and Ramdas Pophale) SiO2 
 PCOD8048573
Probable space group: C 2
;
_chemical_formula_sum "Si O2"
_cell_formula_units_Z 32
_cell_length_a 18.989001
_cell_length_b 8.416347
_cell_length_c 14.055959
_cell_angle_alpha 90.000000
_cell_angle_beta 40.750218
_cell_angle_gamma 90.000000
_cell_volume 1466.363084
_symmetry_space_group_name_H-M "C 2"
_symmetry_group_IT_number 5
_symmetry_cell_setting 'monoclinic'
loop_
_space_group_symop_operation_xyz
x,y,z
-x,y,-z
1/2+x,1/2+y,z
1/2-x,1/2+y,-z
loop_
_atom_site_type_symbol
_atom_site_label
_atom_site_fract_x
_atom_site_fract_y
_atom_site_fract_z
Si Si1 0.696841 0.799250 0.936760
Si Si2 0.882176 0.146042 0.621000
Si Si3 0.761983 0.852659 0.676372
Si Si4 0.357995 0.415621 0.391785
Si Si5 0.857725 0.281490 0.457537
Si Si6 0.979442 0.760246 0.912895
Si Si7 0.244143 0.660205 0.929176
Si Si8 0.465694 0.900963 0.177826
O O1 0.765881 0.750861 0.770817
O O2 0.719772 0.975668 0.948509
O O3 0.731582 0.683141 0.984718
O O4 0.569090 0.795581 0.041845
O O5 0.889829 0.287342 0.535891
O O6 0.850370 0.206870 0.758740
O O7 0.000000 0.060791 0.500000
O O8 0.785144 0.032771 0.685989
O O9 0.846754 0.815177 0.504109
O O10 0.640985 0.832671 0.762314
O O11 0.256915 0.368361 0.430746
O O12 0.355657 0.601987 0.417748
O O13 0.464115 0.371640 0.224000
O O14 0.947708 0.383636 0.309603
O O15 0.025181 0.583173 0.860578
O O16 0.854078 0.764820 0.011934
O O17 0.000000 0.823124 0.000000
#
# Coordination Sequence:
#
# PCOD8048573 Si02
#       8
#     4   4   4   4   4   4   4   4
#     4  10  20  37  56  80 114 151 192 238 289 348
#     4  10  19  34  56  81 110 148 188 231 288 350
#     4   9  19  34  57  82 108 147 192 236 281 344
#     4  10  20  36  57  86 114 146 190 241 294 339
#     4  10  20  35  59  87 115 146 192 244 289 349
#     4  11  21  38  60  82 114 155 195 240 292 345
#     4  10  22  36  56  82 112 151 192 235 290 353
#     4  10  19  36  61  84 109 152 198 239 290 344
#
# _framework density 21.822700000000001
#
# number of rings (size 3 to 8) (size 9 to 14) (size 15 to 20)
#    0.000    2.000    0.000    6.375    0.000    5.000 
#    0.000    9.375    0.000    3.000    0.000    0.875 
#    0.000    0.000    0.000    0.000    0.000    0.000 
#
# Total GULP energy -198227.030921 kJ/mol
# GULP energy per Si atom -12389.189433 kJ/mol
# Density = 2.177303 g / cm^3
# Si number density = 21.822700 Si / 1000 Ang^3
#
#
#
# Elastic Constant Matrix: (Units=GPa)
#
#
# Indices 1 2 3 4 5 6 
#
# 1 84.4727 15.0258 50.2641 0.0000 21.5879 0.0000
# 2 15.0258 20.8061 20.3944 -0.0001 -2.3228 0.0000
# 3 50.2641 20.3944 163.2753 0.0000 22.5262 0.0000
# 4 0.0000 -0.0001 0.0000 28.7792 0.0000 4.6801
# 5 21.5879 -2.3228 22.5262 0.0000 44.3354 0.0000
# 6 0.0000 0.0000 0.0000 4.6801 0.0000 24.3284
#
#
#
# Elastic Compliance Matrix: (Units=1/GPa)
#
#
# Indices 1 2 3 4 5 6 
#
# 1 0.017408 -0.010446 -0.003021 0.000000 -0.007489 0.000000
# 2 -0.010446 0.063027 -0.006252 0.000000 0.011565 0.000000
# 3 -0.003021 -0.006252 0.008257 0.000000 -0.003052 0.000000
# 4 0.000000 0.000000 0.000000 0.035869 0.000000 -0.006900
# 5 -0.007489 0.011565 -0.003052 0.000000 0.028358 0.000000
# 6 0.000000 0.000000 0.000000 -0.006900 0.000000 0.042432
#
#
# Mechanical properties :
#
#
# Convention : Reuss Voigt Hill
#
# Bulk Modulus (GPa) = 20.30382 48.88031 34.59206
# Shear Modulus (GPa) = 19.90393 31.67991 25.79192
#
# Velocity S-wave (km/s) = 3.02333 3.81425 3.44158
# Velocity P-wave (km/s) = 4.63806 6.46880 5.62837
#
# Compressibility (1/GPa) = 0.04925181
#
# Stress axis : x y z
#
# Youngs Moduli (GPa) = 57.44587 15.86629 121.11531
#
# Poissons Ratio (x) = 0.16575 0.36588
# Poissons Ratio (y) = 0.60010 0.75724
# Poissons Ratio (z) = 0.17354 0.09920
#
# Static dielectric constant tensor:
#      x y z
#    x 4.034460 0.000000 0.291990 
#    y 0.000000 3.477720 0.000000 
#    z 0.291990 0.000000 4.645820 
# 
# 
# High freq. dielectric constant tensor:
#      x y z
#    x 1.858330 0.000000 0.014090 
#    y 0.000000 1.804460 0.000000 
#    z 0.014090 0.000000 1.883140 
# 
# From -- ./inp_files/56805.got.cif
#   From: 2010.03.12/outbox.cif.g09.slc.cpg/sg5_29_cif.got.tgz:56805.got - 2010.03.31 09:47:26.
