data_PCOD8048239
_publ_section_title
;
Structure prediction by ZEFSAII (Michael W. Deem and Ramdas Pophale) SiO2 
 PCOD8048239
Probable space group: C 2
;
_chemical_formula_sum "Si O2"
_cell_formula_units_Z 24
_cell_length_a 10.434683
_cell_length_b 14.115606
_cell_length_c 10.201031
_cell_angle_alpha 90.000000
_cell_angle_beta 59.388185
_cell_angle_gamma 90.000000
_cell_volume 1293.132086
_symmetry_space_group_name_H-M "C 2"
_symmetry_group_IT_number 5
_symmetry_cell_setting 'monoclinic'
loop_
_space_group_symop_operation_xyz
x,y,z
-x,y,-z
1/2+x,1/2+y,z
1/2-x,1/2+y,-z
loop_
_atom_site_type_symbol
_atom_site_label
_atom_site_fract_x
_atom_site_fract_y
_atom_site_fract_z
Si Si1 0.176247 0.876630 0.651902
Si Si2 0.436444 0.670109 0.744677
Si Si3 0.587419 0.999719 0.589711
Si Si4 0.848364 0.376069 0.833601
Si Si5 0.234491 0.174605 0.438632
Si Si6 0.084966 0.978903 0.092779
O O1 0.264742 0.873984 0.740443
O O2 0.178310 0.772854 0.589224
O O3 0.009687 0.914646 0.758014
O O4 0.257608 0.945472 0.508637
O O5 0.399490 0.768530 0.840614
O O6 0.612017 0.664891 0.618133
O O7 0.342689 0.664706 0.661146
O O8 0.389410 0.583540 0.862540
O O9 0.500000 0.010701 0.500000
O O10 0.630577 0.101392 0.622322
O O11 0.491703 0.943550 0.747200
O O12 0.740682 0.422663 0.998181
O O13 0.000000 0.990797 0.000000
#
# Coordination Sequence:
#
# PCOD8048239 Si02
#       6
#     4   4   4   4   4   4
#     4   9  17  33  55  77 104 141 180 209 253 319
#     4  10  19  35  56  80 107 138 176 219 265 308
#     4  10  18  33  54  80 106 137 178 215 256 310
#     4   9  19  33  54  77 106 144 174 210 261 320
#     4  10  19  33  58  83 103 135 180 224 259 303
#     4  10  20  35  55  79 108 141 176 213 260 320
#
# _framework density 18.55959
#
# number of rings (size 3 to 8) (size 9 to 14) (size 15 to 20)
#    0.000    2.333    3.333    0.000    0.000    1.333 
#    0.000    5.833    0.000    0.000    0.000    0.000 
#    0.000    0.000    0.000    0.000    0.000    0.000 
#
# Total GULP energy -148771.413214 kJ/mol
# GULP energy per Si atom -12397.617768 kJ/mol
# Density = 1.851735 g / cm^3
# Si number density = 18.559590 Si / 1000 Ang^3
#
#
#
# Elastic Constant Matrix: (Units=GPa)
#
#
# Indices 1 2 3 4 5 6 
#
# 1 30.8978 37.5014 31.5729 0.0000 -16.5025 0.0000
# 2 37.5014 171.1421 68.5525 0.0000 -22.2145 0.0000
# 3 31.5729 68.5525 116.0288 0.0000 -36.8075 0.0000
# 4 0.0000 0.0000 0.0000 40.1494 0.0000 -3.0360
# 5 -16.5025 -22.2145 -36.8075 0.0000 24.6959 0.0000
# 6 0.0000 0.0000 0.0000 -3.0360 0.0000 31.9811
#
#
#
# Elastic Compliance Matrix: (Units=1/GPa)
#
#
# Indices 1 2 3 4 5 6 
#
# 1 0.060894 -0.008678 -0.001918 0.000000 0.030027 0.000000
# 2 -0.008678 0.008892 -0.004163 0.000000 -0.004004 0.000000
# 3 -0.001918 -0.004163 0.018979 0.000000 0.023260 0.000000
# 4 0.000000 0.000000 0.000000 0.025087 0.000000 0.002382
# 5 0.030027 -0.004004 0.023260 0.000000 0.091624 0.000000
# 6 0.000000 0.000000 0.000000 0.002382 0.000000 0.031495
#
#
# Mechanical properties :
#
#
# Convention : Reuss Voigt Hill
#
# Bulk Modulus (GPa) = 16.87794 65.92471 41.40133
# Shear Modulus (GPa) = 17.46815 31.39476 24.43145
#
# Velocity S-wave (km/s) = 3.07121 4.11733 3.63213
# Velocity P-wave (km/s) = 4.65727 7.62895 6.32024
#
# Compressibility (1/GPa) = 0.05924892
#
# Stress axis : x y z
#
# Youngs Moduli (GPa) = 16.42201 112.45775 52.69103
#
# Poissons Ratio (x) = 0.97587 0.10104
# Poissons Ratio (y) = 0.14250 0.21933
# Poissons Ratio (z) = 0.03149 0.46812
#
# Static dielectric constant tensor:
#      x y z
#    x 3.044320 0.000000 -0.293720 
#    y 0.000000 3.606160 0.000000 
#    z -0.293720 0.000000 3.493170 
# 
# 
# High freq. dielectric constant tensor:
#      x y z
#    x 1.684870 0.000000 -0.023160 
#    y 0.000000 1.737890 0.000000 
#    z -0.023160 0.000000 1.714240 
# 
# From -- ./inp_files/19700.got.cif
#   From: 2010.03.12/outbox.cif.g09.slc.cpg/sg5_10_cif.got.tgz:19700.got - 2010.03.31 09:47:26.
