data_PCOD8048274
_publ_section_title
;
Structure prediction by ZEFSAII (Michael W. Deem and Ramdas Pophale) SiO2 
 PCOD8048274
Probable space group: C 2
;
_chemical_formula_sum "Si O2"
_cell_formula_units_Z 26
_cell_length_a 14.993117
_cell_length_b 8.718265
_cell_length_c 21.743964
_cell_angle_alpha 90.000000
_cell_angle_beta 152.401819
_cell_angle_gamma 90.000000
_cell_volume 1316.718462
_symmetry_space_group_name_H-M "C 2"
_symmetry_group_IT_number 5
_symmetry_cell_setting 'monoclinic'
loop_
_space_group_symop_operation_xyz
x,y,z
-x,y,-z
1/2+x,1/2+y,z
1/2-x,1/2+y,-z
loop_
_atom_site_type_symbol
_atom_site_label
_atom_site_fract_x
_atom_site_fract_y
_atom_site_fract_z
Si Si1 0.677211 0.152190 0.779325
Si Si2 0.223265 0.414853 0.712109
Si Si3 0.500000 0.886865 0.000000
Si Si4 0.633836 0.049493 0.324208
Si Si5 0.442692 0.415899 0.591942
Si Si6 0.777275 0.389709 0.425274
Si Si7 0.827619 0.574619 0.790075
O O1 0.814080 0.278828 0.894275
O O2 0.575538 0.054639 0.771267
O O3 0.516362 0.240644 0.640274
O O4 0.796441 0.042699 0.805574
O O5 0.264164 0.466032 0.666667
O O6 0.336988 0.258905 0.797658
O O7 0.994597 0.403785 0.581461
O O8 0.480558 0.998259 0.929583
O O9 0.743610 0.209141 0.398682
O O10 0.610938 0.009147 0.238747
O O11 0.767791 0.919084 0.436615
O O12 0.364506 0.466887 0.611639
O O13 0.610478 0.529806 0.674208
#
# Coordination Sequence:
#
# PCOD8048274 Si02
#       7
#     4   4   2   4   4   4   4
#     4  10  22  38  59  84 127 147 193 245 287 339
#     4  10  18  35  56  87 112 155 184 238 287 350
#     4  10  24  46  52  80 114 164 204 244 274 336
#     4  10  18  36  60  89 112 154 187 242 295 348
#     4  10  18  34  57  90 123 147 178 245 296 353
#     4   9  18  31  55  87 126 138 186 227 299 356
#     4  10  21  38  63  79 114 160 201 231 285 347
#
# _framework density 19.746058999999999
#
# number of rings (size 3 to 8) (size 9 to 14) (size 15 to 20)
#    0.000    2.154    3.077    0.462    0.000    0.615 
#   11.077    7.692    0.000    0.000    0.000    0.000 
#    0.000    0.000    0.000    0.000    0.000    0.000 
#
# Total GULP energy -161177.137370 kJ/mol
# GULP energy per Si atom -12398.241336 kJ/mol
# Density = 1.970112 g / cm^3
# Si number density = 19.746059 Si / 1000 Ang^3
#
#
#
# Elastic Constant Matrix: (Units=GPa)
#
#
# Indices 1 2 3 4 5 6 
#
# 1 140.4497 47.5552 47.1384 -0.0004 -27.6408 -0.0001
# 2 47.5552 64.4048 43.9150 0.0003 -16.0843 0.0000
# 3 47.1384 43.9150 94.4642 0.0020 -23.5525 0.0003
# 4 -0.0004 0.0003 0.0020 31.5429 0.0004 -3.3270
# 5 -27.6408 -16.0843 -23.5525 0.0004 26.6298 0.0000
# 6 -0.0001 0.0000 0.0003 -3.3270 0.0000 28.6486
#
#
#
# Elastic Compliance Matrix: (Units=1/GPa)
#
#
# Indices 1 2 3 4 5 6 
#
# 1 0.010669 -0.005422 -0.001102 0.000000 0.006825 0.000000
# 2 -0.005422 0.026164 -0.008879 0.000000 0.002323 0.000000
# 3 -0.001102 -0.008879 0.017500 -0.000001 0.008972 0.000000
# 4 0.000000 0.000000 -0.000001 0.032096 -0.000001 0.003727
# 5 0.006825 0.002323 0.008972 -0.000001 0.053973 0.000000
# 6 0.000000 0.000000 0.000000 0.003727 0.000000 0.035339
#
#
# Mechanical properties :
#
#
# Convention : Reuss Voigt Hill
#
# Bulk Modulus (GPa) = 42.50149 64.05955 53.28052
# Shear Modulus (GPa) = 23.32212 28.07826 25.70019
#
# Velocity S-wave (km/s) = 3.44045 3.77499 3.61159
# Velocity P-wave (km/s) = 6.11171 7.17724 6.66580
#
# Compressibility (1/GPa) = 0.02352859
#
# Stress axis : x y z
#
# Youngs Moduli (GPa) = 93.73256 38.21993 57.14227
#
# Poissons Ratio (x) = 0.20723 0.06295
# Poissons Ratio (y) = 0.50822 0.50735
# Poissons Ratio (z) = 0.10325 0.33934
#
# Static dielectric constant tensor:
#      x y z
#    x 3.862560 0.000000 -0.126730 
#    y 0.000000 3.449150 0.000000 
#    z -0.126730 0.000000 3.361970 
# 
# 
# High freq. dielectric constant tensor:
#      x y z
#    x 1.780190 0.000000 -0.007630 
#    y 0.000000 1.755790 0.000000 
#    z -0.007630 0.000000 1.741390 
# 
# From -- ./inp_files/29083.got.cif
#   From: 2010.03.12/outbox.cif.g09.slc.cpg/sg5_15_cif.got.tgz:29083.got - 2010.03.31 09:47:26.
