data_PCOD8048994
_publ_section_title
;
Structure prediction by ZEFSAII (Michael W. Deem and Ramdas Pophale) SiO2 
 PCOD8048994
Probable space group: C 2
;
_chemical_formula_sum "Si O2"
_cell_formula_units_Z 28
_cell_length_a 17.509482
_cell_length_b 8.782759
_cell_length_c 15.634670
_cell_angle_alpha 90.000000
_cell_angle_beta 34.538934
_cell_angle_gamma 90.000000
_cell_volume 1363.170227
_symmetry_space_group_name_H-M "C 2"
_symmetry_group_IT_number 5
_symmetry_cell_setting 'monoclinic'
loop_
_space_group_symop_operation_xyz
x,y,z
-x,y,-z
1/2+x,1/2+y,z
1/2-x,1/2+y,-z
loop_
_atom_site_type_symbol
_atom_site_label
_atom_site_fract_x
_atom_site_fract_y
_atom_site_fract_z
Si Si1 0.644305 0.280220 0.540216
Si Si2 0.277171 0.627083 0.569045
Si Si3 0.463736 0.793604 0.632582
Si Si4 0.802932 0.664520 0.160212
Si Si5 0.417245 0.128765 0.662611
Si Si6 0.674694 0.671611 0.772107
Si Si7 0.500000 0.920807 0.000000
Si Si8 0.500000 0.421660 0.000000
O O1 0.689837 0.454466 0.489013
O O2 0.664949 0.210029 0.614950
O O3 0.486372 0.256394 0.660279
O O4 0.732916 0.171749 0.396406
O O5 0.412972 0.724615 0.428601
O O6 0.223215 0.636736 0.714856
O O7 0.500000 0.802437 0.500000
O O8 0.337238 0.678427 0.760956
O O9 0.425669 0.962862 0.700299
O O10 0.894070 0.524136 0.043906
O O11 0.884864 0.818202 0.064126
O O12 0.500000 0.124923 0.500000
O O13 0.263443 0.170211 0.778560
O O14 0.575781 0.525920 0.859594
O O15 0.580913 0.820330 0.857189
#
# Coordination Sequence:
#
# PCOD8048994 Si02
#       8
#     4   4   4   4   4   4   2   2
#     4  11  23  36  57  83 114 145 180 234 284 328
#     4  11  23  36  57  83 114 145 180 234 284 328
#     4   9  18  33  56  82 109 139 183 233 273 321
#     4  10  20  36  59  86 110 142 188 225 277 321
#     4   9  18  33  56  82 109 139 183 233 273 321
#     4  10  20  36  59  86 110 142 188 225 277 321
#     4  10  20  34  56  84 114 142 186 234 258 328
#     4  10  20  34  60  84 110 150 182 226 258 336
#
# _framework density 20.540355999999999
#
# number of rings (size 3 to 8) (size 9 to 14) (size 15 to 20)
#    0.000    2.000    2.857    0.857    6.000    1.714 
#    0.000    0.000    0.000   10.286    0.000    0.000 
#    0.000    0.000    0.000    0.000    0.000    0.000 
#
# Total GULP energy -173500.467613 kJ/mol
# GULP energy per Si atom -12392.890544 kJ/mol
# Density = 2.049361 g / cm^3
# Si number density = 20.540356 Si / 1000 Ang^3
#
#
#
# Elastic Constant Matrix: (Units=GPa)
#
#
# Indices 1 2 3 4 5 6 
#
# 1 68.4402 24.9237 17.8421 0.0000 -19.4079 0.0000
# 2 24.9237 122.7787 29.1633 0.0000 -13.9053 0.0000
# 3 17.8421 29.1633 74.6938 0.0000 -21.8034 0.0000
# 4 0.0000 0.0000 0.0000 30.4076 0.0000 -7.0750
# 5 -19.4079 -13.9053 -21.8034 0.0000 22.9901 0.0000
# 6 0.0000 0.0000 0.0000 -7.0750 0.0000 21.9380
#
#
#
# Elastic Compliance Matrix: (Units=1/GPa)
#
#
# Indices 1 2 3 4 5 6 
#
# 1 0.019832 -0.002415 0.000921 0.000000 0.016155 0.000000
# 2 -0.002415 0.009415 -0.002810 0.000000 0.000991 0.000000
# 3 0.000921 -0.002810 0.019354 0.000000 0.017433 0.000000
# 4 0.000000 0.000000 0.000000 0.035554 0.000000 0.011466
# 5 0.016155 0.000991 0.017433 0.000000 0.074267 0.000000
# 6 0.000000 0.000000 0.000000 0.011466 0.000000 0.049281
#
#
# Mechanical properties :
#
#
# Convention : Reuss Voigt Hill
#
# Bulk Modulus (GPa) = 25.00428 45.53008 35.26718
# Shear Modulus (GPa) = 21.77323 27.99940 24.88631
#
# Velocity S-wave (km/s) = 3.25933 3.69608 3.48455
# Velocity P-wave (km/s) = 5.13459 6.35838 5.77897
#
# Compressibility (1/GPa) = 0.03999316
#
# Stress axis : x y z
#
# Youngs Moduli (GPa) = 50.42456 106.21827 51.66976
#
# Poissons Ratio (x) = 0.25652 -0.04760
# Poissons Ratio (y) = 0.12178 0.14518
# Poissons Ratio (z) = -0.04646 0.29844
#
# Static dielectric constant tensor:
#      x y z
#    x 3.346690 0.000000 -0.436070 
#    y 0.000000 4.013050 0.000000 
#    z -0.436070 0.000000 3.974750 
# 
# 
# High freq. dielectric constant tensor:
#      x y z
#    x 1.746680 0.000000 -0.034330 
#    y 0.000000 1.820830 0.000000 
#    z -0.034330 0.000000 1.802520 
# 
# From -- ./inp_files/66557.got.cif
#   From: 2010.03.12/outbox.cif.g09.slc.cpg/sg5_34_cif.got.tgz:66557.got - 2010.03.31 09:47:26.
