data_PCOD8048512
_publ_section_title
;
Structure prediction by ZEFSAII (Michael W. Deem and Ramdas Pophale) SiO2 
 PCOD8048512
Probable space group: C 2
;
_chemical_formula_sum "Si O2"
_cell_formula_units_Z 32
_cell_length_a 29.372217
_cell_length_b 8.463735
_cell_length_c 22.899020
_cell_angle_alpha 90.000000
_cell_angle_beta 18.683183
_cell_angle_gamma 90.000000
_cell_volume 1823.559838
_symmetry_space_group_name_H-M "C 2"
_symmetry_group_IT_number 5
_symmetry_cell_setting 'monoclinic'
loop_
_space_group_symop_operation_xyz
x,y,z
-x,y,-z
1/2+x,1/2+y,z
1/2-x,1/2+y,-z
loop_
_atom_site_type_symbol
_atom_site_label
_atom_site_fract_x
_atom_site_fract_y
_atom_site_fract_z
Si Si1 0.778722 0.347550 0.798337
Si Si2 0.567154 0.847540 0.509906
Si Si3 0.981272 0.700955 0.174485
Si Si4 0.818070 0.114150 0.005537
Si Si5 0.495248 0.904372 0.231177
Si Si6 0.965282 0.614151 0.711109
Si Si7 0.948090 0.904362 0.325488
Si Si8 0.292790 0.700955 0.551452
O O1 0.832865 0.364454 0.667134
O O2 0.722124 0.518810 0.887029
O O3 0.907466 0.291358 0.685064
O O4 0.648376 0.223779 0.957580
O O5 0.639704 0.723766 0.466253
O O6 0.559565 0.018799 0.549590
O O7 0.955622 0.522575 0.227462
O O8 0.924829 0.825447 0.290804
O O9 0.879054 0.723938 0.241890
O O10 0.679723 0.174187 0.140557
O O11 0.905500 0.269086 0.916907
O O12 0.904787 0.002490 0.855450
O O13 0.356099 0.825464 0.428274
O O14 0.574746 0.002506 0.185488
O O15 0.050317 0.769087 0.627271
O O16 0.821792 0.022578 0.495121
#
# Coordination Sequence:
#
# PCOD8048512 Si02
#       8
#     4   4   4   4   4   4   4   4
#     4   9  19  35  52  71  96 128 166 204 241 283
#     4   9  19  35  52  71  96 128 166 204 241 283
#     4  10  19  32  51  73 100 131 161 197 241 290
#     4   9  16  28  48  72 100 130 160 198 241 288
#     4   9  18  29  46  75 102 126 158 197 244 290
#     4   9  16  28  48  72 100 130 160 198 241 288
#     4   9  18  29  46  75 102 126 158 197 244 290
#     4  10  19  32  51  73 100 131 161 197 241 290
#
# _framework density 17.548093000000001
#
# number of rings (size 3 to 8) (size 9 to 14) (size 15 to 20)
#    0.000    2.750    0.000    1.500    0.000    7.500 
#    0.000    2.500    0.000    3.000    0.000    0.000 
#    0.000    0.000    0.000    0.000    0.000    0.000 
#
# Total GULP energy -198314.593108 kJ/mol
# GULP energy per Si atom -12394.662069 kJ/mol
# Density = 1.750815 g / cm^3
# Si number density = 17.548093 Si / 1000 Ang^3
#
#
#
# Elastic Constant Matrix: (Units=GPa)
#
#
# Indices 1 2 3 4 5 6 
#
# 1 96.2239 38.4730 58.7514 -0.0011 -10.5009 -0.0003
# 2 38.4730 93.6419 37.8558 0.0125 -4.0186 0.0002
# 3 58.7514 37.8558 93.2543 0.0063 -9.1226 -0.0003
# 4 -0.0011 0.0125 0.0063 14.9171 0.0002 3.1026
# 5 -10.5009 -4.0186 -9.1226 0.0002 27.0402 0.0001
# 6 -0.0003 0.0002 -0.0003 3.1026 0.0001 14.4598
#
#
#
# Elastic Compliance Matrix: (Units=1/GPa)
#
#
# Indices 1 2 3 4 5 6 
#
# 1 0.017974 -0.003345 -0.009650 0.000008 0.003227 -0.000002
# 2 -0.003345 0.013399 -0.003375 -0.000010 -0.000447 0.000002
# 3 -0.009650 -0.003375 0.018364 -0.000006 0.001946 0.000001
# 4 0.000008 -0.000010 -0.000006 0.070169 -0.000001 -0.015056
# 5 0.003227 -0.000447 0.001946 -0.000001 0.038826 0.000000
# 6 -0.000002 0.000002 0.000001 -0.015056 0.000000 0.072388
#
#
# Mechanical properties :
#
#
# Convention : Reuss Voigt Hill
#
# Bulk Modulus (GPa) = 58.84014 61.47559 60.15787
# Shear Modulus (GPa) = 18.55114 21.15276 19.85195
#
# Velocity S-wave (km/s) = 3.25493 3.47568 3.36711
# Velocity P-wave (km/s) = 6.90866 7.15652 7.03368
#
# Compressibility (1/GPa) = 0.01699520
#
# Stress axis : x y z
#
# Youngs Moduli (GPa) = 55.63493 74.63440 54.45484
#
# Poissons Ratio (x) = 0.24965 0.52551
# Poissons Ratio (y) = 0.18610 0.18380
# Poissons Ratio (z) = 0.53690 0.25192
#
# Static dielectric constant tensor:
#      x y z
#    x 3.152450 0.000000 -0.114860 
#    y 0.000000 3.270230 0.000000 
#    z -0.114860 0.000000 3.135030 
# 
# 
# High freq. dielectric constant tensor:
#      x y z
#    x 1.666310 0.000000 -0.017650 
#    y 0.000000 1.674730 0.000000 
#    z -0.017650 0.000000 1.663640 
# 
# From -- ./inp_files/67051.got.cif
#   From: 2010.03.12/outbox.cif.g09.slc.cpg/sg5_34_cif.got.tgz:67051.got - 2010.03.31 09:47:26.
