data_PCOD8048415
_publ_section_title
;
Structure prediction by ZEFSAII (Michael W. Deem and Ramdas Pophale) SiO2 
 PCOD8048415
Probable space group: C 2
;
_chemical_formula_sum "Si O2"
_cell_formula_units_Z 30
_cell_length_a 16.299919
_cell_length_b 11.636380
_cell_length_c 10.516928
_cell_angle_alpha 90.000000
_cell_angle_beta 135.195584
_cell_angle_gamma 90.000000
_cell_volume 1405.690375
_symmetry_space_group_name_H-M "C 2"
_symmetry_group_IT_number 5
_symmetry_cell_setting 'monoclinic'
loop_
_space_group_symop_operation_xyz
x,y,z
-x,y,-z
1/2+x,1/2+y,z
1/2-x,1/2+y,-z
loop_
_atom_site_type_symbol
_atom_site_label
_atom_site_fract_x
_atom_site_fract_y
_atom_site_fract_z
Si Si1 0.513659 0.627600 0.160272
Si Si2 0.761603 0.013511 0.642753
Si Si3 0.971586 0.787299 0.113633
Si Si4 0.430490 0.042893 0.160458
Si Si5 0.171012 0.755850 0.528111
Si Si6 0.113698 0.358220 0.320988
Si Si7 0.000000 0.649642 0.500000
Si Si8 0.699269 0.486008 0.028349
O O1 0.602018 0.517818 0.248910
O O2 0.556444 0.735471 0.291463
O O3 0.500000 0.673244 0.000000
O O4 0.397207 0.584666 0.100648
O O5 0.693527 0.900091 0.525207
O O6 0.742727 0.014433 0.772628
O O7 0.708609 0.128668 0.520930
O O8 0.927609 0.655861 0.070869
O O9 0.084075 0.807470 0.326390
O O10 0.862843 0.862566 0.042798
O O11 0.000000 0.821644 0.000000
O O12 0.512763 0.949924 0.178556
O O13 0.299968 0.992366 0.032329
O O14 0.483327 0.070910 0.357718
O O15 0.286171 0.835556 0.677523
O O16 0.107579 0.737442 0.594036
#
# Coordination Sequence:
#
# PCOD8048415 Si02
#       8
#     4   4   4   4   4   4   2   4
#     4   9  21  35  59  89 119 156 204 249 299 353
#     4  10  18  38  62  90 113 160 209 248 285 363
#     4  11  23  40  61  89 125 164 194 248 315 363
#     4  11  23  37  62  91 123 158 204 250 306 357
#     4  10  20  37  64  90 118 157 210 250 291 360
#     4  11  20  35  59  93 121 153 198 254 300 354
#     4  10  18  40  60  92 114 160 210 250 284 358
#     4  11  21  39  63  87 121 159 210 247 292 361
#
# _framework density 21.341826000000001
#
# number of rings (size 3 to 8) (size 9 to 14) (size 15 to 20)
#    0.000    1.600    4.000    2.800    1.867    0.533 
#    0.000    2.667    0.000    0.000    0.000    0.000 
#    0.000    0.000    0.000    0.000    0.000    0.000 
#
# Total GULP energy -185843.886438 kJ/mol
# GULP energy per Si atom -12389.592429 kJ/mol
# Density = 2.129325 g / cm^3
# Si number density = 21.341826 Si / 1000 Ang^3
#
#
#
# Elastic Constant Matrix: (Units=GPa)
#
#
# Indices 1 2 3 4 5 6 
#
# 1 118.6253 51.9181 23.5679 0.0000 47.9435 0.0000
# 2 51.9181 129.2898 45.1896 0.0000 22.9842 0.0000
# 3 23.5679 45.1896 69.1388 0.0000 20.4862 0.0000
# 4 0.0000 0.0000 0.0000 39.0149 0.0000 14.5407
# 5 47.9435 22.9842 20.4862 0.0000 38.8733 0.0000
# 6 0.0000 0.0000 0.0000 14.5407 0.0000 38.9537
#
#
#
# Elastic Compliance Matrix: (Units=1/GPa)
#
#
# Indices 1 2 3 4 5 6 
#
# 1 0.018784 -0.004754 0.003242 0.000000 -0.022064 0.000000
# 2 -0.004754 0.011518 -0.006668 0.000000 0.002567 0.000000
# 3 0.003242 -0.006668 0.021015 0.000000 -0.011130 0.000000
# 4 0.000000 0.000000 0.000000 0.029773 0.000000 -0.011114
# 5 -0.022064 0.002567 -0.011130 0.000000 0.057285 0.000000
# 6 0.000000 0.000000 0.000000 -0.011114 0.000000 0.029820
#
#
# Mechanical properties :
#
#
# Convention : Reuss Voigt Hill
#
# Bulk Modulus (GPa) = 28.60694 62.04502 45.32598
# Shear Modulus (GPa) = 25.48317 36.46025 30.97171
#
# Velocity S-wave (km/s) = 3.45925 4.13776 3.81362
# Velocity P-wave (km/s) = 5.42111 7.20855 6.37776
#
# Compressibility (1/GPa) = 0.03495655
#
# Stress axis : x y z
#
# Youngs Moduli (GPa) = 53.23717 86.82190 47.58491
#
# Poissons Ratio (x) = 0.41271 -0.15426
# Poissons Ratio (y) = 0.25306 0.31731
# Poissons Ratio (z) = -0.17258 0.57896
#
# Static dielectric constant tensor:
#      x y z
#    x 3.984480 0.000000 0.534980 
#    y 0.000000 3.855550 0.000000 
#    z 0.534980 0.000000 3.801010 
# 
# 
# High freq. dielectric constant tensor:
#      x y z
#    x 1.823980 0.000000 0.044750 
#    y 0.000000 1.838840 0.000000 
#    z 0.044750 0.000000 1.824050 
# 
# From -- ./inp_files/44707.got.cif
#   From: 2010.03.12/outbox.cif.g09.slc.cpg/sg5_23_cif.got.tgz:44707.got - 2010.03.31 09:47:26.
