data_PCOD8048158
_publ_section_title
;
Structure prediction by ZEFSAII (Michael W. Deem and Ramdas Pophale) SiO2 
 PCOD8048158
Probable space group: C 2
;
_chemical_formula_sum "Si O2"
_cell_formula_units_Z 24
_cell_length_a 9.129360
_cell_length_b 17.867478
_cell_length_c 9.160380
_cell_angle_alpha 90.000000
_cell_angle_beta 49.560230
_cell_angle_gamma 90.000000
_cell_volume 1137.239924
_symmetry_space_group_name_H-M "C 2"
_symmetry_group_IT_number 5
_symmetry_cell_setting 'monoclinic'
loop_
_space_group_symop_operation_xyz
x,y,z
-x,y,-z
1/2+x,1/2+y,z
1/2-x,1/2+y,-z
loop_
_atom_site_type_symbol
_atom_site_label
_atom_site_fract_x
_atom_site_fract_y
_atom_site_fract_z
Si Si1 0.380955 0.582940 0.441078
Si Si2 0.424353 0.737605 0.279403
Si Si3 0.107563 0.842860 0.580294
Si Si4 0.137941 0.975227 0.784946
Si Si5 0.204810 0.725506 0.124039
Si Si6 0.041698 0.579026 0.315183
O O1 0.500000 0.552827 0.500000
O O2 0.399646 0.671918 0.413258
O O3 0.454947 0.545660 0.241861
O O4 0.164341 0.554525 0.615156
O O5 0.319678 0.810208 0.411612
O O6 0.320364 0.716959 0.197956
O O7 0.652209 0.751285 0.099387
O O8 0.161648 0.910569 0.650859
O O9 0.000000 0.868508 0.500000
O O10 0.971929 0.783193 0.751562
O O11 0.333339 0.003922 0.737855
O O12 0.000000 0.945596 0.000000
O O13 0.130286 0.640338 0.146529
O O14 0.000000 0.618902 0.500000
#
# Coordination Sequence:
#
# PCOD8048158 Si02
#       6
#     4   4   4   4   4   4
#     4  11  22  40  65  99 130 176 232 286 332 390
#     4  10  19  36  67  97 132 177 224 269 330 408
#     4  10  21  41  65  97 141 180 221 277 344 395
#     4  11  23  42  66  94 136 180 228 277 341 411
#     4  10  17  36  68  96 128 176 230 263 328 413
#     4  10  18  37  66  95 127 180 224 274 333 402
#
# _framework density 21.103726000000002
#
# number of rings (size 3 to 8) (size 9 to 14) (size 15 to 20)
#    0.000    1.667    5.000    2.000    0.000    0.000 
#   12.000    3.333    3.667    0.000    0.000    0.000 
#    0.000    0.000    0.000    0.000    0.000    0.000 
#
# Total GULP energy -148714.861890 kJ/mol
# GULP energy per Si atom -12392.905157 kJ/mol
# Density = 2.105569 g / cm^3
# Si number density = 21.103726 Si / 1000 Ang^3
#
#
#
# Elastic Constant Matrix: (Units=GPa)
#
#
# Indices 1 2 3 4 5 6 
#
# 1 110.3769 43.7295 50.5518 0.0000 -12.6256 0.0000
# 2 43.7295 112.5142 56.0432 0.0000 -7.4832 0.0000
# 3 50.5518 56.0432 134.2767 0.0000 -24.2853 0.0000
# 4 0.0000 0.0000 0.0000 26.5607 0.0000 1.1608
# 5 -12.6256 -7.4832 -24.2853 0.0000 26.1256 0.0000
# 6 0.0000 0.0000 0.0000 1.1608 0.0000 23.0806
#
#
#
# Elastic Compliance Matrix: (Units=1/GPa)
#
#
# Indices 1 2 3 4 5 6 
#
# 1 0.011792 -0.003062 -0.002752 0.000000 0.002263 0.000000
# 2 -0.003062 0.012056 -0.004234 0.000000 -0.001962 0.000000
# 3 -0.002752 -0.004234 0.011769 0.000000 0.008398 0.000000
# 4 0.000000 0.000000 0.000000 0.037733 0.000000 -0.001898
# 5 0.002263 -0.001962 0.008398 0.000000 0.046614 0.000000
# 6 0.000000 0.000000 0.000000 -0.001898 0.000000 0.043422
#
#
# Mechanical properties :
#
#
# Convention : Reuss Voigt Hill
#
# Bulk Modulus (GPa) = 64.42581 73.09073 68.75827
# Shear Modulus (GPa) = 26.50313 28.94295 27.72304
#
# Velocity S-wave (km/s) = 3.54764 3.70734 3.62837
# Velocity P-wave (km/s) = 6.88298 7.28252 7.08557
#
# Compressibility (1/GPa) = 0.01552173
#
# Stress axis : x y z
#
# Youngs Moduli (GPa) = 84.80117 82.94452 84.96566
#
# Poissons Ratio (x) = 0.25395 0.23385
# Poissons Ratio (y) = 0.25964 0.35976
# Poissons Ratio (z) = 0.23339 0.35120
#
# Static dielectric constant tensor:
#      x y z
#    x 3.723150 0.000000 -0.328490 
#    y 0.000000 3.604540 0.000000 
#    z -0.328490 0.000000 4.056170 
# 
# 
# High freq. dielectric constant tensor:
#      x y z
#    x 1.809250 0.000000 -0.017220 
#    y 0.000000 1.812910 0.000000 
#    z -0.017220 0.000000 1.822600 
# 
# From -- ./inp_files/16680.got.cif
#   From: 2010.03.12/outbox.cif.g09.slc.cpg/sg5_9_cif.got.tgz:16680.got - 2010.03.31 09:47:26.
