data_PCOD8048116
_publ_section_title
;
Structure prediction by ZEFSAII (Michael W. Deem and Ramdas Pophale) SiO2 
 PCOD8048116
Probable space group: C 2
;
_chemical_formula_sum "Si O2"
_cell_formula_units_Z 32
_cell_length_a 15.316787
_cell_length_b 16.860085
_cell_length_c 15.303859
_cell_angle_alpha 90.000000
_cell_angle_beta 26.345648
_cell_angle_gamma 90.000000
_cell_volume 1753.885708
_symmetry_space_group_name_H-M "C 2"
_symmetry_group_IT_number 5
_symmetry_cell_setting 'monoclinic'
loop_
_space_group_symop_operation_xyz
x,y,z
-x,y,-z
1/2+x,1/2+y,z
1/2-x,1/2+y,-z
loop_
_atom_site_type_symbol
_atom_site_label
_atom_site_fract_x
_atom_site_fract_y
_atom_site_fract_z
Si Si1 0.295857 0.483420 0.373324
Si Si2 0.352084 0.269774 0.366629
Si Si3 0.493790 0.844916 0.404337
Si Si4 0.431231 0.367874 0.963490
Si Si5 0.599357 0.151211 0.536927
Si Si6 0.719888 0.706582 0.791787
Si Si7 0.912365 0.912527 0.438636
Si Si8 0.782779 0.389435 0.205229
O O1 0.493944 0.451798 0.145785
O O2 0.215747 0.569154 0.420365
O O3 0.336285 0.480970 0.441282
O O4 0.125386 0.425742 0.494714
O O5 0.484985 0.290977 0.163195
O O6 0.387167 0.182141 0.374971
O O7 0.415340 0.329909 0.385443
O O8 0.122528 0.277184 0.545516
O O9 0.500000 0.818723 0.500000
O O10 0.697141 0.861356 0.172965
O O11 0.500000 0.361803 0.000000
O O12 0.369446 0.150460 0.713529
O O13 0.716283 0.209306 0.366793
O O14 0.727103 0.797592 0.816064
O O15 0.500000 0.671630 0.000000
O O16 0.766741 0.904062 0.649999
O O17 0.130748 0.934485 0.277655
O O18 0.000000 0.424861 0.000000
#
# Coordination Sequence:
#
# PCOD8048116 Si02
#       8
#     4   4   4   4   4   4   4   4
#     4  10  24  33  57  80 117 156 178 234 288 344
#     4  10  20  33  57  82 113 148 182 243 282 330
#     4  10  19  36  57  82 107 141 196 242 281 324
#     4  10  19  36  58  82 108 143 201 237 276 334
#     4  11  21  39  51  83 126 150 182 226 294 357
#     4  10  21  33  57  84 113 147 180 225 289 342
#     4   9  17  35  49  83 105 139 188 228 273 324
#     4  10  17  31  60  78 105 136 183 235 277 323
#
# _framework density 18.245201999999999
#
# number of rings (size 3 to 8) (size 9 to 14) (size 15 to 20)
#    0.000    2.250    5.000    0.750    1.750    6.500 
#    0.000    0.000    2.750    0.750    0.000    0.000 
#    0.000    0.000    0.000    0.000    0.000    0.000 
#
# Total GULP energy -198260.980774 kJ/mol
# GULP energy per Si atom -12391.311298 kJ/mol
# Density = 1.820368 g / cm^3
# Si number density = 18.245202 Si / 1000 Ang^3
#
#
#
# Elastic Constant Matrix: (Units=GPa)
#
#
# Indices 1 2 3 4 5 6 
#
# 1 116.8217 23.7935 52.7022 -0.0312 3.1059 0.0209
# 2 23.7935 46.8894 19.0226 -1.0412 -1.0319 0.3796
# 3 52.7022 19.0226 138.6738 -0.4828 -19.5429 0.1412
# 4 -0.0312 -1.0412 -0.4828 -7.5814 0.1972 6.1507
# 5 3.1059 -1.0319 -19.5429 0.1972 31.5859 -0.0764
# 6 0.0209 0.3796 0.1412 6.1507 -0.0764 15.0126
#
#
#
# Elastic Compliance Matrix: (Units=1/GPa)
#
#
# Indices 1 2 3 4 5 6 
#
# 1 0.011467 -0.004128 -0.004347 0.000587 -0.003956 -0.000131
# 2 -0.004128 0.024058 -0.001721 -0.002739 0.000146 0.000536
# 3 -0.004347 -0.001721 0.010025 -0.000167 0.006575 0.000057
# 4 0.000587 -0.002739 -0.000167 -0.098655 0.000464 0.040492
# 5 -0.003956 0.000146 0.006575 0.000464 0.036119 -0.000066
# 6 -0.000131 0.000536 0.000057 0.040492 -0.000066 0.050007
#
#
# Mechanical properties :
#
#
# Convention : Reuss Voigt Hill
#
# Bulk Modulus (GPa) = 39.74875 54.82462 47.28668
# Shear Modulus (GPa) = 80.90683 21.59451 51.25067
#
# Velocity S-wave (km/s) = 6.66637 3.44404 5.30574
# Velocity P-wave (km/s) = 9.00484 6.77711 7.96920
#
# Compressibility (1/GPa) = 0.02515802
#
# Stress axis : x y z
#
# Youngs Moduli (GPa) = 87.20360 41.56653 99.74729
#
# Poissons Ratio (x) = 0.17160 0.43362
# Poissons Ratio (y) = 0.36001 0.17164
# Poissons Ratio (z) = 0.37909 0.07152
#
# Static dielectric constant tensor:
#      x y z
#    x 3.789420 -0.000150 0.120530 
#    y -0.000150 2.979040 -0.000060 
#    z 0.120530 -0.000060 3.856340 
# 
# 
# High freq. dielectric constant tensor:
#      x y z
#    x 1.723500 -0.000010 -0.004770 
#    y -0.000010 1.653380 0.000010 
#    z -0.004770 0.000010 1.713570 
# 
# From -- ./inp_files/54903.got.cif
#   From: 2010.03.12/outbox.cif.g09.slc.cpg/sg5_28_cif.got.tgz:54903.got - 2010.03.31 09:47:26.
