data_PCOD8048072
_publ_section_title
;
Structure prediction by ZEFSAII (Michael W. Deem and Ramdas Pophale) SiO2 
 PCOD8048072
Probable space group: C 2
;
_chemical_formula_sum "Si O2"
_cell_formula_units_Z 26
_cell_length_a 8.794727
_cell_length_b 17.987484
_cell_length_c 8.291467
_cell_angle_alpha 90.000000
_cell_angle_beta 84.341834
_cell_angle_gamma 90.000000
_cell_volume 1305.278032
_symmetry_space_group_name_H-M "C 2"
_symmetry_group_IT_number 5
_symmetry_cell_setting 'monoclinic'
loop_
_space_group_symop_operation_xyz
x,y,z
-x,y,-z
1/2+x,1/2+y,z
1/2-x,1/2+y,-z
loop_
_atom_site_type_symbol
_atom_site_label
_atom_site_fract_x
_atom_site_fract_y
_atom_site_fract_z
Si Si1 0.338852 0.155310 0.963094
Si Si2 0.500000 0.510044 0.000000
Si Si3 0.830778 0.000662 0.523096
Si Si4 0.595231 0.748717 0.826745
Si Si5 0.201889 0.496661 0.182263
Si Si6 0.896940 0.122799 0.750074
Si Si7 0.432865 0.903968 0.329262
O O1 0.259792 0.213551 0.850649
O O2 0.356762 0.075126 0.877728
O O3 0.500000 0.188580 0.000000
O O4 0.251336 0.148342 0.139942
O O5 0.657465 0.464596 0.946160
O O6 0.489831 0.562060 0.844425
O O7 0.719045 0.954726 0.652519
O O8 0.000000 0.962798 0.500000
O O9 0.755986 0.006978 0.358193
O O10 0.849329 0.085073 0.586882
O O11 0.506543 0.693671 0.713126
O O12 0.620886 0.826004 0.735745
O O13 0.500000 0.758277 0.000000
O O14 0.060073 0.439473 0.196390
O O15 0.500000 0.892582 0.500000
#
# Coordination Sequence:
#
# PCOD8048072 Si02
#       7
#     4   2   4   4   4   4   4
#     4  10  19  35  61  87 117 148 197 251 284 342
#     4  10  16  34  60  90 118 146 194 246 278 342
#     4  11  20  36  60  87 119 156 195 243 290 346
#     4  10  20  39  58  83 119 154 194 234 296 355
#     4  10  20  37  58  90 122 148 199 241 292 346
#     4  10  18  35  61  87 115 151 195 237 289 351
#     4  10  24  39  57  86 122 158 192 241 294 354
#
# _framework density 19.919128000000001
#
# number of rings (size 3 to 8) (size 9 to 14) (size 15 to 20)
#    0.000    1.846    5.385    0.923    0.000    4.923 
#    0.000    6.154    3.385    4.615    0.000    0.000 
#    0.000    0.000    0.000    0.000    0.000    0.000 
#
# Total GULP energy -161140.624569 kJ/mol
# GULP energy per Si atom -12395.432659 kJ/mol
# Density = 1.987379 g / cm^3
# Si number density = 19.919128 Si / 1000 Ang^3
#
#
#
# Elastic Constant Matrix: (Units=GPa)
#
#
# Indices 1 2 3 4 5 6 
#
# 1 150.6454 68.5117 32.5638 0.0000 -20.3445 0.0000
# 2 68.5117 115.5976 41.0265 0.0000 -8.3608 0.0000
# 3 32.5638 41.0265 44.3142 0.0000 -8.7883 0.0000
# 4 0.0000 0.0000 0.0000 31.2767 0.0000 2.7758
# 5 -20.3445 -8.3608 -8.7883 0.0000 36.2686 0.0000
# 6 0.0000 0.0000 0.0000 2.7758 0.0000 15.5292
#
#
#
# Elastic Compliance Matrix: (Units=1/GPa)
#
#
# Indices 1 2 3 4 5 6 
#
# 1 0.009779 -0.004822 -0.001948 0.000000 0.003902 0.000000
# 2 -0.004822 0.015262 -0.010951 0.000000 -0.001840 0.000000
# 3 -0.001948 -0.010951 0.035106 0.000000 0.004889 0.000000
# 4 0.000000 0.000000 0.000000 0.032488 0.000000 -0.005807
# 5 0.003902 -0.001840 0.004889 0.000000 0.030521 0.000000
# 6 0.000000 0.000000 0.000000 -0.005807 0.000000 0.065433
#
#
# Mechanical properties :
#
#
# Convention : Reuss Voigt Hill
#
# Bulk Modulus (GPa) = 40.47831 66.08458 53.28145
# Shear Modulus (GPa) = 21.52687 27.84524 24.68606
#
# Velocity S-wave (km/s) = 3.29099 3.74293 3.52421
# Velocity P-wave (km/s) = 5.89968 7.20609 6.58536
#
# Compressibility (1/GPa) = 0.02470459
#
# Stress axis : x y z
#
# Youngs Moduli (GPa) = 102.25715 65.52031 28.48524
#
# Poissons Ratio (x) = 0.31597 0.05548
# Poissons Ratio (y) = 0.49313 0.31195
# Poissons Ratio (z) = 0.19917 0.71754
#
# Static dielectric constant tensor:
#      x y z
#    x 3.972660 0.000000 -0.083230 
#    y 0.000000 3.427010 0.000000 
#    z -0.083230 0.000000 3.801070 
# 
# 
# High freq. dielectric constant tensor:
#      x y z
#    x 1.789070 0.000000 -0.003020 
#    y 0.000000 1.743250 0.000000 
#    z -0.003020 0.000000 1.779290 
# 
# From -- ./inp_files/16058.got.cif
#   From: 2010.03.12/outbox.cif.g09.slc.cpg/sg5_9_cif.got.tgz:16058.got - 2010.03.31 09:47:26.
