data_PCOD8048087
_publ_section_title
;
Structure prediction by ZEFSAII (Michael W. Deem and Ramdas Pophale) SiO2 
 PCOD8048087
Probable space group: C 2
;
_chemical_formula_sum "Si O2"
_cell_formula_units_Z 28
_cell_length_a 19.382194
_cell_length_b 8.736704
_cell_length_c 14.187600
_cell_angle_alpha 90.000000
_cell_angle_beta 33.531188
_cell_angle_gamma 90.000000
_cell_volume 1327.107009
_symmetry_space_group_name_H-M "C 2"
_symmetry_group_IT_number 5
_symmetry_cell_setting 'monoclinic'
loop_
_space_group_symop_operation_xyz
x,y,z
-x,y,-z
1/2+x,1/2+y,z
1/2-x,1/2+y,-z
loop_
_atom_site_type_symbol
_atom_site_label
_atom_site_fract_x
_atom_site_fract_y
_atom_site_fract_z
Si Si1 0.000000 0.719861 0.000000
Si Si2 0.715588 0.672798 0.843475
Si Si3 0.530375 0.430754 0.131753
Si Si4 0.777437 0.910991 0.500310
Si Si5 0.656854 0.093773 0.491490
Si Si6 0.000000 0.966377 0.500000
Si Si7 0.772625 0.508203 0.242988
Si Si8 0.413590 0.250768 0.761052
O O1 0.880245 0.628319 0.095647
O O2 0.964435 0.823914 0.129064
O O3 0.795177 0.589138 0.671103
O O4 0.790088 0.681509 0.856640
O O5 0.683425 0.845173 0.849641
O O6 0.594235 0.573260 0.006226
O O7 0.414124 0.484645 0.326922
O O8 0.620772 0.336803 0.101313
O O9 0.779519 0.732085 0.522715
O O10 0.691972 0.937236 0.505082
O O11 0.722909 0.004093 0.649856
O O12 0.507662 0.109054 0.668959
O O13 0.989723 0.862358 0.604179
O O14 0.866884 0.056758 0.638311
#
# Coordination Sequence:
#
# PCOD8048087 Si02
#       8
#     2   4   4   4   4   2   4   4
#     4  12  26  40  60  98 136 162 200 276 324 352
#     4  10  21  37  64  90 123 165 212 254 319 374
#     4  11  23  40  59  91 133 162 200 270 323 362
#     4  10  20  36  60  84 116 164 208 245 310 371
#     4  10  18  35  60  87 116 161 209 255 301 376
#     4  10  16  40  68  84 116 164 214 256 298 378
#     4  10  21  40  66  89 121 169 218 250 309 385
#     4  10  18  38  63  86 116 168 208 255 312 375
#
# _framework density 21.098524000000001
#
# number of rings (size 3 to 8) (size 9 to 14) (size 15 to 20)
#    0.000    1.714    5.714    2.571    0.000    5.143 
#    0.000    1.429    6.286    0.000    0.000    0.000 
#    0.000    0.000    0.000    0.000    0.000    0.000 
#
# Total GULP energy -173486.852131 kJ/mol
# GULP energy per Si atom -12391.918009 kJ/mol
# Density = 2.105050 g / cm^3
# Si number density = 21.098524 Si / 1000 Ang^3
#
#
#
# Elastic Constant Matrix: (Units=GPa)
#
#
# Indices 1 2 3 4 5 6 
#
# 1 117.8141 37.1436 21.2386 0.0000 -1.0945 0.0000
# 2 37.1436 54.3741 34.4629 0.0002 -5.3414 -0.0001
# 3 21.2386 34.4629 75.4283 0.0000 -3.8981 0.0000
# 4 0.0000 0.0002 0.0000 21.5114 0.0000 1.8306
# 5 -1.0945 -5.3414 -3.8981 0.0000 41.3444 0.0000
# 6 0.0000 -0.0001 0.0000 1.8306 0.0000 36.6113
#
#
#
# Elastic Compliance Matrix: (Units=1/GPa)
#
#
# Indices 1 2 3 4 5 6 
#
# 1 0.010848 -0.007768 0.000460 0.000000 -0.000673 0.000000
# 2 -0.007768 0.031658 -0.012136 0.000000 0.002740 0.000000
# 3 0.000460 -0.012136 0.018684 0.000000 0.000206 0.000000
# 4 0.000000 0.000000 0.000000 0.046686 0.000000 -0.002334
# 5 -0.000673 0.002740 0.000206 0.000000 0.024543 0.000000
# 6 0.000000 0.000000 0.000000 -0.002334 0.000000 0.027431
#
#
# Mechanical properties :
#
#
# Convention : Reuss Voigt Hill
#
# Bulk Modulus (GPa) = 44.83851 48.14519 46.49185
# Shear Modulus (GPa) = 24.25176 30.21149 27.23163
#
# Velocity S-wave (km/s) = 3.39404 3.78818 3.59651
# Velocity P-wave (km/s) = 6.05454 6.48094 6.27136
#
# Compressibility (1/GPa) = 0.02230226
#
# Stress axis : x y z
#
# Youngs Moduli (GPa) = 92.18470 31.58713 53.52290
#
# Poissons Ratio (x) = 0.24536 -0.02461
# Poissons Ratio (y) = 0.71608 0.64954
# Poissons Ratio (z) = -0.04239 0.38334
#
# Static dielectric constant tensor:
#      x y z
#    x 4.044180 0.000000 0.140530 
#    y 0.000000 3.456220 0.000000 
#    z 0.140530 0.000000 3.662460 
# 
# 
# High freq. dielectric constant tensor:
#      x y z
#    x 1.844170 0.000000 0.012270 
#    y 0.000000 1.787570 0.000000 
#    z 0.012270 0.000000 1.821340 
# 
# From -- ./inp_files/41853.got.cif
#   From: 2010.03.12/outbox.cif.g09.slc.cpg/sg5_21_cif.got.tgz:41853.got - 2010.03.31 09:47:26.
