data_PCOD8048691
_publ_section_title
;
Structure prediction by ZEFSAII (Michael W. Deem and Ramdas Pophale) SiO2 
 PCOD8048691
Probable space group: C 2
;
_chemical_formula_sum "Si O2"
_cell_formula_units_Z 28
_cell_length_a 19.630823
_cell_length_b 9.756972
_cell_length_c 14.198012
_cell_angle_alpha 90.000000
_cell_angle_beta 151.000215
_cell_angle_gamma 90.000000
_cell_volume 1318.406677
_symmetry_space_group_name_H-M "C 2"
_symmetry_group_IT_number 5
_symmetry_cell_setting 'monoclinic'
loop_
_space_group_symop_operation_xyz
x,y,z
-x,y,-z
1/2+x,1/2+y,z
1/2-x,1/2+y,-z
loop_
_atom_site_type_symbol
_atom_site_label
_atom_site_fract_x
_atom_site_fract_y
_atom_site_fract_z
Si Si1 0.276674 0.035900 0.263946
Si Si2 0.500000 0.078077 0.000000
Si Si3 0.000000 0.121496 0.000000
Si Si4 0.155231 0.840953 0.660584
Si Si5 0.104532 0.283637 0.705027
Si Si6 0.429181 0.937372 0.631046
Si Si7 0.173022 0.351890 0.305706
Si Si8 0.337727 0.076072 0.969795
O O1 0.107565 0.027881 0.070371
O O2 0.322407 0.184420 0.279766
O O3 0.343833 0.015281 0.447788
O O4 0.328802 0.925047 0.252323
O O5 0.396731 0.158719 0.947067
O O6 0.415685 0.984912 0.825764
O O7 0.088817 0.214158 0.179502
O O8 0.181599 0.853428 0.578596
O O9 0.000000 0.891602 0.500000
O O10 0.270110 0.932392 0.853890
O O11 0.222536 0.174434 0.876537
O O12 0.000000 0.220159 0.500000
O O13 0.018027 0.312048 0.694886
O O14 0.316426 0.868746 0.568032
O O15 0.539183 0.046572 0.807371
#
# Coordination Sequence:
#
# PCOD8048691 Si02
#       8
#     4   2   2   4   4   4   4   4
#     4  10  21  38  59  80 112 150 183 227 281 330
#     4   7  14  31  54  76 104 140 180 218 270 322
#     4   9  18  37  60  78 104 150 194 218 268 344
#     4  10  19  36  62  84 107 147 193 223 266 337
#     4  10  22  38  55  80 117 153 179 223 286 329
#     4  10  20  36  56  82 116 145 181 231 281 323
#     4   8  16  33  57  81 107 143 180 226 273 319
#     4  10  20  36  60  83 108 146 189 229 270 326
#
# _framework density 21.237756999999998
#
# number of rings (size 3 to 8) (size 9 to 14) (size 15 to 20)
#    0.000    2.571    0.000    4.286    0.000    4.000 
#    0.000   24.286    0.000    0.000    0.000    0.000 
#    0.000    0.000    0.000    0.000    0.000    0.000 
#
# Total GULP energy -173472.092966 kJ/mol
# GULP energy per Si atom -12390.863783 kJ/mol
# Density = 2.118942 g / cm^3
# Si number density = 21.237757 Si / 1000 Ang^3
#
#
#
# Elastic Constant Matrix: (Units=GPa)
#
#
# Indices 1 2 3 4 5 6 
#
# 1 136.1740 23.9232 36.0046 0.0000 15.2429 0.0000
# 2 23.9232 63.3200 11.3115 0.0000 -2.5906 0.0000
# 3 36.0046 11.3115 59.5071 0.0000 14.2306 0.0000
# 4 0.0000 0.0000 0.0000 16.9579 0.0000 12.3678
# 5 15.2429 -2.5906 14.2306 0.0000 34.4984 0.0000
# 6 0.0000 0.0000 0.0000 12.3678 0.0000 25.2194
#
#
#
# Elastic Compliance Matrix: (Units=1/GPa)
#
#
# Indices 1 2 3 4 5 6 
#
# 1 0.009305 -0.002811 -0.004506 0.000000 -0.002463 0.000000
# 2 -0.002811 0.017442 -0.002468 0.000000 0.003570 0.000000
# 3 -0.004506 -0.002468 0.021710 0.000000 -0.007150 0.000000
# 4 0.000000 0.000000 0.000000 0.091805 0.000000 -0.045022
# 5 -0.002463 0.003570 -0.007150 0.000000 0.033293 0.000000
# 6 0.000000 0.000000 0.000000 -0.045022 0.000000 0.061731
#
#
# Mechanical properties :
#
#
# Convention : Reuss Voigt Hill
#
# Bulk Modulus (GPa) = 34.61981 44.60887 39.61434
# Shear Modulus (GPa) = 18.90464 27.85259 23.37862
#
# Velocity S-wave (km/s) = 2.98676 3.62535 3.32144
# Velocity P-wave (km/s) = 5.31327 6.21082 5.77949
#
# Compressibility (1/GPa) = 0.02888520
#
# Stress axis : x y z
#
# Youngs Moduli (GPa) = 107.47336 57.33312 46.06131
#
# Poissons Ratio (x) = 0.16118 0.20756
# Poissons Ratio (y) = 0.30213 0.11369
# Poissons Ratio (z) = 0.48430 0.14152
#
# Static dielectric constant tensor:
#      x y z
#    x 4.201970 0.000000 0.294340 
#    y 0.000000 3.545190 0.000000 
#    z 0.294340 0.000000 3.623360 
# 
# 
# High freq. dielectric constant tensor:
#      x y z
#    x 1.851480 0.000000 0.018110 
#    y 0.000000 1.810160 0.000000 
#    z 0.018110 0.000000 1.806600 
# 
# From -- ./inp_files/56858.got.cif
#   From: 2010.03.12/outbox.cif.g09.slc.cpg/sg5_29_cif.got.tgz:56858.got - 2010.03.31 09:47:26.
