data_PCOD8048419
_publ_section_title
;
Structure prediction by ZEFSAII (Michael W. Deem and Ramdas Pophale) SiO2 
 PCOD8048419
Probable space group: C 2
;
_chemical_formula_sum "Si O2"
_cell_formula_units_Z 26
_cell_length_a 21.489643
_cell_length_b 8.688961
_cell_length_c 7.466385
_cell_angle_alpha 90.000000
_cell_angle_beta 62.866762
_cell_angle_gamma 90.000000
_cell_volume 1240.715619
_symmetry_space_group_name_H-M "C 2"
_symmetry_group_IT_number 5
_symmetry_cell_setting 'monoclinic'
loop_
_space_group_symop_operation_xyz
x,y,z
-x,y,-z
1/2+x,1/2+y,z
1/2-x,1/2+y,-z
loop_
_atom_site_type_symbol
_atom_site_label
_atom_site_fract_x
_atom_site_fract_y
_atom_site_fract_z
Si Si1 0.174788 0.266080 0.129586
Si Si2 0.291455 0.468133 0.112014
Si Si3 0.870426 0.222324 0.432719
Si Si4 0.500000 0.184110 0.000000
Si Si5 0.389619 0.388397 0.296865
Si Si6 0.781935 0.649770 0.493493
Si Si7 0.618697 0.956384 0.872612
O O1 0.253098 0.327813 0.063508
O O2 0.124005 0.277128 0.369312
O O3 0.180485 0.087890 0.070358
O O4 0.139782 0.361019 0.017395
O O5 0.357489 0.408422 0.139239
O O6 0.232622 0.547539 0.314057
O O7 0.789046 0.222802 0.486081
O O8 0.909247 0.341373 0.248173
O O9 0.903792 0.052699 0.369049
O O10 0.462523 0.295004 0.194375
O O11 0.441728 0.074340 0.987519
O O12 0.333328 0.289241 0.484356
O O13 0.815420 0.550290 0.290002
#
# Coordination Sequence:
#
# PCOD8048419 Si02
#       7
#     4   4   4   2   4   4   4
#     4  12  23  37  65 104 130 160 206 265 333 376
#     4  11  23  35  65 101 133 162 203 265 328 383
#     4  11  20  38  64  96 126 158 208 269 327 365
#     4  10  26  44  70  82 124 188 220 250 310 380
#     4  10  21  41  64  92 129 173 211 253 319 381
#     4  10  18  38  62  94 133 161 199 260 327 374
#     4  11  22  42  64  92 128 171 211 261 307 383
#
# _framework density 20.955646999999999
#
# number of rings (size 3 to 8) (size 9 to 14) (size 15 to 20)
#    0.000    1.231    6.154    1.846    4.308    0.615 
#    0.000    0.769    3.385    0.000    0.000    0.000 
#    0.000    0.000    0.000    0.000    0.000    0.000 
#
# Total GULP energy -161192.342118 kJ/mol
# GULP energy per Si atom -12399.410932 kJ/mol
# Density = 2.090795 g / cm^3
# Si number density = 20.955647 Si / 1000 Ang^3
#
#
#
# Elastic Constant Matrix: (Units=GPa)
#
#
# Indices 1 2 3 4 5 6 
#
# 1 37.2861 20.2410 35.6390 0.0000 -4.4878 0.0000
# 2 20.2410 114.1131 39.0335 0.0000 -4.1468 0.0000
# 3 35.6390 39.0335 97.9482 0.0000 9.2631 0.0000
# 4 0.0000 0.0000 0.0000 40.4833 0.0000 -5.6836
# 5 -4.4878 -4.1468 9.2631 0.0000 35.9384 0.0000
# 6 0.0000 0.0000 0.0000 -5.6836 0.0000 27.8324
#
#
#
# Elastic Compliance Matrix: (Units=1/GPa)
#
#
# Indices 1 2 3 4 5 6 
#
# 1 0.044707 -0.001977 -0.016385 0.000000 0.009578 0.000000
# 2 -0.001977 0.010417 -0.003610 0.000000 0.001886 0.000000
# 3 -0.016385 -0.003610 0.018289 0.000000 -0.007176 0.000000
# 4 0.000000 0.000000 0.000000 0.025431 0.000000 0.005193
# 5 0.009578 0.001886 -0.007176 0.000000 0.031089 0.000000
# 6 0.000000 0.000000 0.000000 0.005193 0.000000 0.036990
#
#
# Mechanical properties :
#
#
# Convention : Reuss Voigt Hill
#
# Bulk Modulus (GPa) = 33.93497 48.79716 41.36607
# Shear Modulus (GPa) = 22.65631 31.14639 26.90135
#
# Velocity S-wave (km/s) = 3.29166 3.85944 3.58680
# Velocity P-wave (km/s) = 5.53855 6.57243 6.07752
#
# Compressibility (1/GPa) = 0.02946812
#
# Stress axis : x y z
#
# Youngs Moduli (GPa) = 22.36805 95.99280 54.67908
#
# Poissons Ratio (x) = 0.18982 0.89589
# Poissons Ratio (y) = 0.04423 0.19741
# Poissons Ratio (z) = 0.36649 0.34656
#
# Static dielectric constant tensor:
#      x y z
#    x 3.370020 0.000000 -0.018050 
#    y 0.000000 4.226430 0.000000 
#    z -0.018050 0.000000 3.890520 
# 
# 
# High freq. dielectric constant tensor:
#      x y z
#    x 1.773430 0.000000 -0.003260 
#    y 0.000000 1.851780 0.000000 
#    z -0.003260 0.000000 1.808930 
# 
# From -- ./inp_files/28693.got.cif
#   From: 2010.03.12/outbox.cif.g09.slc.cpg/sg5_15_cif.got.tgz:28693.got - 2010.03.31 09:47:26.
