data_PCOD8048629
_publ_section_title
;
Structure prediction by ZEFSAII (Michael W. Deem and Ramdas Pophale) SiO2 
 PCOD8048629
Probable space group: C 2
;
_chemical_formula_sum "Si O2"
_cell_formula_units_Z 24
_cell_length_a 16.331984
_cell_length_b 12.291470
_cell_length_c 13.765488
_cell_angle_alpha 90.000000
_cell_angle_beta 24.853213
_cell_angle_gamma 90.000000
_cell_volume 1161.418125
_symmetry_space_group_name_H-M "C 2"
_symmetry_group_IT_number 5
_symmetry_cell_setting 'monoclinic'
loop_
_space_group_symop_operation_xyz
x,y,z
-x,y,-z
1/2+x,1/2+y,z
1/2-x,1/2+y,-z
loop_
_atom_site_type_symbol
_atom_site_label
_atom_site_fract_x
_atom_site_fract_y
_atom_site_fract_z
Si Si1 0.505542 0.960310 0.102610
Si Si2 0.913712 0.217206 0.698842
Si Si3 0.976273 0.705135 0.132949
Si Si4 0.661542 0.513528 0.114577
Si Si5 0.205620 0.896548 0.571460
Si Si6 0.503024 0.966494 0.383408
O O1 0.362578 0.883050 0.316986
O O2 0.406986 0.080288 0.206148
O O3 0.500000 0.912258 0.000000
O O4 0.723628 0.964545 0.914443
O O5 0.000000 0.186422 0.500000
O O6 0.974116 0.337845 0.662695
O O7 0.965149 0.120750 0.719820
O O8 0.683045 0.214608 0.959537
O O9 0.813083 0.776516 0.361662
O O10 0.000000 0.753809 0.000000
O O11 0.506321 0.429474 0.238706
O O12 0.825555 0.534301 0.853986
O O13 0.293020 0.984835 0.556562
O O14 0.500000 0.997153 0.500000
#
# Coordination Sequence:
#
# PCOD8048629 Si02
#       6
#     4   4   4   4   4   4
#     4   9  22  39  58  86 116 144 190 239 277 336
#     4  10  20  35  59  86 115 143 188 243 279 332
#     4  10  19  35  59  88 112 145 190 234 285 334
#     4  10  22  35  55  92 113 147 188 231 289 337
#     4  11  22  33  59  87 116 149 182 237 289 331
#     4  10  21  39  58  85 117 145 190 239 278 334
#
# _framework density 20.664394000000001
#
# number of rings (size 3 to 8) (size 9 to 14) (size 15 to 20)
#    0.000    2.000    1.667    2.000    9.333    0.000 
#    0.000    0.000    0.000   14.000    0.000    0.000 
#    0.000    0.000    0.000    0.000    0.000    0.000 
#
# Total GULP energy -148678.854959 kJ/mol
# GULP energy per Si atom -12389.904580 kJ/mol
# Density = 2.061736 g / cm^3
# Si number density = 20.664394 Si / 1000 Ang^3
#
#
#
# Elastic Constant Matrix: (Units=GPa)
#
#
# Indices 1 2 3 4 5 6 
#
# 1 115.6713 2.5196 34.6119 0.0017 20.7085 0.0042
# 2 2.5196 58.0372 31.0104 0.0041 20.7843 -0.0013
# 3 34.6119 31.0104 96.0790 0.0004 17.2974 0.0118
# 4 0.0017 0.0041 0.0004 37.9802 -0.0030 26.7106
# 5 20.7085 20.7843 17.2974 -0.0030 43.7993 -0.0017
# 6 0.0042 -0.0013 0.0118 26.7106 -0.0017 136.1644
#
#
#
# Elastic Compliance Matrix: (Units=1/GPa)
#
#
# Indices 1 2 3 4 5 6 
#
# 1 0.010709 0.003556 -0.004080 -0.000001 -0.005139 0.000000
# 2 0.003556 0.024794 -0.007388 -0.000005 -0.010529 0.000002
# 3 -0.004080 -0.007388 0.014301 0.000002 -0.000213 -0.000002
# 4 -0.000001 -0.000005 0.000002 0.030543 0.000004 -0.005991
# 5 -0.005139 -0.010529 -0.000213 0.000004 0.030342 0.000000
# 6 0.000000 0.000002 -0.000002 -0.005991 0.000000 0.008519
#
#
# Mechanical properties :
#
#
# Convention : Reuss Voigt Hill
#
# Bulk Modulus (GPa) = 29.43015 45.11903 37.27459
# Shear Modulus (GPa) = 34.16266 57.03184 45.59725
#
# Velocity S-wave (km/s) = 4.07038 5.25918 4.70250
# Velocity P-wave (km/s) = 6.03022 7.66552 6.89652
#
# Compressibility (1/GPa) = 0.03397876
#
# Stress axis : x y z
#
# Youngs Moduli (GPa) = 93.38246 40.33214 69.92648
#
# Poissons Ratio (x) = -0.14340 0.28531
# Poissons Ratio (y) = -0.33203 0.51660
# Poissons Ratio (z) = 0.38101 0.29797
#
# Static dielectric constant tensor:
#      x y z
#    x 3.953360 0.000020 -0.086530 
#    y 0.000020 3.590810 0.000020 
#    z -0.086530 0.000020 3.601060 
# 
# 
# High freq. dielectric constant tensor:
#      x y z
#    x 1.822130 0.000000 -0.011230 
#    y 0.000000 1.765910 0.000000 
#    z -0.011230 0.000000 1.813590 
# 
# From -- ./inp_files/42881.got.cif
#   From: 2010.03.12/outbox.cif.g09.slc.cpg/sg5_22_cif.got.tgz:42881.got - 2010.03.31 09:47:26.
