data_PCOD8048993
_publ_section_title
;
Structure prediction by ZEFSAII (Michael W. Deem and Ramdas Pophale) SiO2 
 PCOD8048993
Probable space group: C 2
;
_chemical_formula_sum "Si O2"
_cell_formula_units_Z 32
_cell_length_a 11.502001
_cell_length_b 20.369316
_cell_length_c 10.018343
_cell_angle_alpha 90.000000
_cell_angle_beta 47.288542
_cell_angle_gamma 90.000000
_cell_volume 1724.655893
_symmetry_space_group_name_H-M "C 2"
_symmetry_group_IT_number 5
_symmetry_cell_setting 'monoclinic'
loop_
_space_group_symop_operation_xyz
x,y,z
-x,y,-z
1/2+x,1/2+y,z
1/2-x,1/2+y,-z
loop_
_atom_site_type_symbol
_atom_site_label
_atom_site_fract_x
_atom_site_fract_y
_atom_site_fract_z
Si Si1 0.170224 0.034650 0.692055
Si Si2 0.112461 0.651801 0.538631
Si Si3 0.679422 0.905439 0.493485
Si Si4 0.807987 0.023437 0.015448
Si Si5 0.607591 0.133314 0.044637
Si Si6 0.678010 0.750009 0.208612
Si Si7 0.835280 0.394411 0.811234
Si Si8 0.695691 0.761477 0.499292
O O1 0.261248 0.093122 0.548589
O O2 0.227792 0.036321 0.800658
O O3 0.209930 0.969091 0.575306
O O4 0.982621 0.043478 0.834262
O O5 0.212556 0.718686 0.462609
O O6 0.000000 0.646329 0.500000
O O7 0.005280 0.653928 0.750220
O O8 0.516435 0.914224 0.704079
O O9 0.660850 0.897768 0.350586
O O10 0.748179 0.836187 0.492445
O O11 0.690868 0.064361 0.013688
O O12 0.780093 0.944947 0.021531
O O13 0.500000 0.123010 0.000000
O O14 0.739218 0.190444 0.932833
O O15 0.721846 0.820663 0.106918
O O16 0.741107 0.744977 0.311144
O O17 0.489715 0.746110 0.342520
#
# Coordination Sequence:
#
# PCOD8048993 Si02
#       8
#     4   4   4   4   4   4   4   4
#     4  10  20  34  56  84 111 148 187 236 278 330
#     4  12  23  37  56  81 118 154 187 229 279 337
#     4   8  15  29  55  82 109 142 183 231 278 327
#     4  10  20  35  54  84 114 144 191 234 280 328
#     4  12  23  37  56  83 117 151 189 233 275 335
#     4   9  18  35  57  85 112 145 187 233 279 331
#     4   8  15  30  55  81 111 140 182 235 276 326
#     4   9  18  35  57  84 113 147 186 230 283 331
#
# _framework density 18.554427
#
# number of rings (size 3 to 8) (size 9 to 14) (size 15 to 20)
#    0.000    2.250    2.500    3.000    1.750    1.000 
#    2.250    0.000    0.000    9.000    0.000    0.000 
#    0.000    0.000    0.000    0.000    0.000    0.000 
#
# Total GULP energy -198245.921569 kJ/mol
# GULP energy per Si atom -12390.370098 kJ/mol
# Density = 1.851220 g / cm^3
# Si number density = 18.554427 Si / 1000 Ang^3
#
#
#
# Elastic Constant Matrix: (Units=GPa)
#
#
# Indices 1 2 3 4 5 6 
#
# 1 60.4649 38.6778 19.9786 0.0000 -10.4021 0.0000
# 2 38.6778 150.5698 48.5800 0.0000 -14.2236 0.0000
# 3 19.9786 48.5800 71.4722 0.0000 -4.3622 0.0000
# 4 0.0000 0.0000 0.0000 37.4504 0.0000 -5.2138
# 5 -10.4021 -14.2236 -4.3622 0.0000 15.1594 0.0000
# 6 0.0000 0.0000 0.0000 -5.2138 0.0000 28.3196
#
#
#
# Elastic Compliance Matrix: (Units=1/GPa)
#
#
# Indices 1 2 3 4 5 6 
#
# 1 0.021647 -0.003605 -0.002953 0.000000 0.010622 0.000000
# 2 -0.003605 0.009771 -0.005319 0.000000 0.005164 0.000000
# 3 -0.002953 -0.005319 0.018326 0.000000 -0.001743 0.000000
# 4 0.000000 0.000000 0.000000 0.027404 0.000000 0.005045
# 5 0.010622 0.005164 -0.001743 0.000000 0.077598 0.000000
# 6 0.000000 0.000000 0.000000 0.005045 0.000000 0.036240
#
#
# Mechanical properties :
#
#
# Convention : Reuss Voigt Hill
#
# Bulk Modulus (GPa) = 38.47336 55.21999 46.84667
# Shear Modulus (GPa) = 22.38107 27.87057 25.12582
#
# Velocity S-wave (km/s) = 3.47686 3.87990 3.68389
# Velocity P-wave (km/s) = 6.07442 7.06379 6.58770
#
# Compressibility (1/GPa) = 0.02599201
#
# Stress axis : x y z
#
# Youngs Moduli (GPa) = 46.19515 102.34089 54.56841
#
# Poissons Ratio (x) = 0.36890 0.16112
# Poissons Ratio (y) = 0.16651 0.29024
# Poissons Ratio (z) = 0.13640 0.54433
#
# Static dielectric constant tensor:
#      x y z
#    x 2.984320 0.000000 -0.207570 
#    y 0.000000 3.747350 0.000000 
#    z -0.207570 0.000000 3.340610 
# 
# 
# High freq. dielectric constant tensor:
#      x y z
#    x 1.678080 0.000000 -0.024250 
#    y 0.000000 1.736100 0.000000 
#    z -0.024250 0.000000 1.714050 
# 
# From -- ./inp_files/40635.got.cif
#   From: 2010.03.12/outbox.cif.g09.slc.cpg/sg5_21_cif.got.tgz:40635.got - 2010.03.31 09:47:26.
