data_PCOD8048514
_publ_section_title
;
Structure prediction by ZEFSAII (Michael W. Deem and Ramdas Pophale) SiO2 
 PCOD8048514
Probable space group: C 2
;
_chemical_formula_sum "Si O2"
_cell_formula_units_Z 32
_cell_length_a 13.305110
_cell_length_b 24.521618
_cell_length_c 13.170082
_cell_angle_alpha 90.000000
_cell_angle_beta 157.939255
_cell_angle_gamma 90.000000
_cell_volume 1613.873085
_symmetry_space_group_name_H-M "C 2"
_symmetry_group_IT_number 5
_symmetry_cell_setting 'monoclinic'
loop_
_space_group_symop_operation_xyz
x,y,z
-x,y,-z
1/2+x,1/2+y,z
1/2-x,1/2+y,-z
loop_
_atom_site_type_symbol
_atom_site_label
_atom_site_fract_x
_atom_site_fract_y
_atom_site_fract_z
Si Si1 0.874507 0.448520 0.249091
Si Si2 0.007660 0.488781 0.861268
Si Si3 0.983381 0.926883 0.377195
Si Si4 0.281354 0.066456 0.219964
Si Si5 0.600013 0.383596 0.268114
Si Si6 0.566369 0.659171 0.448171
Si Si7 0.898717 0.605233 0.103781
Si Si8 0.266710 0.274153 0.700457
O O1 0.897665 0.473707 0.160935
O O2 0.805025 0.500549 0.252856
O O3 0.147360 0.418162 0.536879
O O4 0.641038 0.403587 0.028645
O O5 0.086467 0.551606 0.953475
O O6 0.692829 0.477322 0.578015
O O7 0.185870 0.451744 0.102172
O O8 0.000000 0.893404 0.500000
O O9 0.047686 0.889880 0.339838
O O10 0.500000 0.092561 0.500000
O O11 0.312617 0.090366 0.136885
O O12 0.000000 0.085692 0.000000
O O13 0.625082 0.319070 0.276378
O O14 0.500000 0.639049 0.500000
O O15 0.663150 0.721749 0.541379
O O16 0.799772 0.626518 0.611562
O O17 0.300443 0.650022 0.131303
O O18 0.000000 0.299917 0.500000
O O19 0.500000 0.258252 0.000000
#
# Coordination Sequence:
#
# PCOD8048514 Si02
#       8
#     4   4   4   4   4   4   4   4
#     4   9  19  33  50  77 111 145 181 218 257 315
#     4   9  19  32  48  75 108 141 179 216 257 315
#     4  10  19  32  51  77 112 146 177 216 263 323
#     4  11  22  36  56  84 119 155 189 224 269 332
#     4  10  20  35  54  79 110 145 182 222 273 327
#     4  11  23  39  58  82 108 140 186 240 293 337
#     4  11  22  38  58  82 113 149 187 230 282 336
#     4  11  23  39  58  82 108 137 181 234 287 335
#
# _framework density 19.828077
#
# number of rings (size 3 to 8) (size 9 to 14) (size 15 to 20)
#    0.000    1.750    0.000    5.250    0.000   10.000 
#    0.000    0.000    0.000    2.250    0.000    1.750 
#    0.000    0.000    0.000    0.000    0.000    0.000 
#
# Total GULP energy -198308.406088 kJ/mol
# GULP energy per Si atom -12394.275380 kJ/mol
# Density = 1.978295 g / cm^3
# Si number density = 19.828077 Si / 1000 Ang^3
#
#
#
# Elastic Constant Matrix: (Units=GPa)
#
#
# Indices 1 2 3 4 5 6 
#
# 1 84.6837 27.3427 33.4281 0.0077 5.0462 0.0034
# 2 27.3427 83.6809 32.5095 0.0014 6.4817 0.0018
# 3 33.4281 32.5095 119.3435 0.0427 -13.3889 0.0135
# 4 0.0077 0.0014 0.0427 0.5582 0.0166 -7.6026
# 5 5.0462 6.4817 -13.3889 0.0166 7.1728 0.0057
# 6 0.0034 0.0018 0.0135 -7.6026 0.0057 15.4952
#
#
#
# Elastic Compliance Matrix: (Units=1/GPa)
#
#
# Indices 1 2 3 4 5 6 
#
# 1 0.016243 -0.000723 -0.007034 -0.000208 -0.023904 -0.000091
# 2 -0.000723 0.017658 -0.008020 -0.000300 -0.030418 -0.000131
# 3 -0.007034 -0.008020 0.017584 0.000522 0.045018 0.000227
# 4 -0.000208 -0.000300 0.000522 -0.315247 0.002246 -0.154674
# 5 -0.023904 -0.030418 0.045018 0.002246 0.267745 0.000973
# 6 -0.000091 -0.000131 0.000227 -0.154674 0.000973 -0.011354
#
#
# Mechanical properties :
#
#
# Convention : Reuss Voigt Hill
#
# Bulk Modulus (GPa) = 50.17312 52.69652 51.43482
# Shear Modulus (GPa) = 162.18388 17.60710 89.89549
#
# Velocity S-wave (km/s) = 9.05387 2.98315 6.74062
# Velocity P-wave (km/s) = 11.60413 6.20483 9.30472
#
# Compressibility (1/GPa) = 0.01993099
#
# Stress axis : x y z
#
# Youngs Moduli (GPa) = 61.56359 56.63089 56.86837
#
# Poissons Ratio (x) = 0.04095 0.40004
# Poissons Ratio (y) = 0.04452 0.45608
# Poissons Ratio (z) = 0.43307 0.45418
#
# Static dielectric constant tensor:
#      x y z
#    x 3.717730 0.000020 -0.053740 
#    y 0.000020 3.608850 0.000120 
#    z -0.053740 0.000120 4.494090 
# 
# 
# High freq. dielectric constant tensor:
#      x y z
#    x 1.778840 0.000000 0.006280 
#    y 0.000000 1.736790 0.000000 
#    z 0.006280 0.000000 1.797450 
# 
# From -- ./inp_files/55046.got.cif
#   From: 2010.03.12/outbox.cif.g09.slc.cpg/sg5_28_cif.got.tgz:55046.got - 2010.03.31 09:47:26.
