data_PCOD8048957
_publ_section_title
;
Structure prediction by ZEFSAII (Michael W. Deem and Ramdas Pophale) SiO2 
 PCOD8048957
Probable space group: C 2
;
_chemical_formula_sum "Si O2"
_cell_formula_units_Z 24
_cell_length_a 21.865763
_cell_length_b 13.790271
_cell_length_c 13.336991
_cell_angle_alpha 90.000000
_cell_angle_beta 17.587699
_cell_angle_gamma 90.000000
_cell_volume 1215.177723
_symmetry_space_group_name_H-M "C 2"
_symmetry_group_IT_number 5
_symmetry_cell_setting 'monoclinic'
loop_
_space_group_symop_operation_xyz
x,y,z
-x,y,-z
1/2+x,1/2+y,z
1/2-x,1/2+y,-z
loop_
_atom_site_type_symbol
_atom_site_label
_atom_site_fract_x
_atom_site_fract_y
_atom_site_fract_z
Si Si1 0.785701 0.086720 0.883341
Si Si2 0.227344 0.793080 0.666321
Si Si3 0.383441 0.269609 0.942301
Si Si4 0.227346 0.473699 0.166315
Si Si5 0.383424 0.997171 0.442329
Si Si6 0.214293 0.180059 0.616665
O O1 0.000000 0.063761 0.500000
O O2 0.722536 0.199441 0.973209
O O3 0.619758 0.021685 0.084955
O O4 0.794303 0.059804 0.987542
O O5 0.294306 0.706975 0.487540
O O6 0.370085 0.886408 0.426533
O O7 0.239585 0.754166 0.760993
O O8 0.000000 0.828327 0.000000
O O9 0.619771 0.245095 0.584934
O O10 0.370093 0.380372 0.926519
O O11 0.239596 0.512615 0.260973
O O12 0.000000 0.438451 0.500000
O O13 0.277454 0.067339 0.526806
O O14 0.000000 0.203020 0.000000
#
# Coordination Sequence:
#
# PCOD8048957 Si02
#       6
#     4   4   4   4   4   4
#     4  10  20  33  52  79 103 127 169 217 252 287
#     4   9  18  35  56  74 100 138 170 200 248 310
#     4   9  19  36  54  73 101 138 172 200 248 311
#     4   9  18  35  56  74 100 138 170 200 248 310
#     4   9  19  36  54  73 101 138 172 200 248 311
#     4  10  20  33  52  79 103 127 169 217 252 287
#
# _framework density 19.750197
#
# number of rings (size 3 to 8) (size 9 to 14) (size 15 to 20)
#    0.000    2.667    0.000    1.000    0.000    2.667 
#    0.000    8.333    0.000    0.000    0.000    0.000 
#    0.000    0.000    0.000    0.000    0.000    0.000 
#
# Total GULP energy -148808.473992 kJ/mol
# GULP energy per Si atom -12400.706166 kJ/mol
# Density = 1.970524 g / cm^3
# Si number density = 19.750197 Si / 1000 Ang^3
#
#
#
# Elastic Constant Matrix: (Units=GPa)
#
#
# Indices 1 2 3 4 5 6 
#
# 1 83.9391 56.0061 22.7355 0.0043 18.6840 0.0009
# 2 56.0061 117.7916 41.2312 0.0067 10.3778 -0.0023
# 3 22.7355 41.2312 105.3341 0.0095 -4.1668 -0.0030
# 4 0.0043 0.0067 0.0095 25.1776 -0.0070 2.8428
# 5 18.6840 10.3778 -4.1668 -0.0070 19.9861 0.0008
# 6 0.0009 -0.0023 -0.0030 2.8428 0.0008 40.2361
#
#
#
# Elastic Compliance Matrix: (Units=1/GPa)
#
#
# Indices 1 2 3 4 5 6 
#
# 1 0.021494 -0.008026 -0.002145 -0.000005 -0.016374 0.000000
# 2 -0.008026 0.013593 -0.003600 -0.000001 -0.000305 0.000001
# 3 -0.002145 -0.003600 0.011615 -0.000001 0.006297 0.000001
# 4 -0.000005 -0.000001 -0.000001 0.040037 0.000019 -0.002829
# 5 -0.016374 -0.000305 0.006297 0.000019 0.066813 -0.000002
# 6 0.000000 0.000001 0.000001 -0.002829 -0.000002 0.025053
#
#
# Mechanical properties :
#
#
# Convention : Reuss Voigt Hill
#
# Bulk Modulus (GPa) = 52.19673 60.77893 56.48783
# Shear Modulus (GPa) = 23.52542 29.55278 26.53910
#
# Velocity S-wave (km/s) = 3.45505 3.87244 3.66968
# Velocity P-wave (km/s) = 6.51170 7.12987 6.82778
#
# Compressibility (1/GPa) = 0.01915829
#
# Stress axis : x y z
#
# Youngs Moduli (GPa) = 46.52361 73.56705 86.09526
#
# Poissons Ratio (x) = 0.59048 0.18470
# Poissons Ratio (y) = 0.37342 0.30998
# Poissons Ratio (z) = 0.09981 0.26487
#
# Static dielectric constant tensor:
#      x y z
#    x 3.713940 0.000000 -0.022150 
#    y 0.000000 3.473340 0.000010 
#    z -0.022150 0.000010 3.478480 
# 
# 
# High freq. dielectric constant tensor:
#      x y z
#    x 1.768120 0.000000 -0.010010 
#    y 0.000000 1.762310 0.000000 
#    z -0.010010 0.000000 1.757750 
# 
# From -- ./inp_files/35668.got.cif
#   From: 2010.03.12/outbox.cif.g09.slc.cpg/sg5_18_cif.got.tgz:35668.got - 2010.03.31 09:47:26.
