data_PCOD8048527
_publ_section_title
;
Structure prediction by ZEFSAII (Michael W. Deem and Ramdas Pophale) SiO2 
 PCOD8048527
Probable space group: C 2
;
_chemical_formula_sum "Si O2"
_cell_formula_units_Z 28
_cell_length_a 31.152273
_cell_length_b 8.301982
_cell_length_c 9.493288
_cell_angle_alpha 90.000000
_cell_angle_beta 33.729606
_cell_angle_gamma 90.000000
_cell_volume 1363.313428
_symmetry_space_group_name_H-M "C 2"
_symmetry_group_IT_number 5
_symmetry_cell_setting 'monoclinic'
loop_
_space_group_symop_operation_xyz
x,y,z
-x,y,-z
1/2+x,1/2+y,z
1/2-x,1/2+y,-z
loop_
_atom_site_type_symbol
_atom_site_label
_atom_site_fract_x
_atom_site_fract_y
_atom_site_fract_z
Si Si1 0.670721 0.318120 0.130436
Si Si2 0.432543 0.176570 0.095091
Si Si3 0.118726 0.426299 0.554048
Si Si4 0.765938 0.139126 0.093165
Si Si5 0.766188 0.833294 0.563044
Si Si6 0.971168 0.595696 0.424895
Si Si7 0.726922 0.702873 0.381779
O O1 0.740724 0.266079 0.043376
O O2 0.588567 0.245426 0.401193
O O3 0.665464 0.515387 0.142257
O O4 0.694058 0.247291 0.915069
O O5 0.354008 0.274061 0.318194
O O6 0.425507 0.003399 0.192463
O O7 0.500000 0.269670 0.000000
O O8 0.456527 0.154789 0.866381
O O9 0.197196 0.521374 0.318478
O O10 0.068607 0.442873 0.546534
O O11 0.147395 0.244639 0.512403
O O12 0.786019 0.241123 0.178135
O O13 0.723989 0.811177 0.530289
O O14 0.769465 0.018378 0.591491
O O15 0.000000 0.540241 0.500000
#
# Coordination Sequence:
#
# PCOD8048527 Si02
#       7
#     4   4   4   4   4   4   4
#     4  10  19  33  54  84 114 146 187 227 281 328
#     4   9  18  35  55  78 113 152 188 221 267 338
#     4   8  18  35  52  77 109 146 188 231 276 320
#     4   9  18  33  53  81 112 144 183 229 275 328
#     4  11  21  35  58  85 111 146 190 234 283 329
#     4  10  19  32  57  85 114 153 186 220 273 345
#     4  11  21  35  57  84 113 141 186 246 287 326
#
# _framework density 20.538195999999999
#
# number of rings (size 3 to 8) (size 9 to 14) (size 15 to 20)
#    0.000    2.286    0.000    5.143    0.000    0.000 
#    0.000    2.143    0.000    6.857    0.000   57.000 
#    0.000    0.000    0.000    0.000    0.000    0.000 
#
# Total GULP energy -173473.365508 kJ/mol
# GULP energy per Si atom -12390.954679 kJ/mol
# Density = 2.049145 g / cm^3
# Si number density = 20.538196 Si / 1000 Ang^3
#
#
#
# Elastic Constant Matrix: (Units=GPa)
#
#
# Indices 1 2 3 4 5 6 
#
# 1 111.5634 32.6963 30.7555 0.0000 22.5172 0.0000
# 2 32.6963 98.3841 37.3847 0.0000 10.9577 0.0000
# 3 30.7555 37.3847 69.2461 0.0000 19.8204 0.0000
# 4 0.0000 0.0000 0.0000 23.9693 0.0000 1.6900
# 5 22.5172 10.9577 19.8204 0.0000 39.3835 0.0000
# 6 0.0000 0.0000 0.0000 1.6900 0.0000 32.2726
#
#
#
# Elastic Compliance Matrix: (Units=1/GPa)
#
#
# Indices 1 2 3 4 5 6 
#
# 1 0.011229 -0.002296 -0.002445 0.000000 -0.004551 0.000000
# 2 -0.002296 0.013257 -0.006376 0.000000 0.000833 0.000000
# 3 -0.002445 -0.006376 0.021101 0.000000 -0.007447 0.000000
# 4 0.000000 0.000000 0.000000 0.041875 0.000000 -0.002193
# 5 -0.004551 0.000833 -0.007447 0.000000 0.031509 0.000000
# 6 0.000000 0.000000 0.000000 -0.002193 0.000000 0.031101
#
#
# Mechanical properties :
#
#
# Convention : Reuss Voigt Hill
#
# Bulk Modulus (GPa) = 42.82065 53.42962 48.12514
# Shear Modulus (GPa) = 27.76371 31.01557 29.38964
#
# Velocity S-wave (km/s) = 3.68068 3.89027 3.78693
# Velocity P-wave (km/s) = 6.24162 6.80075 6.52717
#
# Compressibility (1/GPa) = 0.02335322
#
# Stress axis : x y z
#
# Youngs Moduli (GPa) = 89.05572 75.43035 47.39027
#
# Poissons Ratio (x) = 0.17317 0.11589
# Poissons Ratio (y) = 0.20445 0.30217
# Poissons Ratio (z) = 0.21777 0.48095
#
# Static dielectric constant tensor:
#      x y z
#    x 4.049720 0.000000 0.163010 
#    y 0.000000 3.865060 0.000000 
#    z 0.163010 0.000000 3.973390 
# 
# 
# High freq. dielectric constant tensor:
#      x y z
#    x 1.800490 0.000000 0.024300 
#    y 0.000000 1.777380 0.000000 
#    z 0.024300 0.000000 1.805590 
# 
# From -- ./inp_files/32495.got.cif
#   From: 2010.03.12/outbox.cif.g09.slc.cpg/sg5_17_cif.got.tgz:32495.got - 2010.03.31 09:47:26.
