data_PCOD8048391
_publ_section_title
;
Structure prediction by ZEFSAII (Michael W. Deem and Ramdas Pophale) SiO2 
 PCOD8048391
Probable space group: C 2
;
_chemical_formula_sum "Si O2"
_cell_formula_units_Z 30
_cell_length_a 10.677401
_cell_length_b 8.276241
_cell_length_c 28.636172
_cell_angle_alpha 90.000000
_cell_angle_beta 37.125818
_cell_angle_gamma 90.000000
_cell_volume 1527.352798
_symmetry_space_group_name_H-M "C 2"
_symmetry_group_IT_number 5
_symmetry_cell_setting 'monoclinic'
loop_
_space_group_symop_operation_xyz
x,y,z
-x,y,-z
1/2+x,1/2+y,z
1/2-x,1/2+y,-z
loop_
_atom_site_type_symbol
_atom_site_label
_atom_site_fract_x
_atom_site_fract_y
_atom_site_fract_z
Si Si1 0.722688 0.108580 0.429372
Si Si2 0.500000 0.793845 0.500000
Si Si3 0.002360 0.683188 0.893899
Si Si4 0.378187 0.691485 0.845289
Si Si5 0.609471 0.684087 0.370029
Si Si6 0.706368 0.970189 0.759179
Si Si7 0.919562 0.968329 0.287407
Si Si8 0.306564 0.975061 0.026298
O O1 0.500000 0.199124 0.500000
O O2 0.795625 0.105337 0.353587
O O3 0.887904 0.207899 0.410570
O O4 0.692056 0.918032 0.454684
O O5 0.560694 0.673460 0.439722
O O6 0.843816 0.824654 0.931509
O O7 0.177946 0.753001 0.876372
O O8 0.106351 0.624786 0.814862
O O9 0.884860 0.530101 0.952073
O O10 0.483509 0.542148 0.787670
O O11 0.309616 0.628811 0.916391
O O12 0.536559 0.835344 0.803415
O O13 0.715629 0.525725 0.315553
O O14 0.761727 0.833566 0.316213
O O15 0.897581 0.900096 0.733060
O O16 0.500000 0.919041 0.000000
#
# Coordination Sequence:
#
# PCOD8048391 Si02
#       8
#     4   2   4   4   4   4   4   4
#     4   8  17  36  55  78 108 145 174 229 284 327
#     4   8  18  36  54  76 114 140 172 236 286 324
#     4  10  21  37  57  84 113 145 186 223 272 326
#     4  10  21  37  55  80 113 148 181 228 273 323
#     4  10  18  37  60  80 108 147 187 228 280 334
#     4  10  21  36  58  82 110 146 186 228 274 328
#     4   9  19  37  55  76 111 144 179 227 280 324
#     4  10  21  36  56  82 114 148 181 225 275 320
#
# _framework density 19.641829000000001
#
# number of rings (size 3 to 8) (size 9 to 14) (size 15 to 20)
#    0.400    2.133    0.000    1.600    0.000    2.133 
#    7.200    4.000    0.000    0.000    0.000    0.000 
#    0.000    0.000    0.000    0.000    0.000    0.000 
#
# Total GULP energy -185906.618833 kJ/mol
# GULP energy per Si atom -12393.774589 kJ/mol
# Density = 1.959712 g / cm^3
# Si number density = 19.641829 Si / 1000 Ang^3
#
#
#
# Elastic Constant Matrix: (Units=GPa)
#
#
# Indices 1 2 3 4 5 6 
#
# 1 103.4378 61.7731 47.8234 0.0003 -23.6459 0.0002
# 2 61.7731 63.9180 25.4790 0.0006 -17.9966 0.0006
# 3 47.8234 25.4790 106.3131 0.0010 -10.3312 0.0021
# 4 0.0003 0.0006 0.0010 17.7537 0.0002 -8.6374
# 5 -23.6459 -17.9966 -10.3312 0.0002 42.5192 0.0000
# 6 0.0002 0.0006 0.0021 -8.6374 0.0000 24.9012
#
#
#
# Elastic Compliance Matrix: (Units=1/GPa)
#
#
# Indices 1 2 3 4 5 6 
#
# 1 0.026786 -0.022254 -0.006333 0.000001 0.003938 0.000001
# 2 -0.022254 0.037716 0.001352 -0.000002 0.003916 -0.000001
# 3 -0.006333 0.001352 0.011926 -0.000001 -0.000052 -0.000001
# 4 0.000001 -0.000002 -0.000001 0.067761 -0.000001 0.023504
# 5 0.003938 0.003916 -0.000052 -0.000001 0.027354 0.000000
# 6 0.000001 -0.000001 -0.000001 0.023504 0.000000 0.048312
#
#
# Mechanical properties :
#
#
# Convention : Reuss Voigt Hill
#
# Bulk Modulus (GPa) = 45.54150 60.42443 52.98297
# Shear Modulus (GPa) = 17.75296 26.27439 22.01367
#
# Velocity S-wave (km/s) = 3.00964 3.66139 3.35140
# Velocity P-wave (km/s) = 5.94252 6.97885 6.48143
#
# Compressibility (1/GPa) = 0.02195799
#
# Stress axis : x y z
#
# Youngs Moduli (GPa) = 37.33299 26.51425 83.85053
#
# Poissons Ratio (x) = 0.59004 0.53105
# Poissons Ratio (y) = 0.83080 -0.11338
# Poissons Ratio (z) = 0.23644 -0.03585
#
# Static dielectric constant tensor:
#      x y z
#    x 3.534980 0.000000 -0.040290 
#    y 0.000000 3.076780 0.000000 
#    z -0.040290 0.000000 4.054140 
# 
# 
# High freq. dielectric constant tensor:
#      x y z
#    x 1.754620 0.000000 -0.006390 
#    y 0.000000 1.725660 0.000000 
#    z -0.006390 0.000000 1.799010 
# 
# From -- ./inp_files/70109.got.cif
#   From: 2010.03.12/outbox.cif.g09.slc.cpg/sg5_36_cif.got.tgz:70109.got - 2010.03.31 09:47:26.
