data_PCOD8048880
_publ_section_title
;
Structure prediction by ZEFSAII (Michael W. Deem and Ramdas Pophale) SiO2 
 PCOD8048880
Probable space group: C 2
;
_chemical_formula_sum "Si O2"
_cell_formula_units_Z 28
_cell_length_a 25.119976
_cell_length_b 9.235240
_cell_length_c 9.417457
_cell_angle_alpha 90.000000
_cell_angle_beta 141.649967
_cell_angle_gamma 90.000000
_cell_volume 1355.556757
_symmetry_space_group_name_H-M "C 2"
_symmetry_group_IT_number 5
_symmetry_cell_setting 'monoclinic'
loop_
_space_group_symop_operation_xyz
x,y,z
-x,y,-z
1/2+x,1/2+y,z
1/2-x,1/2+y,-z
loop_
_atom_site_type_symbol
_atom_site_label
_atom_site_fract_x
_atom_site_fract_y
_atom_site_fract_z
Si Si1 0.890515 0.739230 0.994907
Si Si2 0.296707 0.795570 0.928346
Si Si3 0.688901 0.111562 0.913870
Si Si4 0.984825 0.976753 0.810977
Si Si5 0.344965 0.239058 0.580058
Si Si6 0.944580 0.552535 0.595757
Si Si7 0.508092 0.742269 0.678864
O O1 0.820717 0.721661 0.973157
O O2 0.962727 0.618647 0.175845
O O3 0.843141 0.717164 0.744880
O O4 0.930921 0.899203 0.078388
O O5 0.263807 0.674210 0.970427
O O6 0.246773 0.783551 0.674284
O O7 0.392636 0.765167 0.078037
O O8 0.285480 0.952659 0.976776
O O9 0.597304 0.108742 0.639665
O O10 0.963037 0.113232 0.669778
O O11 0.909009 0.861509 0.656095
O O12 0.000000 0.036160 0.000000
O O13 0.378740 0.087728 0.585489
O O14 0.952331 0.381287 0.600759
O O15 0.500000 0.700250 0.500000
#
# Coordination Sequence:
#
# PCOD8048880 Si02
#       7
#     4   4   4   4   4   4   4
#     4  10  19  42  66  90 116 169 208 247 301 382
#     4  11  25  41  59  94 125 162 202 256 311 367
#     4  11  23  40  65  91 128 161 207 260 311 364
#     4   9  22  40  62  88 123 157 205 248 305 366
#     4   9  22  42  65  87 122 163 207 245 310 378
#     4  10  19  40  66  91 119 157 211 256 301 369
#     4  12  23  39  60  93 124 155 205 261 306 361
#
# _framework density 20.655719999999999
#
# number of rings (size 3 to 8) (size 9 to 14) (size 15 to 20)
#    0.000    1.714    2.857    1.714    4.000    3.429 
#    5.143    0.000    0.000    0.000    0.000    0.000 
#    0.000    0.000    0.000    0.000    0.000    0.000 
#
# Total GULP energy -173587.307522 kJ/mol
# GULP energy per Si atom -12399.093394 kJ/mol
# Density = 2.060871 g / cm^3
# Si number density = 20.655720 Si / 1000 Ang^3
#
#
#
# Elastic Constant Matrix: (Units=GPa)
#
#
# Indices 1 2 3 4 5 6 
#
# 1 66.2205 41.5156 42.3609 0.0000 -10.3569 0.0000
# 2 41.5156 99.8565 21.4552 0.0000 -25.1307 0.0000
# 3 42.3609 21.4552 125.1382 0.0000 -21.9672 0.0000
# 4 0.0000 0.0000 0.0000 28.8494 0.0000 -3.1563
# 5 -10.3569 -25.1307 -21.9672 0.0000 30.3293 0.0000
# 6 0.0000 0.0000 0.0000 -3.1563 0.0000 21.7908
#
#
#
# Elastic Compliance Matrix: (Units=1/GPa)
#
#
# Indices 1 2 3 4 5 6 
#
# 1 0.025859 -0.010449 -0.007942 0.000000 -0.005580 0.000000
# 2 -0.010449 0.016891 0.002832 0.000000 0.012478 0.000000
# 3 -0.007942 0.002832 0.011605 0.000000 0.008040 0.000000
# 4 0.000000 0.000000 0.000000 0.035221 0.000000 0.005102
# 5 -0.005580 0.012478 0.008040 0.000000 0.047229 0.000000
# 6 0.000000 0.000000 0.000000 0.005102 0.000000 0.046630
#
#
# Mechanical properties :
#
#
# Convention : Reuss Voigt Hill
#
# Bulk Modulus (GPa) = 43.03415 55.76429 49.39922
# Shear Modulus (GPa) = 22.49222 28.58614 25.53918
#
# Velocity S-wave (km/s) = 3.30344 3.72416 3.52009
# Velocity P-wave (km/s) = 5.95227 6.74894 6.36308
#
# Compressibility (1/GPa) = 0.02323736
#
# Stress axis : x y z
#
# Youngs Moduli (GPa) = 38.67053 59.20475 86.16655
#
# Poissons Ratio (x) = 0.61863 0.68431
# Poissons Ratio (y) = 0.40407 -0.24400
# Poissons Ratio (z) = 0.30711 -0.16765
#
# Static dielectric constant tensor:
#      x y z
#    x 3.648240 0.000000 -0.111560 
#    y 0.000000 3.727610 0.000000 
#    z -0.111560 0.000000 3.896730 
# 
# 
# High freq. dielectric constant tensor:
#      x y z
#    x 1.795690 0.000000 -0.010390 
#    y 0.000000 1.805010 0.000000 
#    z -0.010390 0.000000 1.817130 
# 
# From -- ./inp_files/31676.got.cif
#   From: 2010.03.12/outbox.cif.g09.slc.cpg/sg5_16_cif.got.tgz:31676.got - 2010.03.31 09:47:26.
