data_PCOD8048937
_publ_section_title
;
Structure prediction by ZEFSAII (Michael W. Deem and Ramdas Pophale) SiO2 
 PCOD8048937
Probable space group: C 2
;
_chemical_formula_sum "Si O2"
_cell_formula_units_Z 30
_cell_length_a 10.843358
_cell_length_b 28.095173
_cell_length_c 5.174211
_cell_angle_alpha 90.000000
_cell_angle_beta 104.834443
_cell_angle_gamma 90.000000
_cell_volume 1523.764065
_symmetry_space_group_name_H-M "C 2"
_symmetry_group_IT_number 5
_symmetry_cell_setting 'monoclinic'
loop_
_space_group_symop_operation_xyz
x,y,z
-x,y,-z
1/2+x,1/2+y,z
1/2-x,1/2+y,-z
loop_
_atom_site_type_symbol
_atom_site_label
_atom_site_fract_x
_atom_site_fract_y
_atom_site_fract_z
Si Si1 0.420400 0.040890 0.714982
Si Si2 0.348732 0.874824 0.925364
Si Si3 0.652383 0.711768 0.567816
Si Si4 0.255382 0.476136 0.107055
Si Si5 0.349167 0.657817 0.932908
Si Si6 0.000000 0.014333 0.500000
Si Si7 0.198506 0.057764 0.267883
Si Si8 0.150681 0.318375 0.578479
O O1 0.500000 0.032558 0.500000
O O2 0.295088 0.070595 0.557853
O O3 0.365376 0.990340 0.780605
O O4 0.500000 0.064419 0.000000
O O5 0.268416 0.921255 0.965632
O O6 0.302855 0.853140 0.627049
O O7 0.500000 0.885089 0.000000
O O8 0.306645 0.837603 0.121206
O O9 0.500000 0.712141 0.500000
O O10 0.706032 0.682918 0.352133
O O11 0.707208 0.765329 0.576477
O O12 0.706622 0.685399 0.850473
O O13 0.390242 0.480901 0.325034
O O14 0.253693 0.510374 0.855075
O O15 0.305384 0.602733 0.924620
O O16 0.500000 0.661102 0.000000
O O17 0.057907 0.048568 0.309975
O O18 0.000000 0.314846 0.500000
#
# Coordination Sequence:
#
# PCOD8048937 Si02
#       8
#     4   4   4   4   4   2   4   4
#     4  11  23  39  58  81 114 153 198 240 283 335
#     4  10  21  32  56  80 113 151 188 229 285 351
#     4   9  18  31  51  76 112 148 183 233 281 351
#     4  11  23  38  58  83 119 158 199 239 288 340
#     4  10  20  31  53  81 112 152 192 223 284 348
#     4  10  24  38  56  80 124 160 196 246 284 332
#     4  11  24  38  59  82 125 160 198 242 289 341
#     4   9  18  34  50  78 113 146 181 230 292 345
#
# _framework density 19.688088
#
# number of rings (size 3 to 8) (size 9 to 14) (size 15 to 20)
#    0.000    1.867    1.333    2.400   10.267    3.733 
#    0.000    0.000    0.000    0.000    0.000    0.000 
#   20.000    0.000    0.000    0.000    0.000    0.000 
#
# Total GULP energy -185906.397926 kJ/mol
# GULP energy per Si atom -12393.759862 kJ/mol
# Density = 1.964328 g / cm^3
# Si number density = 19.688088 Si / 1000 Ang^3
#
#
#
# Elastic Constant Matrix: (Units=GPa)
#
#
# Indices 1 2 3 4 5 6 
#
# 1 56.0919 28.5690 31.5115 0.0000 -13.0862 0.0000
# 2 28.5690 141.4045 53.9817 0.0000 -13.8462 0.0000
# 3 31.5115 53.9817 135.7734 0.0000 -21.1145 0.0000
# 4 0.0000 0.0000 0.0000 30.2546 0.0000 -8.6682
# 5 -13.0862 -13.8462 -21.1145 0.0000 30.0663 0.0000
# 6 0.0000 0.0000 0.0000 -8.6682 0.0000 18.0444
#
#
#
# Elastic Compliance Matrix: (Units=1/GPa)
#
#
# Indices 1 2 3 4 5 6 
#
# 1 0.022453 -0.002716 -0.003150 0.000000 0.006310 0.000000
# 2 -0.002716 0.008744 -0.002698 0.000000 0.000950 0.000000
# 3 -0.003150 -0.002698 0.009837 0.000000 0.004294 0.000000
# 4 0.000000 0.000000 0.000000 0.038328 0.000000 0.018412
# 5 0.006310 0.000950 0.004294 0.000000 0.039459 0.000000
# 6 0.000000 0.000000 0.000000 0.018412 0.000000 0.064264
#
#
# Mechanical properties :
#
#
# Convention : Reuss Voigt Hill
#
# Bulk Modulus (GPa) = 41.83249 62.37715 52.10482
# Shear Modulus (GPa) = 24.01748 30.28689 27.15219
#
# Velocity S-wave (km/s) = 3.49649 3.92642 3.71768
# Velocity P-wave (km/s) = 6.13143 7.23237 6.70453
#
# Compressibility (1/GPa) = 0.02390486
#
# Stress axis : x y z
#
# Youngs Moduli (GPa) = 44.53782 114.36763 101.65723
#
# Poissons Ratio (x) = 0.31062 0.32022
# Poissons Ratio (y) = 0.12096 0.27431
# Poissons Ratio (z) = 0.14029 0.30861
#
# Static dielectric constant tensor:
#      x y z
#    x 3.310820 0.000000 -0.058080 
#    y 0.000000 3.495590 0.000000 
#    z -0.058080 0.000000 3.954250 
# 
# 
# High freq. dielectric constant tensor:
#      x y z
#    x 1.722360 0.000000 -0.016890 
#    y 0.000000 1.753090 0.000000 
#    z -0.016890 0.000000 1.786470 
# 
# From -- ./inp_files/5989.got.cif
#   From: 2010.03.12/outbox.cif.g09.slc.cpg/sg5_3_cif.got.tgz:5989.got - 2010.03.31 09:47:26.
