data_PCOD8048442
_publ_section_title
;
Structure prediction by ZEFSAII (Michael W. Deem and Ramdas Pophale) SiO2 
 PCOD8048442
Probable space group: C 2
;
_chemical_formula_sum "Si O2"
_cell_formula_units_Z 30
_cell_length_a 11.562031
_cell_length_b 14.539776
_cell_length_c 11.945663
_cell_angle_alpha 90.000000
_cell_angle_beta 131.365911
_cell_angle_gamma 90.000000
_cell_volume 1507.146063
_symmetry_space_group_name_H-M "C 2"
_symmetry_group_IT_number 5
_symmetry_cell_setting 'monoclinic'
loop_
_space_group_symop_operation_xyz
x,y,z
-x,y,-z
1/2+x,1/2+y,z
1/2-x,1/2+y,-z
loop_
_atom_site_type_symbol
_atom_site_label
_atom_site_fract_x
_atom_site_fract_y
_atom_site_fract_z
Si Si1 0.327157 0.590800 0.356216
Si Si2 0.321510 0.725078 0.731020
Si Si3 0.636902 0.917035 0.803204
Si Si4 0.500000 0.968336 0.500000
Si Si5 0.155246 0.213980 0.844642
Si Si6 0.281089 0.116054 0.135026
Si Si7 0.614390 0.926164 0.176976
Si Si8 0.877772 0.625118 0.563056
O O1 0.500000 0.564148 0.500000
O O2 0.319818 0.673751 0.262657
O O3 0.246889 0.501985 0.249916
O O4 0.241009 0.622450 0.411962
O O5 0.475714 0.710588 0.758607
O O6 0.333654 0.657904 0.846132
O O7 0.303610 0.827450 0.767618
O O8 0.176728 0.704582 0.557619
O O9 0.593370 0.903978 0.644838
O O10 0.712867 0.820773 0.889343
O O11 0.481581 0.942272 0.771304
O O12 0.747552 0.005628 0.888238
O O13 0.378995 0.031097 0.491818
O O14 0.255122 0.156555 0.995887
O O15 0.452361 0.144958 0.282182
O O16 0.500000 0.933168 0.000000
#
# Coordination Sequence:
#
# PCOD8048442 Si02
#       8
#     4   4   4   2   4   4   4   4
#     4  12  25  41  61  97 133 162 208 277 326 369
#     4  11  21  41  67  97 125 166 218 263 309 376
#     4  10  21  39  67  91 119 174 217 247 312 385
#     4  10  18  38  70  88 116 168 224 252 296 394
#     4  11  25  38  65  97 132 165 213 266 321 378
#     4  11  21  41  69  90 129 172 219 256 313 385
#     4  11  23  41  65  93 129 171 214 253 323 392
#     4  11  21  40  66  94 120 168 213 261 320 369
#
# _framework density 19.905170999999999
#
# number of rings (size 3 to 8) (size 9 to 14) (size 15 to 20)
#    0.000    1.067    6.667    2.800    0.933    1.067 
#    0.000    0.000    8.800    0.000    0.000    0.000 
#    0.000    0.000    0.000    0.000    0.000    0.000 
#
# Total GULP energy -185997.231428 kJ/mol
# GULP energy per Si atom -12399.815429 kJ/mol
# Density = 1.985987 g / cm^3
# Si number density = 19.905171 Si / 1000 Ang^3
#
#
#
# Elastic Constant Matrix: (Units=GPa)
#
#
# Indices 1 2 3 4 5 6 
#
# 1 90.5145 36.5413 16.5863 0.0000 -22.7310 0.0000
# 2 36.5413 152.2331 46.6342 0.0000 -7.2333 0.0000
# 3 16.5863 46.6342 121.5692 0.0000 -13.6013 0.0000
# 4 0.0000 0.0000 0.0000 31.6049 0.0000 -5.0362
# 5 -22.7310 -7.2333 -13.6013 0.0000 30.9584 0.0000
# 6 0.0000 0.0000 0.0000 -5.0362 0.0000 24.1091
#
#
#
# Elastic Compliance Matrix: (Units=1/GPa)
#
#
# Indices 1 2 3 4 5 6 
#
# 1 0.014861 -0.003184 0.000348 0.000000 0.010321 0.000000
# 2 -0.003184 0.008133 -0.002876 0.000000 -0.001701 0.000000
# 3 0.000348 -0.002876 0.009712 0.000000 0.003851 0.000000
# 4 0.000000 0.000000 0.000000 0.032730 0.000000 0.006837
# 5 0.010321 -0.001701 0.003851 0.000000 0.041174 0.000000
# 6 0.000000 0.000000 0.000000 0.006837 0.000000 0.042906
#
#
# Mechanical properties :
#
#
# Convention : Reuss Voigt Hill
#
# Bulk Modulus (GPa) = 46.98221 62.64891 54.81556
# Shear Modulus (GPa) = 29.75586 34.97149 32.36367
#
# Velocity S-wave (km/s) = 3.87056 4.19609 4.03661
# Velocity P-wave (km/s) = 6.60525 7.41743 7.02309
#
# Compressibility (1/GPa) = 0.02128465
#
# Stress axis : x y z
#
# Youngs Moduli (GPa) = 67.28905 122.95295 102.96271
#
# Poissons Ratio (x) = 0.39142 -0.03587
# Poissons Ratio (y) = 0.21422 0.29610
# Poissons Ratio (z) = -0.02344 0.35359
#
# Static dielectric constant tensor:
#      x y z
#    x 3.679150 0.000000 -0.240610 
#    y 0.000000 3.683640 0.000000 
#    z -0.240610 0.000000 3.685650 
# 
# 
# High freq. dielectric constant tensor:
#      x y z
#    x 1.771490 0.000000 -0.024350 
#    y 0.000000 1.775740 0.000000 
#    z -0.024350 0.000000 1.782940 
# 
# From -- ./inp_files/40062.got.cif
#   From: 2010.03.12/outbox.cif.g09.slc.cpg/sg5_21_cif.got.tgz:40062.got - 2010.03.31 09:47:26.
