data_PCOD8048577
_publ_section_title
;
Structure prediction by ZEFSAII (Michael W. Deem and Ramdas Pophale) SiO2 
 PCOD8048577
Probable space group: C 2
;
_chemical_formula_sum "Si O2"
_cell_formula_units_Z 28
_cell_length_a 8.725918
_cell_length_b 11.405692
_cell_length_c 15.515308
_cell_angle_alpha 90.000000
_cell_angle_beta 60.240886
_cell_angle_gamma 90.000000
_cell_volume 1340.518666
_symmetry_space_group_name_H-M "C 2"
_symmetry_group_IT_number 5
_symmetry_cell_setting 'monoclinic'
loop_
_space_group_symop_operation_xyz
x,y,z
-x,y,-z
1/2+x,1/2+y,z
1/2-x,1/2+y,-z
loop_
_atom_site_type_symbol
_atom_site_label
_atom_site_fract_x
_atom_site_fract_y
_atom_site_fract_z
Si Si1 0.605997 0.696480 0.048942
Si Si2 0.834751 0.239843 0.605968
Si Si3 0.080333 0.682857 0.152776
Si Si4 0.796832 0.516146 0.289134
Si Si5 0.589492 0.833081 0.228485
Si Si6 0.969500 0.899958 0.286728
Si Si7 0.841429 0.028893 0.174815
O O1 0.561179 0.754751 0.152410
O O2 0.526308 0.564351 0.078229
O O3 0.500000 0.761972 0.000000
O O4 0.812774 0.685511 0.967667
O O5 0.770964 0.104251 0.616537
O O6 0.884568 0.257810 0.692586
O O7 0.676857 0.326522 0.618172
O O8 0.000000 0.264511 0.500000
O O9 0.201341 0.633299 0.197181
O O10 0.907605 0.598734 0.190315
O O11 0.033446 0.815113 0.191345
O O12 0.630655 0.448289 0.296332
O O13 0.922955 0.417297 0.293302
O O14 0.763297 0.908875 0.157470
O O15 0.871780 0.010498 0.268919
#
# Coordination Sequence:
#
# PCOD8048577 Si02
#       7
#     4   4   4   4   4   4   4
#     4  10  19  34  56  85 121 156 193 231 270 329
#     4  10  23  42  61  84 112 144 191 245 293 347
#     4   9  20  34  51  84 121 153 192 231 269 333
#     4  10  20  37  61  87 116 149 190 239 287 338
#     4  10  21  39  60  83 117 155 190 234 285 335
#     4  10  20  37  60  84 114 151 188 233 290 343
#     4   9  19  35  53  77 114 154 190 229 272 323
#
# _framework density 20.887439000000001
#
# number of rings (size 3 to 8) (size 9 to 14) (size 15 to 20)
#    0.000    2.286    0.000    2.571    0.000    5.714 
#    0.000   17.857    0.000    0.000    0.000    0.000 
#    0.000    0.000    0.000    0.000    0.000    0.000 
#
# Total GULP energy -173434.382786 kJ/mol
# GULP energy per Si atom -12388.170199 kJ/mol
# Density = 2.083990 g / cm^3
# Si number density = 20.887439 Si / 1000 Ang^3
#
#
#
# Elastic Constant Matrix: (Units=GPa)
#
#
# Indices 1 2 3 4 5 6 
#
# 1 96.7379 37.8279 36.0609 0.0000 -21.4206 0.0000
# 2 37.8279 79.7488 36.8997 0.0000 -14.5446 0.0000
# 3 36.0609 36.8997 102.1784 0.0000 -32.0448 0.0000
# 4 0.0000 0.0000 0.0000 19.8819 0.0000 -6.7901
# 5 -21.4206 -14.5446 -32.0448 0.0000 36.9471 0.0000
# 6 0.0000 0.0000 0.0000 -6.7901 0.0000 34.5922
#
#
#
# Elastic Compliance Matrix: (Units=1/GPa)
#
#
# Indices 1 2 3 4 5 6 
#
# 1 0.013943 -0.004997 -0.001646 0.000000 0.004689 0.000000
# 2 -0.004997 0.016921 -0.004350 0.000000 -0.000009 0.000000
# 3 -0.001646 -0.004350 0.015250 0.000000 0.010561 0.000000
# 4 0.000000 0.000000 0.000000 0.053911 0.000000 0.010582
# 5 0.004689 -0.000009 0.010561 0.000000 0.038940 0.000000
# 6 0.000000 0.000000 0.000000 0.010582 0.000000 0.030985
#
#
# Mechanical properties :
#
#
# Convention : Reuss Voigt Hill
#
# Bulk Modulus (GPa) = 41.44336 55.58246 48.51291
# Shear Modulus (GPa) = 25.00270 29.47603 27.23936
#
# Velocity S-wave (km/s) = 3.46355 3.76065 3.61515
# Velocity P-wave (km/s) = 5.98993 6.74721 6.37982
#
# Compressibility (1/GPa) = 0.02412932
#
# Stress axis : x y z
#
# Youngs Moduli (GPa) = 71.72062 59.09925 65.57240
#
# Poissons Ratio (x) = 0.29532 0.10790
# Poissons Ratio (y) = 0.35839 0.28522
# Poissons Ratio (z) = 0.11802 0.25707
#
# Static dielectric constant tensor:
#      x y z
#    x 4.055890 0.000000 -0.294530 
#    y 0.000000 3.909020 0.000000 
#    z -0.294530 0.000000 3.413900 
# 
# 
# High freq. dielectric constant tensor:
#      x y z
#    x 1.829750 0.000000 -0.024760 
#    y 0.000000 1.824150 0.000000 
#    z -0.024760 0.000000 1.773880 
# 
# From -- ./inp_files/50424.got.cif
#   From: 2010.03.12/outbox.cif.g09.slc.cpg/sg5_26_cif.got.tgz:50424.got - 2010.03.31 09:47:26.
