data_PCOD8048909
_publ_section_title
;
Structure prediction by ZEFSAII (Michael W. Deem and Ramdas Pophale) SiO2 
 PCOD8048909
Probable space group: C 2
;
_chemical_formula_sum "Si O2"
_cell_formula_units_Z 28
_cell_length_a 9.251178
_cell_length_b 12.033900
_cell_length_c 18.134435
_cell_angle_alpha 90.000000
_cell_angle_beta 39.187698
_cell_angle_gamma 90.000000
_cell_volume 1275.646438
_symmetry_space_group_name_H-M "C 2"
_symmetry_group_IT_number 5
_symmetry_cell_setting 'monoclinic'
loop_
_space_group_symop_operation_xyz
x,y,z
-x,y,-z
1/2+x,1/2+y,z
1/2-x,1/2+y,-z
loop_
_atom_site_type_symbol
_atom_site_label
_atom_site_fract_x
_atom_site_fract_y
_atom_site_fract_z
Si Si1 0.357109 0.694090 0.152572
Si Si2 0.181979 0.991880 0.183766
Si Si3 0.861139 0.403335 0.960433
Si Si4 0.885134 0.793208 0.327444
Si Si5 0.548785 0.826531 0.581945
Si Si6 0.000000 0.994413 0.000000
Si Si7 0.107241 0.189662 0.693007
Si Si8 0.000000 0.530656 0.500000
O O1 0.568791 0.775617 0.047391
O O2 0.418030 0.571009 0.100897
O O3 0.312189 0.713117 0.256625
O O4 0.108945 0.722832 0.217142
O O5 0.400270 0.967341 0.149309
O O6 0.958455 0.923368 0.298049
O O7 0.232677 0.956528 0.079921
O O8 0.133276 0.123123 0.207302
O O9 0.702203 0.414748 0.950488
O O10 0.767572 0.771820 0.453723
O O11 0.689958 0.765619 0.344413
O O12 0.581891 0.804884 0.656467
O O13 0.517005 0.954193 0.567620
O O14 0.283367 0.109995 0.582918
#
# Coordination Sequence:
#
# PCOD8048909 Si02
#       8
#     4   4   4   4   4   2   4   2
#     4  11  24  41  64  98 126 174 218 273 323 392
#     4  10  19  42  64  86 126 175 204 272 332 372
#     4  10  24  42  62  93 129 162 227 272 320 391
#     4   9  19  41  64  85 134 166 207 266 325 368
#     4  10  21  37  66  97 122 178 215 258 317 400
#     4  12  24  44  66  92 130 178 214 274 334 382
#     4  12  22  38  69  96 125 175 219 258 335 388
#     4  10  22  44  64  96 142 166 212 278 320 388
#
# _framework density 21.949655
#
# number of rings (size 3 to 8) (size 9 to 14) (size 15 to 20)
#    0.000    1.714    4.286    2.571    2.000    2.286 
#    2.571    0.000    6.286    0.000    0.000    0.000 
#    0.000    0.000    0.000    0.000    0.000    0.000 
#
# Total GULP energy -173451.122738 kJ/mol
# GULP energy per Si atom -12389.365910 kJ/mol
# Density = 2.189970 g / cm^3
# Si number density = 21.949655 Si / 1000 Ang^3
#
#
#
# Elastic Constant Matrix: (Units=GPa)
#
#
# Indices 1 2 3 4 5 6 
#
# 1 112.5444 23.0925 46.0950 0.0004 -3.9357 -0.0002
# 2 23.0925 53.7407 19.3882 0.0004 -5.2345 -0.0001
# 3 46.0950 19.3882 93.4327 0.0009 -7.2219 -0.0002
# 4 0.0004 0.0004 0.0009 29.1912 -0.0006 8.1591
# 5 -3.9357 -5.2345 -7.2219 -0.0006 40.3395 0.0002
# 6 -0.0002 -0.0001 -0.0002 8.1591 0.0002 27.0025
#
#
#
# Elastic Compliance Matrix: (Units=1/GPa)
#
#
# Indices 1 2 3 4 5 6 
#
# 1 0.011613 -0.003174 -0.005085 0.000000 -0.000189 0.000000
# 2 -0.003174 0.021124 -0.002667 0.000000 0.001954 0.000000
# 3 -0.005085 -0.002667 0.013892 0.000000 0.001645 0.000000
# 4 0.000000 0.000000 0.000000 0.037417 0.000001 -0.011306
# 5 -0.000189 0.001954 0.001645 0.000001 0.025319 0.000000
# 6 0.000000 0.000000 0.000000 -0.011306 0.000000 0.040450
#
#
# Mechanical properties :
#
#
# Convention : Reuss Voigt Hill
#
# Bulk Modulus (GPa) = 40.35888 48.54104 44.44996
# Shear Modulus (GPa) = 27.78933 30.71613 29.25273
#
# Velocity S-wave (km/s) = 3.56202 3.74490 3.65460
# Velocity P-wave (km/s) = 5.94510 6.39232 6.17276
#
# Compressibility (1/GPa) = 0.02477769
#
# Stress axis : x y z
#
# Youngs Moduli (GPa) = 86.11234 47.33946 71.98318
#
# Poissons Ratio (x) = 0.15025 0.36605
# Poissons Ratio (y) = 0.27331 0.19195
# Poissons Ratio (z) = 0.43790 0.12623
#
# Static dielectric constant tensor:
#      x y z
#    x 3.858300 0.000000 -0.214610 
#    y 0.000000 3.718170 0.000000 
#    z -0.214610 0.000000 4.058230 
# 
# 
# High freq. dielectric constant tensor:
#      x y z
#    x 1.855400 0.000000 -0.017070 
#    y 0.000000 1.836810 0.000000 
#    z -0.017070 0.000000 1.874600 
# 
# From -- ./inp_files/59726.got.cif
#   From: 2010.03.12/outbox.cif.g09.slc.cpg/sg5_30_cif.got.tgz:59726.got - 2010.03.31 09:47:26.
