data_PCOD8048205
_publ_section_title
;
Structure prediction by ZEFSAII (Michael W. Deem and Ramdas Pophale) SiO2 
 PCOD8048205
Probable space group: C 2
;
_chemical_formula_sum "Si O2"
_cell_formula_units_Z 32
_cell_length_a 8.956160
_cell_length_b 16.001495
_cell_length_c 17.581496
_cell_angle_alpha 90.000000
_cell_angle_beta 139.919128
_cell_angle_gamma 90.000000
_cell_volume 1622.315153
_symmetry_space_group_name_H-M "C 2"
_symmetry_group_IT_number 5
_symmetry_cell_setting 'monoclinic'
loop_
_space_group_symop_operation_xyz
x,y,z
-x,y,-z
1/2+x,1/2+y,z
1/2-x,1/2+y,-z
loop_
_atom_site_type_symbol
_atom_site_label
_atom_site_fract_x
_atom_site_fract_y
_atom_site_fract_z
Si Si1 0.073226 0.727650 0.949945
Si Si2 0.101413 0.551532 0.165551
Si Si3 0.398573 0.494364 0.035891
Si Si4 0.500897 0.270442 0.758281
Si Si5 0.517393 0.456366 0.246605
Si Si6 0.612988 0.090353 0.620776
Si Si7 0.577845 0.674120 0.144665
Si Si8 0.734242 0.112779 0.381314
O O1 0.961937 0.635343 0.904299
O O2 0.976159 0.777756 0.839806
O O3 0.350740 0.729327 0.063307
O O4 0.000000 0.771870 0.000000
O O5 0.317008 0.509730 0.207863
O O6 0.157512 0.566558 0.275246
O O7 0.879272 0.491850 0.075973
O O8 0.468992 0.444577 0.138440
O O9 0.514639 0.586330 0.081381
O O10 0.500000 0.449272 0.000000
O O11 0.476671 0.363512 0.714183
O O12 0.747509 0.225716 0.840383
O O13 0.303438 0.212659 0.642995
O O14 0.763683 0.502705 0.353339
O O15 0.500000 0.127939 0.500000
O O16 0.804062 0.156068 0.726887
O O17 0.416507 0.075867 0.608051
O O18 0.000000 0.093291 0.500000
#
# Coordination Sequence:
#
# PCOD8048205 Si02
#       8
#     4   4   4   4   4   4   4   4
#     4  10  18  31  53  79 109 144 184 223 261 312
#     4  10  19  33  55  82 109 143 186 227 264 317
#     4  10  18  32  54  79 111 147 185 224 264 317
#     4  10  22  36  53  80 114 147 175 216 275 326
#     4  11  22  35  54  84 115 144 178 221 276 326
#     4  10  20  36  60  82 104 139 184 228 270 319
#     4   9  18  34  54  77 106 144 184 219 263 321
#     4  10  21  39  61  81 102 140 188 228 267 320
#
# _framework density 19.724896999999999
#
# number of rings (size 3 to 8) (size 9 to 14) (size 15 to 20)
#    0.000    2.000    0.000    7.500    0.000    4.000 
#    0.000    1.250    0.000    9.000    0.000    0.000 
#    0.000    0.000    0.000    0.000    0.000    0.000 
#
# Total GULP energy -198356.652796 kJ/mol
# GULP energy per Si atom -12397.290800 kJ/mol
# Density = 1.968000 g / cm^3
# Si number density = 19.724897 Si / 1000 Ang^3
#
#
#
# Elastic Constant Matrix: (Units=GPa)
#
#
# Indices 1 2 3 4 5 6 
#
# 1 112.4353 22.4000 32.6010 -0.0001 -5.7731 -0.0001
# 2 22.4000 74.0647 5.8612 -0.0001 6.8276 -0.0001
# 3 32.6010 5.8612 102.3738 -0.0001 -3.8106 -0.0002
# 4 -0.0001 -0.0001 -0.0001 4.8001 0.0000 -0.3725
# 5 -5.7731 6.8276 -3.8106 0.0000 40.0940 0.0000
# 6 -0.0001 -0.0001 -0.0002 -0.3725 0.0000 10.6984
#
#
#
# Elastic Compliance Matrix: (Units=1/GPa)
#
#
# Indices 1 2 3 4 5 6 
#
# 1 0.010498 -0.003090 -0.003101 0.000000 0.001743 0.000000
# 2 -0.003090 0.014705 0.000033 0.000000 -0.002946 0.000000
# 3 -0.003101 0.000033 0.010775 0.000000 0.000572 0.000000
# 4 0.000000 0.000000 0.000000 0.208891 0.000000 0.007273
# 5 0.001743 -0.002946 0.000572 0.000000 0.025748 0.000000
# 6 0.000000 0.000000 0.000000 0.007273 0.000000 0.093725
#
#
# Mechanical properties :
#
#
# Convention : Reuss Voigt Hill
#
# Bulk Modulus (GPa) = 42.26454 45.62202 43.94328
# Shear Modulus (GPa) = 13.00225 26.31929 19.66077
#
# Velocity S-wave (km/s) = 2.57023 3.65679 3.16056
# Velocity P-wave (km/s) = 5.50288 6.40382 5.97037
#
# Compressibility (1/GPa) = 0.02366050
#
# Stress axis : x y z
#
# Youngs Moduli (GPa) = 95.25200 68.00233 92.80574
#
# Poissons Ratio (x) = 0.21015 0.28783
# Poissons Ratio (y) = 0.29437 -0.00302
# Poissons Ratio (z) = 0.29542 -0.00221
#
# Static dielectric constant tensor:
#      x y z
#    x 3.770080 0.000000 -0.003120 
#    y 0.000000 3.245710 0.000000 
#    z -0.003120 0.000000 3.644630 
# 
# 
# High freq. dielectric constant tensor:
#      x y z
#    x 1.782030 0.000000 -0.000880 
#    y 0.000000 1.733590 0.000000 
#    z -0.000880 0.000000 1.768190 
# 
# From -- ./inp_files/59830.got.cif
#   From: 2010.03.12/outbox.cif.g09.slc.cpg/sg5_30_cif.got.tgz:59830.got - 2010.03.31 09:47:26.
