data_PCOD8048420
_publ_section_title
;
Structure prediction by ZEFSAII (Michael W. Deem and Ramdas Pophale) SiO2 
 PCOD8048420
Probable space group: C 2
;
_chemical_formula_sum "Si O2"
_cell_formula_units_Z 30
_cell_length_a 12.052532
_cell_length_b 14.070579
_cell_length_c 18.969981
_cell_angle_alpha 90.000000
_cell_angle_beta 152.595094
_cell_angle_gamma 90.000000
_cell_volume 1480.728046
_symmetry_space_group_name_H-M "C 2"
_symmetry_group_IT_number 5
_symmetry_cell_setting 'monoclinic'
loop_
_space_group_symop_operation_xyz
x,y,z
-x,y,-z
1/2+x,1/2+y,z
1/2-x,1/2+y,-z
loop_
_atom_site_type_symbol
_atom_site_label
_atom_site_fract_x
_atom_site_fract_y
_atom_site_fract_z
Si Si1 0.501200 0.955120 0.321759
Si Si2 0.926330 0.079089 0.589649
Si Si3 0.462064 0.776205 0.397854
Si Si4 0.903635 0.379038 0.021418
Si Si5 0.000000 0.911606 0.000000
Si Si6 0.263661 0.085451 0.909735
Si Si7 0.278430 0.430066 0.337516
Si Si8 0.092332 0.764226 0.936939
O O1 0.542113 0.857491 0.388157
O O2 0.210987 0.975261 0.155561
O O3 0.591715 0.959396 0.292493
O O4 0.659496 0.034803 0.450380
O O5 0.882440 0.182695 0.531341
O O6 0.035331 0.083865 0.729553
O O7 0.102128 0.019356 0.636825
O O8 0.500000 0.810132 0.500000
O O9 0.188305 0.743280 0.230111
O O10 0.134634 0.364632 0.202205
O O11 0.795719 0.485222 0.967085
O O12 0.693509 0.305506 0.920864
O O13 0.000000 0.354220 0.000000
O O14 0.861983 0.843868 0.977582
O O15 0.500000 0.112435 0.000000
O O16 0.248441 0.170279 0.957767
O O17 0.500000 0.373471 0.500000
#
# Coordination Sequence:
#
# PCOD8048420 Si02
#       8
#     4   4   4   4   2   4   4   4
#     4  10  22  36  63  98 130 165 213 272 334 375
#     4  11  21  39  65  98 122 167 226 267 316 388
#     4  11  23  38  62  96 128 167 218 274 320 383
#     4  11  22  36  63  97 128 170 216 268 325 381
#     4  10  18  38  62  96 126 170 208 266 324 388
#     4  11  19  37  63  94 123 163 219 268 315 380
#     4  10  19  34  60  92 126 161 210 267 314 374
#     4  11  21  37  65  94 128 167 220 261 324 388
#
# _framework density 20.260304000000001
#
# number of rings (size 3 to 8) (size 9 to 14) (size 15 to 20)
#    0.000    1.333    6.000    2.000    1.867    0.000 
#    0.000    0.000    1.467    8.800    1.733    0.000 
#    0.000    0.000    0.000    0.000    0.000    0.000 
#
# Total GULP energy -185918.168870 kJ/mol
# GULP energy per Si atom -12394.544591 kJ/mol
# Density = 2.021419 g / cm^3
# Si number density = 20.260304 Si / 1000 Ang^3
#
#
#
# Elastic Constant Matrix: (Units=GPa)
#
#
# Indices 1 2 3 4 5 6 
#
# 1 76.3403 55.3477 30.5496 -0.0043 -4.4486 0.0013
# 2 55.3477 101.2390 42.6843 0.0102 10.0559 0.0022
# 3 30.5496 42.6843 132.0067 0.0136 -4.5842 0.0032
# 4 -0.0043 0.0102 0.0136 24.6825 -0.0032 -0.2311
# 5 -4.4486 10.0559 -4.5842 -0.0032 31.4692 -0.0002
# 6 0.0013 0.0022 0.0032 -0.2311 -0.0002 31.3906
#
#
#
# Elastic Compliance Matrix: (Units=1/GPa)
#
#
# Indices 1 2 3 4 5 6 
#
# 1 0.023438 -0.013163 -0.000911 0.000011 0.007387 0.000000
# 2 -0.013163 0.019414 -0.003529 -0.000009 -0.008579 -0.000001
# 3 -0.000911 -0.003529 0.009008 -0.000003 0.002311 -0.000001
# 4 0.000011 -0.000009 -0.000003 0.040517 0.000008 0.000298
# 5 0.007387 -0.008579 0.002311 0.000008 0.035899 0.000000
# 6 0.000000 -0.000001 -0.000001 0.000298 0.000000 0.031859
#
#
# Mechanical properties :
#
#
# Convention : Reuss Voigt Hill
#
# Bulk Modulus (GPa) = 60.05121 62.97213 61.51167
# Shear Modulus (GPa) = 24.88898 29.57544 27.23221
#
# Velocity S-wave (km/s) = 3.50874 3.82484 3.67020
# Velocity P-wave (km/s) = 6.79111 7.11723 6.95608
#
# Compressibility (1/GPa) = 0.01665245
#
# Stress axis : x y z
#
# Youngs Moduli (GPa) = 42.66634 51.50956 111.01636
#
# Poissons Ratio (x) = 0.67802 0.10117
# Poissons Ratio (y) = 0.56161 0.39179
# Poissons Ratio (z) = 0.03888 0.18178
#
# Static dielectric constant tensor:
#      x y z
#    x 3.592350 -0.000010 -0.121720 
#    y -0.000010 3.473640 -0.000040 
#    z -0.121720 -0.000040 4.080670 
# 
# 
# High freq. dielectric constant tensor:
#      x y z
#    x 1.775710 0.000000 -0.014340 
#    y 0.000000 1.761480 0.000000 
#    z -0.014340 0.000000 1.809350 
# 
# From -- ./inp_files/44889.got.cif
#   From: 2010.03.12/outbox.cif.g09.slc.cpg/sg5_23_cif.got.tgz:44889.got - 2010.03.31 09:47:26.
