data_PCOD8048077
_publ_section_title
;
Structure prediction by ZEFSAII (Michael W. Deem and Ramdas Pophale) SiO2 
 PCOD8048077
Probable space group: C 2
;
_chemical_formula_sum "Si O2"
_cell_formula_units_Z 30
_cell_length_a 12.959760
_cell_length_b 13.557765
_cell_length_c 21.876183
_cell_angle_alpha 90.000000
_cell_angle_beta 154.978935
_cell_angle_gamma 90.000000
_cell_volume 1625.725123
_symmetry_space_group_name_H-M "C 2"
_symmetry_group_IT_number 5
_symmetry_cell_setting 'monoclinic'
loop_
_space_group_symop_operation_xyz
x,y,z
-x,y,-z
1/2+x,1/2+y,z
1/2-x,1/2+y,-z
loop_
_atom_site_type_symbol
_atom_site_label
_atom_site_fract_x
_atom_site_fract_y
_atom_site_fract_z
Si Si1 0.892795 0.807810 0.877282
Si Si2 0.613977 0.515807 0.500123
Si Si3 0.334091 0.594744 0.241362
Si Si4 0.750168 0.020050 0.612909
Si Si5 0.249865 0.217518 0.597081
Si Si6 0.000000 0.437753 0.000000
Si Si7 0.383239 0.872505 0.562494
Si Si8 0.070335 0.860278 0.844460
O O1 0.826713 0.692615 0.847838
O O2 0.653233 0.870394 0.734300
O O3 0.080121 0.829922 0.921759
O O4 0.000000 0.843270 0.000000
O O5 0.500000 0.473194 0.500000
O O6 0.407558 0.572460 0.350155
O O7 0.814512 0.601553 0.622221
O O8 0.713519 0.418181 0.522802
O O9 0.577130 0.599272 0.328793
O O10 0.178861 0.502250 0.136527
O O11 0.500000 0.075430 0.500000
O O12 0.633474 0.938453 0.506281
O O13 0.908526 0.960270 0.748776
O O14 0.212173 0.264560 0.508939
O O15 0.463811 0.268405 0.749583
O O16 0.000000 0.229196 0.500000
O O17 0.157109 0.373330 0.036103
#
# Coordination Sequence:
#
# PCOD8048077 Si02
#       8
#     4   4   4   4   4   2   4   4
#     4  12  21  34  55  81 118 156 175 219 285 358
#     4  10  20  33  58  83 111 141 181 239 277 325
#     4  10  20  35  57  86 108 144 192 221 279 339
#     4   9  16  33  62  84 100 134 191 251 257 304
#     4  10  16  34  64  82  98 144 193 236 265 320
#     4  10  22  38  60  82 106 152 194 238 260 334
#     4  10  18  32  54  86 106 132 192 227 281 321
#     4  10  19  35  60  81 107 145 201 226 271 328
#
# _framework density 18.453302999999998
#
# number of rings (size 3 to 8) (size 9 to 14) (size 15 to 20)
#    0.000    1.867    4.667    2.400    0.000    1.067 
#    0.000    0.667   10.267    0.000    0.000    0.000 
#    0.000    0.000    0.000    0.000    0.000    0.000 
#
# Total GULP energy -185887.102410 kJ/mol
# GULP energy per Si atom -12392.473494 kJ/mol
# Density = 1.841130 g / cm^3
# Si number density = 18.453303 Si / 1000 Ang^3
#
#
#
# Elastic Constant Matrix: (Units=GPa)
#
#
# Indices 1 2 3 4 5 6 
#
# 1 147.6941 49.9643 50.3439 0.0012 1.3100 0.0015
# 2 49.9643 63.1590 10.2135 0.0066 6.0043 0.0018
# 3 50.3439 10.2135 72.4577 0.0210 -1.0214 0.0030
# 4 0.0012 0.0066 0.0210 14.9085 0.0001 -2.6774
# 5 1.3100 6.0043 -1.0214 0.0001 34.8928 0.0010
# 6 0.0015 0.0018 0.0030 -2.6774 0.0010 18.4601
#
#
#
# Elastic Compliance Matrix: (Units=1/GPa)
#
#
# Indices 1 2 3 4 5 6 
#
# 1 0.012078 -0.008468 -0.007187 0.000013 0.000793 0.000003
# 2 -0.008468 0.022429 0.002673 -0.000014 -0.003463 -0.000004
# 3 -0.007187 0.002673 0.018423 -0.000028 0.000349 -0.000007
# 4 0.000013 -0.000014 -0.000028 0.068870 0.000001 0.009989
# 5 0.000793 -0.003463 0.000349 0.000001 0.029236 -0.000001
# 6 0.000003 -0.000004 -0.000007 0.009989 -0.000001 0.055620
#
#
# Mechanical properties :
#
#
# Convention : Reuss Voigt Hill
#
# Bulk Modulus (GPa) = 37.08335 56.03935 46.56135
# Shear Modulus (GPa) = 20.69463 25.17154 22.93309
#
# Velocity S-wave (km/s) = 3.35245 3.69733 3.52911
# Velocity P-wave (km/s) = 5.92661 6.97576 6.47247
#
# Compressibility (1/GPa) = 0.02696628
#
# Stress axis : x y z
#
# Youngs Moduli (GPa) = 82.79263 44.58491 54.27997
#
# Poissons Ratio (x) = 0.37755 0.39012
# Poissons Ratio (y) = 0.70111 -0.14511
# Poissons Ratio (z) = 0.59505 -0.11919
#
# Static dielectric constant tensor:
#      x y z
#    x 3.588140 -0.000010 -0.039410 
#    y -0.000010 3.315730 -0.000010 
#    z -0.039410 -0.000010 3.406150 
# 
# 
# High freq. dielectric constant tensor:
#      x y z
#    x 1.717630 0.000000 -0.010310 
#    y 0.000000 1.697170 0.000000 
#    z -0.010310 0.000000 1.702780 
# 
# From -- ./inp_files/65419.got.cif
#   From: 2010.03.12/outbox.cif.g09.slc.cpg/sg5_33_cif.got.tgz:65419.got - 2010.03.31 09:47:26.
