data_PCOD8048268
_publ_section_title
;
Structure prediction by ZEFSAII (Michael W. Deem and Ramdas Pophale) SiO2 
 PCOD8048268
Probable space group: C 2
;
_chemical_formula_sum "Si O2"
_cell_formula_units_Z 30
_cell_length_a 20.915704
_cell_length_b 8.743032
_cell_length_c 9.551842
_cell_angle_alpha 90.000000
_cell_angle_beta 115.301913
_cell_angle_gamma 90.000000
_cell_volume 1579.148300
_symmetry_space_group_name_H-M "C 2"
_symmetry_group_IT_number 5
_symmetry_cell_setting 'monoclinic'
loop_
_space_group_symop_operation_xyz
x,y,z
-x,y,-z
1/2+x,1/2+y,z
1/2-x,1/2+y,-z
loop_
_atom_site_type_symbol
_atom_site_label
_atom_site_fract_x
_atom_site_fract_y
_atom_site_fract_z
Si Si1 0.500000 0.870311 0.500000
Si Si2 0.050533 0.801595 0.368698
Si Si3 0.731248 0.037638 0.879748
Si Si4 0.717662 0.574482 0.369083
Si Si5 0.081454 0.643270 0.683264
Si Si6 0.897752 0.134525 0.530797
Si Si7 0.720784 0.685696 0.804868
Si Si8 0.681370 0.233357 0.344217
O O1 0.453473 0.769999 0.563721
O O2 0.549835 0.972078 0.646240
O O3 0.083030 0.709557 0.528941
O O4 0.096225 0.750894 0.274979
O O5 0.968824 0.752980 0.268099
O O6 0.056749 0.980562 0.409007
O O7 0.779587 0.096220 0.795780
O O8 0.659423 0.137354 0.820580
O O9 0.711801 0.859486 0.848500
O O10 0.774832 0.069981 0.061101
O O11 0.650126 0.661656 0.374573
O O12 0.715806 0.397210 0.405730
O O13 0.791305 0.628213 0.504172
O O14 0.845919 0.129351 0.348060
O O15 0.793249 0.670066 0.782198
#
# Coordination Sequence:
#
# PCOD8048268 Si02
#       8
#     2   4   4   4   4   4   4   4
#     4  10  18  34  56  78 114 130 182 230 268 312
#     4   9  18  31  55  82 107 133 180 221 271 312
#     4  11  21  39  51  82 112 147 178 220 268 332
#     4   9  19  31  57  75 109 134 183 225 267 306
#     4  10  20  32  54  83 107 146 171 228 268 319
#     4  10  19  36  56  88 100 139 181 231 268 316
#     4  10  23  34  56  78 115 143 181 219 275 317
#     4   9  17  33  51  82 103 139 179 229 260 316
#
# _framework density 18.997582999999999
#
# number of rings (size 3 to 8) (size 9 to 14) (size 15 to 20)
#    0.000    2.400    2.667    0.800    1.867    1.067 
#    0.000    0.667    0.000    0.800    0.000    0.000 
#    0.000    0.000    0.000    0.000    0.000    0.000 
#
# Total GULP energy -185922.422720 kJ/mol
# GULP energy per Si atom -12394.828181 kJ/mol
# Density = 1.895434 g / cm^3
# Si number density = 18.997583 Si / 1000 Ang^3
#
#
#
# Elastic Constant Matrix: (Units=GPa)
#
#
# Indices 1 2 3 4 5 6 
#
# 1 107.3731 44.1934 22.0262 0.0000 -12.0998 0.0000
# 2 44.1934 72.9080 15.0846 0.0000 -8.7974 0.0000
# 3 22.0262 15.0846 52.4403 0.0000 -15.9062 0.0000
# 4 0.0000 0.0000 0.0000 20.3114 0.0000 -0.5589
# 5 -12.0998 -8.7974 -15.9062 0.0000 21.9988 0.0000
# 6 0.0000 0.0000 0.0000 -0.5589 0.0000 28.6874
#
#
#
# Elastic Compliance Matrix: (Units=1/GPa)
#
#
# Indices 1 2 3 4 5 6 
#
# 1 0.013045 -0.007056 -0.002727 0.000000 0.002382 0.000000
# 2 -0.007056 0.018624 -0.001680 0.000000 0.002352 0.000000
# 3 -0.002727 -0.001680 0.025669 0.000000 0.016388 0.000000
# 4 0.000000 0.000000 0.000000 0.049260 0.000000 0.000960
# 5 0.002382 0.002352 0.016388 0.000000 0.059557 0.000000
# 6 0.000000 0.000000 0.000000 0.000960 0.000000 0.034877
#
#
# Mechanical properties :
#
#
# Convention : Reuss Voigt Hill
#
# Bulk Modulus (GPa) = 29.05984 43.92552 36.49268
# Shear Modulus (GPa) = 21.23776 24.29399 22.76587
#
# Velocity S-wave (km/s) = 3.34716 3.57990 3.46548
# Velocity P-wave (km/s) = 5.50161 6.34503 5.93832
#
# Compressibility (1/GPa) = 0.03441175
#
# Stress axis : x y z
#
# Youngs Moduli (GPa) = 76.65641 53.69348 38.95756
#
# Poissons Ratio (x) = 0.37885 0.10625
# Poissons Ratio (y) = 0.54087 0.06546
# Poissons Ratio (z) = 0.20907 0.09022
#
# Static dielectric constant tensor:
#      x y z
#    x 3.813040 0.000000 -0.246040 
#    y 0.000000 3.537200 0.000000 
#    z -0.246040 0.000000 3.083660 
# 
# 
# High freq. dielectric constant tensor:
#      x y z
#    x 1.752510 0.000000 -0.017000 
#    y 0.000000 1.744040 0.000000 
#    z -0.017000 0.000000 1.689070 
# 
# From -- ./inp_files/30603.got.cif
#   From: 2010.03.12/outbox.cif.g09.slc.cpg/sg5_16_cif.got.tgz:30603.got - 2010.03.31 09:47:26.
