data_PCOD8048572
_publ_section_title
;
Structure prediction by ZEFSAII (Michael W. Deem and Ramdas Pophale) SiO2 
 PCOD8048572
Probable space group: C 2
;
_chemical_formula_sum "Si O2"
_cell_formula_units_Z 28
_cell_length_a 9.670770
_cell_length_b 30.799770
_cell_length_c 5.035467
_cell_angle_alpha 90.000000
_cell_angle_beta 66.205803
_cell_angle_gamma 90.000000
_cell_volume 1372.364989
_symmetry_space_group_name_H-M "C 2"
_symmetry_group_IT_number 5
_symmetry_cell_setting 'monoclinic'
loop_
_space_group_symop_operation_xyz
x,y,z
-x,y,-z
1/2+x,1/2+y,z
1/2-x,1/2+y,-z
loop_
_atom_site_type_symbol
_atom_site_label
_atom_site_fract_x
_atom_site_fract_y
_atom_site_fract_z
Si Si1 0.332697 0.171470 0.677398
Si Si2 0.823554 0.395580 0.649619
Si Si3 0.679582 0.537542 0.360373
Si Si4 0.900253 0.767953 0.809792
Si Si5 0.675954 0.840958 0.860243
Si Si6 0.322381 0.635289 0.694784
Si Si7 0.178777 0.986146 0.853439
O O1 0.500000 0.151301 0.500000
O O2 0.347320 0.220146 0.771791
O O3 0.254272 0.168833 0.450521
O O4 0.225448 0.146868 0.968624
O O5 0.774043 0.359858 0.465953
O O6 0.737408 0.440619 0.697308
O O7 0.000000 0.405297 0.500000
O O8 0.780005 0.378613 0.971805
O O9 0.500000 0.538353 0.500000
O O10 0.740203 0.586450 0.286382
O O11 0.738323 0.521234 0.596821
O O12 0.740510 0.504224 0.086697
O O13 0.753023 0.797881 0.918923
O O14 0.000000 0.788442 0.500000
O O15 0.000000 0.768093 0.000000
O O16 0.500000 0.829478 0.000000
O O17 0.500000 0.638241 0.500000
O O18 0.000000 0.982622 0.000000
#
# Coordination Sequence:
#
# PCOD8048572 Si02
#       7
#     4   4   4   4   4   4   4
#     4  11  23  41  60  87 126 159 190 246 312 358
#     4  10  21  37  55  81 116 150 184 235 293 343
#     4   9  19  35  55  81 113 146 190 245 290 328
#     4  11  23  41  62  86 117 155 194 240 295 353
#     4  10  22  39  59  83 115 151 190 238 291 343
#     4  11  22  39  64  90 117 158 207 249 291 355
#     4  10  19  34  56  80 109 149 191 235 285 342
#
# _framework density 20.402735
#
# number of rings (size 3 to 8) (size 9 to 14) (size 15 to 20)
#    0.000    1.714    0.000    5.143    0.000    5.143 
#    0.000    5.714    0.000    0.000    0.000    0.000 
#    0.000    0.000    0.000    0.000    0.000    0.000 
#
# Total GULP energy -173504.157369 kJ/mol
# GULP energy per Si atom -12393.154098 kJ/mol
# Density = 2.035630 g / cm^3
# Si number density = 20.402735 Si / 1000 Ang^3
#
#
#
# Elastic Constant Matrix: (Units=GPa)
#
#
# Indices 1 2 3 4 5 6 
#
# 1 78.5624 41.7566 28.6497 0.0000 15.5799 0.0000
# 2 41.7566 103.2136 26.8684 0.0000 -1.0296 0.0000
# 3 28.6497 26.8684 102.4600 0.0000 9.9961 0.0000
# 4 0.0000 0.0000 0.0000 34.8093 0.0000 41.9614
# 5 15.5799 -1.0296 9.9961 0.0000 32.8760 0.0000
# 6 0.0000 0.0000 0.0000 41.9614 0.0000 129.7886
#
#
#
# Elastic Compliance Matrix: (Units=1/GPa)
#
#
# Indices 1 2 3 4 5 6 
#
# 1 0.019189 -0.007156 -0.002659 0.000000 -0.008509 0.000000
# 2 -0.007156 0.013112 -0.001864 0.000000 0.004369 0.000000
# 3 -0.002659 -0.001864 0.011207 0.000000 -0.002206 0.000000
# 4 0.000000 0.000000 0.000000 0.047075 0.000000 -0.015219
# 5 -0.008509 0.004369 -0.002206 0.000000 0.035257 0.000000
# 6 0.000000 0.000000 0.000000 -0.015219 0.000000 0.012625
#
#
# Mechanical properties :
#
#
# Convention : Reuss Voigt Hill
#
# Bulk Modulus (GPa) = 49.62367 53.19838 51.41103
# Shear Modulus (GPa) = 29.66628 51.95886 40.81257
#
# Velocity S-wave (km/s) = 3.81732 5.05192 4.47738
# Velocity P-wave (km/s) = 6.61847 7.75628 7.20986
#
# Compressibility (1/GPa) = 0.02015167
#
# Stress axis : x y z
#
# Youngs Moduli (GPa) = 52.11205 76.26314 89.22710
#
# Poissons Ratio (x) = 0.54574 0.23725
# Poissons Ratio (y) = 0.37292 0.16630
# Poissons Ratio (z) = 0.13856 0.14214
#
# Static dielectric constant tensor:
#      x y z
#    x 3.216140 0.000000 0.838730 
#    y 0.000000 3.628120 0.000000 
#    z 0.838730 0.000000 2.788310 
# 
# 
# High freq. dielectric constant tensor:
#      x y z
#    x 1.786290 0.000000 0.014440 
#    y 0.000000 1.800650 0.000000 
#    z 0.014440 0.000000 1.813310 
# 
# From -- ./inp_files/3876.got.cif
#   From: 2010.03.12/outbox.cif.g09.slc.cpg/sg5_2_cif.got.tgz:3876.got - 2010.03.31 09:47:26.
