data_PCOD8048543
_publ_section_title
;
Structure prediction by ZEFSAII (Michael W. Deem and Ramdas Pophale) SiO2 
 PCOD8048543
Probable space group: C 2
;
_chemical_formula_sum "Si O2"
_cell_formula_units_Z 28
_cell_length_a 21.695226
_cell_length_b 13.538279
_cell_length_c 12.588464
_cell_angle_alpha 90.000000
_cell_angle_beta 156.739420
_cell_angle_gamma 90.000000
_cell_volume 1460.166471
_symmetry_space_group_name_H-M "C 2"
_symmetry_group_IT_number 5
_symmetry_cell_setting 'monoclinic'
loop_
_space_group_symop_operation_xyz
x,y,z
-x,y,-z
1/2+x,1/2+y,z
1/2-x,1/2+y,-z
loop_
_atom_site_type_symbol
_atom_site_label
_atom_site_fract_x
_atom_site_fract_y
_atom_site_fract_z
Si Si1 0.812429 0.101590 0.491949
Si Si2 0.832610 0.887754 0.009911
Si Si3 0.305033 0.392623 0.397476
Si Si4 0.105056 0.037984 0.064711
Si Si5 0.193941 0.676448 0.086462
Si Si6 0.814101 0.982863 0.194403
Si Si7 0.824069 0.686965 0.518572
O O1 0.788403 0.155126 0.343134
O O2 0.715806 0.164422 0.423055
O O3 0.995813 0.101329 0.812161
O O4 0.758659 0.985906 0.398961
O O5 0.754710 0.940266 0.988128
O O6 0.012007 0.876315 0.323170
O O7 0.819344 0.945702 0.877173
O O8 0.748138 0.782329 0.863971
O O9 0.245557 0.415330 0.182986
O O10 0.244436 0.290956 0.355034
O O11 0.251614 0.102983 0.330109
O O12 0.000000 0.003716 0.000000
O O13 0.237755 0.591377 0.073261
O O14 0.008963 0.682940 0.807546
O O15 0.000000 0.993299 0.500000
#
# Coordination Sequence:
#
# PCOD8048543 Si02
#       7
#     4   4   4   4   4   4   4
#     4   9  18  34  53  76 106 138 169 204 252 314
#     4   9  18  33  55  75  99 137 173 209 254 306
#     4   8  17  33  53  74 102 143 175 196 251 323
#     4   9  19  35  53  77 107 138 168 202 253 313
#     4  10  20  34  54  79 100 131 175 217 255 296
#     4   9  18  36  54  71 101 140 176 206 251 319
#     4  10  19  33  54  80 106 133 169 216 256 295
#
# _framework density 19.175895000000001
#
# number of rings (size 3 to 8) (size 9 to 14) (size 15 to 20)
#    0.000    2.857    0.000    1.286    0.000    5.714 
#    0.000   15.000    0.000    0.000    0.000    0.000 
#    0.000    0.000    0.000    0.000    0.000    0.000 
#
# Total GULP energy -173491.778255 kJ/mol
# GULP energy per Si atom -12392.269875 kJ/mol
# Density = 1.913225 g / cm^3
# Si number density = 19.175895 Si / 1000 Ang^3
#
#
#
# Elastic Constant Matrix: (Units=GPa)
#
#
# Indices 1 2 3 4 5 6 
#
# 1 97.1727 71.4881 15.9064 0.0000 -26.8226 0.0000
# 2 71.4881 141.3684 13.6032 0.0000 -25.4667 0.0000
# 3 15.9064 13.6032 43.8627 0.0000 -20.1855 0.0000
# 4 0.0000 0.0000 0.0000 22.3401 0.0000 0.4304
# 5 -26.8226 -25.4667 -20.1855 0.0000 27.3687 0.0000
# 6 0.0000 0.0000 0.0000 0.4304 0.0000 31.7162
#
#
#
# Elastic Compliance Matrix: (Units=1/GPa)
#
#
# Indices 1 2 3 4 5 6 
#
# 1 0.019095 -0.007497 0.001214 0.000000 0.012633 0.000000
# 2 -0.007497 0.011509 0.001054 0.000000 0.004139 0.000000
# 3 0.001214 0.001054 0.034863 0.000000 0.027884 0.000000
# 4 0.000000 0.000000 0.000000 0.044774 0.000000 -0.000608
# 5 0.012633 0.004139 0.027884 0.000000 0.073337 0.000000
# 6 0.000000 0.000000 0.000000 -0.000608 0.000000 0.031538
#
#
# Mechanical properties :
#
#
# Convention : Reuss Voigt Hill
#
# Bulk Modulus (GPa) = 18.17828 53.82215 36.00022
# Shear Modulus (GPa) = 20.49939 28.37874 24.43906
#
# Velocity S-wave (km/s) = 3.27313 3.85114 3.57384
# Velocity P-wave (km/s) = 4.87697 6.92124 5.98701
#
# Compressibility (1/GPa) = 0.05501069
#
# Stress axis : x y z
#
# Youngs Moduli (GPa) = 52.37038 86.88787 28.68344
#
# Poissons Ratio (x) = 0.65140 -0.03483
# Poissons Ratio (y) = 0.39262 -0.03024
# Poissons Ratio (z) = -0.06360 -0.09161
#
# Static dielectric constant tensor:
#      x y z
#    x 3.607410 0.000000 -0.266960 
#    y 0.000000 3.841420 0.000000 
#    z -0.266960 0.000000 3.333220 
# 
# 
# High freq. dielectric constant tensor:
#      x y z
#    x 1.738820 0.000000 -0.022650 
#    y 0.000000 1.748890 0.000000 
#    z -0.022650 0.000000 1.725130 
# 
# From -- ./inp_files/36289.got.cif
#   From: 2010.03.12/outbox.cif.g09.slc.cpg/sg5_19_cif.got.tgz:36289.got - 2010.03.31 09:47:26.
