data_PCOD8048677
_publ_section_title
;
Structure prediction by ZEFSAII (Michael W. Deem and Ramdas Pophale) SiO2 
 PCOD8048677
Probable space group: C 2
;
_chemical_formula_sum "Si O2"
_cell_formula_units_Z 30
_cell_length_a 9.006119
_cell_length_b 10.766490
_cell_length_c 15.662312
_cell_angle_alpha 90.000000
_cell_angle_beta 109.151197
_cell_angle_gamma 90.000000
_cell_volume 1434.635088
_symmetry_space_group_name_H-M "C 2"
_symmetry_group_IT_number 5
_symmetry_cell_setting 'monoclinic'
loop_
_space_group_symop_operation_xyz
x,y,z
-x,y,-z
1/2+x,1/2+y,z
1/2-x,1/2+y,-z
loop_
_atom_site_type_symbol
_atom_site_label
_atom_site_fract_x
_atom_site_fract_y
_atom_site_fract_z
Si Si1 0.500000 0.117471 0.000000
Si Si2 0.009144 0.048906 0.400337
Si Si3 0.827740 0.032034 0.039692
Si Si4 0.516618 0.284106 0.342901
Si Si5 0.136042 0.123056 0.132650
Si Si6 0.408795 0.284232 0.138140
Si Si7 0.128411 0.295800 0.598117
Si Si8 0.795956 0.558589 0.336554
O O1 0.655349 0.037504 0.047364
O O2 0.475084 0.191771 0.081202
O O3 0.000000 0.042976 0.500000
O O4 0.938669 0.917766 0.352755
O O5 0.187285 0.065378 0.400145
O O6 0.910663 0.172012 0.352462
O O7 0.946148 0.145115 0.091623
O O8 0.916488 0.916517 0.096646
O O9 0.819546 0.025582 0.935162
O O10 0.520607 0.275506 0.241186
O O11 0.696801 0.279280 0.408854
O O12 0.421574 0.170076 0.366397
O O13 0.229952 0.250437 0.132128
O O14 0.187508 0.067055 0.232637
O O15 0.118212 0.423890 0.650560
O O16 0.000000 0.306136 0.500000
#
# Coordination Sequence:
#
# PCOD8048677 Si02
#       8
#     2   4   4   4   4   4   4   4
#     4  10  22  34  58  90 116 156 198 234 284 342
#     4  10  23  40  59  88 117 148 196 247 300 357
#     4  10  19  36  59  84 121 157 191 236 285 342
#     4  10  23  41  63  88 122 158 196 247 299 355
#     4   9  20  38  58  86 119 154 196 240 289 342
#     4  10  21  38  58  87 119 154 197 239 288 344
#     4  10  23  40  60  89 117 149 199 248 298 360
#     4  10  22  42  64  87 119 159 199 245 299 354
#
# _framework density 20.911241
#
# number of rings (size 3 to 8) (size 9 to 14) (size 15 to 20)
#    0.000    2.133    0.000    2.400    0.000   14.400 
#    0.000   10.667    0.000    0.000    0.000    0.000 
#    0.000    0.000    0.000    0.000    0.000    0.000 
#
# Total GULP energy -185858.133518 kJ/mol
# GULP energy per Si atom -12390.542235 kJ/mol
# Density = 2.086365 g / cm^3
# Si number density = 20.911241 Si / 1000 Ang^3
#
#
#
# Elastic Constant Matrix: (Units=GPa)
#
#
# Indices 1 2 3 4 5 6 
#
# 1 123.6456 46.1829 43.0578 0.0000 14.4410 0.0000
# 2 46.1829 142.8327 24.6384 0.0000 -0.8860 0.0000
# 3 43.0578 24.6384 108.3305 0.0000 0.0358 0.0000
# 4 0.0000 0.0000 0.0000 30.7018 0.0000 -2.5481
# 5 14.4410 -0.8860 0.0358 0.0000 31.8920 0.0000
# 6 0.0000 0.0000 0.0000 -2.5481 0.0000 34.3641
#
#
#
# Elastic Compliance Matrix: (Units=1/GPa)
#
#
# Indices 1 2 3 4 5 6 
#
# 1 0.011094 -0.002975 -0.003731 0.000000 -0.005102 0.000000
# 2 -0.002975 0.008086 -0.000657 0.000000 0.001573 0.000000
# 3 -0.003731 -0.000657 0.010863 0.000000 0.001659 0.000000
# 4 0.000000 0.000000 0.000000 0.032773 0.000000 0.002430
# 5 -0.005102 0.001573 0.001659 0.000000 0.033708 0.000000
# 6 0.000000 0.000000 0.000000 0.002430 0.000000 0.029280
#
#
# Mechanical properties :
#
#
# Convention : Reuss Voigt Hill
#
# Bulk Modulus (GPa) = 65.28947 66.95188 66.12067
# Shear Modulus (GPa) = 34.33193 36.78688 35.55940
#
# Velocity S-wave (km/s) = 4.05630 4.19882 4.12818
# Velocity P-wave (km/s) = 7.29576 7.45610 7.37637
#
# Compressibility (1/GPa) = 0.01531641
#
# Stress axis : x y z
#
# Youngs Moduli (GPa) = 90.13813 123.66638 92.05605
#
# Poissons Ratio (x) = 0.36792 0.34348
# Poissons Ratio (y) = 0.26817 0.06049
# Poissons Ratio (z) = 0.33632 0.08126
#
# Static dielectric constant tensor:
#      x y z
#    x 3.984450 0.000000 0.025340 
#    y 0.000000 4.138790 0.000000 
#    z 0.025340 0.000000 3.692030 
# 
# 
# High freq. dielectric constant tensor:
#      x y z
#    x 1.817920 0.000000 0.001500 
#    y 0.000000 1.818710 0.000000 
#    z 0.001500 0.000000 1.815420 
# 
# From -- ./inp_files/50472.got.cif
#   From: 2010.03.12/outbox.cif.g09.slc.cpg/sg5_26_cif.got.tgz:50472.got - 2010.03.31 09:47:26.
