data_PCOD8048747
_publ_section_title
;
Structure prediction by ZEFSAII (Michael W. Deem and Ramdas Pophale) SiO2 
 PCOD8048747
Probable space group: C 2
;
_chemical_formula_sum "Si O2"
_cell_formula_units_Z 24
_cell_length_a 19.991958
_cell_length_b 8.497437
_cell_length_c 27.847190
_cell_angle_alpha 90.000000
_cell_angle_beta 164.318616
_cell_angle_gamma 90.000000
_cell_volume 1278.647557
_symmetry_space_group_name_H-M "C 2"
_symmetry_group_IT_number 5
_symmetry_cell_setting 'monoclinic'
loop_
_space_group_symop_operation_xyz
x,y,z
-x,y,-z
1/2+x,1/2+y,z
1/2-x,1/2+y,-z
loop_
_atom_site_type_symbol
_atom_site_label
_atom_site_fract_x
_atom_site_fract_y
_atom_site_fract_z
Si Si1 0.932992 0.714030 0.178225
Si Si2 0.532644 0.195412 0.077607
Si Si3 0.480721 0.805937 0.543742
Si Si4 0.186953 0.622512 0.668282
Si Si5 0.345749 0.419191 0.027924
Si Si6 0.028327 0.333835 0.964286
O O1 0.814606 0.809534 0.052332
O O2 0.218460 0.753097 0.383301
O O3 0.898759 0.527521 0.144749
O O4 0.782390 0.755759 0.122073
O O5 0.368413 0.313124 0.995970
O O6 0.819309 0.200874 0.290547
O O7 0.444708 0.018574 0.026044
O O8 0.500000 0.246477 0.000000
O O9 0.500000 0.775690 0.500000
O O10 0.532565 0.990230 0.591256
O O11 0.413171 0.530034 0.798812
O O12 0.288746 0.761576 0.771913
O O13 0.000000 0.698172 0.500000
O O14 0.000000 0.291159 0.000000
#
# Coordination Sequence:
#
# PCOD8048747 Si02
#       6
#     4   4   4   4   4   4
#     4  11  20  36  62  86 121 154 202 246 296 357
#     4  10  21  41  59  83 124 162 197 247 302 353
#     4  10  19  37  61  88 120 152 199 246 298 356
#     4   9  17  36  60  87 115 148 193 242 300 350
#     4  10  20  35  60  90 113 159 195 246 298 352
#     4  10  23  39  57  84 122 161 200 243 297 356
#
# _framework density 18.769832000000001
#
# number of rings (size 3 to 8) (size 9 to 14) (size 15 to 20)
#    0.000    2.000    5.000    1.000    0.000    6.667 
#    3.000    6.667    0.000    0.000    0.000    0.000 
#    0.000    0.000    0.000    0.000    0.000    0.000 
#
# Total GULP energy -148793.742644 kJ/mol
# GULP energy per Si atom -12399.478554 kJ/mol
# Density = 1.872711 g / cm^3
# Si number density = 18.769832 Si / 1000 Ang^3
#
#
#
# Elastic Constant Matrix: (Units=GPa)
#
#
# Indices 1 2 3 4 5 6 
#
# 1 104.5985 40.7124 37.8120 -0.0198 -3.3808 0.0217
# 2 40.7124 81.0006 25.5072 -0.0306 0.3709 0.0146
# 3 37.8120 25.5072 92.4285 0.0528 3.7972 0.0424
# 4 -0.0198 -0.0306 0.0528 33.2382 0.0110 0.4926
# 5 -3.3808 0.3709 3.7972 0.0110 32.8265 -0.0344
# 6 0.0217 0.0146 0.0424 0.4926 -0.0344 31.9937
#
#
#
# Elastic Compliance Matrix: (Units=1/GPa)
#
#
# Indices 1 2 3 4 5 6 
#
# 1 0.013146 -0.005364 -0.003974 0.000009 0.001874 0.000001
# 2 -0.005364 0.015712 -0.002122 0.000015 -0.000485 -0.000001
# 3 -0.003974 -0.002122 0.013109 -0.000024 -0.001902 -0.000015
# 4 0.000009 0.000015 -0.000024 0.030093 -0.000007 -0.000463
# 5 0.001874 -0.000485 -0.001902 -0.000007 0.030882 0.000035
# 6 0.000001 -0.000001 -0.000015 -0.000463 0.000035 0.031263
#
#
# Mechanical properties :
#
#
# Convention : Reuss Voigt Hill
#
# Bulk Modulus (GPa) = 52.50505 54.01010 53.25757
# Shear Modulus (GPa) = 30.58602 31.21143 30.89872
#
# Velocity S-wave (km/s) = 4.04112 4.08223 4.06173
# Velocity P-wave (km/s) = 7.05748 7.14541 7.10158
#
# Compressibility (1/GPa) = 0.01904579
#
# Stress axis : x y z
#
# Youngs Moduli (GPa) = 76.07123 63.64530 76.28500
#
# Poissons Ratio (x) = 0.34141 0.30319
# Poissons Ratio (y) = 0.40806 0.16185
# Poissons Ratio (z) = 0.30234 0.13503
#
# Static dielectric constant tensor:
#      x y z
#    x 3.301840 0.000060 0.009900 
#    y 0.000060 3.569880 -0.000190 
#    z 0.009900 -0.000190 3.530090 
# 
# 
# High freq. dielectric constant tensor:
#      x y z
#    x 1.715070 0.000000 0.001150 
#    y 0.000000 1.735260 -0.000010 
#    z 0.001150 -0.000010 1.722550 
# 
# From -- ./inp_files/26453.got.cif
#   From: 2010.03.12/outbox.cif.g09.slc.cpg/sg5_14_cif.got.tgz:26453.got - 2010.03.31 09:47:26.
