data_PCOD8048361
_publ_section_title
;
Structure prediction by ZEFSAII (Michael W. Deem and Ramdas Pophale) SiO2 
 PCOD8048361
Probable space group: C 2
;
_chemical_formula_sum "Si O2"
_cell_formula_units_Z 28
_cell_length_a 20.895881
_cell_length_b 8.906640
_cell_length_c 14.788928
_cell_angle_alpha 90.000000
_cell_angle_beta 148.778833
_cell_angle_gamma 90.000000
_cell_volume 1426.686318
_symmetry_space_group_name_H-M "C 2"
_symmetry_group_IT_number 5
_symmetry_cell_setting 'monoclinic'
loop_
_space_group_symop_operation_xyz
x,y,z
-x,y,-z
1/2+x,1/2+y,z
1/2-x,1/2+y,-z
loop_
_atom_site_type_symbol
_atom_site_label
_atom_site_fract_x
_atom_site_fract_y
_atom_site_fract_z
Si Si1 0.220367 0.089850 0.325424
Si Si2 0.342620 0.752999 0.923068
Si Si3 0.276257 0.363858 0.814555
Si Si4 0.079656 0.586404 0.005889
Si Si5 0.472032 0.212174 0.698748
Si Si6 0.112887 0.588061 0.704129
Si Si7 0.001505 0.002931 0.828044
O O1 0.140777 0.193648 0.160340
O O2 0.332801 0.186267 0.499628
O O3 0.137261 0.033223 0.307296
O O4 0.272964 0.940991 0.337289
O O5 0.200544 0.723494 0.777544
O O6 0.430136 0.664051 0.101467
O O7 0.372931 0.925330 0.966094
O O8 0.188497 0.427929 0.790035
O O9 0.292238 0.184159 0.829249
O O10 0.418016 0.418026 0.998358
O O11 0.989039 0.646133 0.819012
O O12 0.000000 0.582046 0.000000
O O13 0.569256 0.126872 0.752031
O O14 0.496015 0.393855 0.732763
O O15 0.000000 0.580024 0.500000
#
# Coordination Sequence:
#
# PCOD8048361 Si02
#       7
#     4   4   4   4   4   4   4
#     4  10  18  36  61  85 117 165 204 247 314 362
#     4  10  21  38  65  85 124 169 200 255 314 368
#     4   9  18  36  63  83 117 164 200 251 310 366
#     4  11  23  39  58  95 130 157 208 256 308 373
#     4  11  22  37  63  88 120 162 205 265 305 367
#     4  10  19  41  64  86 119 160 214 252 314 367
#     4   9  19  34  56  88 114 157 206 242 307 371
#
# _framework density 19.625897999999999
#
# number of rings (size 3 to 8) (size 9 to 14) (size 15 to 20)
#    0.000    2.286    2.857    4.286    0.000    5.714 
#    0.000    2.143    0.000    0.000    0.000    0.000 
#    0.000    0.000    0.000    0.000    0.000    0.000 
#
# Total GULP energy -173436.122121 kJ/mol
# GULP energy per Si atom -12388.294437 kJ/mol
# Density = 1.958123 g / cm^3
# Si number density = 19.625898 Si / 1000 Ang^3
#
#
#
# Elastic Constant Matrix: (Units=GPa)
#
#
# Indices 1 2 3 4 5 6 
#
# 1 80.8312 33.9762 33.0572 0.0000 19.7894 0.0000
# 2 33.9762 156.6883 53.4213 0.0000 9.1693 0.0000
# 3 33.0572 53.4213 93.9106 0.0000 5.2641 0.0000
# 4 0.0000 0.0000 0.0000 28.7178 0.0000 1.6277
# 5 19.7894 9.1693 5.2641 0.0000 27.9199 0.0000
# 6 0.0000 0.0000 0.0000 1.6277 0.0000 28.0913
#
#
#
# Elastic Compliance Matrix: (Units=1/GPa)
#
#
# Indices 1 2 3 4 5 6 
#
# 1 0.017683 -0.001580 -0.004702 0.000000 -0.011128 0.000000
# 2 -0.001580 0.008146 -0.004033 0.000000 -0.000795 0.000000
# 3 -0.004702 -0.004033 0.014490 0.000000 0.001925 0.000000
# 4 0.000000 0.000000 0.000000 0.034936 0.000000 -0.002024
# 5 -0.011128 -0.000795 0.001925 0.000000 0.043602 0.000000
# 6 0.000000 0.000000 0.000000 -0.002024 0.000000 0.035716
#
#
# Mechanical properties :
#
#
# Convention : Reuss Voigt Hill
#
# Bulk Modulus (GPa) = 50.79065 63.59327 57.19196
# Shear Modulus (GPa) = 27.50772 31.01081 29.25927
#
# Velocity S-wave (km/s) = 3.74786 3.97936 3.86534
# Velocity P-wave (km/s) = 6.68313 7.32030 7.00896
#
# Compressibility (1/GPa) = 0.01968866
#
# Stress axis : x y z
#
# Youngs Moduli (GPa) = 56.55155 122.75425 69.01324
#
# Poissons Ratio (x) = 0.19396 0.32450
# Poissons Ratio (y) = 0.08936 0.27835
# Poissons Ratio (z) = 0.26590 0.49511
#
# Static dielectric constant tensor:
#      x y z
#    x 3.543830 0.000000 0.086570 
#    y 0.000000 3.965980 0.000000 
#    z 0.086570 0.000000 3.505460 
# 
# 
# High freq. dielectric constant tensor:
#      x y z
#    x 1.748030 0.000000 0.012240 
#    y 0.000000 1.761350 0.000000 
#    z 0.012240 0.000000 1.753700 
# 
# From -- ./inp_files/56937.got.cif
#   From: 2010.03.12/outbox.cif.g09.slc.cpg/sg5_29_cif.got.tgz:56937.got - 2010.03.31 09:47:26.
