data_PCOD8048639
_publ_section_title
;
Structure prediction by ZEFSAII (Michael W. Deem and Ramdas Pophale) SiO2 
 PCOD8048639
Probable space group: C 2
;
_chemical_formula_sum "Si O2"
_cell_formula_units_Z 30
_cell_length_a 17.684515
_cell_length_b 5.183082
_cell_length_c 15.506868
_cell_angle_alpha 90.000000
_cell_angle_beta 71.665866
_cell_angle_gamma 90.000000
_cell_volume 1349.213110
_symmetry_space_group_name_H-M "C 2"
_symmetry_group_IT_number 5
_symmetry_cell_setting 'monoclinic'
loop_
_space_group_symop_operation_xyz
x,y,z
-x,y,-z
1/2+x,1/2+y,z
1/2-x,1/2+y,-z
loop_
_atom_site_type_symbol
_atom_site_label
_atom_site_fract_x
_atom_site_fract_y
_atom_site_fract_z
Si Si1 0.606499 0.357240 0.706076
Si Si2 0.780078 0.328091 0.091502
Si Si3 0.000000 0.580532 0.000000
Si Si4 0.604072 0.844663 0.815039
Si Si5 0.978784 0.898465 0.607805
Si Si6 0.260000 0.922577 0.550827
Si Si7 0.850266 0.825581 0.984015
Si Si8 0.422154 0.898461 0.586278
O O1 0.574858 0.579127 0.781795
O O2 0.557743 0.359850 0.635044
O O3 0.698006 0.416134 0.651537
O O4 0.598181 0.076345 0.749942
O O5 0.804083 0.305525 0.184067
O O6 0.803058 0.619442 0.058330
O O7 0.833149 0.114563 0.022283
O O8 0.685943 0.293634 0.101165
O O9 0.049839 0.398543 0.918164
O O10 0.056001 0.762260 0.040524
O O11 0.917005 0.662175 0.643771
O O12 0.000000 0.944198 0.500000
O O13 0.933050 0.162387 0.649648
O O14 0.237193 0.709874 0.488211
O O15 0.346585 0.850080 0.553975
O O16 0.500000 0.945970 0.500000
#
# Coordination Sequence:
#
# PCOD8048639 Si02
#       8
#     4   4   2   4   4   4   4   4
#     4  12  25  42  64  96 130 169 220 274 318 382
#     4   9  18  36  58  86 121 161 200 261 321 372
#     4  10  22  42  68  96 126 176 220 262 330 386
#     4  11  24  41  64  94 133 168 217 276 323 379
#     4  10  20  38  61  87 124 166 205 258 327 381
#     4  12  23  40  66  93 123 167 215 255 320 394
#     4   9  18  33  62  90 114 156 218 255 304 390
#     4  10  19  35  60  89 119 158 203 250 305 378
#
# _framework density 22.235185000000001
#
# number of rings (size 3 to 8) (size 9 to 14) (size 15 to 20)
#    0.000    1.600    0.000    7.200    0.000    4.800 
#    0.000    4.000    0.000    4.800    0.000    0.000 
#    0.000    0.000    0.000    0.000    0.000    0.000 
#
# Total GULP energy -185876.180302 kJ/mol
# GULP energy per Si atom -12391.745353 kJ/mol
# Density = 2.218458 g / cm^3
# Si number density = 22.235185 Si / 1000 Ang^3
#
#
#
# Elastic Constant Matrix: (Units=GPa)
#
#
# Indices 1 2 3 4 5 6 
#
# 1 159.7729 14.4547 27.3161 -0.0006 28.3881 -0.0006
# 2 14.4547 123.7844 4.4300 -0.0010 6.4385 -0.0014
# 3 27.3161 4.4300 58.5514 -0.0006 10.8610 -0.0007
# 4 -0.0006 -0.0010 -0.0006 24.5520 -0.0002 12.9261
# 5 28.3881 6.4385 10.8610 -0.0002 37.0587 -0.0003
# 6 -0.0006 -0.0014 -0.0007 12.9261 -0.0003 35.1150
#
#
#
# Elastic Compliance Matrix: (Units=1/GPa)
#
#
# Indices 1 2 3 4 5 6 
#
# 1 0.007639 -0.000539 -0.002596 0.000000 -0.004998 0.000000
# 2 -0.000539 0.008198 -0.000192 0.000000 -0.000955 0.000000
# 3 -0.002596 -0.000192 0.018960 0.000000 -0.003535 0.000000
# 4 0.000000 0.000000 0.000000 0.050521 0.000000 -0.018597
# 5 -0.004998 -0.000955 -0.003535 0.000000 0.032014 0.000000
# 6 0.000000 0.000000 0.000000 -0.018597 0.000000 0.035324
#
#
# Mechanical properties :
#
#
# Convention : Reuss Voigt Hill
#
# Bulk Modulus (GPa) = 35.53164 48.27891 41.90528
# Shear Modulus (GPa) = 29.63982 39.07235 34.35608
#
# Velocity S-wave (km/s) = 3.65501 4.19648 3.93507
# Velocity P-wave (km/s) = 5.81607 6.72611 6.28758
#
# Compressibility (1/GPa) = 0.02814393
#
# Stress axis : x y z
#
# Youngs Moduli (GPa) = 130.89875 121.98002 52.74149
#
# Poissons Ratio (x) = 0.06578 0.13693
# Poissons Ratio (y) = 0.07058 0.01010
# Poissons Ratio (z) = 0.33985 0.02336
#
# Static dielectric constant tensor:
#      x y z
#    x 4.393040 0.000000 0.330830 
#    y 0.000000 4.860720 -0.000010 
#    z 0.330830 -0.000010 3.307600 
# 
# 
# High freq. dielectric constant tensor:
#      x y z
#    x 1.889040 0.000000 0.031760 
#    y 0.000000 1.909140 0.000000 
#    z 0.031760 0.000000 1.818210 
# 
# From -- ./inp_files/55284.got.cif
#   From: 2010.03.12/outbox.cif.g09.slc.cpg/sg5_28_cif.got.tgz:55284.got - 2010.03.31 09:47:26.
