data_PCOD8048142
_publ_section_title
;
Structure prediction by ZEFSAII (Michael W. Deem and Ramdas Pophale) SiO2 
 PCOD8048142
Probable space group: C 2
;
_chemical_formula_sum "Si O2"
_cell_formula_units_Z 32
_cell_length_a 11.272549
_cell_length_b 21.047180
_cell_length_c 8.969338
_cell_angle_alpha 90.000000
_cell_angle_beta 51.726026
_cell_angle_gamma 90.000000
_cell_volume 1670.621553
_symmetry_space_group_name_H-M "C 2"
_symmetry_group_IT_number 5
_symmetry_cell_setting 'monoclinic'
loop_
_space_group_symop_operation_xyz
x,y,z
-x,y,-z
1/2+x,1/2+y,z
1/2-x,1/2+y,-z
loop_
_atom_site_type_symbol
_atom_site_label
_atom_site_fract_x
_atom_site_fract_y
_atom_site_fract_z
Si Si1 0.842034 0.738350 0.695271
Si Si2 0.555126 0.723729 0.296527
Si Si3 0.391235 0.943108 0.447622
Si Si4 0.923811 0.328402 0.206551
Si Si5 0.562578 0.064966 0.287850
Si Si6 0.879745 0.684714 0.966271
Si Si7 0.849582 0.005696 0.190997
Si Si8 0.614194 0.642769 0.780533
O O1 0.722624 0.788424 0.726227
O O2 0.871472 0.740925 0.849888
O O3 0.780871 0.666565 0.703810
O O4 0.000000 0.753601 0.500000
O O5 0.500000 0.746970 0.500000
O O6 0.548434 0.785192 0.193984
O O7 0.428042 0.674639 0.341745
O O8 0.714694 0.686351 0.171837
O O9 0.500000 0.923946 0.500000
O O10 0.373604 0.887127 0.344918
O O11 0.448953 0.008296 0.324418
O O12 0.222546 0.953580 0.644224
O O13 0.000000 0.356742 0.000000
O O14 0.500000 0.087859 0.500000
O O15 0.569525 0.119441 0.156098
O O16 0.727997 0.032294 0.166180
O O17 0.000000 0.701402 0.000000
O O18 0.897620 0.068498 0.244596
O O19 0.000000 0.975505 0.000000
O O20 0.500000 0.665236 0.000000
#
# Coordination Sequence:
#
# PCOD8048142 Si02
#       8
#     4   4   4   4   4   4   4   4
#     4  11  22  37  61  91 116 160 200 247 315 355
#     4  11  23  37  57  89 119 161 203 246 306 355
#     4   9  21  38  63  90 115 163 207 248 290 361
#     4  11  22  45  66  75 116 165 217 248 285 379
#     4   9  19  37  60  90 127 164 197 232 303 379
#     4  12  23  35  56  95 132 147 194 263 311 352
#     4   9  16  31  62  91 119 154 198 243 298 362
#     4  10  17  35  62  83 124 164 196 231 292 392
#
# _framework density 19.154547000000001
#
# number of rings (size 3 to 8) (size 9 to 14) (size 15 to 20)
#    0.000    2.000    3.750    2.250    5.250    0.500 
#    0.000    2.500    0.000    2.250    0.000    0.000 
#    0.000    0.000    0.000    0.000    0.000    0.000 
#
# Total GULP energy -198263.012362 kJ/mol
# GULP energy per Si atom -12391.438273 kJ/mol
# Density = 1.911095 g / cm^3
# Si number density = 19.154547 Si / 1000 Ang^3
#
#
#
# Elastic Constant Matrix: (Units=GPa)
#
#
# Indices 1 2 3 4 5 6 
#
# 1 109.8550 34.1713 62.0840 0.0000 -0.6993 0.0000
# 2 34.1713 94.6420 57.9918 0.0000 5.7183 0.0000
# 3 62.0840 57.9918 131.9595 0.0000 -11.1194 0.0000
# 4 0.0000 0.0000 0.0000 37.8847 0.0000 7.0527
# 5 -0.6993 5.7183 -11.1194 0.0000 37.6161 0.0000
# 6 0.0000 0.0000 0.0000 7.0527 0.0000 16.6450
#
#
#
# Elastic Compliance Matrix: (Units=1/GPa)
#
#
# Indices 1 2 3 4 5 6 
#
# 1 0.012560 -0.001060 -0.005549 0.000000 -0.001246 0.000000
# 2 -0.001060 0.015220 -0.006550 0.000000 -0.004270 0.000000
# 3 -0.005549 -0.006550 0.013478 0.000000 0.004877 0.000000
# 4 0.000000 0.000000 0.000000 0.028656 0.000000 -0.012142
# 5 -0.001246 -0.004270 0.004877 0.000000 0.028652 0.000000
# 6 0.000000 0.000000 0.000000 -0.012142 0.000000 0.065223
#
#
# Mechanical properties :
#
#
# Convention : Reuss Voigt Hill
#
# Bulk Modulus (GPa) = 66.92606 71.66121 69.29363
# Shear Modulus (GPa) = 25.62958 30.57643 28.10300
#
# Velocity S-wave (km/s) = 3.66189 3.99971 3.83452
# Velocity P-wave (km/s) = 7.27291 7.66965 7.47391
#
# Compressibility (1/GPa) = 0.01494186
#
# Stress axis : x y z
#
# Youngs Moduli (GPa) = 79.61518 65.70195 74.19524
#
# Poissons Ratio (x) = 0.06964 0.41168
# Poissons Ratio (y) = 0.08439 0.48597
# Poissons Ratio (z) = 0.44175 0.43034
#
# Static dielectric constant tensor:
#      x y z
#    x 3.494670 0.000000 -0.132820 
#    y 0.000000 3.346970 0.000000 
#    z -0.132820 0.000000 3.537090 
# 
# 
# High freq. dielectric constant tensor:
#      x y z
#    x 1.736320 0.000000 -0.016150 
#    y 0.000000 1.724440 0.000000 
#    z -0.016150 0.000000 1.745880 
# 
# From -- ./inp_files/22098.got.cif
#   From: 2010.03.12/outbox.cif.g09.slc.cpg/sg5_12_cif.got.tgz:22098.got - 2010.03.31 09:47:26.
