data_PCOD8048529
_publ_section_title
;
Structure prediction by ZEFSAII (Michael W. Deem and Ramdas Pophale) SiO2 
 PCOD8048529
Probable space group: C 2
;
_chemical_formula_sum "Si O2"
_cell_formula_units_Z 30
_cell_length_a 13.128546
_cell_length_b 25.293367
_cell_length_c 5.097678
_cell_angle_alpha 90.000000
_cell_angle_beta 61.252007
_cell_angle_gamma 90.000000
_cell_volume 1484.117483
_symmetry_space_group_name_H-M "C 2"
_symmetry_group_IT_number 5
_symmetry_cell_setting 'monoclinic'
loop_
_space_group_symop_operation_xyz
x,y,z
-x,y,-z
1/2+x,1/2+y,z
1/2-x,1/2+y,-z
loop_
_atom_site_type_symbol
_atom_site_label
_atom_site_fract_x
_atom_site_fract_y
_atom_site_fract_z
Si Si1 0.500000 0.052531 0.500000
Si Si2 0.636529 0.228990 0.359067
Si Si3 0.890698 0.634327 0.268362
Si Si4 0.792531 0.542621 0.090292
Si Si5 0.075186 0.993333 0.150386
Si Si6 0.755917 0.899698 0.140110
Si Si7 0.137779 0.788221 0.855178
Si Si8 0.136069 0.438948 0.785486
O O1 0.457576 0.086232 0.311161
O O2 0.389607 0.021627 0.756359
O O3 0.500000 0.232536 0.500000
O O4 0.671958 0.171037 0.434919
O O5 0.684855 0.271353 0.510651
O O6 0.681319 0.242429 0.010243
O O7 0.803652 0.604031 0.174196
O O8 0.000000 0.667289 0.000000
O O9 0.667557 0.539255 0.106820
O O10 0.804883 0.497729 0.299449
O O11 0.000000 0.980287 0.500000
O O12 0.136434 0.939766 0.979018
O O13 0.000000 0.015137 0.000000
O O14 0.805631 0.841669 0.118578
O O15 0.660093 0.911650 0.478910
O O16 0.694852 0.902802 0.934418
O O17 0.000000 0.795177 0.000000
O O18 0.000000 0.444137 0.000000
#
# Coordination Sequence:
#
# PCOD8048529 Si02
#       8
#     2   4   4   4   4   4   4   4
#     4  10  20  32  58  80 128 148 198 238 304 362
#     4  10  19  33  52  81 116 150 184 233 295 357
#     4  10  19  33  51  85 121 154 187 236 305 365
#     4  10  24  34  58  85 121 164 199 243 299 358
#     4  11  24  40  58  81 119 162 210 246 285 349
#     4  11  23  39  59  84 118 156 202 243 299 351
#     4  10  21  34  55  80 115 153 190 234 286 352
#     4  11  23  38  59  87 120 153 194 247 301 357
#
# _framework density 20.214034999999999
#
# number of rings (size 3 to 8) (size 9 to 14) (size 15 to 20)
#    0.000    1.600    0.667    5.600   11.200    1.600 
#    0.000    0.000    0.000    0.000    0.000    4.667 
#    4.000    0.000    0.000    0.000    0.000    0.000 
#
# Total GULP energy -185838.869180 kJ/mol
# GULP energy per Si atom -12389.257945 kJ/mol
# Density = 2.016803 g / cm^3
# Si number density = 20.214035 Si / 1000 Ang^3
#
#
#
# Elastic Constant Matrix: (Units=GPa)
#
#
# Indices 1 2 3 4 5 6 
#
# 1 102.8205 46.0332 26.7816 0.0000 3.8101 0.0000
# 2 46.0332 88.9879 14.4287 0.0000 4.6201 0.0000
# 3 26.7816 14.4287 86.0964 0.0000 11.4737 0.0000
# 4 0.0000 0.0000 0.0000 18.8281 0.0000 1.8556
# 5 3.8101 4.6201 11.4737 0.0000 29.5606 0.0000
# 6 0.0000 0.0000 0.0000 1.8556 0.0000 18.4114
#
#
#
# Elastic Compliance Matrix: (Units=1/GPa)
#
#
# Indices 1 2 3 4 5 6 
#
# 1 0.013421 -0.006456 -0.003160 0.000000 0.000506 0.000000
# 2 -0.006456 0.014692 -0.000273 0.000000 -0.001358 0.000000
# 3 -0.003160 -0.000273 0.013270 0.000000 -0.004701 0.000000
# 4 0.000000 0.000000 0.000000 0.053645 0.000000 -0.005407
# 5 0.000506 -0.001358 -0.004701 0.000000 0.035800 0.000000
# 6 0.000000 0.000000 0.000000 -0.005407 0.000000 0.054859
#
#
# Mechanical properties :
#
#
# Convention : Reuss Voigt Hill
#
# Bulk Modulus (GPa) = 46.28742 50.26577 48.27660
# Shear Modulus (GPa) = 23.51094 26.07078 24.79086
#
# Velocity S-wave (km/s) = 3.41412 3.59519 3.50582
# Velocity P-wave (km/s) = 6.20403 6.49266 6.34998
#
# Compressibility (1/GPa) = 0.02160414
#
# Stress axis : x y z
#
# Youngs Moduli (GPa) = 74.51259 68.06398 75.35769
#
# Poissons Ratio (x) = 0.43944 0.23814
# Poissons Ratio (y) = 0.48107 0.02056
# Poissons Ratio (z) = 0.23547 0.01857
#
# Static dielectric constant tensor:
#      x y z
#    x 3.904650 0.000000 0.154500 
#    y 0.000000 3.636640 0.000000 
#    z 0.154500 0.000000 4.255620 
# 
# 
# High freq. dielectric constant tensor:
#      x y z
#    x 1.777320 0.000000 0.040990 
#    y 0.000000 1.773700 0.000000 
#    z 0.040990 0.000000 1.785990 
# 
# From -- ./inp_files/6131.got.cif
#   From: 2010.03.12/outbox.cif.g09.slc.cpg/sg5_4_cif.got.tgz:6131.got - 2010.03.31 09:47:26.
