data_PCOD8048885
_publ_section_title
;
Structure prediction by ZEFSAII (Michael W. Deem and Ramdas Pophale) SiO2 
 PCOD8048885
Probable space group: C 2
;
_chemical_formula_sum "Si O2"
_cell_formula_units_Z 32
_cell_length_a 17.595850
_cell_length_b 15.164497
_cell_length_c 11.469976
_cell_angle_alpha 90.000000
_cell_angle_beta 149.978366
_cell_angle_gamma 90.000000
_cell_volume 1531.280235
_symmetry_space_group_name_H-M "C 2"
_symmetry_group_IT_number 5
_symmetry_cell_setting 'monoclinic'
loop_
_space_group_symop_operation_xyz
x,y,z
-x,y,-z
1/2+x,1/2+y,z
1/2-x,1/2+y,-z
loop_
_atom_site_type_symbol
_atom_site_label
_atom_site_fract_x
_atom_site_fract_y
_atom_site_fract_z
Si Si1 0.269319 0.365570 0.891761
Si Si2 0.808500 0.433720 0.460777
Si Si3 0.366728 0.645442 0.541787
Si Si4 0.647118 0.297243 0.617247
Si Si5 0.140953 0.631152 0.446342
Si Si6 0.070189 0.947847 0.341109
Si Si7 0.429726 0.811665 0.163729
Si Si8 0.897067 0.699390 0.968071
O O1 0.206612 0.381791 0.679769
O O2 0.133791 0.356539 0.803016
O O3 0.365883 0.275712 0.019620
O O4 0.388977 0.439657 0.088228
O O5 0.852325 0.534151 0.489697
O O6 0.652384 0.435227 0.325741
O O7 0.937500 0.378743 0.703030
O O8 0.284363 0.656062 0.556591
O O9 0.417382 0.545418 0.591265
O O10 0.506005 0.713943 0.723762
O O11 0.258601 0.661059 0.287721
O O12 0.500000 0.309902 0.500000
O O13 0.636416 0.202010 0.542843
O O14 0.649636 0.377536 0.530590
O O15 0.801033 0.302840 0.895625
O O16 0.991087 0.627224 0.165744
O O17 0.000000 0.737532 0.000000
#
# Coordination Sequence:
#
# PCOD8048885 Si02
#       8
#     4   4   4   4   4   4   4   4
#     4  12  23  44  66  96 135 176 219 272 330 389
#     4  11  25  42  71 103 127 171 228 279 323 382
#     4  10  24  42  69 101 130 174 226 275 325 385
#     4  12  25  46  64  94 139 179 214 267 341 403
#     4  10  23  43  68  99 132 176 223 272 331 390
#     4  11  24  46  69  96 134 178 221 266 333 400
#     4  12  26  44  64 101 137 170 222 274 333 386
#     4  10  19  40  68  94 128 172 221 269 324 387
#
# _framework density 20.897545999999998
#
# number of rings (size 3 to 8) (size 9 to 14) (size 15 to 20)
#    0.000    1.000    3.750    2.250    3.500    3.000 
#    4.500    0.000    0.000    0.000    0.000    0.000 
#    0.000    0.000    0.000    0.000    0.000    0.000 
#
# Total GULP energy -198422.497239 kJ/mol
# GULP energy per Si atom -12401.406077 kJ/mol
# Density = 2.084998 g / cm^3
# Si number density = 20.897546 Si / 1000 Ang^3
#
#
#
# Elastic Constant Matrix: (Units=GPa)
#
#
# Indices 1 2 3 4 5 6 
#
# 1 64.7385 29.5024 22.4218 0.0000 -1.4969 0.0000
# 2 29.5024 136.3163 41.3537 0.0000 1.8069 0.0000
# 3 22.4218 41.3537 136.1732 0.0000 0.1993 0.0000
# 4 0.0000 0.0000 0.0000 26.9100 0.0000 8.9308
# 5 -1.4969 1.8069 0.1993 0.0000 30.2466 0.0000
# 6 0.0000 0.0000 0.0000 8.9308 0.0000 17.0336
#
#
#
# Elastic Compliance Matrix: (Units=1/GPa)
#
#
# Indices 1 2 3 4 5 6 
#
# 1 0.017614 -0.003245 -0.001916 0.000000 0.001078 0.000000
# 2 -0.003245 0.008685 -0.002102 0.000000 -0.000666 0.000000
# 3 -0.001916 -0.002102 0.008298 0.000000 -0.000024 0.000000
# 4 0.000000 0.000000 0.000000 0.044989 0.000000 -0.023588
# 5 0.001078 -0.000666 -0.000024 0.000000 0.033155 0.000000
# 6 0.000000 0.000000 0.000000 -0.023588 0.000000 0.071075
#
#
# Mechanical properties :
#
#
# Convention : Reuss Voigt Hill
#
# Bulk Modulus (GPa) = 49.82731 58.19822 54.01276
# Shear Modulus (GPa) = 24.38637 31.10137 27.74387
#
# Velocity S-wave (km/s) = 3.41977 3.86201 3.64760
# Velocity P-wave (km/s) = 6.28399 6.91351 6.60625
#
# Compressibility (1/GPa) = 0.02006932
#
# Stress axis : x y z
#
# Youngs Moduli (GPa) = 56.77213 115.14448 120.51743
#
# Poissons Ratio (x) = 0.37366 0.23096
# Poissons Ratio (y) = 0.18423 0.25334
# Poissons Ratio (z) = 0.10880 0.24205
#
# Static dielectric constant tensor:
#      x y z
#    x 3.727270 0.000000 0.100880 
#    y 0.000000 3.842520 0.000000 
#    z 0.100880 0.000000 3.903640 
# 
# 
# High freq. dielectric constant tensor:
#      x y z
#    x 1.811920 0.000000 0.002790 
#    y 0.000000 1.824180 0.000000 
#    z 0.002790 0.000000 1.831090 
# 
# From -- ./inp_files/44999.got.cif
#   From: 2010.03.12/outbox.cif.g09.slc.cpg/sg5_23_cif.got.tgz:44999.got - 2010.03.31 09:47:26.
