data_PCOD8048063
_publ_section_title
;
Structure prediction by ZEFSAII (Michael W. Deem and Ramdas Pophale) SiO2 
 PCOD8048063
Probable space group: C 2
;
_chemical_formula_sum "Si O2"
_cell_formula_units_Z 24
_cell_length_a 9.221633
_cell_length_b 16.871762
_cell_length_c 15.635811
_cell_angle_alpha 90.000000
_cell_angle_beta 33.215122
_cell_angle_gamma 90.000000
_cell_volume 1332.594664
_symmetry_space_group_name_H-M "C 2"
_symmetry_group_IT_number 5
_symmetry_cell_setting 'monoclinic'
loop_
_space_group_symop_operation_xyz
x,y,z
-x,y,-z
1/2+x,1/2+y,z
1/2-x,1/2+y,-z
loop_
_atom_site_type_symbol
_atom_site_label
_atom_site_fract_x
_atom_site_fract_y
_atom_site_fract_z
Si Si1 0.850969 0.910790 0.663231
Si Si2 0.500000 0.162959 0.500000
Si Si3 0.214019 0.584410 0.743196
Si Si4 0.500000 0.187902 0.000000
Si Si5 0.478871 0.782795 0.255289
Si Si6 0.809271 0.320274 0.517966
Si Si7 0.303957 0.140701 0.425552
O O1 0.609927 0.848646 0.770082
O O2 0.000000 0.925760 0.500000
O O3 0.062829 0.880190 0.628318
O O4 0.724643 0.991721 0.761025
O O5 0.477078 0.112995 0.423077
O O6 0.758822 0.215612 0.366009
O O7 0.503358 0.620862 0.595228
O O8 0.083083 0.595467 0.713466
O O9 0.050173 0.631448 0.894623
O O10 0.258300 0.244749 0.093036
O O11 0.492275 0.820816 0.343052
O O12 0.679971 0.234569 0.600092
O O13 0.000000 0.348885 0.500000
#
# Coordination Sequence:
#
# PCOD8048063 Si02
#       7
#     4   2   4   2   4   4   4
#     4  10  19  36  60  84 114 154 197 244 291 337
#     4  10  16  34  62  92 104 146 210 248 262 346
#     4  11  21  36  58  87 120 157 186 245 302 346
#     4  12  22  38  60  88 120 158 194 238 302 352
#     4  10  19  35  61  83 116 155 195 239 293 351
#     4  10  16  32  60  92 108 144 207 246 268 347
#     4  10  17  34  62  86 108 152 205 234 275 346
#
# _framework density 18.009978
#
# number of rings (size 3 to 8) (size 9 to 14) (size 15 to 20)
#    0.000    1.667   10.833    0.000    0.000    0.000 
#    1.500    4.167    3.667    0.000    0.000    0.000 
#    0.000    0.000    0.000    0.000    0.000    0.000 
#
# Total GULP energy -148745.268335 kJ/mol
# GULP energy per Si atom -12395.439028 kJ/mol
# Density = 1.796899 g / cm^3
# Si number density = 18.009978 Si / 1000 Ang^3
#
#
#
# Elastic Constant Matrix: (Units=GPa)
#
#
# Indices 1 2 3 4 5 6 
#
# 1 170.7097 51.0300 44.0449 0.1463 -6.5219 -0.0656
# 2 51.0300 106.3306 42.6497 0.2377 -6.2049 -0.1237
# 3 44.0449 42.6497 91.4507 0.1907 -3.8183 -0.0745
# 4 0.1463 0.2377 0.1907 15.4090 -0.1471 0.0086
# 5 -6.5219 -6.2049 -3.8183 -0.1471 24.2418 0.0616
# 6 -0.0656 -0.1237 -0.0745 0.0086 0.0616 23.6663
#
#
#
# Elastic Compliance Matrix: (Units=1/GPa)
#
#
# Indices 1 2 3 4 5 6 
#
# 1 0.007229 -0.002501 -0.002276 0.000007 0.000946 -0.000003
# 2 -0.002501 0.012544 -0.004569 -0.000096 0.001817 0.000040
# 3 -0.002276 -0.004569 0.014181 -0.000079 0.000451 0.000013
# 4 0.000007 -0.000096 -0.000079 0.064903 0.000359 -0.000025
# 5 0.000946 0.001817 0.000451 0.000359 0.042044 -0.000096
# 6 -0.000003 0.000040 0.000013 -0.000025 -0.000096 0.042255
#
#
# Mechanical properties :
#
#
# Convention : Reuss Voigt Hill
#
# Bulk Modulus (GPa) = 65.52508 71.54893 68.53700
# Shear Modulus (GPa) = 24.16209 28.04783 26.10496
#
# Velocity S-wave (km/s) = 3.66675 3.95061 3.81132
# Velocity P-wave (km/s) = 7.37485 7.78610 7.58326
#
# Compressibility (1/GPa) = 0.01526133
#
# Stress axis : x y z
#
# Youngs Moduli (GPa) = 138.33396 79.71811 70.51755
#
# Poissons Ratio (x) = 0.19940 0.16047
# Poissons Ratio (y) = 0.34602 0.32222
# Poissons Ratio (z) = 0.31479 0.36426
#
# Static dielectric constant tensor:
#      x y z
#    x 3.909000 0.000170 0.032530 
#    y 0.000170 3.372480 -0.000040 
#    z 0.032530 -0.000040 2.907510 
# 
# 
# High freq. dielectric constant tensor:
#      x y z
#    x 1.710990 0.000000 -0.006610 
#    y 0.000000 1.687870 0.000010 
#    z -0.006610 0.000010 1.653230 
# 
# From -- ./inp_files/59810.got.cif
#   From: 2010.03.12/outbox.cif.g09.slc.cpg/sg5_30_cif.got.tgz:59810.got - 2010.03.31 09:47:26.
