data_PCOD8048260
_publ_section_title
;
Structure prediction by ZEFSAII (Michael W. Deem and Ramdas Pophale) SiO2 
 PCOD8048260
Probable space group: C 2
;
_chemical_formula_sum "Si O2"
_cell_formula_units_Z 32
_cell_length_a 21.499916
_cell_length_b 12.606174
_cell_length_c 22.922827
_cell_angle_alpha 90.000000
_cell_angle_beta 17.430471
_cell_angle_gamma 90.000000
_cell_volume 1861.036966
_symmetry_space_group_name_H-M "C 2"
_symmetry_group_IT_number 5
_symmetry_cell_setting 'monoclinic'
loop_
_space_group_symop_operation_xyz
x,y,z
-x,y,-z
1/2+x,1/2+y,z
1/2-x,1/2+y,-z
loop_
_atom_site_type_symbol
_atom_site_label
_atom_site_fract_x
_atom_site_fract_y
_atom_site_fract_z
Si Si1 0.165090 0.518660 0.544397
Si Si2 0.636419 0.158423 0.730579
Si Si3 0.997269 0.006774 0.435909
Si Si4 0.545168 0.704462 0.728169
Si Si5 0.674888 0.186444 0.889922
Si Si6 0.589061 0.193854 0.184441
Si Si7 0.364216 0.367864 0.456275
Si Si8 0.454341 0.805713 0.401577
O O1 0.364753 0.586248 0.345203
O O2 0.239974 0.464390 0.537530
O O3 0.961174 0.595570 0.727580
O O4 0.097257 0.428815 0.559381
O O5 0.553654 0.152457 0.739796
O O6 0.773628 0.058217 0.625186
O O7 0.783830 0.262061 0.599987
O O8 0.436689 0.161182 0.949967
O O9 0.188815 0.085943 0.252752
O O10 0.000000 0.965715 0.500000
O O11 0.006809 0.907973 0.382461
O O12 0.691338 0.784831 0.633689
O O13 0.544117 0.740796 0.661222
O O14 0.324387 0.706180 0.956015
O O15 0.821614 0.288488 0.768787
O O16 0.500000 0.216750 0.000000
O O17 0.513774 0.307589 0.276109
#
# Coordination Sequence:
#
# PCOD8048260 Si02
#       8
#     4   4   4   4   4   4   4   4
#     4  10  18  34  50  79 112 140 181 220 279 332
#     4  11  19  34  52  79 117 144 174 223 272 324
#     4  11  22  38  57  82 115 153 180 222 276 340
#     4  10  20  33  50  80 111 143 180 228 275 326
#     4  11  22  35  53  83 112 142 185 223 271 335
#     4  11  20  33  55  81 114 143 179 235 276 325
#     4  10  21  35  50  83 113 141 184 225 279 340
#     4  10  20  33  52  77 110 147 178 224 279 329
#
# _framework density 17.194714999999999
#
# number of rings (size 3 to 8) (size 9 to 14) (size 15 to 20)
#    0.000    1.500    7.500    0.750    0.000    4.000 
#    0.000    0.000    0.000    0.000   19.500    0.000 
#    0.000    0.000    0.000    0.000    0.000    0.000 
#
# Total GULP energy -198261.004168 kJ/mol
# GULP energy per Si atom -12391.312761 kJ/mol
# Density = 1.715558 g / cm^3
# Si number density = 17.194715 Si / 1000 Ang^3
#
#
#
# Elastic Constant Matrix: (Units=GPa)
#
#
# Indices 1 2 3 4 5 6 
#
# 1 88.9098 37.7036 18.5659 0.0631 -10.3290 -0.0117
# 2 37.7036 91.9180 35.7633 0.3149 -6.9858 -0.0680
# 3 18.5659 35.7633 126.5556 0.3226 -8.3212 -0.0395
# 4 0.0631 0.3149 0.3226 16.9348 -0.0965 -4.3065
# 5 -10.3290 -6.9858 -8.3212 -0.0965 27.2795 -0.0069
# 6 -0.0117 -0.0680 -0.0395 -4.3065 -0.0069 25.2173
#
#
#
# Elastic Compliance Matrix: (Units=1/GPa)
#
#
# Indices 1 2 3 4 5 6 
#
# 1 0.014023 -0.005345 -0.000294 0.000076 0.003851 0.000006
# 2 -0.005345 0.014382 -0.003236 -0.000182 0.000672 0.000000
# 3 -0.000294 -0.003236 0.008978 -0.000103 0.001798 -0.000012
# 4 0.000076 -0.000182 -0.000103 0.061737 0.000172 0.010542
# 5 0.003851 0.000672 0.001798 0.000172 0.038837 0.000046
# 6 0.000006 0.000000 -0.000012 0.010542 0.000046 0.041456
#
#
# Mechanical properties :
#
#
# Convention : Reuss Voigt Hill
#
# Bulk Modulus (GPa) = 50.93232 54.60545 52.76888
# Shear Modulus (GPa) = 24.54523 28.24305 26.39414
#
# Velocity S-wave (km/s) = 3.78231 4.05723 3.92218
# Velocity P-wave (km/s) = 6.98281 7.33309 7.16009
#
# Compressibility (1/GPa) = 0.01963390
#
# Stress axis : x y z
#
# Youngs Moduli (GPa) = 71.31249 69.52956 111.38881
#
# Poissons Ratio (x) = 0.37166 0.03270
# Poissons Ratio (y) = 0.38119 0.36040
# Poissons Ratio (z) = 0.02094 0.22496
#
# Static dielectric constant tensor:
#      x y z
#    x 3.131000 -0.000080 -0.056290 
#    y -0.000080 3.221370 0.000190 
#    z -0.056290 0.000190 3.409610 
# 
# 
# High freq. dielectric constant tensor:
#      x y z
#    x 1.637520 0.000000 -0.009140 
#    y 0.000000 1.653540 0.000010 
#    z -0.009140 0.000010 1.674260 
# 
# From -- ./inp_files/67132.got.cif
#   From: 2010.03.12/outbox.cif.g09.slc.cpg/sg5_34_cif.got.tgz:67132.got - 2010.03.31 09:47:26.
