data_PCOD8048739
_publ_section_title
;
Structure prediction by ZEFSAII (Michael W. Deem and Ramdas Pophale) SiO2 
 PCOD8048739
Probable space group: C 2
;
_chemical_formula_sum "Si O2"
_cell_formula_units_Z 24
_cell_length_a 18.639986
_cell_length_b 16.136406
_cell_length_c 7.511712
_cell_angle_alpha 90.000000
_cell_angle_beta 32.282461
_cell_angle_gamma 90.000000
_cell_volume 1206.726026
_symmetry_space_group_name_H-M "C 2"
_symmetry_group_IT_number 5
_symmetry_cell_setting 'monoclinic'
loop_
_space_group_symop_operation_xyz
x,y,z
-x,y,-z
1/2+x,1/2+y,z
1/2-x,1/2+y,-z
loop_
_atom_site_type_symbol
_atom_site_label
_atom_site_fract_x
_atom_site_fract_y
_atom_site_fract_z
Si Si1 0.398523 0.603070 0.557461
Si Si2 0.518709 0.425485 0.671348
Si Si3 0.852770 0.525531 0.773843
Si Si4 0.720023 0.917257 0.392937
Si Si5 0.702255 0.882947 0.832781
Si Si6 0.466850 0.775395 0.270498
O O1 0.500000 0.620424 0.500000
O O2 0.435968 0.519322 0.371146
O O3 0.411295 0.683279 0.408706
O O4 0.250343 0.597087 0.952965
O O5 0.500000 0.421406 0.500000
O O6 0.637957 0.362778 0.482714
O O7 0.380772 0.403558 0.058121
O O8 0.822862 0.498913 0.630613
O O9 0.000000 0.562820 0.500000
O O10 0.836352 0.447332 0.935465
O O11 0.673001 0.922471 0.697780
O O12 0.651870 0.839886 0.433476
O O13 0.607938 0.802121 0.071021
O O14 0.500000 0.786769 0.000000
#
# Coordination Sequence:
#
# PCOD8048739 Si02
#       6
#     4   4   4   4   4   4
#     4  10  21  37  57  85 119 155 192 234 301 352
#     4  10  19  37  60  90 116 153 199 239 292 345
#     4  11  21  38  61  86 119 152 201 246 290 346
#     4  11  20  37  60  89 117 152 200 244 283 356
#     4  10  21  35  60  90 114 156 195 246 290 338
#     4  10  23  38  59  89 118 154 197 238 299 353
#
# _framework density 19.888525999999999
#
# number of rings (size 3 to 8) (size 9 to 14) (size 15 to 20)
#    0.000    1.667    6.667    0.500    2.333    2.667 
#    0.000    2.500    0.000    0.000    0.000    0.000 
#    0.000    0.000    0.000    0.000    0.000    0.000 
#
# Total GULP energy -148684.472002 kJ/mol
# GULP energy per Si atom -12390.372667 kJ/mol
# Density = 1.984326 g / cm^3
# Si number density = 19.888526 Si / 1000 Ang^3
#
#
#
# Elastic Constant Matrix: (Units=GPa)
#
#
# Indices 1 2 3 4 5 6 
#
# 1 71.7932 17.9794 29.8456 0.0011 -17.4702 -0.0009
# 2 17.9794 73.9485 41.0502 0.0005 -16.1614 -0.0004
# 3 29.8456 41.0502 115.0073 0.0020 -35.9844 -0.0018
# 4 0.0011 0.0005 0.0020 1426.3147 -0.0012-1242.8444
# 5 -17.4702 -16.1614 -35.9844 -0.0012 48.9051 0.0011
# 6 -0.0009 -0.0004 -0.0018-1242.8444 0.0011 1114.6487
#
#
#
# Elastic Compliance Matrix: (Units=1/GPa)
#
#
# Indices 1 2 3 4 5 6 
#
# 1 0.016247 -0.001820 -0.002519 0.000000 0.003349 0.000000
# 2 -0.001820 0.017152 -0.005300 0.000000 0.001118 0.000000
# 3 -0.002519 -0.005300 0.013525 0.000000 0.007300 0.000000
# 4 0.000000 0.000000 0.000000 0.024672 0.000000 0.027510
# 5 0.003349 0.001118 0.007300 0.000000 0.027385 0.000000
# 6 0.000000 0.000000 0.000000 0.027510 0.000000 0.031571
#
#
# Mechanical properties :
#
#
# Convention : Reuss Voigt Hill
#
# Bulk Modulus (GPa) = 36.17162 48.72213 42.44687
# Shear Modulus (GPa) = 31.43773 529.43198 280.43485
#
# Velocity S-wave (km/s) = 3.98011 16.33333 11.88736
# Velocity P-wave (km/s) = 6.27283 19.50011 14.48452
#
# Compressibility (1/GPa) = 0.02764599
#
# Stress axis : x y z
#
# Youngs Moduli (GPa) = 61.55093 58.30258 73.93936
#
# Poissons Ratio (x) = 0.10611 0.18623
# Poissons Ratio (y) = 0.11202 0.39187
# Poissons Ratio (z) = 0.15503 0.30900
#
# Static dielectric constant tensor:
#      x y z
#    x 0.000000 0.000000 0.000000 
#    y 0.000000 0.000000 0.000000 
#    z 0.000000 0.000000 0.000000 
# 
# 
# High freq. dielectric constant tensor:
#      x y z
#    x 1.785580 0.000000 -0.008990 
#    y 0.000000 1.725980 0.000000 
#    z -0.008990 0.000000 1.792410 
# 
# From -- ./inp_files/29962.got.cif
#   From: 2010.03.12/outbox.cif.g09.slc.cpg/sg5_15_cif.got.tgz:29962.got - 2010.03.31 09:47:26.
