data_PCOD8048292
_publ_section_title
;
Structure prediction by ZEFSAII (Michael W. Deem and Ramdas Pophale) SiO2 
 PCOD8048292
Probable space group: C 2
;
_chemical_formula_sum "Si O2"
_cell_formula_units_Z 30
_cell_length_a 18.350234
_cell_length_b 14.907530
_cell_length_c 12.173944
_cell_angle_alpha 90.000000
_cell_angle_beta 28.492746
_cell_angle_gamma 90.000000
_cell_volume 1588.693856
_symmetry_space_group_name_H-M "C 2"
_symmetry_group_IT_number 5
_symmetry_cell_setting 'monoclinic'
loop_
_space_group_symop_operation_xyz
x,y,z
-x,y,-z
1/2+x,1/2+y,z
1/2-x,1/2+y,-z
loop_
_atom_site_type_symbol
_atom_site_label
_atom_site_fract_x
_atom_site_fract_y
_atom_site_fract_z
Si Si1 0.637263 0.260740 0.387215
Si Si2 0.331505 0.768883 0.718495
Si Si3 0.900862 0.548296 0.237995
Si Si4 0.351355 0.843293 0.270260
Si Si5 0.000000 0.438703 0.500000
Si Si6 0.159941 0.198320 0.522114
Si Si7 0.473447 0.086506 0.700032
Si Si8 0.309886 0.683815 0.965990
O O1 0.500000 0.307429 0.500000
O O2 0.700244 0.327128 0.396766
O O3 0.574487 0.169522 0.524461
O O4 0.776262 0.240938 0.119734
O O5 0.500000 0.724759 0.500000
O O6 0.347671 0.876735 0.707491
O O7 0.261747 0.737512 0.693606
O O8 0.245252 0.735201 0.941895
O O9 0.845617 0.445604 0.318816
O O10 0.754644 0.613132 0.438015
O O11 0.012964 0.572520 0.188742
O O12 0.000000 0.566700 0.000000
O O13 0.344957 0.777590 0.382633
O O14 0.500000 0.823410 0.000000
O O15 0.030438 0.496183 0.567853
O O16 0.988670 0.162356 0.727305
O O17 0.296315 0.095522 0.896203
#
# Coordination Sequence:
#
# PCOD8048292 Si02
#       8
#     4   4   4   4   2   4   4   4
#     4  10  20  37  62  88 119 156 197 252 304 348
#     4   8  19  32  54  84 113 147 192 237 289 343
#     4  11  25  38  61  89 122 161 200 245 306 360
#     4  11  22  39  63  90 118 161 210 243 300 367
#     4  10  18  34  60  90 108 150 202 244 280 362
#     4  11  20  40  62  85 123 159 201 249 297 362
#     4  11  20  37  60  90 121 152 198 249 301 354
#     4  10  19  36  61  87 112 159 197 241 304 352
#
# _framework density 18.883437000000001
#
# number of rings (size 3 to 8) (size 9 to 14) (size 15 to 20)
#    0.400    1.333    4.667    1.600    0.000    0.000 
#    0.000    7.333    0.000    0.000    0.000    0.000 
#    0.000    0.000    0.000    0.000    0.000    0.000 
#
# Total GULP energy -185870.701620 kJ/mol
# GULP energy per Si atom -12391.380108 kJ/mol
# Density = 1.884046 g / cm^3
# Si number density = 18.883437 Si / 1000 Ang^3
#
#
#
# Elastic Constant Matrix: (Units=GPa)
#
#
# Indices 1 2 3 4 5 6 
#
# 1 121.5154 37.9937 28.9798 0.0001 7.6771 -0.0001
# 2 37.9937 96.8280 32.3222 0.0002 -0.6521 -0.0001
# 3 28.9798 32.3222 59.4302 0.0001 5.6120 -0.0002
# 4 0.0001 0.0002 0.0001 17.9249 -0.0001 3.1981
# 5 7.6771 -0.6521 5.6120 -0.0001 37.3644 0.0001
# 6 -0.0001 -0.0001 -0.0002 3.1981 0.0001 31.1528
#
#
#
# Elastic Compliance Matrix: (Units=1/GPa)
#
#
# Indices 1 2 3 4 5 6 
#
# 1 0.009983 -0.002877 -0.003150 0.000000 -0.001628 0.000000
# 2 -0.002877 0.013507 -0.006108 0.000000 0.001744 0.000000
# 3 -0.003150 -0.006108 0.021944 0.000000 -0.002755 0.000000
# 4 0.000000 0.000000 0.000000 0.056829 0.000000 -0.005834
# 5 -0.001628 0.001744 -0.002755 0.000000 0.027542 0.000000
# 6 0.000000 0.000000 0.000000 -0.005834 0.000000 0.032699
#
#
# Mechanical properties :
#
#
# Convention : Reuss Voigt Hill
#
# Bulk Modulus (GPa) = 47.24619 52.92944 50.08781
# Shear Modulus (GPa) = 25.79602 29.18695 27.49149
#
# Velocity S-wave (km/s) = 3.70004 3.93573 3.81970
# Velocity P-wave (km/s) = 6.58240 6.98167 6.78497
#
# Compressibility (1/GPa) = 0.02116573
#
# Stress axis : x y z
#
# Youngs Moduli (GPa) = 100.17160 74.03558 45.56965
#
# Poissons Ratio (x) = 0.21298 0.14353
# Poissons Ratio (y) = 0.28816 0.27834
# Poissons Ratio (z) = 0.31550 0.45221
#
# Static dielectric constant tensor:
#      x y z
#    x 3.673140 0.000000 0.171770 
#    y 0.000000 3.264720 0.000000 
#    z 0.171770 0.000000 3.383720 
# 
# 
# High freq. dielectric constant tensor:
#      x y z
#    x 1.750430 0.000000 0.018740 
#    y 0.000000 1.716430 0.000000 
#    z 0.018740 0.000000 1.722350 
# 
# From -- ./inp_files/44888.got.cif
#   From: 2010.03.12/outbox.cif.g09.slc.cpg/sg5_23_cif.got.tgz:44888.got - 2010.03.31 09:47:26.
