data_PCOD8048334
_publ_section_title
;
Structure prediction by ZEFSAII (Michael W. Deem and Ramdas Pophale) SiO2 
 PCOD8048334
Probable space group: C 2
;
_chemical_formula_sum "Si O2"
_cell_formula_units_Z 28
_cell_length_a 13.669957
_cell_length_b 12.927083
_cell_length_c 8.486993
_cell_angle_alpha 90.000000
_cell_angle_beta 105.672447
_cell_angle_gamma 90.000000
_cell_volume 1444.000782
_symmetry_space_group_name_H-M "C 2"
_symmetry_group_IT_number 5
_symmetry_cell_setting 'monoclinic'
loop_
_space_group_symop_operation_xyz
x,y,z
-x,y,-z
1/2+x,1/2+y,z
1/2-x,1/2+y,-z
loop_
_atom_site_type_symbol
_atom_site_label
_atom_site_fract_x
_atom_site_fract_y
_atom_site_fract_z
Si Si1 0.003233 0.573850 0.168716
Si Si2 0.930205 0.234189 0.337267
Si Si3 0.600512 0.223661 0.457909
Si Si4 0.297646 0.073967 0.264221
Si Si5 0.891304 0.163195 0.992507
Si Si6 0.232986 0.366276 0.559897
Si Si7 0.906994 0.357647 0.780602
O O1 0.892870 0.550174 0.193699
O O2 0.070750 0.636106 0.320739
O O3 0.060806 0.469143 0.143669
O O4 0.000000 0.635664 0.000000
O O5 0.833159 0.285525 0.372028
O O6 0.000000 0.174505 0.500000
O O7 0.004064 0.320197 0.296569
O O8 0.885392 0.161837 0.180068
O O9 0.500000 0.265812 0.500000
O O10 0.678904 0.172349 0.615713
O O11 0.652609 0.321292 0.395528
O O12 0.200107 0.096045 0.114157
O O13 0.269283 0.977354 0.360324
O O14 0.889141 0.279992 0.919477
O O15 0.000000 0.111011 0.000000
O O16 0.195468 0.372548 0.363794
#
# Coordination Sequence:
#
# PCOD8048334 Si02
#       7
#     4   4   4   4   4   4   4
#     4  11  22  37  60  96 120 153 205 257 295 359
#     4   9  19  32  59  92 115 150 195 256 303 349
#     4  10  23  40  61  86 124 163 200 246 306 365
#     4  11  22  39  65  88 122 164 202 249 304 363
#     4  10  21  38  60  89 124 159 200 253 308 355
#     4  11  20  37  63  88 121 159 200 247 311 354
#     4  10  18  35  62  90 118 149 202 260 296 342
#
# _framework density 19.390571999999999
#
# number of rings (size 3 to 8) (size 9 to 14) (size 15 to 20)
#    0.000    1.714    4.286    1.286    2.000    0.000 
#    0.000    0.714    9.429    0.000    0.000    0.000 
#    0.000    0.000    0.000    0.000    0.000    0.000 
#
# Total GULP energy -173541.489420 kJ/mol
# GULP energy per Si atom -12395.820673 kJ/mol
# Density = 1.934644 g / cm^3
# Si number density = 19.390572 Si / 1000 Ang^3
#
#
#
# Elastic Constant Matrix: (Units=GPa)
#
#
# Indices 1 2 3 4 5 6 
#
# 1 93.9297 49.2100 44.1208 0.0000 11.9575 0.0000
# 2 49.2100 53.5616 24.2305 0.0000 3.2291 0.0000
# 3 44.1208 24.2305 139.6302 0.0000 11.0214 0.0000
# 4 0.0000 0.0000 0.0000 24.2630 0.0000 0.5846
# 5 11.9575 3.2291 11.0214 0.0000 35.7834 0.0000
# 6 0.0000 0.0000 0.0000 0.5846 0.0000 22.1944
#
#
#
# Elastic Compliance Matrix: (Units=1/GPa)
#
#
# Indices 1 2 3 4 5 6 
#
# 1 0.023016 -0.019247 -0.003549 0.000000 -0.004861 0.000000
# 2 -0.019247 0.036377 -0.000491 0.000000 0.003300 0.000000
# 3 -0.003549 -0.000491 0.008477 0.000000 -0.001381 0.000000
# 4 0.000000 0.000000 0.000000 0.041241 0.000000 -0.001086
# 5 -0.004861 0.003300 -0.001381 0.000000 0.029698 0.000000
# 6 0.000000 0.000000 0.000000 -0.001086 0.000000 0.045085
#
#
# Mechanical properties :
#
#
# Convention : Reuss Voigt Hill
#
# Bulk Modulus (GPa) = 46.95895 58.02712 52.49304
# Shear Modulus (GPa) = 21.04664 27.75217 24.39940
#
# Velocity S-wave (km/s) = 3.29812 3.78725 3.55112
# Velocity P-wave (km/s) = 6.22684 7.00819 6.62904
#
# Compressibility (1/GPa) = 0.02129519
#
# Stress axis : x y z
#
# Youngs Moduli (GPa) = 43.44844 27.48989 117.96070
#
# Poissons Ratio (x) = 0.52911 0.41862
# Poissons Ratio (y) = 0.83627 0.05795
# Poissons Ratio (z) = 0.15419 0.01351
#
# Static dielectric constant tensor:
#      x y z
#    x 3.512360 0.000000 0.072940 
#    y 0.000000 3.108830 0.000000 
#    z 0.072940 0.000000 3.875560 
# 
# 
# High freq. dielectric constant tensor:
#      x y z
#    x 1.752830 0.000000 0.004050 
#    y 0.000000 1.712780 0.000000 
#    z 0.004050 0.000000 1.777950 
# 
# From -- ./inp_files/20325.got.cif
#   From: 2010.03.12/outbox.cif.g09.slc.cpg/sg5_11_cif.got.tgz:20325.got - 2010.03.31 09:47:26.
