data_PCOD8048347
_publ_section_title
;
Structure prediction by ZEFSAII (Michael W. Deem and Ramdas Pophale) SiO2 
 PCOD8048347
Probable space group: C 2
;
_chemical_formula_sum "Si O2"
_cell_formula_units_Z 32
_cell_length_a 24.691376
_cell_length_b 9.543004
_cell_length_c 18.435552
_cell_angle_alpha 90.000000
_cell_angle_beta 158.435956
_cell_angle_gamma 90.000000
_cell_volume 1596.586069
_symmetry_space_group_name_H-M "C 2"
_symmetry_group_IT_number 5
_symmetry_cell_setting 'monoclinic'
loop_
_space_group_symop_operation_xyz
x,y,z
-x,y,-z
1/2+x,1/2+y,z
1/2-x,1/2+y,-z
loop_
_atom_site_type_symbol
_atom_site_label
_atom_site_fract_x
_atom_site_fract_y
_atom_site_fract_z
Si Si1 0.404385 0.474960 0.634189
Si Si2 0.040412 0.708809 0.840207
Si Si3 0.168694 0.525410 0.733266
Si Si4 0.848597 0.207083 0.459244
Si Si5 0.883110 0.420441 0.634652
Si Si6 0.110361 0.836870 0.075776
Si Si7 0.615221 0.718239 0.937522
Si Si8 0.343484 0.778631 0.175958
O O1 0.490493 0.331759 0.722167
O O2 0.339197 0.553820 0.483502
O O3 0.272177 0.428063 0.520677
O O4 0.520363 0.575298 0.818807
O O5 0.942065 0.576926 0.697019
O O6 0.017738 0.767929 0.894354
O O7 0.213560 0.678070 0.043968
O O8 0.270604 0.454644 0.798517
O O9 0.177342 0.434945 0.818114
O O10 0.000000 0.543813 0.500000
O O11 0.237490 0.680440 0.834040
O O12 0.857288 0.335456 0.527878
O O13 0.706784 0.213509 0.231964
O O14 0.000204 0.216418 0.601567
O O15 0.007324 0.337074 0.837387
O O16 0.000000 0.897868 0.000000
O O17 0.661899 0.778391 0.917516
#
# Coordination Sequence:
#
# PCOD8048347 Si02
#       8
#     4   4   4   4   4   4   4   4
#     4  10  18  36  56  89 115 154 200 250 295 357
#     4  11  21  34  63  83 117 161 197 241 310 360
#     4  11  21  39  64  87 121 166 204 249 307 366
#     4  10  22  34  60  86 118 153 199 253 292 356
#     4  10  21  35  57  86 118 156 198 252 304 357
#     4  11  21  36  59  89 120 160 201 245 299 368
#     4  10  22  36  61  88 125 151 205 258 299 358
#     4   9  20  34  57  86 115 146 199 250 296 349
#
# _framework density 20.042764999999999
#
# number of rings (size 3 to 8) (size 9 to 14) (size 15 to 20)
#    0.000    2.000    3.750    3.000    3.500    0.000 
#    0.000    0.000    8.250    0.750    0.000    0.000 
#    0.000    0.000    0.000    0.000    0.000    0.000 
#
# Total GULP energy -198244.243384 kJ/mol
# GULP energy per Si atom -12390.265212 kJ/mol
# Density = 1.999715 g / cm^3
# Si number density = 20.042765 Si / 1000 Ang^3
#
#
#
# Elastic Constant Matrix: (Units=GPa)
#
#
# Indices 1 2 3 4 5 6 
#
# 1 82.6154 25.0091 40.5880 0.0000 21.0918 0.0000
# 2 25.0091 105.2143 36.7184 0.0000 -2.1317 0.0000
# 3 40.5880 36.7184 103.2624 0.0000 7.9649 0.0000
# 4 0.0000 0.0000 0.0000 27.9306 0.0000 -3.2693
# 5 21.0918 -2.1317 7.9649 0.0000 37.3015 0.0000
# 6 0.0000 0.0000 0.0000 -3.2693 0.0000 18.9995
#
#
#
# Elastic Compliance Matrix: (Units=1/GPa)
#
#
# Indices 1 2 3 4 5 6 
#
# 1 0.017851 -0.002538 -0.005413 0.000000 -0.009083 0.000000
# 2 -0.002538 0.011291 -0.003231 0.000000 0.002770 0.000000
# 3 -0.005413 -0.003231 0.012952 0.000000 0.000111 0.000000
# 4 0.000000 0.000000 0.000000 0.036539 0.000000 0.006287
# 5 -0.009083 0.002770 0.000111 0.000000 0.032079 0.000000
# 6 0.000000 0.000000 0.000000 0.006287 0.000000 0.053715
#
#
# Mechanical properties :
#
#
# Convention : Reuss Voigt Hill
#
# Bulk Modulus (GPa) = 50.68520 55.08034 52.88277
# Shear Modulus (GPa) = 25.85730 29.43143 27.64437
#
# Velocity S-wave (km/s) = 3.59570 3.83617 3.71788
# Velocity P-wave (km/s) = 6.52550 6.86751 6.69869
#
# Compressibility (1/GPa) = 0.01972963
#
# Stress axis : x y z
#
# Youngs Moduli (GPa) = 56.01938 88.56274 77.20652
#
# Poissons Ratio (x) = 0.22476 0.41795
# Poissons Ratio (y) = 0.14217 0.24947
# Poissons Ratio (z) = 0.30326 0.28616
#
# Static dielectric constant tensor:
#      x y z
#    x 3.565620 0.000000 0.296290 
#    y 0.000000 3.563180 0.000000 
#    z 0.296290 0.000000 3.952120 
# 
# 
# High freq. dielectric constant tensor:
#      x y z
#    x 1.759410 0.000000 0.029970 
#    y 0.000000 1.759950 0.000000 
#    z 0.029970 0.000000 1.800030 
# 
# From -- ./inp_files/67604.got.cif
#   From: 2010.03.12/outbox.cif.g09.slc.cpg/sg5_34_cif.got.tgz:67604.got - 2010.03.31 09:47:26.
