data_PCOD8048660
_publ_section_title
;
Structure prediction by ZEFSAII (Michael W. Deem and Ramdas Pophale) SiO2 
 PCOD8048660
Probable space group: C 2
;
_chemical_formula_sum "Si O2"
_cell_formula_units_Z 28
_cell_length_a 7.759809
_cell_length_b 12.909537
_cell_length_c 14.998559
_cell_angle_alpha 90.000000
_cell_angle_beta 91.264816
_cell_angle_gamma 90.000000
_cell_volume 1502.122691
_symmetry_space_group_name_H-M "C 2"
_symmetry_group_IT_number 5
_symmetry_cell_setting 'monoclinic'
loop_
_space_group_symop_operation_xyz
x,y,z
-x,y,-z
1/2+x,1/2+y,z
1/2-x,1/2+y,-z
loop_
_atom_site_type_symbol
_atom_site_label
_atom_site_fract_x
_atom_site_fract_y
_atom_site_fract_z
Si Si1 0.213596 0.273880 0.301915
Si Si2 0.000000 0.380385 0.000000
Si Si3 0.941713 0.444704 0.599098
Si Si4 0.738565 0.538611 0.307536
Si Si5 0.000000 0.926105 0.000000
Si Si6 0.299687 0.032620 0.103758
Si Si7 0.937944 0.918195 0.401105
Si Si8 0.204618 0.772882 0.899308
O O1 0.182518 0.155428 0.323837
O O2 0.393685 0.311436 0.348945
O O3 0.219931 0.294611 0.196996
O O4 0.054247 0.337767 0.343497
O O5 0.846019 0.303076 0.974521
O O6 0.040808 0.456822 0.916976
O O7 0.072944 0.524070 0.646653
O O8 0.000000 0.419700 0.500000
O O9 0.741600 0.486381 0.597644
O O10 0.742475 0.511494 0.203736
O O11 0.591552 0.471829 0.351122
O O12 0.045979 0.850450 0.917169
O O13 0.849688 0.002868 0.967466
O O14 0.351404 0.152986 0.090660
O O15 0.000000 0.889822 0.500000
#
# Coordination Sequence:
#
# PCOD8048660 Si02
#       8
#     4   2   4   4   2   4   4   4
#     4   9  22  36  57  84 111 150 187 230 276 337
#     4  10  20  34  56  80 108 152 174 228 278 316
#     4  10  21  40  57  84 114 145 187 232 276 339
#     4  11  20  40  59  82 117 148 185 236 280 325
#     4  10  20  34  56  80 108 152 174 228 278 316
#     4  10  21  34  57  81 108 147 185 223 275 329
#     4  10  21  40  57  84 114 145 187 232 276 339
#     4  10  19  36  53  79 114 137 187 227 263 331
#
# _framework density 18.640287000000001
#
# number of rings (size 3 to 8) (size 9 to 14) (size 15 to 20)
#    0.857    1.143    1.429    2.571    0.000    1.143 
#    2.571    0.000   12.571    0.000    0.000    0.000 
#    0.000    0.000    0.000    0.000    0.000    0.000 
#
# Total GULP energy -173499.183605 kJ/mol
# GULP energy per Si atom -12392.798829 kJ/mol
# Density = 1.859786 g / cm^3
# Si number density = 18.640287 Si / 1000 Ang^3
#
#
#
# Elastic Constant Matrix: (Units=GPa)
#
#
# Indices 1 2 3 4 5 6 
#
# 1 58.2655 -2.5253 4.1284 0.0000 2.4314 0.0000
# 2 -2.5253 56.7889 35.7897 0.0000 -5.5404 0.0000
# 3 4.1284 35.7897 91.5430 0.0000 -5.4364 0.0000
# 4 0.0000 0.0000 0.0000 9.4839 0.0000 7.4016
# 5 2.4314 -5.5404 -5.4364 0.0000 24.2013 0.0000
# 6 0.0000 0.0000 0.0000 7.4016 0.0000 22.2358
#
#
#
# Elastic Compliance Matrix: (Units=1/GPa)
#
#
# Indices 1 2 3 4 5 6 
#
# 1 0.017408 0.001546 -0.001492 0.000000 -0.001730 0.000000
# 2 0.001546 0.023773 -0.009173 0.000000 0.003227 0.000000
# 3 -0.001492 -0.009173 0.014657 0.000000 0.001342 0.000000
# 4 0.000000 0.000000 0.000000 0.142447 0.000000 -0.047416
# 5 -0.001730 0.003227 0.001342 0.000000 0.042534 0.000000
# 6 0.000000 0.000000 0.000000 -0.047416 0.000000 0.060756
#
#
# Mechanical properties :
#
#
# Convention : Reuss Voigt Hill
#
# Bulk Modulus (GPa) = 26.59567 31.26475 28.93021
# Shear Modulus (GPa) = 15.04455 22.46450 18.75452
#
# Velocity S-wave (km/s) = 2.84403 3.47531 3.17539
# Velocity P-wave (km/s) = 5.00834 5.73696 5.38499
#
# Compressibility (1/GPa) = 0.03760010
#
# Stress axis : x y z
#
# Youngs Moduli (GPa) = 57.44570 42.06395 68.22708
#
# Poissons Ratio (x) = -0.06502 0.10180
# Poissons Ratio (y) = -0.08879 0.62581
# Poissons Ratio (z) = 0.08571 0.38583
#
# Static dielectric constant tensor:
#      x y z
#    x 3.374820 0.000000 -0.070340 
#    y 0.000000 3.292310 0.000000 
#    z -0.070340 0.000000 3.515220 
# 
# 
# High freq. dielectric constant tensor:
#      x y z
#    x 1.718200 0.000000 -0.005840 
#    y 0.000000 1.712880 0.000000 
#    z -0.005840 0.000000 1.736090 
# 
# From -- ./inp_files/50136.got.cif
#   From: 2010.03.12/outbox.cif.g09.slc.cpg/sg5_26_cif.got.tgz:50136.got - 2010.03.31 09:47:26.
