data_PCOD8048219
_publ_section_title
;
Structure prediction by ZEFSAII (Michael W. Deem and Ramdas Pophale) SiO2 
 PCOD8048219
Probable space group: C 2
;
_chemical_formula_sum "Si O2"
_cell_formula_units_Z 20
_cell_length_a 11.079466
_cell_length_b 16.101089
_cell_length_c 6.203121
_cell_angle_alpha 90.000000
_cell_angle_beta 93.885493
_cell_angle_gamma 90.000000
_cell_volume 1104.040344
_symmetry_space_group_name_H-M "C 2"
_symmetry_group_IT_number 5
_symmetry_cell_setting 'monoclinic'
loop_
_space_group_symop_operation_xyz
x,y,z
-x,y,-z
1/2+x,1/2+y,z
1/2-x,1/2+y,-z
loop_
_atom_site_type_symbol
_atom_site_label
_atom_site_fract_x
_atom_site_fract_y
_atom_site_fract_z
Si Si1 0.610045 0.111600 0.380209
Si Si2 0.500000 0.269536 0.500000
Si Si3 0.794757 0.031530 0.687232
Si Si4 0.000000 0.018460 0.000000
Si Si5 0.152164 0.914170 0.684682
Si Si6 0.866164 0.474697 0.954157
O O1 0.500000 0.068011 0.500000
O O2 0.577564 0.209525 0.347361
O O3 0.733670 0.102673 0.534529
O O4 0.625593 0.066506 0.153743
O O5 0.596014 0.322992 0.647713
O O6 0.854571 0.960616 0.545176
O O7 0.695341 0.986021 0.822254
O O8 0.903556 0.071624 0.846122
O O9 0.923078 0.961196 0.145691
O O10 0.290714 0.912310 0.789149
O O11 0.000000 0.436657 0.000000
#
# Coordination Sequence:
#
# PCOD8048219 Si02
#       6
#     4   2   4   2   4   4
#     4   9  19  32  53  75 109 136 174 221 262 310
#     4  10  18  38  50  80 114 140 170 224 274 312
#     4  10  18  33  52  82 104 140 180 225 257 314
#     4  10  18  32  54  80 106 138 184 218 262 314
#     4  10  20  32  54  81 111 138 176 223 266 315
#     4  10  18  33  53  82 102 141 184 220 259 313
#
# _framework density 18.115278
#
# number of rings (size 3 to 8) (size 9 to 14) (size 15 to 20)
#    0.600    1.600    4.000    0.000    0.000    0.000 
#    5.400    0.000    2.200    0.000   15.600    0.000 
#    0.000    0.000    0.000    0.000    0.000    0.000 
#
# Total GULP energy -123889.133938 kJ/mol
# GULP energy per Si atom -12388.913394 kJ/mol
# Density = 1.807405 g / cm^3
# Si number density = 18.115278 Si / 1000 Ang^3
#
#
#
# Elastic Constant Matrix: (Units=GPa)
#
#
# Indices 1 2 3 4 5 6 
#
# 1 115.0392 31.9727 48.0951 0.0000 29.2412 0.0000
# 2 31.9727 84.8858 26.5855 0.0000 12.1660 0.0000
# 3 48.0951 26.5855 90.8044 0.0000 6.3812 0.0000
# 4 0.0000 0.0000 0.0000 7.5889 0.0000 5.9599
# 5 29.2412 12.1660 6.3812 0.0000 51.9365 0.0000
# 6 0.0000 0.0000 0.0000 5.9599 0.0000 33.2219
#
#
#
# Elastic Compliance Matrix: (Units=1/GPa)
#
#
# Indices 1 2 3 4 5 6 
#
# 1 0.013437 -0.002278 -0.006008 0.000000 -0.006294 0.000000
# 2 -0.002278 0.013712 -0.002696 0.000000 -0.001598 0.000000
# 3 -0.006008 -0.002696 0.014830 0.000000 0.002192 0.000000
# 4 0.000000 0.000000 0.000000 0.153381 0.000000 -0.027516
# 5 -0.006294 -0.001598 0.002192 0.000000 0.022903 0.000000
# 6 0.000000 0.000000 0.000000 -0.027516 0.000000 0.035037
#
#
# Mechanical properties :
#
#
# Convention : Reuss Voigt Hill
#
# Bulk Modulus (GPa) = 49.95923 56.00400 52.98161
# Shear Modulus (GPa) = 17.73460 30.82121 24.27791
#
# Velocity S-wave (km/s) = 3.13227 4.12927 3.66483
# Velocity P-wave (km/s) = 6.38121 7.32918 6.87156
#
# Compressibility (1/GPa) = 0.02001632
#
# Stress axis : x y z
#
# Youngs Moduli (GPa) = 74.41993 72.92992 67.43037
#
# Poissons Ratio (x) = 0.16610 0.40512
# Poissons Ratio (y) = 0.16949 0.18178
# Poissons Ratio (z) = 0.44712 0.19661
#
# Static dielectric constant tensor:
#      x y z
#    x 3.865500 0.000000 0.292780 
#    y 0.000000 2.814580 0.000000 
#    z 0.292780 0.000000 3.563550 
# 
# 
# High freq. dielectric constant tensor:
#      x y z
#    x 1.722920 0.000000 0.010200 
#    y 0.000000 1.631660 0.000000 
#    z 0.010200 0.000000 1.716700 
# 
# From -- ./inp_files/4653.got.cif
#   From: 2010.03.12/outbox.cif.g09.slc.cpg/sg5_3_cif.got.tgz:4653.got - 2010.03.31 09:47:26.
