data_PCOD8048987
_publ_section_title
;
Structure prediction by ZEFSAII (Michael W. Deem and Ramdas Pophale) SiO2 
 PCOD8048987
Probable space group: C 2
;
_chemical_formula_sum "Si O2"
_cell_formula_units_Z 32
_cell_length_a 9.221724
_cell_length_b 19.544427
_cell_length_c 12.574288
_cell_angle_alpha 90.000000
_cell_angle_beta 134.361089
_cell_angle_gamma 90.000000
_cell_volume 1620.289893
_symmetry_space_group_name_H-M "C 2"
_symmetry_group_IT_number 5
_symmetry_cell_setting 'monoclinic'
loop_
_space_group_symop_operation_xyz
x,y,z
-x,y,-z
1/2+x,1/2+y,z
1/2-x,1/2+y,-z
loop_
_atom_site_type_symbol
_atom_site_label
_atom_site_fract_x
_atom_site_fract_y
_atom_site_fract_z
Si Si1 0.345830 0.518760 0.837826
Si Si2 0.363861 0.594833 0.159063
Si Si3 0.649804 0.626032 0.480814
Si Si4 0.041941 0.737719 0.395627
Si Si5 0.095877 0.489984 0.372476
Si Si6 0.444136 0.396023 0.592197
Si Si7 0.170037 0.474019 0.163983
Si Si8 0.779212 0.162010 0.905834
O O1 0.485681 0.536662 0.810478
O O2 0.256835 0.588552 0.840967
O O3 0.136384 0.478817 0.704098
O O4 0.500000 0.481049 0.000000
O O5 0.509473 0.639515 0.307113
O O6 0.201908 0.553120 0.145738
O O7 0.251619 0.646030 0.018255
O O8 0.500000 0.608664 0.500000
O O9 0.764967 0.697437 0.549713
O O10 0.813280 0.564888 0.554360
O O11 0.083523 0.816862 0.395683
O O12 0.000000 0.722385 0.500000
O O13 0.865118 0.716369 0.223949
O O14 0.232631 0.434903 0.506027
O O15 0.093015 0.474750 0.245253
O O16 0.500000 0.409154 0.500000
O O17 0.628159 0.429084 0.752736
O O18 0.000000 0.441275 0.000000
O O19 0.000000 0.193677 0.000000
#
# Coordination Sequence:
#
# PCOD8048987 Si02
#       8
#     4   4   4   4   4   4   4   4
#     4   9  18  32  53  87 119 144 189 247 299 345
#     4  10  20  34  54  88 120 147 195 246 300 355
#     4  12  22  36  57  87 122 153 194 253 298 351
#     4  11  22  39  62  85 118 160 201 245 297 354
#     4  11  19  38  59  85 124 158 195 251 297 348
#     4   9  21  39  57  85 120 160 204 241 290 364
#     4  11  20  34  58  87 119 157 198 241 306 352
#     4   9  18  33  53  86 119 142 190 250 298 346
#
# _framework density 19.749551
#
# number of rings (size 3 to 8) (size 9 to 14) (size 15 to 20)
#    0.000    2.000    3.750    3.375    0.000    0.500 
#    0.000    2.500    0.000    0.000    0.000    0.875 
#    0.000    0.000    0.000    0.000    0.000    0.000 
#
# Total GULP energy -198232.516041 kJ/mol
# GULP energy per Si atom -12389.532253 kJ/mol
# Density = 1.970460 g / cm^3
# Si number density = 19.749551 Si / 1000 Ang^3
#
#
#
# Elastic Constant Matrix: (Units=GPa)
#
#
# Indices 1 2 3 4 5 6 
#
# 1 46.3049 12.5942 28.3629 0.0000 16.4385 0.0000
# 2 12.5942 88.3838 47.7566 0.0000 17.3652 0.0000
# 3 28.3629 47.7566 144.2724 0.0000 22.2877 0.0000
# 4 0.0000 0.0000 0.0000 20.7672 0.0000 1.4049
# 5 16.4385 17.3652 22.2877 0.0000 39.2078 0.0000
# 6 0.0000 0.0000 0.0000 1.4049 0.0000 19.2543
#
#
#
# Elastic Compliance Matrix: (Units=1/GPa)
#
#
# Indices 1 2 3 4 5 6 
#
# 1 0.027275 0.000063 -0.003960 0.000000 -0.009212 0.000000
# 2 0.000063 0.014330 -0.004134 0.000000 -0.004023 0.000000
# 3 -0.003960 -0.004134 0.009361 0.000000 -0.001830 0.000000
# 4 0.000000 0.000000 0.000000 0.048392 0.000000 -0.003531
# 5 -0.009212 -0.004023 -0.001830 0.000000 0.032190 0.000000
# 6 0.000000 0.000000 0.000000 -0.003531 0.000000 0.052194
#
#
# Mechanical properties :
#
#
# Convention : Reuss Voigt Hill
#
# Bulk Modulus (GPa) = 28.65049 50.70985 39.68017
# Shear Modulus (GPa) = 23.64770 28.52901 26.08835
#
# Velocity S-wave (km/s) = 3.46407 3.80483 3.63844
# Velocity P-wave (km/s) = 5.52613 6.71078 6.14706
#
# Compressibility (1/GPa) = 0.03490342
#
# Stress axis : x y z
#
# Youngs Moduli (GPa) = 36.66405 69.78576 106.82619
#
# Poissons Ratio (x) = -0.00440 0.42300
# Poissons Ratio (y) = -0.00231 0.44165
# Poissons Ratio (z) = 0.14518 0.28851
#
# Static dielectric constant tensor:
#      x y z
#    x 3.630570 0.000000 0.047150 
#    y 0.000000 3.195060 0.000000 
#    z 0.047150 0.000000 4.093460 
# 
# 
# High freq. dielectric constant tensor:
#      x y z
#    x 1.758990 0.000000 0.009180 
#    y 0.000000 1.721060 0.000000 
#    z 0.009180 0.000000 1.795320 
# 
# From -- ./inp_files/37346.got.cif
#   From: 2010.03.12/outbox.cif.g09.slc.cpg/sg5_19_cif.got.tgz:37346.got - 2010.03.31 09:47:26.
