data_PCOD8048765
_publ_section_title
;
Structure prediction by ZEFSAII (Michael W. Deem and Ramdas Pophale) SiO2 
 PCOD8048765
Probable space group: C 2
;
_chemical_formula_sum "Si O2"
_cell_formula_units_Z 26
_cell_length_a 15.496507
_cell_length_b 12.720307
_cell_length_c 7.335251
_cell_angle_alpha 90.000000
_cell_angle_beta 67.358859
_cell_angle_gamma 90.000000
_cell_volume 1334.495310
_symmetry_space_group_name_H-M "C 2"
_symmetry_group_IT_number 5
_symmetry_cell_setting 'monoclinic'
loop_
_space_group_symop_operation_xyz
x,y,z
-x,y,-z
1/2+x,1/2+y,z
1/2-x,1/2+y,-z
loop_
_atom_site_type_symbol
_atom_site_label
_atom_site_fract_x
_atom_site_fract_y
_atom_site_fract_z
Si Si1 0.549991 0.629480 0.284361
Si Si2 0.000000 0.279564 0.000000
Si Si3 0.793021 0.831565 0.336978
Si Si4 0.179667 0.400410 0.750277
Si Si5 0.009210 0.905684 0.778523
Si Si6 0.264511 0.125483 0.187248
Si Si7 0.179595 0.806082 0.084096
O O1 0.500000 0.683356 0.500000
O O2 0.492193 0.523324 0.296459
O O3 0.656944 0.598716 0.234576
O O4 0.546138 0.708131 0.118076
O O5 0.076426 0.354843 0.848179
O O6 0.712678 0.892166 0.513367
O O7 0.892230 0.853325 0.354948
O O8 0.771921 0.705819 0.353483
O O9 0.793493 0.871310 0.124433
O O10 0.178709 0.520771 0.814496
O O11 0.248721 0.330979 0.815607
O O12 0.924876 0.835555 0.765108
O O13 0.000000 0.908873 0.000000
O O14 0.312685 0.181760 0.971911
#
# Coordination Sequence:
#
# PCOD8048765 Si02
#       7
#     4   2   4   4   4   4   4
#     4  12  22  37  61  91 118 157 209 251 298 349
#     4  12  26  36  60  88 124 164 196 244 304 372
#     4   9  22  39  59  91 120 153 202 258 291 355
#     4  12  22  41  61  87 124 162 200 244 311 355
#     4  10  19  37  65  89 118 155 205 256 295 343
#     4  10  22  41  60  88 121 162 194 249 305 352
#     4   9  21  39  58  90 122 151 198 252 296 354
#
# _framework density 19.483021000000001
#
# number of rings (size 3 to 8) (size 9 to 14) (size 15 to 20)
#    0.923    0.615    3.846    1.846    0.000    1.231 
#    2.769    0.000    0.000    0.000    0.000    0.000 
#    0.000    0.000    0.000    0.000    0.000    0.000 
#
# Total GULP energy -161150.377103 kJ/mol
# GULP energy per Si atom -12396.182854 kJ/mol
# Density = 1.943868 g / cm^3
# Si number density = 19.483021 Si / 1000 Ang^3
#
#
#
# Elastic Constant Matrix: (Units=GPa)
#
#
# Indices 1 2 3 4 5 6 
#
# 1 84.5509 20.9064 12.3461 0.0000 -18.8512 0.0000
# 2 20.9064 98.1041 -0.3372 0.0000 -4.3304 0.0000
# 3 12.3461 -0.3372 47.0187 0.0000 -17.0493 0.0000
# 4 0.0000 0.0000 0.0000 13.5537 0.0000 -4.2661
# 5 -18.8512 -4.3304 -17.0493 0.0000 25.7493 0.0000
# 6 0.0000 0.0000 0.0000 -4.2661 0.0000 32.3756
#
#
#
# Elastic Compliance Matrix: (Units=1/GPa)
#
#
# Indices 1 2 3 4 5 6 
#
# 1 0.014812 -0.002704 -0.000186 0.000000 0.010266 0.000000
# 2 -0.002704 0.010794 0.000958 0.000000 0.000470 0.000000
# 3 -0.000186 0.000958 0.028073 0.000000 0.018613 0.000000
# 4 0.000000 0.000000 0.000000 0.076973 0.000000 0.010143
# 5 0.010266 0.000470 0.018613 0.000000 0.058755 0.000000
# 6 0.000000 0.000000 0.000000 0.010143 0.000000 0.032224
#
#
# Mechanical properties :
#
#
# Convention : Reuss Voigt Hill
#
# Bulk Modulus (GPa) = 20.07489 32.83383 26.45436
# Shear Modulus (GPa) = 20.65267 27.45294 24.05280
#
# Velocity S-wave (km/s) = 3.25935 3.75783 3.51743
# Velocity P-wave (km/s) = 4.94880 5.97641 5.48672
#
# Compressibility (1/GPa) = 0.04981348
#
# Stress axis : x y z
#
# Youngs Moduli (GPa) = 67.51368 92.64830 35.62143
#
# Poissons Ratio (x) = 0.25052 0.00663
# Poissons Ratio (y) = 0.18255 -0.03412
# Poissons Ratio (z) = 0.01257 -0.08874
#
# Static dielectric constant tensor:
#      x y z
#    x 3.646970 0.000000 -0.084670 
#    y 0.000000 3.377390 0.000000 
#    z -0.084670 0.000000 3.562130 
# 
# 
# High freq. dielectric constant tensor:
#      x y z
#    x 1.760230 0.000000 -0.001570 
#    y 0.000000 1.741870 0.000000 
#    z -0.001570 0.000000 1.756380 
# 
# From -- ./inp_files/23526.got.cif
#   From: 2010.03.12/outbox.cif.g09.slc.cpg/sg5_12_cif.got.tgz:23526.got - 2010.03.31 09:47:26.
