data_PCOD8048370
_publ_section_title
;
Structure prediction by ZEFSAII (Michael W. Deem and Ramdas Pophale) SiO2 
 PCOD8048370
Probable space group: C 2
;
_chemical_formula_sum "Si O2"
_cell_formula_units_Z 32
_cell_length_a 20.235486
_cell_length_b 9.112052
_cell_length_c 25.937282
_cell_angle_alpha 90.000000
_cell_angle_beta 160.168864
_cell_angle_gamma 90.000000
_cell_volume 1622.456588
_symmetry_space_group_name_H-M "C 2"
_symmetry_group_IT_number 5
_symmetry_cell_setting 'monoclinic'
loop_
_space_group_symop_operation_xyz
x,y,z
-x,y,-z
1/2+x,1/2+y,z
1/2-x,1/2+y,-z
loop_
_atom_site_type_symbol
_atom_site_label
_atom_site_fract_x
_atom_site_fract_y
_atom_site_fract_z
Si Si1 0.784411 0.031220 0.322341
Si Si2 0.936002 0.235431 0.868060
Si Si3 0.076589 0.221535 0.865769
Si Si4 0.902813 0.556977 0.624867
Si Si5 0.267802 0.074197 0.824596
Si Si6 0.530499 0.720000 0.327103
Si Si7 0.465525 0.060427 0.164515
Si Si8 0.789776 0.743900 0.201811
O O1 0.790741 0.133538 0.275731
O O2 0.662655 0.106958 0.278967
O O3 0.000000 0.990234 0.500000
O O4 0.660326 0.891460 0.213672
O O5 0.801210 0.163405 0.813788
O O6 0.960857 0.151884 0.830772
O O7 0.150732 0.243072 0.049944
O O8 0.095592 0.393580 0.890948
O O9 0.961289 0.192702 0.728359
O O10 0.291977 0.160494 0.016889
O O11 0.679836 0.607342 0.462733
O O12 0.914671 0.386399 0.618811
O O13 0.002275 0.588475 0.752080
O O14 0.012684 0.656197 0.663415
O O15 0.181665 0.184355 0.804416
O O16 0.166699 0.914740 0.756065
O O17 0.500000 0.063154 0.000000
#
# Coordination Sequence:
#
# PCOD8048370 Si02
#       8
#     4   4   4   4   4   4   4   4
#     4  10  19  33  57  86 115 148 196 240 284 343
#     4   9  18  34  57  86 113 148 196 232 290 343
#     4  10  21  36  58  88 116 146 198 240 288 349
#     4  11  23  41  59  87 120 159 195 246 299 357
#     4  11  20  38  61  88 117 158 200 240 291 355
#     4  11  25  39  59  90 121 157 200 243 299 347
#     4  10  21  37  60  86 115 152 195 242 295 343
#     4  10  18  36  63  85 112 154 197 235 296 353
#
# _framework density 19.723178000000001
#
# number of rings (size 3 to 8) (size 9 to 14) (size 15 to 20)
#    0.000    1.750    3.750    2.250    1.750    6.000 
#    2.250    1.250    0.000    1.500    0.000    0.875 
#    0.000    0.000    0.000    0.000    0.000    0.000 
#
# Total GULP energy -198285.170200 kJ/mol
# GULP energy per Si atom -12392.823138 kJ/mol
# Density = 1.967829 g / cm^3
# Si number density = 19.723178 Si / 1000 Ang^3
#
#
#
# Elastic Constant Matrix: (Units=GPa)
#
#
# Indices 1 2 3 4 5 6 
#
# 1 111.6777 43.7371 30.0262 0.0137 11.5412 -0.0024
# 2 43.7371 68.8138 36.8137 0.0156 4.4237 -0.0029
# 3 30.0262 36.8137 87.5153 0.0092 6.4874 -0.0094
# 4 0.0137 0.0156 0.0092 27.5827 -0.0010 4.2780
# 5 11.5412 4.4237 6.4874 -0.0010 29.0411 -0.0035
# 6 -0.0024 -0.0029 -0.0094 4.2780 -0.0035 25.9381
#
#
#
# Elastic Compliance Matrix: (Units=1/GPa)
#
#
# Indices 1 2 3 4 5 6 
#
# 1 0.012376 -0.007104 -0.000990 -0.000002 -0.003615 0.000000
# 2 -0.007104 0.022865 -0.007252 -0.000007 0.000960 0.000001
# 3 -0.000990 -0.007252 0.014953 -0.000001 -0.001842 0.000004
# 4 -0.000002 -0.000007 -0.000001 0.037206 0.000003 -0.006136
# 5 -0.003615 0.000960 -0.001842 0.000003 0.036136 0.000004
# 6 0.000000 0.000001 0.000004 -0.006136 0.000004 0.039565
#
#
# Mechanical properties :
#
#
# Convention : Reuss Voigt Hill
#
# Bulk Modulus (GPa) = 51.27533 54.35121 52.81327
# Shear Modulus (GPa) = 24.96303 27.00771 25.98537
#
# Velocity S-wave (km/s) = 3.56148 3.70447 3.63368
# Velocity P-wave (km/s) = 6.55486 6.77601 6.66635
#
# Compressibility (1/GPa) = 0.01950256
#
# Stress axis : x y z
#
# Youngs Moduli (GPa) = 80.79894 43.73427 66.87441
#
# Poissons Ratio (x) = 0.31070 0.06620
# Poissons Ratio (y) = 0.57402 0.48498
# Poissons Ratio (z) = 0.07998 0.31717
#
# Static dielectric constant tensor:
#      x y z
#    x 4.371520 0.000000 -0.010750 
#    y 0.000000 3.196940 -0.000020 
#    z -0.010750 -0.000020 3.396920 
# 
# 
# High freq. dielectric constant tensor:
#      x y z
#    x 1.799380 0.000000 -0.000360 
#    y 0.000000 1.720780 0.000000 
#    z -0.000360 0.000000 1.766100 
# 
# From -- ./inp_files/71107.got.cif
#   From: 2010.03.12/outbox.cif.g09.slc.cpg/sg5_36_cif.got.tgz:71107.got - 2010.03.31 09:47:26.
