data_PCOD8048301
_publ_section_title
;
Structure prediction by ZEFSAII (Michael W. Deem and Ramdas Pophale) SiO2 
 PCOD8048301
Probable space group: C 2
;
_chemical_formula_sum "Si O2"
_cell_formula_units_Z 30
_cell_length_a 19.259827
_cell_length_b 12.608436
_cell_length_c 12.142503
_cell_angle_alpha 90.000000
_cell_angle_beta 30.614408
_cell_angle_gamma 90.000000
_cell_volume 1501.618292
_symmetry_space_group_name_H-M "C 2"
_symmetry_group_IT_number 5
_symmetry_cell_setting 'monoclinic'
loop_
_space_group_symop_operation_xyz
x,y,z
-x,y,-z
1/2+x,1/2+y,z
1/2-x,1/2+y,-z
loop_
_atom_site_type_symbol
_atom_site_label
_atom_site_fract_x
_atom_site_fract_y
_atom_site_fract_z
Si Si1 0.770191 0.061950 0.321467
Si Si2 0.332753 0.470272 0.016615
Si Si3 0.083489 0.731222 0.589225
Si Si4 0.712651 0.825960 0.863811
Si Si5 0.154139 0.038726 0.247217
Si Si6 0.000000 0.227481 0.000000
Si Si7 0.916511 0.875816 0.218074
Si Si8 0.765262 0.754022 0.030292
O O1 0.621735 0.107441 0.554413
O O2 0.883099 0.148568 0.206264
O O3 0.766649 0.050647 0.193648
O O4 0.790770 0.947584 0.348533
O O5 0.247271 0.360309 0.127666
O O6 0.340212 0.525224 0.890157
O O7 0.487188 0.452066 0.843133
O O8 0.162429 0.777403 0.376100
O O9 0.137475 0.784930 0.628533
O O10 0.924821 0.741340 0.786546
O O11 0.747217 0.952032 0.829302
O O12 0.568609 0.804724 0.998349
O O13 0.696066 0.769185 0.005388
O O14 0.208551 0.159448 0.185285
O O15 0.000000 0.027550 0.500000
O O16 0.000000 0.828172 0.000000
#
# Coordination Sequence:
#
# PCOD8048301 Si02
#       8
#     4   4   4   4   4   2   4   4
#     4  10  18  35  62  86 113 158 201 238 292 353
#     4   9  18  36  60  80 116 153 195 237 284 356
#     4  10  20  36  57  86 114 151 201 243 292 343
#     4  10  21  38  62  88 118 153 199 244 291 357
#     4  11  21  37  61  89 116 157 194 245 305 348
#     4  10  18  34  62  88 114 150 202 240 282 350
#     4   9  17  33  55  78 114 154 193 231 286 355
#     4  10  21  37  60  87 119 153 196 244 295 351
#
# _framework density 19.978446999999999
#
# number of rings (size 3 to 8) (size 9 to 14) (size 15 to 20)
#    0.000    2.133    2.000    4.400    0.000    0.000 
#    4.800   10.667    4.400    0.000    0.000    0.000 
#    0.000    0.000    0.000    0.000    0.000    0.000 
#
# Total GULP energy -185860.374987 kJ/mol
# GULP energy per Si atom -12390.691666 kJ/mol
# Density = 1.993297 g / cm^3
# Si number density = 19.978447 Si / 1000 Ang^3
#
#
#
# Elastic Constant Matrix: (Units=GPa)
#
#
# Indices 1 2 3 4 5 6 
#
# 1 109.5775 39.4867 28.0529 0.0000 1.6229 0.0000
# 2 39.4867 106.6223 41.3873 0.0000 7.0116 0.0000
# 3 28.0529 41.3873 41.8810 0.0000 -1.5061 0.0000
# 4 0.0000 0.0000 0.0000 29.1811 0.0000 3.4413
# 5 1.6229 7.0116 -1.5061 0.0000 17.4532 0.0000
# 6 0.0000 0.0000 0.0000 3.4413 0.0000 29.5883
#
#
#
# Elastic Compliance Matrix: (Units=1/GPa)
#
#
# Indices 1 2 3 4 5 6 
#
# 1 0.011286 -0.001921 -0.005689 0.000000 -0.000769 0.000000
# 2 -0.001921 0.016568 -0.015367 0.000000 -0.007804 0.000000
# 3 -0.005689 -0.015367 0.043249 0.000000 0.010435 0.000000
# 4 0.000000 0.000000 0.000000 0.034745 0.000000 -0.004041
# 5 -0.000769 -0.007804 0.010435 0.000000 0.061403 0.000000
# 6 0.000000 0.000000 0.000000 -0.004041 0.000000 0.034267
#
#
# Mechanical properties :
#
#
# Convention : Reuss Voigt Hill
#
# Bulk Modulus (GPa) = 39.76240 52.88166 46.32203
# Shear Modulus (GPa) = 19.54223 25.18812 22.36517
#
# Velocity S-wave (km/s) = 3.13096 3.55458 3.34947
# Velocity P-wave (km/s) = 5.74599 6.58586 6.18021
#
# Compressibility (1/GPa) = 0.02514938
#
# Stress axis : x y z
#
# Youngs Moduli (GPa) = 88.60552 60.35559 23.12186
#
# Poissons Ratio (x) = 0.11593 0.13154
# Poissons Ratio (y) = 0.17019 0.35532
# Poissons Ratio (z) = 0.50409 0.92750
#
# Static dielectric constant tensor:
#      x y z
#    x 4.094770 0.000000 0.125250 
#    y 0.000000 3.938750 0.000000 
#    z 0.125250 0.000000 3.435150 
# 
# 
# High freq. dielectric constant tensor:
#      x y z
#    x 1.782790 0.000000 0.008470 
#    y 0.000000 1.784400 0.000000 
#    z 0.008470 0.000000 1.749000 
# 
# From -- ./inp_files/46470.got.cif
#   From: 2010.03.12/outbox.cif.g09.slc.cpg/sg5_24_cif.got.tgz:46470.got - 2010.03.31 09:47:26.
