data_PCOD8048636
_publ_section_title
;
Structure prediction by ZEFSAII (Michael W. Deem and Ramdas Pophale) SiO2 
 PCOD8048636
Probable space group: C 2
;
_chemical_formula_sum "Si O2"
_cell_formula_units_Z 26
_cell_length_a 9.836792
_cell_length_b 23.727399
_cell_length_c 13.760847
_cell_angle_alpha 90.000000
_cell_angle_beta 25.160324
_cell_angle_gamma 90.000000
_cell_volume 1365.506102
_symmetry_space_group_name_H-M "C 2"
_symmetry_group_IT_number 5
_symmetry_cell_setting 'monoclinic'
loop_
_space_group_symop_operation_xyz
x,y,z
-x,y,-z
1/2+x,1/2+y,z
1/2-x,1/2+y,-z
loop_
_atom_site_type_symbol
_atom_site_label
_atom_site_fract_x
_atom_site_fract_y
_atom_site_fract_z
Si Si1 0.369237 0.683340 0.285813
Si Si2 0.500000 0.727406 0.000000
Si Si3 0.815328 0.388722 0.527241
Si Si4 0.621057 0.286880 0.526661
Si Si5 0.745908 0.965663 0.928420
Si Si6 0.366030 0.990052 0.787820
Si Si7 0.766395 0.064079 0.410255
O O1 0.400903 0.738612 0.334309
O O2 0.437007 0.625714 0.301090
O O3 0.000000 0.683929 0.500000
O O4 0.553146 0.688880 0.063018
O O5 0.816607 0.765697 0.786101
O O6 0.793084 0.339471 0.463804
O O7 0.461861 0.409876 0.783978
O O8 0.000000 0.363308 0.500000
O O9 0.023669 0.441076 0.355682
O O10 0.500000 0.307409 0.500000
O O11 0.500000 0.963382 0.000000
O O12 0.564876 0.968079 0.148471
O O13 0.946494 0.022432 0.795368
O O14 0.583401 0.046156 0.628167
O O15 0.000000 0.004669 0.000000
O O16 0.500000 0.059856 0.500000
#
# Coordination Sequence:
#
# PCOD8048636 Si02
#       7
#     4   2   4   4   4   4   4
#     4   8  17  33  55  86 115 144 194 236 276 338
#     4   8  16  34  56  86 116 144 190 240 284 334
#     4  11  23  38  57  85 118 149 197 238 279 349
#     4   9  20  35  56  85 114 148 195 238 283 334
#     4  11  24  36  57  87 116 150 193 232 291 343
#     4  11  20  39  59  83 114 152 189 239 288 335
#     4  10  19  35  60  87 115 147 194 237 273 349
#
# _framework density 19.040559999999999
#
# number of rings (size 3 to 8) (size 9 to 14) (size 15 to 20)
#    0.000    2.462    3.077    0.923    3.231    6.769 
#    1.385    0.000    6.769    0.000    0.000    0.000 
#    0.000    0.000    0.000    0.000    0.000    0.000 
#
# Total GULP energy -161098.594296 kJ/mol
# GULP energy per Si atom -12392.199561 kJ/mol
# Density = 1.899722 g / cm^3
# Si number density = 19.040560 Si / 1000 Ang^3
#
#
#
# Elastic Constant Matrix: (Units=GPa)
#
#
# Indices 1 2 3 4 5 6 
#
# 1 103.8432 41.3353 26.2451 -0.0139 11.9385 -0.0346
# 2 41.3353 128.0277 32.3197 0.0093 11.1164 -0.0094
# 3 26.2451 32.3197 85.8906 -0.0279 26.1681 -0.0416
# 4 -0.0139 0.0093 -0.0279 17.4395 0.0515 10.5175
# 5 11.9385 11.1164 26.1681 0.0515 30.2992 0.0302
# 6 -0.0346 -0.0094 -0.0416 10.5175 0.0302 26.1777
#
#
#
# Elastic Compliance Matrix: (Units=1/GPa)
#
#
# Indices 1 2 3 4 5 6 
#
# 1 0.011534 -0.003111 -0.001787 0.000007 -0.001860 0.000011
# 2 -0.003111 0.009475 -0.002618 -0.000012 0.000011 0.000000
# 3 -0.001787 -0.002618 0.017190 0.000056 -0.013182 0.000017
# 4 0.000007 -0.000012 0.000056 0.075679 -0.000145 -0.030405
# 5 -0.001860 0.000011 -0.013182 -0.000145 0.045118 -0.000017
# 6 0.000011 0.000000 0.000017 -0.030405 -0.000017 0.050416
#
#
# Mechanical properties :
#
#
# Convention : Reuss Voigt Hill
#
# Bulk Modulus (GPa) = 43.16556 57.50686 50.33621
# Shear Modulus (GPa) = 21.53627 29.30737 25.42182
#
# Velocity S-wave (km/s) = 3.36679 3.92753 3.65792
# Velocity P-wave (km/s) = 6.15087 7.12988 6.65839
#
# Compressibility (1/GPa) = 0.02316662
#
# Stress axis : x y z
#
# Youngs Moduli (GPa) = 86.70173 105.53771 58.17357
#
# Poissons Ratio (x) = 0.32835 0.10395
# Poissons Ratio (y) = 0.26975 0.15230
# Poissons Ratio (z) = 0.15493 0.27630
#
# Static dielectric constant tensor:
#      x y z
#    x 2.823150 0.000690 0.569330 
#    y 0.000690 4.295010 -0.000480 
#    z 0.569330 -0.000480 3.720270 
# 
# 
# High freq. dielectric constant tensor:
#      x y z
#    x 1.707320 0.000000 0.022580 
#    y 0.000000 1.742450 0.000000 
#    z 0.022580 0.000000 1.744400 
# 
# From -- ./inp_files/6003.got.cif
#   From: 2010.03.12/outbox.cif.g09.slc.cpg/sg5_4_cif.got.tgz:6003.got - 2010.03.31 09:47:26.
