data_PCOD8048448
_publ_section_title
;
Structure prediction by ZEFSAII (Michael W. Deem and Ramdas Pophale) SiO2 
 PCOD8048448
Probable space group: C 2
;
_chemical_formula_sum "Si O2"
_cell_formula_units_Z 26
_cell_length_a 8.655786
_cell_length_b 13.614349
_cell_length_c 11.094154
_cell_angle_alpha 90.000000
_cell_angle_beta 60.818541
_cell_angle_gamma 90.000000
_cell_volume 1141.436017
_symmetry_space_group_name_H-M "C 2"
_symmetry_group_IT_number 5
_symmetry_cell_setting 'monoclinic'
loop_
_space_group_symop_operation_xyz
x,y,z
-x,y,-z
1/2+x,1/2+y,z
1/2-x,1/2+y,-z
loop_
_atom_site_type_symbol
_atom_site_label
_atom_site_fract_x
_atom_site_fract_y
_atom_site_fract_z
Si Si1 0.743463 0.915660 0.074227
Si Si2 0.410103 0.342276 0.773652
Si Si3 0.621908 0.219544 0.851535
Si Si4 0.619775 0.873130 0.693996
Si Si5 0.997033 0.165524 0.735566
Si Si6 0.864442 0.987226 0.443579
Si Si7 0.000000 0.088910 0.000000
O O1 0.822278 0.829345 0.127301
O O2 0.531688 0.926291 0.169907
O O3 0.785397 0.890707 0.920903
O O4 0.827646 0.020247 0.076393
O O5 0.498097 0.237728 0.780339
O O6 0.288677 0.332584 0.702957
O O7 0.573690 0.413366 0.683544
O O8 0.792814 0.149201 0.766318
O O9 0.500000 0.168813 0.000000
O O10 0.542627 0.773089 0.668763
O O11 0.676454 0.949683 0.567195
O O12 0.995768 0.158524 0.882719
O O13 0.138314 0.093009 0.620376
O O14 0.000000 0.993727 0.500000
#
# Coordination Sequence:
#
# PCOD8048448 Si02
#       7
#     4   4   4   4   4   4   2
#     4  10  18  39  65  94 128 181 220 277 345 400
#     4  10  18  40  66  91 133 178 225 275 349 406
#     4   9  19  36  64  96 128 168 222 281 348 399
#     4  10  24  39  70  97 131 185 227 282 354 410
#     4  11  24  41  66 102 136 183 234 286 346 409
#     4  10  22  44  62  95 140 178 220 289 341 414
#     4  12  22  40  66 102 150 172 238 298 330 410
#
# _framework density 22.778324999999999
#
# number of rings (size 3 to 8) (size 9 to 14) (size 15 to 20)
#    0.000    1.846    3.846    0.462    6.462    1.231 
#    5.538   10.769    0.000    3.692    0.000    0.000 
#    0.000    0.000    0.000    0.000    0.000    0.000 
#
# Total GULP energy -161106.654001 kJ/mol
# GULP energy per Si atom -12392.819539 kJ/mol
# Density = 2.272648 g / cm^3
# Si number density = 22.778325 Si / 1000 Ang^3
#
#
#
# Elastic Constant Matrix: (Units=GPa)
#
#
# Indices 1 2 3 4 5 6 
#
# 1 81.3356 21.6530 38.8803 0.0000 -18.5821 0.0000
# 2 21.6530 54.5270 44.3929 0.0000 -11.5033 0.0000
# 3 38.8803 44.3929 147.2042 0.0000 -25.3869 0.0000
# 4 0.0000 0.0000 0.0000 35.1418 0.0000 -8.9615
# 5 -18.5821 -11.5033 -25.3869 0.0000 33.6739 0.0000
# 6 0.0000 0.0000 0.0000 -8.9615 0.0000 27.4704
#
#
#
# Elastic Compliance Matrix: (Units=1/GPa)
#
#
# Indices 1 2 3 4 5 6 
#
# 1 0.015497 -0.003191 -0.002120 0.000000 0.005864 0.000000
# 2 -0.003191 0.025267 -0.006428 0.000000 0.002024 0.000000
# 3 -0.002120 -0.006428 0.010013 0.000000 0.004183 0.000000
# 4 0.000000 0.000000 0.000000 0.031038 0.000000 0.010125
# 5 0.005864 0.002024 0.004183 0.000000 0.036778 0.000000
# 6 0.000000 0.000000 0.000000 0.010125 0.000000 0.039706
#
#
# Mechanical properties :
#
#
# Convention : Reuss Voigt Hill
#
# Bulk Modulus (GPa) = 36.63028 54.76879 45.69954
# Shear Modulus (GPa) = 26.19493 31.13328 28.66410
#
# Velocity S-wave (km/s) = 3.39483 3.70103 3.55123
# Velocity P-wave (km/s) = 5.61094 6.50845 6.07629
#
# Compressibility (1/GPa) = 0.02729982
#
# Stress axis : x y z
#
# Youngs Moduli (GPa) = 64.52808 39.57712 99.86972
#
# Poissons Ratio (x) = 0.12631 0.21167
# Poissons Ratio (y) = 0.20593 0.64195
# Poissons Ratio (z) = 0.13677 0.25440
#
# Static dielectric constant tensor:
#      x y z
#    x 4.147810 0.000000 -0.284110 
#    y 0.000000 3.870200 0.000000 
#    z -0.284110 0.000000 4.360020 
# 
# 
# High freq. dielectric constant tensor:
#      x y z
#    x 1.890390 0.000000 -0.009370 
#    y 0.000000 1.875600 0.000000 
#    z -0.009370 0.000000 1.896290 
# 
# From -- ./inp_files/36024.got.cif
#   From: 2010.03.12/outbox.cif.g09.slc.cpg/sg5_19_cif.got.tgz:36024.got - 2010.03.31 09:47:26.
