data_PCOD8048998
_publ_section_title
;
Structure prediction by ZEFSAII (Michael W. Deem and Ramdas Pophale) SiO2 
 PCOD8048998
Probable space group: C 2
;
_chemical_formula_sum "Si O2"
_cell_formula_units_Z 16
_cell_length_a 7.098997
_cell_length_b 20.804922
_cell_length_c 6.136867
_cell_angle_alpha 90.000000
_cell_angle_beta 45.655550
_cell_angle_gamma 90.000000
_cell_volume 648.197508
_symmetry_space_group_name_H-M "C 2"
_symmetry_group_IT_number 5
_symmetry_cell_setting 'monoclinic'
loop_
_space_group_symop_operation_xyz
x,y,z
-x,y,-z
1/2+x,1/2+y,z
1/2-x,1/2+y,-z
loop_
_atom_site_type_symbol
_atom_site_label
_atom_site_fract_x
_atom_site_fract_y
_atom_site_fract_z
Si Si1 0.903833 0.490480 0.334748
Si Si2 0.000000 0.759262 0.500000
Si Si3 0.713573 0.360626 0.648054
Si Si4 0.083869 0.051232 0.164680
Si Si5 0.500000 0.673380 0.000000
O O1 0.791012 0.417855 0.416022
O O2 0.666378 0.540617 0.470245
O O3 0.000000 0.506652 0.500000
O O4 0.158337 0.507846 0.975116
O O5 0.944310 0.803388 0.337388
O O6 0.742790 0.716543 0.735000
O O7 0.000000 0.335655 0.500000
O O8 0.500000 0.385668 0.000000
O O9 0.115488 0.128268 0.103815
O O10 0.000000 0.020153 0.000000
#
# Coordination Sequence:
#
# PCOD8048998 Si02
#       5
#     4   2   4   4   2
#     4   9  14  28  51  83 112 139 195 246 294 344
#     4  12  24  40  60  94 126 166 206 238 310 376
#     4  11  23  39  61  93 123 165 200 254 309 362
#     4   8  15  26  50  82 108 142 198 245 279 348
#     4  10  20  34  56  92 122 158 212 248 286 378
#
# _framework density 24.683833
#
# number of rings (size 3 to 8) (size 9 to 14) (size 15 to 20)
#    0.750    1.500    0.000    6.750    0.000    0.000 
#    0.000    0.000    0.000    0.000   32.500    0.000 
#    0.000    0.000    0.000    0.000    0.000    0.000 
#
# Total GULP energy -99113.613717 kJ/mol
# GULP energy per Si atom -12389.201715 kJ/mol
# Density = 2.462765 g / cm^3
# Si number density = 24.683833 Si / 1000 Ang^3
#
#
#
# Elastic Constant Matrix: (Units=GPa)
#
#
# Indices 1 2 3 4 5 6 
#
# 1 78.4054 36.1279 34.3187 0.0000 -19.1663 0.0000
# 2 36.1279 170.4043 78.5833 0.0000 -15.8626 0.0000
# 3 34.3187 78.5833 236.8276 0.0000 -12.5598 0.0000
# 4 0.0000 0.0000 0.0000 49.4098 0.0000 -12.4419
# 5 -19.1663 -15.8626 -12.5598 0.0000 41.0619 0.0000
# 6 0.0000 0.0000 0.0000 -12.4419 0.0000 30.6221
#
#
#
# Elastic Compliance Matrix: (Units=1/GPa)
#
#
# Indices 1 2 3 4 5 6 
#
# 1 0.015817 -0.002213 -0.001232 0.000000 0.006151 0.000000
# 2 -0.002213 0.007405 -0.002073 0.000000 0.001194 0.000000
# 3 -0.001232 -0.002073 0.005099 0.000000 0.000184 0.000000
# 4 0.000000 0.000000 0.000000 0.022546 0.000000 0.009160
# 5 0.006151 0.001194 0.000184 0.000000 0.027742 0.000000
# 6 0.000000 0.000000 0.000000 0.009160 0.000000 0.036378
#
#
# Mechanical properties :
#
#
# Convention : Reuss Voigt Hill
#
# Bulk Modulus (GPa) = 57.85352 87.07747 72.46549
# Shear Modulus (GPa) = 37.94159 46.65926 42.30042
#
# Velocity S-wave (km/s) = 3.92484 4.35245 4.14416
# Velocity P-wave (km/s) = 6.63535 7.78538 7.23326
#
# Compressibility (1/GPa) = 0.01728503
#
# Stress axis : x y z
#
# Youngs Moduli (GPa) = 63.22503 135.05063 196.13399
#
# Poissons Ratio (x) = 0.29884 0.24154
# Poissons Ratio (y) = 0.13990 0.40659
# Poissons Ratio (z) = 0.07786 0.27996
#
# Static dielectric constant tensor:
#      x y z
#    x 4.701160 0.000000 -0.162170 
#    y 0.000000 4.216620 0.000000 
#    z -0.162170 0.000000 4.940280 
# 
# 
# High freq. dielectric constant tensor:
#      x y z
#    x 2.024740 0.000000 -0.009790 
#    y 0.000000 1.956220 0.000000 
#    z -0.009790 0.000000 2.024220 
# 
# From -- ./inp_files/16620.got.cif
#   From: 2010.03.12/outbox.cif.g09.slc.cpg/sg5_9_cif.got.tgz:16620.got - 2010.03.31 09:47:26.
