data_PCOD8048567
_publ_section_title
;
Structure prediction by ZEFSAII (Michael W. Deem and Ramdas Pophale) SiO2 
 PCOD8048567
Probable space group: C 2
;
_chemical_formula_sum "Si O2"
_cell_formula_units_Z 24
_cell_length_a 13.133661
_cell_length_b 23.953314
_cell_length_c 10.591786
_cell_angle_alpha 90.000000
_cell_angle_beta 21.785546
_cell_angle_gamma 90.000000
_cell_volume 1236.661600
_symmetry_space_group_name_H-M "C 2"
_symmetry_group_IT_number 5
_symmetry_cell_setting 'monoclinic'
loop_
_space_group_symop_operation_xyz
x,y,z
-x,y,-z
1/2+x,1/2+y,z
1/2-x,1/2+y,-z
loop_
_atom_site_type_symbol
_atom_site_label
_atom_site_fract_x
_atom_site_fract_y
_atom_site_fract_z
Si Si1 0.070616 0.008060 0.154531
Si Si2 0.690850 0.273311 0.898371
Si Si3 0.310799 0.395039 0.098826
Si Si4 0.520955 0.046901 0.118922
Si Si5 0.299861 0.614370 0.117961
Si Si6 0.782718 0.156776 0.866639
O O1 0.750773 0.022780 0.503803
O O2 0.198876 0.022291 0.143818
O O3 0.218470 0.046993 0.879110
O O4 0.121261 0.942511 0.080129
O O5 0.618510 0.333798 0.043452
O O6 0.660814 0.219521 0.023622
O O7 0.000000 0.278574 0.500000
O O8 0.500000 0.261043 0.000000
O O9 0.000000 0.399641 0.500000
O O10 0.500000 0.405940 0.000000
O O11 0.500000 0.027835 0.000000
O O12 0.534945 0.114170 0.118849
O O13 0.000000 0.637011 0.500000
O O14 0.500000 0.632460 0.000000
O O15 0.407099 0.640224 0.860572
O O16 0.000000 0.153762 0.500000
#
# Coordination Sequence:
#
# PCOD8048567 Si02
#       6
#     4   4   4   4   4   4
#     4  11  21  34  54  77 108 148 179 221 283 339
#     4   9  19  33  55  82 106 136 182 234 279 318
#     4  10  19  34  54  80 109 139 179 229 277 328
#     4  11  21  34  53  80 107 140 185 233 275 325
#     4  11  22  35  52  81 115 147 179 224 281 334
#     4  10  21  38  60  84 114 150 189 231 276 334
#
# _framework density 19.407088999999999
#
# number of rings (size 3 to 8) (size 9 to 14) (size 15 to 20)
#    0.000    1.667    0.000    7.000    0.000    5.333 
#    0.000    0.000    0.000    3.000    0.000    0.000 
#    0.000    0.000    0.000    0.000    0.000    0.000 
#
# Total GULP energy -148688.314614 kJ/mol
# GULP energy per Si atom -12390.692884 kJ/mol
# Density = 1.936292 g / cm^3
# Si number density = 19.407089 Si / 1000 Ang^3
#
#
#
# Elastic Constant Matrix: (Units=GPa)
#
#
# Indices 1 2 3 4 5 6 
#
# 1 130.7885 42.3522 40.0786 0.0256 -8.7197 -0.0211
# 2 42.3522 174.2846 26.2502 0.0174 6.0807 0.0162
# 3 40.0786 26.2502 73.2313 -0.1354 -10.3929 0.1425
# 4 0.0256 0.0174 -0.1354 27.5288 0.0320 0.8974
# 5 -8.7197 6.0807 -10.3929 0.0320 35.5385 0.0028
# 6 -0.0211 0.0162 0.1425 0.8974 0.0028 22.5442
#
#
#
# Elastic Compliance Matrix: (Units=1/GPa)
#
#
# Indices 1 2 3 4 5 6 
#
# 1 0.009667 -0.001722 -0.004481 -0.000033 0.001356 0.000040
# 2 -0.001722 0.006477 -0.001666 -0.000008 -0.002018 0.000005
# 3 -0.004481 -0.001666 0.017308 0.000089 0.004247 -0.000116
# 4 -0.000033 -0.000008 0.000089 0.036373 -0.000013 -0.001448
# 5 0.001356 -0.002018 0.004247 -0.000013 0.030059 -0.000027
# 6 0.000040 0.000005 -0.000116 -0.001448 -0.000027 0.044416
#
#
# Mechanical properties :
#
#
# Convention : Reuss Voigt Hill
#
# Bulk Modulus (GPa) = 56.44947 66.18515 61.31731
# Shear Modulus (GPa) = 30.13080 35.09718 32.61399
#
# Velocity S-wave (km/s) = 3.94454 4.25723 4.10386
# Velocity P-wave (km/s) = 7.06371 7.63826 7.35659
#
# Compressibility (1/GPa) = 0.01771496
#
# Stress axis : x y z
#
# Youngs Moduli (GPa) = 103.44422 154.38225 57.77582
#
# Poissons Ratio (x) = 0.26577 0.25891
# Poissons Ratio (y) = 0.17808 0.09626
# Poissons Ratio (z) = 0.46356 0.25722
#
# Static dielectric constant tensor:
#      x y z
#    x 3.520990 -0.000270 -0.239800 
#    y -0.000270 4.088360 0.000730 
#    z -0.239800 0.000730 3.454840 
# 
# 
# High freq. dielectric constant tensor:
#      x y z
#    x 1.751390 -0.000010 -0.032660 
#    y -0.000010 1.753680 0.000040 
#    z -0.032660 0.000040 1.742160 
# 
# From -- ./inp_files/40845.got.cif
#   From: 2010.03.12/outbox.cif.g09.slc.cpg/sg5_21_cif.got.tgz:40845.got - 2010.03.31 09:47:26.
