data_PCOD8048840
_publ_section_title
;
Structure prediction by ZEFSAII (Michael W. Deem and Ramdas Pophale) SiO2 
 PCOD8048840
Probable space group: C 2
;
_chemical_formula_sum "Si O2"
_cell_formula_units_Z 30
_cell_length_a 21.006206
_cell_length_b 15.800406
_cell_length_c 7.838604
_cell_angle_alpha 90.000000
_cell_angle_beta 32.730338
_cell_angle_gamma 90.000000
_cell_volume 1406.693802
_symmetry_space_group_name_H-M "C 2"
_symmetry_group_IT_number 5
_symmetry_cell_setting 'monoclinic'
loop_
_space_group_symop_operation_xyz
x,y,z
-x,y,-z
1/2+x,1/2+y,z
1/2-x,1/2+y,-z
loop_
_atom_site_type_symbol
_atom_site_label
_atom_site_fract_x
_atom_site_fract_y
_atom_site_fract_z
Si Si1 0.836573 0.216690 0.711884
Si Si2 0.065624 0.452853 0.679685
Si Si3 0.763232 0.828910 0.327689
Si Si4 0.381024 0.272310 0.371978
Si Si5 0.503535 0.411204 0.692757
Si Si6 0.020603 0.095045 0.252148
Si Si7 0.776139 0.611010 0.754192
Si Si8 0.500000 0.852475 0.500000
O O1 0.738390 0.254240 0.807749
O O2 0.943224 0.174510 0.357729
O O3 0.886391 0.290196 0.729014
O O4 0.769615 0.139967 0.957484
O O5 0.142712 0.378259 0.583256
O O6 0.149239 0.524621 0.408322
O O7 0.987673 0.412637 0.698521
O O8 0.000000 0.487395 0.000000
O O9 0.769303 0.790397 0.503583
O O10 0.876165 0.887116 0.048998
O O11 0.393299 0.347839 0.482025
O O12 0.365387 0.182637 0.493547
O O13 0.500000 0.267190 0.000000
O O14 0.500000 0.413023 0.500000
O O15 0.528982 0.505666 0.706940
O O16 0.000000 0.101020 0.500000
O O17 0.160156 0.101874 0.895055
#
# Coordination Sequence:
#
# PCOD8048840 Si02
#       8
#     4   4   4   4   4   4   4   2
#     4  10  20  40  67  93 123 162 222 264 316 390
#     4  11  25  43  65  97 136 171 217 272 321 393
#     4  10  22  40  60  94 125 170 208 262 324 383
#     4  10  23  39  58  87 127 163 209 256 319 384
#     4  10  19  39  63  90 120 161 212 261 313 383
#     4   9  18  35  61  92 118 148 210 270 308 369
#     4  11  20  41  63  90 123 167 208 268 322 372
#     4  10  22  44  68  94 130 170 220 264 324 384
#
# _framework density 21.326604
#
# number of rings (size 3 to 8) (size 9 to 14) (size 15 to 20)
#    0.000    1.867    3.333    1.200    1.867    0.000 
#   10.800    0.000    0.000    0.000    0.000    0.000 
#    0.000    0.000    0.000    0.000    0.000    0.000 
#
# Total GULP energy -185843.433931 kJ/mol
# GULP energy per Si atom -12389.562262 kJ/mol
# Density = 2.127806 g / cm^3
# Si number density = 21.326604 Si / 1000 Ang^3
#
#
#
# Elastic Constant Matrix: (Units=GPa)
#
#
# Indices 1 2 3 4 5 6 
#
# 1 106.1224 44.5172 19.7295 0.0000 -6.6844 0.0000
# 2 44.5172 131.2960 31.5434 0.0000 -6.8320 0.0000
# 3 19.7295 31.5434 56.2300 0.0000 0.5409 0.0000
# 4 0.0000 0.0000 0.0000 51.3096 0.0000 -34.4013
# 5 -6.6844 -6.8320 0.5409 0.0000 17.2999 0.0000
# 6 0.0000 0.0000 0.0000 -34.4013 0.0000 72.0286
#
#
#
# Elastic Compliance Matrix: (Units=1/GPa)
#
#
# Indices 1 2 3 4 5 6 
#
# 1 0.011364 -0.003144 -0.002255 0.000000 0.003220 0.000000
# 2 -0.003144 0.009907 -0.004482 0.000000 0.002838 0.000000
# 3 -0.002255 -0.004482 0.021121 0.000000 -0.003301 0.000000
# 4 0.000000 0.000000 0.000000 0.028670 0.000000 0.013693
# 5 0.003220 0.002838 -0.003301 0.000000 0.060272 0.000000
# 6 0.000000 0.000000 0.000000 0.013693 0.000000 0.020423
#
#
# Mechanical properties :
#
#
# Convention : Reuss Voigt Hill
#
# Bulk Modulus (GPa) = 44.18631 53.91428 49.05029
# Shear Modulus (GPa) = 27.92349 41.31817 34.62083
#
# Velocity S-wave (km/s) = 3.62239 4.40637 4.03347
# Velocity P-wave (km/s) = 6.18542 7.15704 6.68890
#
# Compressibility (1/GPa) = 0.02263145
#
# Stress axis : x y z
#
# Youngs Moduli (GPa) = 87.99832 100.94207 47.34634
#
# Poissons Ratio (x) = 0.31734 0.10675
# Poissons Ratio (y) = 0.27665 0.21219
# Poissons Ratio (z) = 0.19840 0.45238
#
# Static dielectric constant tensor:
#      x y z
#    x 3.065110 0.000000 -0.760770 
#    y 0.000000 4.275660 0.000000 
#    z -0.760770 0.000000 3.316560 
# 
# 
# High freq. dielectric constant tensor:
#      x y z
#    x 1.818610 0.000000 -0.007750 
#    y 0.000000 1.850300 0.000000 
#    z -0.007750 0.000000 1.822050 
# 
# From -- ./inp_files/31017.got.cif
#   From: 2010.03.12/outbox.cif.g09.slc.cpg/sg5_16_cif.got.tgz:31017.got - 2010.03.31 09:47:26.
