data_PCOD8048493
_publ_section_title
;
Structure prediction by ZEFSAII (Michael W. Deem and Ramdas Pophale) SiO2 
 PCOD8048493
Probable space group: C 2
;
_chemical_formula_sum "Si O2"
_cell_formula_units_Z 32
_cell_length_a 10.859109
_cell_length_b 16.951676
_cell_length_c 12.100410
_cell_angle_alpha 90.000000
_cell_angle_beta 129.015652
_cell_angle_gamma 90.000000
_cell_volume 1730.666615
_symmetry_space_group_name_H-M "C 2"
_symmetry_group_IT_number 5
_symmetry_cell_setting 'monoclinic'
loop_
_space_group_symop_operation_xyz
x,y,z
-x,y,-z
1/2+x,1/2+y,z
1/2-x,1/2+y,-z
loop_
_atom_site_type_symbol
_atom_site_label
_atom_site_fract_x
_atom_site_fract_y
_atom_site_fract_z
Si Si1 0.894736 0.450380 0.656313
Si Si2 0.863622 0.943659 0.064259
Si Si3 0.329603 0.882573 0.853584
Si Si4 0.820342 0.549862 0.206682
Si Si5 0.166118 0.769133 0.047460
Si Si6 0.810939 0.214881 0.905890
Si Si7 0.109267 0.322773 0.654315
Si Si8 0.290703 0.458412 0.659397
O O1 0.820993 0.421309 0.729172
O O2 0.749660 0.471922 0.492687
O O3 0.003781 0.527944 0.738936
O O4 0.006265 0.381490 0.671786
O O5 0.751598 0.941887 0.107172
O O6 0.027883 0.971449 0.208851
O O7 0.866143 0.859957 0.003528
O O8 0.810449 0.008956 0.946070
O O9 0.254914 0.794120 0.809010
O O10 0.500000 0.866636 0.000000
O O11 0.788282 0.642393 0.198719
O O12 0.813370 0.518804 0.328024
O O13 0.299124 0.760746 0.218089
O O14 0.247405 0.720511 0.995550
O O15 0.000000 0.732983 0.000000
O O16 0.000000 0.199504 0.000000
O O17 0.243885 0.369683 0.663890
O O18 0.000000 0.279725 0.500000
#
# Coordination Sequence:
#
# PCOD8048493 Si02
#       8
#     4   4   4   4   4   4   4   4
#     4  10  19  34  56  83 111 146 193 238 293 355
#     4  11  18  31  59  82 109 144 198 244 282 341
#     4  10  19  36  55  85 117 154 189 246 295 351
#     4  11  19  36  58  86 105 150 197 242 284 353
#     4  11  18  34  56  85 117 153 198 255 284 351
#     4  10  22  34  57  86 125 155 194 244 313 350
#     4   9  16  28  52  81 106 139 187 242 287 336
#     4  10  19  30  56  84 110 138 190 249 290 333
#
# _framework density 18.489985999999998
#
# number of rings (size 3 to 8) (size 9 to 14) (size 15 to 20)
#    0.000    1.750    5.000    3.750    0.000    0.500 
#    2.250    0.000   11.000    1.500    0.000    0.000 
#    0.000    0.000    0.000    0.000    0.000    0.000 
#
# Total GULP energy -198296.901050 kJ/mol
# GULP energy per Si atom -12393.556316 kJ/mol
# Density = 1.844790 g / cm^3
# Si number density = 18.489986 Si / 1000 Ang^3
#
#
#
# Elastic Constant Matrix: (Units=GPa)
#
#
# Indices 1 2 3 4 5 6 
#
# 1 99.3405 19.5137 35.8536 0.0000 -16.2105 0.0000
# 2 19.5137 56.3573 25.1914 0.0000 -11.7979 0.0000
# 3 35.8536 25.1914 131.1686 0.0000 -9.9026 0.0000
# 4 0.0000 0.0000 0.0000 15.4578 0.0000 2.0803
# 5 -16.2105 -11.7979 -9.9026 0.0000 31.3302 0.0000
# 6 0.0000 0.0000 0.0000 2.0803 0.0000 15.0189
#
#
#
# Elastic Compliance Matrix: (Units=1/GPa)
#
#
# Indices 1 2 3 4 5 6 
#
# 1 0.012170 -0.002080 -0.002572 0.000000 0.004701 0.000000
# 2 -0.002080 0.021052 -0.003030 0.000000 0.005894 0.000000
# 3 -0.002572 -0.003030 0.008935 0.000000 0.000352 0.000000
# 4 0.000000 0.000000 0.000000 0.065921 0.000000 -0.009131
# 5 0.004701 0.005894 0.000352 0.000000 0.036681 0.000000
# 6 0.000000 0.000000 0.000000 -0.009131 0.000000 0.067848
#
#
# Mechanical properties :
#
#
# Convention : Reuss Voigt Hill
#
# Bulk Modulus (GPa) = 37.32192 49.77597 43.54895
# Shear Modulus (GPa) = 21.10566 26.11522 23.61044
#
# Velocity S-wave (km/s) = 3.38222 3.76227 3.57729
# Velocity P-wave (km/s) = 5.95662 6.77140 6.37703
#
# Compressibility (1/GPa) = 0.02679391
#
# Stress axis : x y z
#
# Youngs Moduli (GPa) = 82.16621 47.50094 111.91516
#
# Poissons Ratio (x) = 0.09881 0.28788
# Poissons Ratio (y) = 0.17092 0.33906
# Poissons Ratio (z) = 0.21136 0.14391
#
# Static dielectric constant tensor:
#      x y z
#    x 4.619900 0.000000 0.232590 
#    y 0.000000 3.094230 0.000000 
#    z 0.232590 0.000000 3.553840 
# 
# 
# High freq. dielectric constant tensor:
#      x y z
#    x 1.720140 0.000000 -0.003550 
#    y 0.000000 1.671910 0.000000 
#    z -0.003550 0.000000 1.717490 
# 
# From -- ./inp_files/40367.got.cif
#   From: 2010.03.12/outbox.cif.g09.slc.cpg/sg5_21_cif.got.tgz:40367.got - 2010.03.31 09:47:26.
