data_PCOD8048554
_publ_section_title
;
Structure prediction by ZEFSAII (Michael W. Deem and Ramdas Pophale) SiO2 
 PCOD8048554
Probable space group: C 2
;
_chemical_formula_sum "Si O2"
_cell_formula_units_Z 32
_cell_length_a 28.629942
_cell_length_b 8.387796
_cell_length_c 20.257757
_cell_angle_alpha 90.000000
_cell_angle_beta 19.895391
_cell_angle_gamma 90.000000
_cell_volume 1655.490238
_symmetry_space_group_name_H-M "C 2"
_symmetry_group_IT_number 5
_symmetry_cell_setting 'monoclinic'
loop_
_space_group_symop_operation_xyz
x,y,z
-x,y,-z
1/2+x,1/2+y,z
1/2-x,1/2+y,-z
loop_
_atom_site_type_symbol
_atom_site_label
_atom_site_fract_x
_atom_site_fract_y
_atom_site_fract_z
Si Si1 0.810072 0.526720 0.877288
Si Si2 0.083961 0.949866 0.091080
Si Si3 0.097258 0.523268 0.666735
Si Si4 0.870309 0.169072 0.772793
Si Si5 0.669670 0.659956 0.555421
Si Si6 0.531767 0.237484 0.639334
Si Si7 0.672374 0.145767 0.918256
Si Si8 0.158241 0.041797 0.423979
O O1 0.870349 0.348903 0.800165
O O2 0.935221 0.652710 0.713138
O O3 0.719429 0.553086 0.930655
O O4 0.713393 0.551231 0.068812
O O5 0.061140 0.840350 0.186783
O O6 0.111915 0.827660 0.993531
O O7 0.955002 0.060300 0.246034
O O8 0.189519 0.617219 0.596368
O O9 0.144084 0.343722 0.600551
O O10 0.113026 0.604811 0.573887
O O11 0.940336 0.529187 0.899871
O O12 0.808402 0.154020 0.782161
O O13 0.026401 0.112962 0.562890
O O14 0.682952 0.625458 0.460841
O O15 0.640486 0.351114 0.457626
O O16 0.709822 0.077706 0.796632
#
# Coordination Sequence:
#
# PCOD8048554 Si02
#       8
#     4   4   4   4   4   4   4   4
#     4  11  16  31  57  86 112 147 197 236 278 334
#     4   9  19  34  56  86 112 148 194 239 275 350
#     4  11  22  39  61  85 110 147 196 250 286 338
#     4  11  19  32  57  86 117 151 191 238 285 343
#     4  11  22  38  63  85 109 147 198 245 289 340
#     4  10  19  33  56  86 114 148 197 237 276 347
#     4  10  22  38  57  83 120 153 187 233 294 350
#     4  11  22  37  57  85 119 155 188 232 296 352
#
# _framework density 19.329622000000001
#
# number of rings (size 3 to 8) (size 9 to 14) (size 15 to 20)
#    0.000    1.500    6.250    3.375    0.000    1.500 
#    0.000    2.500    0.000    7.500    0.000    0.000 
#    0.000    0.000    0.000    0.000    0.000    0.000 
#
# Total GULP energy -198385.124937 kJ/mol
# GULP energy per Si atom -12399.070309 kJ/mol
# Density = 1.928563 g / cm^3
# Si number density = 19.329622 Si / 1000 Ang^3
#
#
#
# Elastic Constant Matrix: (Units=GPa)
#
#
# Indices 1 2 3 4 5 6 
#
# 1 52.8453 28.3711 34.7836 0.0001 -5.5964 0.0000
# 2 28.3711 115.2319 44.6390 -0.0017 6.6387 -0.0003
# 3 34.7836 44.6390 65.2559 -0.0006 9.6134 -0.0002
# 4 0.0001 -0.0017 -0.0006 31.9012 -0.0001 -6.1347
# 5 -5.5964 6.6387 9.6134 -0.0001 31.8443 0.0000
# 6 0.0000 -0.0003 -0.0002 -6.1347 0.0000 31.8151
#
#
#
# Elastic Compliance Matrix: (Units=1/GPa)
#
#
# Indices 1 2 3 4 5 6 
#
# 1 0.033028 -0.001793 -0.018093 -0.000001 0.011640 0.000000
# 2 -0.001793 0.011904 -0.007091 0.000001 -0.000656 0.000000
# 3 -0.018093 -0.007091 0.031469 0.000000 -0.011202 0.000000
# 4 -0.000001 0.000001 0.000000 0.032554 0.000000 0.006277
# 5 0.011640 -0.000656 -0.011202 0.000000 0.036967 0.000000
# 6 0.000000 0.000000 0.000000 0.006277 0.000000 0.032642
#
#
# Mechanical properties :
#
#
# Convention : Reuss Voigt Hill
#
# Bulk Modulus (GPa) = 44.54904 49.88004 47.21454
# Shear Modulus (GPa) = 20.83332 27.48140 24.15736
#
# Velocity S-wave (km/s) = 3.28654 3.77467 3.53903
# Velocity P-wave (km/s) = 6.12363 6.69765 6.41706
#
# Compressibility (1/GPa) = 0.02244717
#
# Stress axis : x y z
#
# Youngs Moduli (GPa) = 30.27761 84.00304 31.77729
#
# Poissons Ratio (x) = 0.15065 0.57494
# Poissons Ratio (y) = 0.05430 0.22532
# Poissons Ratio (z) = 0.54781 0.59564
#
# Static dielectric constant tensor:
#      x y z
#    x 3.461140 0.000000 -0.233350 
#    y 0.000000 3.723260 0.000000 
#    z -0.233350 0.000000 3.386150 
# 
# 
# High freq. dielectric constant tensor:
#      x y z
#    x 1.737160 0.000000 -0.025650 
#    y 0.000000 1.761220 0.000000 
#    z -0.025650 0.000000 1.729360 
# 
# From -- ./inp_files/67719.got.cif
#   From: 2010.03.12/outbox.cif.g09.slc.cpg/sg5_34_cif.got.tgz:67719.got - 2010.03.31 09:47:26.
