data_PCOD8048041
_publ_section_title
;
Structure prediction by ZEFSAII (Michael W. Deem and Ramdas Pophale) SiO2 
 PCOD8048041
Probable space group: C 2
;
_chemical_formula_sum "Si O2"
_cell_formula_units_Z 32
_cell_length_a 33.991304
_cell_length_b 8.206625
_cell_length_c 5.290688
_cell_angle_alpha 90.000000
_cell_angle_beta 99.169091
_cell_angle_gamma 90.000000
_cell_volume 1457.000008
_symmetry_space_group_name_H-M "C 2"
_symmetry_group_IT_number 5
_symmetry_cell_setting 'monoclinic'
loop_
_space_group_symop_operation_xyz
x,y,z
-x,y,-z
1/2+x,1/2+y,z
1/2-x,1/2+y,-z
loop_
_atom_site_type_symbol
_atom_site_label
_atom_site_fract_x
_atom_site_fract_y
_atom_site_fract_z
Si Si1 0.019371 0.634930 0.771345
Si Si2 0.607403 0.833706 0.338299
Si Si3 0.354380 0.832031 0.126149
Si Si4 0.612601 0.192764 0.871058
Si Si5 0.641605 0.192914 0.404225
Si Si6 0.267174 0.167160 0.369837
Si Si7 0.014233 0.275865 0.263230
Si Si8 0.236471 0.316901 0.842411
O O1 0.066046 0.663499 0.835565
O O2 0.000000 0.714935 0.500000
O O3 0.011755 0.441900 0.761570
O O4 0.000000 0.716710 0.000000
O O5 0.625422 0.749854 0.607070
O O6 0.560496 0.811545 0.296868
O O7 0.616863 0.025284 0.343565
O O8 0.627057 0.752125 0.108793
O O9 0.307687 0.799520 0.092467
O O10 0.362508 0.025133 0.137372
O O11 0.623786 0.291781 0.626330
O O12 0.630510 0.288659 0.133172
O O13 0.688057 0.160683 0.481102
O O14 0.241640 0.204359 0.597432
O O15 0.252674 0.994762 0.248592
O O16 0.263698 0.285189 0.120210
O O17 0.000000 0.178379 0.500000
O O18 0.000000 0.175973 0.000000
#
# Coordination Sequence:
#
# PCOD8048041 Si02
#       8
#     4   4   4   4   4   4   4   4
#     4  10  16  23  34  60  93 133 181 220 254 314
#     4  10  17  27  47  63 100 137 188 226 262 330
#     4  10  18  31  48  69  95 132 188 228 266 337
#     4  10  17  27  47  63 100 137 188 226 262 330
#     4  10  18  31  48  69  95 132 188 228 266 337
#     4  12  25  41  62  86 115 148 194 258 309 356
#     4  10  16  23  34  60  93 133 181 220 254 314
#     4  12  25  41  62  86 115 148 194 258 309 356
#
# _framework density 21.962935999999999
#
# number of rings (size 3 to 8) (size 9 to 14) (size 15 to 20)
#    0.000    1.500    2.500    9.750    3.500    0.000 
#    0.000    0.000    0.000    0.000    0.000    0.000 
#    0.000    0.000    0.000    0.000    0.000  851.250 
#
# Total GULP energy -198221.215452 kJ/mol
# GULP energy per Si atom -12388.825966 kJ/mol
# Density = 2.191295 g / cm^3
# Si number density = 21.962936 Si / 1000 Ang^3
#
#
#
# Elastic Constant Matrix: (Units=GPa)
#
#
# Indices 1 2 3 4 5 6 
#
# 1 127.1090 20.3886 69.1134 0.0000 -10.4301 0.0000
# 2 20.3886 17.3232 15.5527 0.0000 -0.6230 0.0000
# 3 69.1134 15.5527 266.9559 0.0000 -13.6606 0.0000
# 4 0.0000 0.0000 0.0000 11.6345 0.0000 -2.9149
# 5 -10.4301 -0.6230 -13.6606 0.0000 50.6191 0.0000
# 6 0.0000 0.0000 0.0000 -2.9149 0.0000 5.5416
#
#
#
# Elastic Compliance Matrix: (Units=1/GPa)
#
#
# Indices 1 2 3 4 5 6 
#
# 1 0.010880 -0.010860 -0.002105 0.000000 0.001540 0.000000
# 2 -0.010860 0.071754 -0.001458 0.000000 -0.001748 0.000000
# 3 -0.002105 -0.001458 0.004414 0.000000 0.000739 0.000000
# 4 0.000000 0.000000 0.000000 0.098998 0.000000 0.052074
# 5 0.001540 -0.001748 0.000739 0.000000 0.020251 0.000000
# 6 0.000000 0.000000 0.000000 0.052074 0.000000 0.207845
#
#
# Mechanical properties :
#
#
# Convention : Reuss Voigt Hill
#
# Bulk Modulus (GPa) = 17.18178 69.05529 43.11854
# Shear Modulus (GPa) = 10.81338 33.98126 22.39732
#
# Velocity S-wave (km/s) = 2.22130 3.93773 3.19686
# Velocity P-wave (km/s) = 3.79723 7.22387 5.77075
#
# Compressibility (1/GPa) = 0.05820118
#
# Stress axis : x y z
#
# Youngs Moduli (GPa) = 91.90847 13.93641 226.56253
#
# Poissons Ratio (x) = 0.15135 0.47699
# Poissons Ratio (y) = 0.99814 0.33037
# Poissons Ratio (z) = 0.19350 0.02032
#
# Static dielectric constant tensor:
#      x y z
#    x 3.908030 0.000000 -0.278530 
#    y 0.000000 3.135300 0.000000 
#    z -0.278530 0.000000 6.652300 
# 
# 
# High freq. dielectric constant tensor:
#      x y z
#    x 1.877610 0.000000 -0.004500 
#    y 0.000000 1.756730 0.000000 
#    z -0.004500 0.000000 1.921090 
# 
# From -- ./inp_files/11237.got.cif
#   From: 2010.03.12/outbox.cif.g09.slc.cpg/sg5_6_cif.got.tgz:11237.got - 2010.03.31 09:47:26.
