data_PCOD8048389
_publ_section_title
;
Structure prediction by ZEFSAII (Michael W. Deem and Ramdas Pophale) SiO2 
 PCOD8048389
Probable space group: C 2
;
_chemical_formula_sum "Si O2"
_cell_formula_units_Z 32
_cell_length_a 9.990061
_cell_length_b 19.504305
_cell_length_c 15.762937
_cell_angle_alpha 90.000000
_cell_angle_beta 147.110647
_cell_angle_gamma 90.000000
_cell_volume 1667.824387
_symmetry_space_group_name_H-M "C 2"
_symmetry_group_IT_number 5
_symmetry_cell_setting 'monoclinic'
loop_
_space_group_symop_operation_xyz
x,y,z
-x,y,-z
1/2+x,1/2+y,z
1/2-x,1/2+y,-z
loop_
_atom_site_type_symbol
_atom_site_label
_atom_site_fract_x
_atom_site_fract_y
_atom_site_fract_z
Si Si1 0.107201 0.210620 0.252541
Si Si2 0.060973 0.822648 0.159772
Si Si3 0.246742 0.957889 0.576115
Si Si4 0.885871 0.717595 0.564585
Si Si5 0.239150 0.356659 0.566689
Si Si6 0.922049 0.666763 0.054178
Si Si7 0.381929 0.851258 0.182523
Si Si8 0.789713 0.606282 0.645496
O O1 0.223421 0.183689 0.402962
O O2 0.323778 0.216819 0.299766
O O3 0.011992 0.286850 0.211165
O O4 0.878469 0.162795 0.100055
O O5 0.018905 0.741430 0.132387
O O6 0.045579 0.849570 0.247967
O O7 0.323093 0.838710 0.251900
O O8 0.862429 0.865498 0.001183
O O9 0.225045 0.926374 0.469165
O O10 0.446547 0.916625 0.736246
O O11 0.000000 0.954028 0.500000
O O12 0.345097 0.035964 0.624133
O O13 0.773675 0.793341 0.520142
O O14 0.873959 0.672720 0.641072
O O15 0.000000 0.353796 0.500000
O O16 0.056145 0.609672 0.184226
O O17 0.000000 0.650905 0.000000
O O18 0.500000 0.612896 0.500000
#
# Coordination Sequence:
#
# PCOD8048389 Si02
#       8
#     4   4   4   4   4   4   4   4
#     4  10  20  35  58  94 125 161 199 258 310 362
#     4  10  19  33  61  99 118 152 204 258 303 358
#     4  11  24  43  60  85 126 170 204 252 314 371
#     4  11  21  36  61  94 125 158 208 258 312 365
#     4  12  21  36  67  96 121 161 214 256 305 367
#     4  11  20  38  64  92 128 158 205 259 310 371
#     4  10  18  37  58  88 128 155 196 251 309 362
#     4  11  25  41  61  87 123 167 209 256 308 376
#
# _framework density 19.186672999999999
#
# number of rings (size 3 to 8) (size 9 to 14) (size 15 to 20)
#    0.000    1.250    6.250    1.875    0.000    0.500 
#    2.250    8.125    0.000    0.000    0.000    0.000 
#    0.000    0.000    0.000    0.000    0.000    0.000 
#
# Total GULP energy -198297.278741 kJ/mol
# GULP energy per Si atom -12393.579921 kJ/mol
# Density = 1.914300 g / cm^3
# Si number density = 19.186673 Si / 1000 Ang^3
#
#
#
# Elastic Constant Matrix: (Units=GPa)
#
#
# Indices 1 2 3 4 5 6 
#
# 1 76.6938 32.6466 46.9762 0.0020 -2.7123 0.0037
# 2 32.6466 80.1954 39.0026 0.0335 -7.0775 0.0051
# 3 46.9762 39.0026 106.5142 0.0792 -2.6585 0.0132
# 4 0.0020 0.0335 0.0792 19.8069 0.0295 -8.9727
# 5 -2.7123 -7.0775 -2.6585 0.0295 42.2471 0.0003
# 6 0.0037 0.0051 0.0132 -8.9727 0.0003 24.5123
#
#
#
# Elastic Compliance Matrix: (Units=1/GPa)
#
#
# Indices 1 2 3 4 5 6 
#
# 1 0.019100 -0.004471 -0.006785 0.000040 0.000050 0.000016
# 2 -0.004471 0.016424 -0.003987 -0.000018 0.002214 -0.000007
# 3 -0.006785 -0.003987 0.013835 -0.000060 -0.000233 -0.000028
# 4 0.000040 -0.000018 -0.000060 0.060524 -0.000047 0.022155
# 5 0.000050 0.002214 -0.000233 -0.000047 0.024030 -0.000018
# 6 0.000016 -0.000007 -0.000028 0.022155 -0.000018 0.048906
#
#
# Mechanical properties :
#
#
# Convention : Reuss Voigt Hill
#
# Bulk Modulus (GPa) = 52.98678 55.62827 54.30752
# Shear Modulus (GPa) = 22.76911 26.96514 24.86712
#
# Velocity S-wave (km/s) = 3.44861 3.75295 3.60399
# Velocity P-wave (km/s) = 6.59800 6.91633 6.75904
#
# Compressibility (1/GPa) = 0.01887263
#
# Stress axis : x y z
#
# Youngs Moduli (GPa) = 52.35626 60.88647 72.27988
#
# Poissons Ratio (x) = 0.27222 0.49044
# Poissons Ratio (y) = 0.23408 0.28818
# Poissons Ratio (z) = 0.35525 0.24275
#
# Static dielectric constant tensor:
#      x y z
#    x 3.688400 0.000000 0.148490 
#    y 0.000000 3.324860 -0.000010 
#    z 0.148490 -0.000010 4.137120 
# 
# 
# High freq. dielectric constant tensor:
#      x y z
#    x 1.748700 0.000000 0.000180 
#    y 0.000000 1.708660 0.000000 
#    z 0.000180 0.000000 1.768450 
# 
# From -- ./inp_files/51577.got.cif
#   From: 2010.03.12/outbox.cif.g09.slc.cpg/sg5_26_cif.got.tgz:51577.got - 2010.03.31 09:47:26.
