data_PCOD8048507
_publ_section_title
;
Structure prediction by ZEFSAII (Michael W. Deem and Ramdas Pophale) SiO2 
 PCOD8048507
Probable space group: C 2
;
_chemical_formula_sum "Si O2"
_cell_formula_units_Z 30
_cell_length_a 20.655856
_cell_length_b 14.648730
_cell_length_c 5.510202
_cell_angle_alpha 90.000000
_cell_angle_beta 64.720419
_cell_angle_gamma 90.000000
_cell_volume 1507.620054
_symmetry_space_group_name_H-M "C 2"
_symmetry_group_IT_number 5
_symmetry_cell_setting 'monoclinic'
loop_
_space_group_symop_operation_xyz
x,y,z
-x,y,-z
1/2+x,1/2+y,z
1/2-x,1/2+y,-z
loop_
_atom_site_type_symbol
_atom_site_label
_atom_site_fract_x
_atom_site_fract_y
_atom_site_fract_z
Si Si1 0.218093 0.358860 0.153655
Si Si2 0.112552 0.597538 0.984181
Si Si3 0.500000 0.147521 0.500000
Si Si4 0.621385 0.244388 0.588663
Si Si5 0.856362 0.954510 0.430129
Si Si6 0.660549 0.511921 0.038944
Si Si7 0.235905 0.671924 0.084084
Si Si8 0.688401 0.930444 0.697838
O O1 0.172524 0.374821 0.474139
O O2 0.285725 0.425870 0.044585
O O3 0.243573 0.253966 0.130269
O O4 0.173769 0.373979 0.972073
O O5 0.104698 0.694926 0.866503
O O6 0.132012 0.514556 0.773938
O O7 0.035628 0.582037 0.238682
O O8 0.178278 0.601751 0.066521
O O9 0.563567 0.213028 0.484546
O O10 0.616113 0.351756 0.626985
O O11 0.702001 0.217946 0.378421
O O12 0.884095 0.003219 0.635526
O O13 0.770108 0.965604 0.565236
O O14 0.886228 0.002393 0.134774
O O15 0.695782 0.611369 0.961351
#
# Coordination Sequence:
#
# PCOD8048507 Si02
#       8
#     4   4   2   4   4   4   4   4
#     4  10  19  32  46  81 105 146 191 218 285 346
#     4  11  21  36  54  75 113 162 195 240 283 348
#     4  10  26  36  52  86 104 166 220 234 286 346
#     4  11  21  36  54  75 113 162 195 240 283 348
#     4  10  19  33  51  75 109 144 192 228 282 344
#     4  10  19  32  46  81 105 146 191 218 285 346
#     4  11  20  31  56  76 116 157 185 236 286 355
#     4  10  19  33  51  75 109 144 192 228 282 344
#
# _framework density 19.898911999999999
#
# number of rings (size 3 to 8) (size 9 to 14) (size 15 to 20)
#    0.000    1.600    5.333    3.600    3.733    0.000 
#    0.000    0.000    0.000    0.000    0.000    0.000 
#    0.000    1.067    2.133    0.000    0.000    0.000 
#
# Total GULP energy -185882.574784 kJ/mol
# GULP energy per Si atom -12392.171652 kJ/mol
# Density = 1.985362 g / cm^3
# Si number density = 19.898912 Si / 1000 Ang^3
#
#
#
# Elastic Constant Matrix: (Units=GPa)
#
#
# Indices 1 2 3 4 5 6 
#
# 1 25.7665 10.8753 33.4399 0.0000 9.2212 0.0000
# 2 10.8753 72.0584 33.0808 0.0000 -7.1582 0.0000
# 3 33.4399 33.0808 148.3042 0.0000 31.8439 0.0000
# 4 0.0000 0.0000 0.0000 26.4844 0.0000 6.4798
# 5 9.2212 -7.1582 31.8439 0.0000 34.8787 0.0000
# 6 0.0000 0.0000 0.0000 6.4798 0.0000 15.5994
#
#
#
# Elastic Compliance Matrix: (Units=1/GPa)
#
#
# Indices 1 2 3 4 5 6 
#
# 1 0.056394 -0.004374 -0.010381 0.000000 -0.006329 0.000000
# 2 -0.004374 0.017753 -0.004981 0.000000 0.009347 0.000000
# 3 -0.010381 -0.004981 0.012221 0.000000 -0.009435 0.000000
# 4 0.000000 0.000000 0.000000 0.042030 0.000000 -0.017459
# 5 -0.006329 0.009347 -0.009435 0.000000 0.040876 0.000000
# 6 0.000000 0.000000 0.000000 -0.017459 0.000000 0.071357
#
#
# Mechanical properties :
#
#
# Convention : Reuss Voigt Hill
#
# Bulk Modulus (GPa) = 21.32401 44.54679 32.93540
# Shear Modulus (GPa) = 16.90708 26.64136 21.77422
#
# Velocity S-wave (km/s) = 2.91803 3.66298 3.31152
# Velocity P-wave (km/s) = 4.70028 6.35020 5.58649
#
# Compressibility (1/GPa) = 0.04689550
#
# Stress axis : x y z
#
# Youngs Moduli (GPa) = 17.73239 56.32880 81.82964
#
# Poissons Ratio (x) = 0.24639 0.84948
# Poissons Ratio (y) = 0.07756 0.40757
# Poissons Ratio (z) = 0.18408 0.28056
#
# Static dielectric constant tensor:
#      x y z
#    x 3.338700 0.000000 0.627540 
#    y 0.000000 3.456800 0.000000 
#    z 0.627540 0.000000 4.470870 
# 
# 
# High freq. dielectric constant tensor:
#      x y z
#    x 1.713310 0.000000 0.043440 
#    y 0.000000 1.759340 0.000000 
#    z 0.043440 0.000000 1.789720 
# 
# From -- ./inp_files/8640.got.cif
#   From: 2010.03.12/outbox.cif.g09.slc.cpg/sg5_5_cif.got.tgz:8640.got - 2010.03.31 09:47:26.
