data_PCOD8048214
_publ_section_title
;
Structure prediction by ZEFSAII (Michael W. Deem and Ramdas Pophale) SiO2 
 PCOD8048214
Probable space group: C 2
;
_chemical_formula_sum "Si O2"
_cell_formula_units_Z 32
_cell_length_a 21.256411
_cell_length_b 8.559007
_cell_length_c 27.278680
_cell_angle_alpha 90.000000
_cell_angle_beta 19.243904
_cell_angle_gamma 90.000000
_cell_volume 1635.727508
_symmetry_space_group_name_H-M "C 2"
_symmetry_group_IT_number 5
_symmetry_cell_setting 'monoclinic'
loop_
_space_group_symop_operation_xyz
x,y,z
-x,y,-z
1/2+x,1/2+y,z
1/2-x,1/2+y,-z
loop_
_atom_site_type_symbol
_atom_site_label
_atom_site_fract_x
_atom_site_fract_y
_atom_site_fract_z
Si Si1 0.263518 0.977470 0.317653
Si Si2 0.363303 0.341429 0.035887
Si Si3 0.696175 0.008583 0.885125
Si Si4 0.774295 0.414595 0.765123
Si Si5 0.699981 0.123596 0.339048
Si Si6 0.907568 0.036124 0.911398
Si Si7 0.316704 0.883680 0.003606
Si Si8 0.948422 0.104867 0.614715
O O1 0.193394 0.806847 0.352709
O O2 0.491666 0.976037 0.154992
O O3 0.199252 0.091421 0.321703
O O4 0.158113 0.037655 0.445141
O O5 0.284937 0.166623 0.097039
O O6 0.250910 0.448562 0.158604
O O7 0.586162 0.326310 0.884207
O O8 0.319219 0.415176 0.015615
O O9 0.872093 0.003378 0.717330
O O10 0.500000 0.989519 0.000000
O O11 0.708460 0.877711 0.918758
O O12 0.782833 0.581606 0.731385
O O13 0.948434 0.291088 0.627519
O O14 0.500000 0.045074 0.500000
O O15 0.864064 0.042687 0.250621
O O16 0.819443 0.205996 0.984285
O O17 0.858709 0.972336 0.893419
#
# Coordination Sequence:
#
# PCOD8048214 Si02
#       8
#     4   4   4   4   4   4   4   4
#     4  10  20  34  54  79 119 152 188 240 288 340
#     4   9  16  35  54  84 114 142 192 238 294 339
#     4  11  18  33  59  86 117 152 193 249 287 344
#     4   9  17  29  53  83 113 141 182 236 291 337
#     4  10  20  35  54  84 116 150 189 240 291 335
#     4  10  23  38  60  84 117 159 194 239 292 353
#     4  11  22  39  58  84 116 161 199 238 291 351
#     4  10  18  32  52  85 112 146 186 238 291 334
#
# _framework density 19.56316
#
# number of rings (size 3 to 8) (size 9 to 14) (size 15 to 20)
#    0.000    2.000    5.000    0.750    1.750    2.000 
#    2.250    0.000    2.750    0.000    0.000    0.000 
#    0.000    0.000    0.000    0.000    0.000    0.000 
#
# Total GULP energy -198261.009681 kJ/mol
# GULP energy per Si atom -12391.313105 kJ/mol
# Density = 1.951863 g / cm^3
# Si number density = 19.563160 Si / 1000 Ang^3
#
#
#
# Elastic Constant Matrix: (Units=GPa)
#
#
# Indices 1 2 3 4 5 6 
#
# 1 100.6023 27.6568 31.4422 0.0777 9.2422 0.0303
# 2 27.6568 51.6999 22.5266 0.0651 3.9296 0.0024
# 3 31.4422 22.5266 85.7436 0.1180 17.6466 -0.0062
# 4 0.0777 0.0651 0.1180 19.3537 0.0267 4.2548
# 5 9.2422 3.9296 17.6466 0.0267 28.6473 -0.0032
# 6 0.0303 0.0024 -0.0062 4.2548 -0.0032 24.0994
#
#
#
# Elastic Compliance Matrix: (Units=1/GPa)
#
#
# Indices 1 2 3 4 5 6 
#
# 1 0.012426 -0.005288 -0.002853 -0.000009 -0.001526 -0.000014
# 2 -0.005288 0.024103 -0.004654 -0.000035 0.001267 0.000009
# 3 -0.002853 -0.004654 0.015587 -0.000061 -0.008043 0.000018
# 4 -0.000009 -0.000035 -0.000061 0.053757 -0.000006 -0.009491
# 5 -0.001526 0.001267 -0.008043 -0.000006 0.040180 0.000006
# 6 -0.000014 0.000009 0.000018 -0.009491 0.000006 0.043170
#
#
# Mechanical properties :
#
#
# Convention : Reuss Voigt Hill
#
# Bulk Modulus (GPa) = 37.69972 44.58855 41.14413
# Shear Modulus (GPa) = 22.35592 24.84809 23.60201
#
# Velocity S-wave (km/s) = 3.38413 3.56778 3.47717
# Velocity P-wave (km/s) = 5.88068 6.30980 6.09902
#
# Compressibility (1/GPa) = 0.02652540
#
# Stress axis : x y z
#
# Youngs Moduli (GPa) = 80.47776 41.48911 64.15644
#
# Poissons Ratio (x) = 0.21939 0.18305
# Poissons Ratio (y) = 0.42556 0.29857
# Poissons Ratio (z) = 0.22962 0.19308
#
# Static dielectric constant tensor:
#      x y z
#    x 3.472540 0.000060 0.326690 
#    y 0.000060 3.454740 0.000160 
#    z 0.326690 0.000160 3.681020 
# 
# 
# High freq. dielectric constant tensor:
#      x y z
#    x 1.738950 0.000000 0.024110 
#    y 0.000000 1.759220 0.000010 
#    z 0.024110 0.000010 1.746030 
# 
# From -- ./inp_files/71073.got.cif
#   From: 2010.03.12/outbox.cif.g09.slc.cpg/sg5_36_cif.got.tgz:71073.got - 2010.03.31 09:47:26.
