data_PCOD8048831
_publ_section_title
;
Structure prediction by ZEFSAII (Michael W. Deem and Ramdas Pophale) SiO2 
 PCOD8048831
Probable space group: C 2
;
_chemical_formula_sum "Si O2"
_cell_formula_units_Z 30
_cell_length_a 5.381155
_cell_length_b 30.713332
_cell_length_c 8.688430
_cell_angle_alpha 90.000000
_cell_angle_beta 72.744130
_cell_angle_gamma 90.000000
_cell_volume 1371.331228
_symmetry_space_group_name_H-M "C 2"
_symmetry_group_IT_number 5
_symmetry_cell_setting 'monoclinic'
loop_
_space_group_symop_operation_xyz
x,y,z
-x,y,-z
1/2+x,1/2+y,z
1/2-x,1/2+y,-z
loop_
_atom_site_type_symbol
_atom_site_label
_atom_site_fract_x
_atom_site_fract_y
_atom_site_fract_z
Si Si1 0.407770 0.365010 0.687748
Si Si2 0.091476 0.313765 0.310094
Si Si3 0.500000 0.019792 0.000000
Si Si4 0.342325 0.719714 0.817718
Si Si5 0.228733 0.087364 0.843272
Si Si6 0.298767 0.521532 0.398216
Si Si7 0.564414 0.454431 0.159742
Si Si8 0.155014 0.683993 0.182784
O O1 0.500000 0.373911 0.500000
O O2 0.640067 0.341087 0.737631
O O3 0.342038 0.411451 0.771788
O O4 0.137630 0.338721 0.737885
O O5 0.145447 0.271565 0.196957
O O6 0.000000 0.301635 0.500000
O O7 0.406485 0.049700 0.878806
O O8 0.713749 0.990561 0.879503
O O9 0.630658 0.700066 0.731952
O O10 0.132088 0.703246 0.729698
O O11 0.247925 0.702339 0.000553
O O12 0.124342 0.066703 0.703348
O O13 0.384192 0.132194 0.795660
O O14 0.000000 0.099731 0.000000
O O15 0.500000 0.516505 0.500000
O O16 0.321562 0.478207 0.287070
O O17 0.000000 0.524527 0.500000
O O18 0.500000 0.440036 0.000000
#
# Coordination Sequence:
#
# PCOD8048831 Si02
#       8
#     4   4   2   4   4   4   4   4
#     4  10  24  44  67  95 133 179 219 272 340 409
#     4  10  22  43  67  91 130 177 215 264 342 412
#     4  12  22  42  70 102 138 178 236 276 352 380
#     4  10  19  39  61  97 119 160 220 263 326 403
#     4  12  23  43  71  96 139 186 229 284 336 414
#     4  12  27  45  68 101 140 189 235 280 341 407
#     4  12  26  45  68 104 136 180 232 289 338 405
#     4  10  22  37  65  93 127 166 213 270 339 383
#
# _framework density 21.876553999999999
#
# number of rings (size 3 to 8) (size 9 to 14) (size 15 to 20)
#    0.000    1.067    4.000    2.800    1.867    1.600 
#    7.200    2.000    0.000    0.000    0.000    0.000 
#    0.000    0.000    0.000    0.000    0.000    0.000 
#
# Total GULP energy -185961.984654 kJ/mol
# GULP energy per Si atom -12397.465644 kJ/mol
# Density = 2.182676 g / cm^3
# Si number density = 21.876554 Si / 1000 Ang^3
#
#
#
# Elastic Constant Matrix: (Units=GPa)
#
#
# Indices 1 2 3 4 5 6 
#
# 1 188.5224 73.3732 22.3643 0.0000 -0.6984 0.0000
# 2 73.3732 197.0979 42.9070 0.0000 7.0732 0.0000
# 3 22.3643 42.9070 53.9069 0.0000 5.0780 0.0000
# 4 0.0000 0.0000 0.0000 -5.0535 0.0000 11.8888
# 5 -0.6984 7.0732 5.0780 0.0000 16.6065 0.0000
# 6 0.0000 0.0000 0.0000 11.8888 0.0000 52.7430
#
#
#
# Elastic Compliance Matrix: (Units=1/GPa)
#
#
# Indices 1 2 3 4 5 6 
#
# 1 0.006275 -0.002168 -0.001019 0.000000 0.001499 0.000000
# 2 -0.002168 0.006907 -0.004441 0.000000 -0.001675 0.000000
# 3 -0.001019 -0.004441 0.022996 0.000000 -0.005183 0.000000
# 4 0.000000 0.000000 0.000000 -0.129310 0.000000 0.029148
# 5 0.001499 -0.001675 -0.005183 0.000000 0.062579 0.000000
# 6 0.000000 0.000000 0.000000 0.029148 0.000000 0.012390
#
#
# Mechanical properties :
#
#
# Convention : Reuss Voigt Hill
#
# Bulk Modulus (GPa) = 47.79379 79.64623 63.72001
# Shear Modulus (GPa) = 1229.49839 32.91802 631.20821
#
# Velocity S-wave (km/s) = 23.73261 3.88328 17.00465
# Velocity P-wave (km/s) = 27.80066 7.52281 20.36503
#
# Compressibility (1/GPa) = 0.02092322
#
# Stress axis : x y z
#
# Youngs Moduli (GPa) = 159.37430 144.77055 43.48560
#
# Poissons Ratio (x) = 0.31383 0.04430
# Poissons Ratio (y) = 0.34549 0.19311
# Poissons Ratio (z) = 0.16238 0.64290
#
# Static dielectric constant tensor:
#      x y z
#    x 4.937310 0.000000 0.077940 
#    y 0.000000 3.896470 0.000000 
#    z 0.077940 0.000000 3.784620 
# 
# 
# High freq. dielectric constant tensor:
#      x y z
#    x 1.881420 0.000000 0.002580 
#    y 0.000000 1.869080 0.000000 
#    z 0.002580 0.000000 1.833480 
# 
# From -- ./inp_files/13345.got.cif
#   From: 2010.03.12/outbox.cif.g09.slc.cpg/sg5_7_cif.got.tgz:13345.got - 2010.03.31 09:47:26.
