data_PCOD8048080
_publ_section_title
;
Structure prediction by ZEFSAII (Michael W. Deem and Ramdas Pophale) SiO2 
 PCOD8048080
Probable space group: C 2
;
_chemical_formula_sum "Si O2"
_cell_formula_units_Z 26
_cell_length_a 14.282735
_cell_length_b 7.066460
_cell_length_c 15.971978
_cell_angle_alpha 90.000000
_cell_angle_beta 37.942826
_cell_angle_gamma 90.000000
_cell_volume 991.194091
_symmetry_space_group_name_H-M "C 2"
_symmetry_group_IT_number 5
_symmetry_cell_setting 'monoclinic'
loop_
_space_group_symop_operation_xyz
x,y,z
-x,y,-z
1/2+x,1/2+y,z
1/2-x,1/2+y,-z
loop_
_atom_site_type_symbol
_atom_site_label
_atom_site_fract_x
_atom_site_fract_y
_atom_site_fract_z
Si Si1 0.282584 0.856780 0.256861
Si Si2 0.782125 0.412749 0.717982
Si Si3 0.353073 0.494229 0.809141
Si Si4 0.890574 0.239634 0.938585
Si Si5 0.000000 0.953052 0.000000
Si Si6 0.397355 0.894581 0.459421
Si Si7 0.639497 0.323542 0.524793
O O1 0.241140 0.641245 0.258347
O O2 0.245293 0.003939 0.207969
O O3 0.459807 0.875116 0.158836
O O4 0.169359 0.915346 0.412674
O O5 0.797972 0.347811 0.611408
O O6 0.928418 0.321013 0.662586
O O7 0.630674 0.321691 0.865869
O O8 0.369206 0.678228 0.856612
O O9 0.526969 0.444982 0.661239
O O10 0.267314 0.340924 0.927458
O O11 0.917911 0.071020 0.984485
O O12 0.428096 0.117097 0.435501
O O13 0.307274 0.805228 0.446770
#
# Coordination Sequence:
#
# PCOD8048080 Si02
#       7
#     4   4   4   4   2   4   4
#     4  10  20  41  67  93 126 171 219 272 329 400
#     4   9  17  34  60  83 116 167 207 254 316 385
#     4  12  22  41  67  98 129 178 221 274 333 401
#     4  11  23  39  69  95 131 173 226 270 336 402
#     4  10  16  36  58  88 116 168 210 262 310 392
#     4  10  20  35  60  92 121 159 217 263 325 393
#     4  11  21  37  65  95 124 168 217 271 327 395
#
# _framework density 26.230988
#
# number of rings (size 3 to 8) (size 9 to 14) (size 15 to 20)
#    0.000    1.538    4.615    3.231    0.000    2.462 
#    0.000    0.000   23.692    0.000    0.000    0.000 
#    0.000    0.000    0.000    0.000    0.000    0.000 
#
# Total GULP energy -161085.558606 kJ/mol
# GULP energy per Si atom -12391.196816 kJ/mol
# Density = 2.617129 g / cm^3
# Si number density = 26.230988 Si / 1000 Ang^3
#
#
#
# Elastic Constant Matrix: (Units=GPa)
#
#
# Indices 1 2 3 4 5 6 
#
# 1 157.8198 28.8534 67.1139 -0.0003 7.7833 0.0007
# 2 28.8534 24.5660 21.3037 0.0066 -4.9076 -0.0143
# 3 67.1139 21.3037 228.1199 0.0006 -12.6930 -0.0014
# 4 -0.0003 0.0066 0.0006 879.1855 -0.0050-1885.3814
# 5 7.7833 -4.9076 -12.6930 -0.0050 44.6550 0.0109
# 6 0.0007 -0.0143 -0.0014-1885.3814 0.0109 4108.2545
#
#
#
# Elastic Compliance Matrix: (Units=1/GPa)
#
#
# Indices 1 2 3 4 5 6 
#
# 1 0.009081 -0.009611 -0.001952 0.000000 -0.003194 0.000000
# 2 -0.009611 0.055094 -0.001918 0.000000 0.007185 0.000000
# 3 -0.001952 -0.001918 0.005227 0.000000 0.001615 0.000000
# 4 0.000000 0.000000 0.000000 0.071754 0.000000 0.032930
# 5 -0.003194 0.007185 0.001615 0.000000 0.024199 0.000000
# 6 0.000000 0.000000 0.000000 0.032930 0.000000 0.015356
#
#
# Mechanical properties :
#
#
# Convention : Reuss Voigt Hill
#
# Bulk Modulus (GPa) = 23.56258 71.67199 47.61729
# Shear Modulus (GPa) = 22.54087 1025.96798 524.25442
#
# Velocity S-wave (km/s) = 2.93460 19.79842 14.15255
# Velocity P-wave (km/s) = 4.52601 23.45249 16.88940
#
# Compressibility (1/GPa) = 0.04244017
#
# Stress axis : x y z
#
# Youngs Moduli (GPa) = 110.11894 18.15081 191.31996
#
# Poissons Ratio (x) = 0.17446 0.37342
# Poissons Ratio (y) = 1.05840 0.36688
# Poissons Ratio (z) = 0.21493 0.03481
#
# Static dielectric constant tensor:
#      x y z
#    x 0.000000 0.000000 0.000000 
#    y 0.000000 0.000000 0.000000 
#    z 0.000000 0.000000 0.000000 
# 
# 
# High freq. dielectric constant tensor:
#      x y z
#    x 2.057820 0.000000 -0.002060 
#    y 0.000000 2.012230 0.000000 
#    z -0.002060 0.000000 2.081010 
# 
# From -- ./inp_files/54096.got.cif
#   From: 2010.03.12/outbox.cif.g09.slc.cpg/sg5_28_cif.got.tgz:54096.got - 2010.03.31 09:47:26.
