data_PCOD8048108
_publ_section_title
;
Structure prediction by ZEFSAII (Michael W. Deem and Ramdas Pophale) SiO2 
 PCOD8048108
Probable space group: C 2
;
_chemical_formula_sum "Si O2"
_cell_formula_units_Z 30
_cell_length_a 11.446455
_cell_length_b 18.701866
_cell_length_c 15.098051
_cell_angle_alpha 90.000000
_cell_angle_beta 149.028137
_cell_angle_gamma 90.000000
_cell_volume 1663.263373
_symmetry_space_group_name_H-M "C 2"
_symmetry_group_IT_number 5
_symmetry_cell_setting 'monoclinic'
loop_
_space_group_symop_operation_xyz
x,y,z
-x,y,-z
1/2+x,1/2+y,z
1/2-x,1/2+y,-z
loop_
_atom_site_type_symbol
_atom_site_label
_atom_site_fract_x
_atom_site_fract_y
_atom_site_fract_z
Si Si1 0.227326 0.155820 0.185059
Si Si2 0.885682 0.317433 0.586609
Si Si3 0.362154 0.326126 0.824605
Si Si4 0.745010 0.288802 0.684224
Si Si5 0.950345 0.757750 0.208961
Si Si6 0.683928 0.440328 0.360209
Si Si7 0.000000 0.561025 0.500000
Si Si8 0.252300 0.390869 0.161966
O O1 0.141297 0.225868 0.183637
O O2 0.365229 0.180892 0.186799
O O3 0.385349 0.105976 0.347249
O O4 0.000000 0.116357 0.000000
O O5 0.902833 0.305953 0.703013
O O6 0.678530 0.272463 0.413114
O O7 0.845185 0.400754 0.536320
O O8 0.121109 0.293424 0.696178
O O9 0.491812 0.261136 0.857990
O O10 0.334331 0.393630 0.741248
O O11 0.500000 0.351827 0.000000
O O12 0.500000 0.256981 0.500000
O O13 0.696152 0.362383 0.705667
O O14 0.765407 0.820761 0.107014
O O15 0.796349 0.515745 0.411167
O O16 0.435138 0.449177 0.245078
O O17 0.000000 0.424601 0.000000
#
# Coordination Sequence:
#
# PCOD8048108 Si02
#       8
#     4   4   4   4   4   4   2   4
#     4  11  23  37  58  84 107 143 193 238 271 320
#     4  10  17  30  53  83 116 145 168 220 289 354
#     4  10  20  29  50  88 117 143 171 223 296 345
#     4  11  16  31  56  90 111 136 178 220 291 339
#     4   9  17  34  50  79 117 138 176 228 279 340
#     4  10  20  36  51  75 118 148 187 223 272 337
#     4  12  22  42  56  78 110 158 196 234 266 316
#     4   9  18  30  51  84 115 140 168 232 287 334
#
# _framework density 18.036830999999999
#
# number of rings (size 3 to 8) (size 9 to 14) (size 15 to 20)
#    0.000    2.133    6.000    2.800    5.600    0.533 
#    0.000    0.000    0.000    0.000   24.267    0.000 
#    0.000    0.000    0.000    0.000    0.000    0.000 
#
# Total GULP energy -185854.548251 kJ/mol
# GULP energy per Si atom -12390.303217 kJ/mol
# Density = 1.799578 g / cm^3
# Si number density = 18.036831 Si / 1000 Ang^3
#
#
#
# Elastic Constant Matrix: (Units=GPa)
#
#
# Indices 1 2 3 4 5 6 
#
# 1 152.5000 38.9943 44.9959 0.0038 6.2123 0.0001
# 2 38.9943 63.9166 32.2134 0.0050 3.3632 0.0004
# 3 44.9959 32.2134 83.3563 0.0233 6.0527 0.0033
# 4 0.0038 0.0050 0.0233 13.9103 0.0127 0.1344
# 5 6.2123 3.3632 6.0527 0.0127 38.1885 0.0013
# 6 0.0001 0.0004 0.0033 0.1344 0.0013 20.9060
#
#
#
# Elastic Compliance Matrix: (Units=1/GPa)
#
#
# Indices 1 2 3 4 5 6 
#
# 1 0.008405 -0.003517 -0.003137 0.000005 -0.000560 0.000001
# 2 -0.003517 0.020912 -0.006162 0.000004 -0.000293 0.000001
# 3 -0.003137 -0.006162 0.016181 -0.000023 -0.001512 -0.000002
# 4 0.000005 0.000004 -0.000023 0.071893 -0.000021 -0.000462
# 5 -0.000560 -0.000293 -0.001512 -0.000021 0.026542 -0.000001
# 6 0.000001 0.000001 -0.000002 -0.000462 -0.000001 0.047836
#
#
# Mechanical properties :
#
#
# Convention : Reuss Voigt Hill
#
# Bulk Modulus (GPa) = 50.33686 59.13112 54.73399
# Shear Modulus (GPa) = 22.31897 26.83892 24.57894
#
# Velocity S-wave (km/s) = 3.52150 3.86165 3.69549
# Velocity P-wave (km/s) = 6.67106 7.26208 6.97284
#
# Compressibility (1/GPa) = 0.01986616
#
# Stress axis : x y z
#
# Youngs Moduli (GPa) = 118.97377 47.81935 61.80044
#
# Poissons Ratio (x) = 0.16819 0.19388
# Poissons Ratio (y) = 0.41846 0.38079
# Poissons Ratio (z) = 0.37325 0.29465
#
# Static dielectric constant tensor:
#      x y z
#    x 3.698480 -0.000010 0.016020 
#    y -0.000010 2.828320 -0.000010 
#    z 0.016020 -0.000010 3.403690 
# 
# 
# High freq. dielectric constant tensor:
#      x y z
#    x 1.715820 0.000000 0.004620 
#    y 0.000000 1.626790 0.000000 
#    z 0.004620 0.000000 1.708740 
# 
# From -- ./inp_files/27963.got.cif
#   From: 2010.03.12/outbox.cif.g09.slc.cpg/sg5_14_cif.got.tgz:27963.got - 2010.03.31 09:47:26.
