data_PCOD8048245
_publ_section_title
;
Structure prediction by ZEFSAII (Michael W. Deem and Ramdas Pophale) SiO2 
 PCOD8048245
Probable space group: C 2
;
_chemical_formula_sum "Si O2"
_cell_formula_units_Z 32
_cell_length_a 19.188374
_cell_length_b 16.614200
_cell_length_c 14.214511
_cell_angle_alpha 90.000000
_cell_angle_beta 158.314185
_cell_angle_gamma 90.000000
_cell_volume 1674.494103
_symmetry_space_group_name_H-M "C 2"
_symmetry_group_IT_number 5
_symmetry_cell_setting 'monoclinic'
loop_
_space_group_symop_operation_xyz
x,y,z
-x,y,-z
1/2+x,1/2+y,z
1/2-x,1/2+y,-z
loop_
_atom_site_type_symbol
_atom_site_label
_atom_site_fract_x
_atom_site_fract_y
_atom_site_fract_z
Si Si1 0.839820 0.056760 0.619705
Si Si2 0.954502 0.731822 0.218867
Si Si3 0.121696 0.895692 0.410614
Si Si4 0.013986 0.337839 0.906369
Si Si5 0.835209 0.176334 0.990140
Si Si6 0.789416 0.149501 0.733910
Si Si7 0.295279 0.471151 0.285611
Si Si8 0.532433 0.118177 0.937214
O O1 0.796922 0.070440 0.677255
O O2 0.645402 0.064678 0.318616
O O3 0.932949 0.967970 0.729088
O O4 0.985684 0.121598 0.758490
O O5 0.798747 0.689247 0.088744
O O6 0.931113 0.692514 0.087207
O O7 0.951240 0.829864 0.207303
O O8 0.157963 0.715504 0.520192
O O9 0.307290 0.851831 0.602709
O O10 0.182048 0.942584 0.579686
O O11 0.000000 0.326409 0.000000
O O12 0.102331 0.263020 0.964732
O O13 0.152057 0.411598 0.052921
O O14 0.728390 0.133392 0.766188
O O15 0.000000 0.187648 0.000000
O O16 0.500000 0.467636 0.500000
O O17 0.214620 0.560986 0.173555
O O18 0.500000 0.155485 0.000000
#
# Coordination Sequence:
#
# PCOD8048245 Si02
#       8
#     4   4   4   4   4   4   4   4
#     4  10  20  36  60  83 115 162 210 236 297 376
#     4  11  24  35  59  91 125 153 203 257 319 351
#     4  11  20  37  55  87 118 158 204 249 286 371
#     4  10  18  33  56  83 116 154 191 237 308 359
#     4  11  21  37  58  89 122 154 194 265 311 362
#     4   9  18  36  58  82 112 157 197 243 297 368
#     4  11  21  33  60  90 123 149 192 262 316 344
#     4  11  21  41  57  85 119 166 206 238 301 388
#
# _framework density 19.110250000000001
#
# number of rings (size 3 to 8) (size 9 to 14) (size 15 to 20)
#    0.000    1.500    2.500    6.375    1.750    0.000 
#    0.000    1.875    0.000    0.000    0.000    3.500 
#    0.000    0.000    0.000    0.000    0.000    0.000 
#
# Total GULP energy -198261.541963 kJ/mol
# GULP energy per Si atom -12391.346373 kJ/mol
# Density = 1.906675 g / cm^3
# Si number density = 19.110250 Si / 1000 Ang^3
#
#
#
# Elastic Constant Matrix: (Units=GPa)
#
#
# Indices 1 2 3 4 5 6 
#
# 1 116.4000 41.6014 35.5604 0.0000 0.8721 0.0000
# 2 41.6014 95.5383 17.5105 0.0000 -3.0328 0.0000
# 3 35.5604 17.5105 49.9287 0.0001 5.7984 0.0000
# 4 0.0000 0.0000 0.0001 130.2637 0.0000 -67.3325
# 5 0.8721 -3.0328 5.7984 0.0000 24.4822 0.0000
# 6 0.0000 0.0000 0.0000 -67.3325 0.0000 71.6981
#
#
#
# Elastic Compliance Matrix: (Units=1/GPa)
#
#
# Indices 1 2 3 4 5 6 
#
# 1 0.012274 -0.003952 -0.007453 0.000000 0.000838 0.000000
# 2 -0.003952 0.012595 -0.001851 0.000000 0.002139 0.000000
# 3 -0.007453 -0.001851 0.026717 0.000000 -0.006291 0.000000
# 4 0.000000 0.000000 0.000000 0.014918 0.000000 0.014010
# 5 0.000838 0.002139 -0.006291 0.000000 0.042571 0.000000
# 6 0.000000 0.000000 0.000000 0.014010 0.000000 0.027104
#
#
# Mechanical properties :
#
#
# Convention : Reuss Voigt Hill
#
# Bulk Modulus (GPa) = 39.88284 50.13462 45.00873
# Shear Modulus (GPa) = 29.23110 56.43512 42.83311
#
# Velocity S-wave (km/s) = 3.91526 5.44017 4.73945
# Velocity P-wave (km/s) = 6.43072 8.10876 7.31800
#
# Compressibility (1/GPa) = 0.02507344
#
# Stress axis : x y z
#
# Youngs Moduli (GPa) = 81.47135 79.39621 37.42967
#
# Poissons Ratio (x) = 0.31378 0.27898
# Poissons Ratio (y) = 0.32198 0.06928
# Poissons Ratio (z) = 0.60723 0.14696
#
# Static dielectric constant tensor:
#      x y z
#    x -1.227400 0.000000 -2.494500 
#    y 0.000000 3.507560 0.000000 
#    z -2.494500 0.000000 2.163370 
# 
# 
# High freq. dielectric constant tensor:
#      x y z
#    x 1.735230 0.000000 0.010250 
#    y 0.000000 1.738130 0.000000 
#    z 0.010250 0.000000 1.726650 
# 
# From -- ./inp_files/29870.got.cif
#   From: 2010.03.12/outbox.cif.g09.slc.cpg/sg5_15_cif.got.tgz:29870.got - 2010.03.31 09:47:26.
