data_PCOD8048509
_publ_section_title
;
Structure prediction by ZEFSAII (Michael W. Deem and Ramdas Pophale) SiO2 
 PCOD8048509
Probable space group: C 2
;
_chemical_formula_sum "Si O2"
_cell_formula_units_Z 30
_cell_length_a 13.987530
_cell_length_b 19.666721
_cell_length_c 7.564441
_cell_angle_alpha 90.000000
_cell_angle_beta 57.269248
_cell_angle_gamma 90.000000
_cell_volume 1750.490584
_symmetry_space_group_name_H-M "C 2"
_symmetry_group_IT_number 5
_symmetry_cell_setting 'monoclinic'
loop_
_space_group_symop_operation_xyz
x,y,z
-x,y,-z
1/2+x,1/2+y,z
1/2-x,1/2+y,-z
loop_
_atom_site_type_symbol
_atom_site_label
_atom_site_fract_x
_atom_site_fract_y
_atom_site_fract_z
Si Si1 0.370858 0.207440 0.429285
Si Si2 0.703202 0.359658 0.499655
Si Si3 0.500000 0.575170 0.500000
Si Si4 0.796987 0.859681 0.906527
Si Si5 0.000127 0.944726 0.694844
Si Si6 0.629034 0.207413 0.170773
Si Si7 0.206444 0.177138 0.293582
Si Si8 0.369557 0.830103 0.630289
O O1 0.359296 0.287905 0.414462
O O2 0.499911 0.186927 0.253371
O O3 0.340246 0.186467 0.659927
O O4 0.284711 0.167757 0.388032
O O5 0.739949 0.373341 0.259698
O O6 0.616548 0.416949 0.665063
O O7 0.815121 0.361942 0.508091
O O8 0.500070 0.526898 0.675666
O O9 0.613203 0.618798 0.386718
O O10 0.859245 0.787856 0.867672
O O11 0.883872 0.916908 0.898125
O O12 0.685198 0.862181 0.138887
O O13 0.000000 0.909398 0.500000
O O14 0.715000 0.167644 0.957316
O O15 0.142734 0.248885 0.356983
O O16 0.500000 0.851087 0.500000
#
# Coordination Sequence:
#
# PCOD8048509 Si02
#       8
#     4   4   2   4   4   4   4   4
#     4   9  16  28  52  79 103 126 163 229 261 292
#     4   9  16  30  51  77 103 124 169 217 269 292
#     4  10  20  34  56  70 112 148 170 202 236 332
#     4   9  16  30  51  77 103 124 169 217 269 292
#     4   8  16  31  55  76  93 133 172 212 250 289
#     4   9  16  28  52  79 103 126 163 229 261 292
#     4  10  19  32  47  74 108 143 168 192 261 315
#     4  10  20  30  48  77 109 132 161 214 261 316
#
# _framework density 17.138052999999999
#
# number of rings (size 3 to 8) (size 9 to 14) (size 15 to 20)
#    0.400    2.400    2.000    0.400    0.000    1.067 
#    0.000    0.667    5.867    3.200    0.000    0.000 
#    0.000    0.000    0.000    0.000    0.000    0.000 
#
# Total GULP energy -185909.479658 kJ/mol
# GULP energy per Si atom -12393.965311 kJ/mol
# Density = 1.709905 g / cm^3
# Si number density = 17.138053 Si / 1000 Ang^3
#
#
#
# Elastic Constant Matrix: (Units=GPa)
#
#
# Indices 1 2 3 4 5 6 
#
# 1 136.4244 49.3365 78.2489 0.0000 -15.7158 0.0000
# 2 49.3365 76.1889 43.7870 0.0000 -12.5244 0.0000
# 3 78.2489 43.7870 123.5362 0.0000 -14.5484 0.0000
# 4 0.0000 0.0000 0.0000 18.8618 0.0000 -7.4490
# 5 -15.7158 -12.5244 -14.5484 0.0000 28.3412 0.0000
# 6 0.0000 0.0000 0.0000 -7.4490 0.0000 22.2477
#
#
#
# Elastic Compliance Matrix: (Units=1/GPa)
#
#
# Indices 1 2 3 4 5 6 
#
# 1 0.012725 -0.004298 -0.006311 0.000000 0.001917 0.000000
# 2 -0.004298 0.018508 -0.003358 0.000000 0.004072 0.000000
# 3 -0.006311 -0.003358 0.013512 0.000000 0.001953 0.000000
# 4 0.000000 0.000000 0.000000 0.061096 0.000000 0.020456
# 5 0.001917 0.004072 0.001953 0.000000 0.039149 0.000000
# 6 0.000000 0.000000 0.000000 0.020456 0.000000 0.051798
#
#
# Mechanical properties :
#
#
# Convention : Reuss Voigt Hill
#
# Bulk Modulus (GPa) = 59.48436 75.43270 67.45853
# Shear Modulus (GPa) = 21.70840 24.87529 23.29184
#
# Velocity S-wave (km/s) = 3.56290 3.81394 3.69056
# Velocity P-wave (km/s) = 7.19097 7.96901 7.58997
#
# Compressibility (1/GPa) = 0.01681114
#
# Stress axis : x y z
#
# Youngs Moduli (GPa) = 78.58536 54.03143 74.00589
#
# Poissons Ratio (x) = 0.23223 0.46705
# Poissons Ratio (y) = 0.33776 0.24852
# Poissons Ratio (z) = 0.49595 0.18144
#
# Static dielectric constant tensor:
#      x y z
#    x 3.198000 0.000000 0.082120 
#    y 0.000000 2.786490 0.000000 
#    z 0.082120 0.000000 3.235640 
# 
# 
# High freq. dielectric constant tensor:
#      x y z
#    x 1.660080 0.000000 -0.001690 
#    y 0.000000 1.615470 0.000000 
#    z -0.001690 0.000000 1.659340 
# 
# From -- ./inp_files/25323.got.cif
#   From: 2010.03.12/outbox.cif.g09.slc.cpg/sg5_13_cif.got.tgz:25323.got - 2010.03.31 09:47:26.
