data_PCOD8048181
_publ_section_title
;
Structure prediction by ZEFSAII (Michael W. Deem and Ramdas Pophale) SiO2 
 PCOD8048181
Probable space group: C 2
;
_chemical_formula_sum "Si O2"
_cell_formula_units_Z 32
_cell_length_a 31.253342
_cell_length_b 8.748794
_cell_length_c 5.414628
_cell_angle_alpha 90.000000
_cell_angle_beta 76.653237
_cell_angle_gamma 90.000000
_cell_volume 1440.529011
_symmetry_space_group_name_H-M "C 2"
_symmetry_group_IT_number 5
_symmetry_cell_setting 'monoclinic'
loop_
_space_group_symop_operation_xyz
x,y,z
-x,y,-z
1/2+x,1/2+y,z
1/2-x,1/2+y,-z
loop_
_atom_site_type_symbol
_atom_site_label
_atom_site_fract_x
_atom_site_fract_y
_atom_site_fract_z
Si Si1 0.479234 0.285790 0.278703
Si Si2 0.384019 0.253853 0.250800
Si Si3 0.680845 0.449410 0.357880
Si Si4 0.726541 0.170970 0.109231
Si Si5 0.887506 0.031275 0.928481
Si Si6 0.514489 0.626802 0.231803
Si Si7 0.810405 0.182580 0.275297
Si Si8 0.312491 0.037087 0.336725
O O1 0.500000 0.213032 0.500000
O O2 0.427372 0.247187 0.362742
O O3 0.487036 0.467797 0.266893
O O4 0.500000 0.213391 0.000000
O O5 0.341341 0.330183 0.427487
O O6 0.363987 0.085958 0.219131
O O7 0.396269 0.354350 0.993247
O O8 0.712396 0.351560 0.132742
O O9 0.640894 0.536385 0.279665
O O10 0.708566 0.575368 0.476945
O O11 0.779580 0.159221 0.073915
O O12 0.704351 0.089269 0.373011
O O13 0.714955 0.099870 0.861089
O O14 0.933620 0.110439 0.823239
O O15 0.860493 0.128023 0.166662
O O16 0.500000 0.717291 0.500000
O O17 0.500000 0.715391 0.000000
O O18 0.809680 0.356205 0.357079
#
# Coordination Sequence:
#
# PCOD8048181 Si02
#       8
#     4   4   4   4   4   4   4   4
#     4  10  18  29  56  92 118 156 204 270 309 377
#     4  10  20  38  61  95 128 164 219 267 333 387
#     4  10  22  40  63  92 126 172 215 279 317 396
#     4  11  25  44  67  90 131 174 236 267 331 394
#     4  11  21  38  63  96 128 167 217 271 332 390
#     4  10  19  32  56  92 121 155 206 270 314 375
#     4  11  27  39  65  95 134 176 221 280 341 403
#     4  11  26  44  66  97 132 179 216 288 334 404
#
# _framework density 22.214061000000001
#
# number of rings (size 3 to 8) (size 9 to 14) (size 15 to 20)
#    0.000    1.500    3.750    2.250    7.000    0.000 
#    0.000    0.000    0.000    0.750    0.000    0.875 
#    0.000    0.000    0.000    0.000    0.000    0.000 
#
# Total GULP energy -198287.032039 kJ/mol
# GULP energy per Si atom -12392.939502 kJ/mol
# Density = 2.216350 g / cm^3
# Si number density = 22.214061 Si / 1000 Ang^3
#
#
#
# Elastic Constant Matrix: (Units=GPa)
#
#
# Indices 1 2 3 4 5 6 
#
# 1 128.0855 22.0716 24.2426 0.0000 15.8243 0.0000
# 2 22.0716 84.8869 13.8115 0.0000 2.2273 0.0000
# 3 24.2426 13.8115 124.5259 0.0000 14.2075 0.0000
# 4 0.0000 0.0000 0.0000 7.1890 0.0000 1.1498
# 5 15.8243 2.2273 14.2075 0.0000 39.7276 0.0000
# 6 0.0000 0.0000 0.0000 1.1498 0.0000 17.9099
#
#
#
# Elastic Compliance Matrix: (Units=1/GPa)
#
#
# Indices 1 2 3 4 5 6 
#
# 1 0.008735 -0.002008 -0.001140 0.000000 -0.002959 0.000000
# 2 -0.002008 0.012460 -0.001045 0.000000 0.000475 0.000000
# 3 -0.001140 -0.001045 0.008663 0.000000 -0.002585 0.000000
# 4 0.000000 0.000000 0.000000 0.140544 0.000000 -0.009023
# 5 -0.002959 0.000475 -0.002585 0.000000 0.027248 0.000000
# 6 0.000000 0.000000 0.000000 -0.009023 0.000000 0.056414
#
#
# Mechanical properties :
#
#
# Convention : Reuss Voigt Hill
#
# Bulk Modulus (GPa) = 46.57389 50.86108 48.71749
# Shear Modulus (GPa) = 18.54540 31.45679 25.00110
#
# Velocity S-wave (km/s) = 2.89251 3.76716 3.35843
# Velocity P-wave (km/s) = 5.67159 6.47052 6.08418
#
# Compressibility (1/GPa) = 0.02147126
#
# Stress axis : x y z
#
# Youngs Moduli (GPa) = 114.48663 80.25627 115.42891
#
# Poissons Ratio (x) = 0.16115 0.13161
# Poissons Ratio (y) = 0.22989 0.12066
# Poissons Ratio (z) = 0.13053 0.08389
#
# Static dielectric constant tensor:
#      x y z
#    x 4.177180 0.000000 0.121650 
#    y 0.000000 3.748610 0.000000 
#    z 0.121650 0.000000 4.483320 
# 
# 
# High freq. dielectric constant tensor:
#      x y z
#    x 1.884800 0.000000 0.006370 
#    y 0.000000 1.822210 0.000000 
#    z 0.006370 0.000000 1.888270 
# 
# From -- ./inp_files/11232.got.cif
#   From: 2010.03.12/outbox.cif.g09.slc.cpg/sg5_6_cif.got.tgz:11232.got - 2010.03.31 09:47:26.
