data_PCOD8048139
_publ_section_title
;
Structure prediction by ZEFSAII (Michael W. Deem and Ramdas Pophale) SiO2 
 PCOD8048139
Probable space group: C 2
;
_chemical_formula_sum "Si O2"
_cell_formula_units_Z 26
_cell_length_a 12.096249
_cell_length_b 17.827965
_cell_length_c 8.502930
_cell_angle_alpha 90.000000
_cell_angle_beta 38.086794
_cell_angle_gamma 90.000000
_cell_volume 1131.107332
_symmetry_space_group_name_H-M "C 2"
_symmetry_group_IT_number 5
_symmetry_cell_setting 'monoclinic'
loop_
_space_group_symop_operation_xyz
x,y,z
-x,y,-z
1/2+x,1/2+y,z
1/2-x,1/2+y,-z
loop_
_atom_site_type_symbol
_atom_site_label
_atom_site_fract_x
_atom_site_fract_y
_atom_site_fract_z
Si Si1 0.337121 0.708620 0.461753
Si Si2 0.301112 0.080876 0.959029
Si Si3 0.500000 0.166850 0.000000
Si Si4 0.795451 0.871810 0.728213
Si Si5 0.554657 0.871613 0.700272
Si Si6 0.299189 0.198872 0.728218
Si Si7 0.000000 0.086999 0.500000
Si Si8 0.500000 0.976402 0.500000
O O1 0.152146 0.722839 0.764311
O O2 0.457273 0.783865 0.334639
O O3 0.306214 0.686420 0.315078
O O4 0.421183 0.637789 0.451405
O O5 0.452004 0.112864 0.906679
O O6 0.205880 0.151568 0.973813
O O7 0.366163 0.024733 0.753848
O O8 0.154833 0.039196 0.238204
O O9 0.714518 0.881612 0.645633
O O10 0.810455 0.785351 0.760894
O O11 0.000000 0.906737 0.500000
O O12 0.641244 0.902560 0.020581
O O13 0.614132 0.922529 0.487068
O O14 0.500000 0.164412 0.500000
#
# Coordination Sequence:
#
# PCOD8048139 Si02
#       8
#     4   4   2   4   4   4   2   2
#     4  10  19  37  62 100 135 158 210 272 328 392
#     4  11  22  41  65  96 127 174 212 263 327 387
#     4  10  20  36  68  98 128 164 210 274 338 376
#     4   9  20  40  70  95 126 163 215 273 333 386
#     4  10  22  40  62  96 130 177 210 262 326 383
#     4  10  17  34  66 100 122 158 203 263 331 379
#     4  10  23  36  62  98 127 166 210 276 330 372
#     4  12  25  44  64  86 133 176 228 260 306 392
#
# _framework density 22.986322999999999
#
# number of rings (size 3 to 8) (size 9 to 14) (size 15 to 20)
#    0.000    1.846    2.308    1.385    0.000    4.308 
#    1.385    0.000   10.154    0.000    0.000    0.000 
#    0.000    0.000    0.000    0.000    0.000    0.000 
#
# Total GULP energy -161056.282113 kJ/mol
# GULP energy per Si atom -12388.944778 kJ/mol
# Density = 2.293401 g / cm^3
# Si number density = 22.986323 Si / 1000 Ang^3
#
#
#
# Elastic Constant Matrix: (Units=GPa)
#
#
# Indices 1 2 3 4 5 6 
#
# 1 109.7326 39.1942 44.9762 0.0005 13.6949 0.0009
# 2 39.1942 42.9761 32.6632 -0.0001 15.1008 -0.0001
# 3 44.9762 32.6632 164.0213 0.0004 0.8372 0.0011
# 4 0.0005 -0.0001 0.0004 35.1668 -0.0003 12.6446
# 5 13.6949 15.1008 0.8372 -0.0003 39.0453 -0.0007
# 6 0.0009 -0.0001 0.0011 12.6446 -0.0007 5.5523
#
#
#
# Elastic Compliance Matrix: (Units=1/GPa)
#
#
# Indices 1 2 3 4 5 6 
#
# 1 0.013832 -0.011282 -0.001544 0.000003 -0.000455 -0.000009
# 2 -0.011282 0.041712 -0.005151 -0.000003 -0.012065 0.000008
# 3 -0.001544 -0.005151 0.007534 0.000002 0.002372 -0.000005
# 4 0.000003 -0.000003 0.000002 0.156981 -0.000005 -0.357505
# 5 -0.000455 -0.012065 0.002372 -0.000005 0.030386 0.000014
# 6 -0.000009 0.000008 -0.000005 -0.357505 0.000014 0.994280
#
#
# Mechanical properties :
#
#
# Convention : Reuss Voigt Hill
#
# Bulk Modulus (GPa) = 36.86738 61.15525 49.01132
# Shear Modulus (GPa) = 3.87681 29.27930 16.57806
#
# Velocity S-wave (km/s) = 1.30009 3.57286 2.68846
# Velocity P-wave (km/s) = 4.28104 6.60933 5.56824
#
# Compressibility (1/GPa) = 0.02712425
#
# Stress axis : x y z
#
# Youngs Moduli (GPa) = 72.29475 23.97386 132.73342
#
# Poissons Ratio (x) = 0.27046 0.20494
# Poissons Ratio (y) = 0.81560 0.68377
# Poissons Ratio (z) = 0.11162 0.12350
#
# Static dielectric constant tensor:
#      x y z
#    x 4.305030 0.000000 -0.122690 
#    y 0.000000 3.873920 0.000000 
#    z -0.122690 0.000000 5.111460 
# 
# 
# High freq. dielectric constant tensor:
#      x y z
#    x 1.906100 0.000000 0.011040 
#    y 0.000000 1.887700 0.000000 
#    z 0.011040 0.000000 1.926790 
# 
# From -- ./inp_files/21916.got.cif
#   From: 2010.03.12/outbox.cif.g09.slc.cpg/sg5_11_cif.got.tgz:21916.got - 2010.03.31 09:47:26.
