data_PCOD8048488
_publ_section_title
;
Structure prediction by ZEFSAII (Michael W. Deem and Ramdas Pophale) SiO2 
 PCOD8048488
Probable space group: C 2
;
_chemical_formula_sum "Si O2"
_cell_formula_units_Z 28
_cell_length_a 20.466078
_cell_length_b 10.127345
_cell_length_c 9.272080
_cell_angle_alpha 90.000000
_cell_angle_beta 135.041047
_cell_angle_gamma 90.000000
_cell_volume 1357.941460
_symmetry_space_group_name_H-M "C 2"
_symmetry_group_IT_number 5
_symmetry_cell_setting 'monoclinic'
loop_
_space_group_symop_operation_xyz
x,y,z
-x,y,-z
1/2+x,1/2+y,z
1/2-x,1/2+y,-z
loop_
_atom_site_type_symbol
_atom_site_label
_atom_site_fract_x
_atom_site_fract_y
_atom_site_fract_z
Si Si1 0.054433 0.495360 0.449709
Si Si2 0.500000 0.687935 0.000000
Si Si3 0.775165 0.602003 0.744949
Si Si4 0.581702 0.487952 0.352462
Si Si5 0.418371 0.196807 0.762083
Si Si6 0.893041 0.368348 0.036935
Si Si7 0.832720 0.279016 0.226992
Si Si8 0.500000 0.579936 0.500000
O O1 0.082351 0.609594 0.383638
O O2 0.142820 0.412358 0.645349
O O3 0.000000 0.560115 0.500000
O O4 0.988713 0.387504 0.272074
O O5 0.448812 0.602781 0.801448
O O6 0.582879 0.774095 0.059367
O O7 0.686794 0.515590 0.563676
O O8 0.817411 0.678529 0.674429
O O9 0.756687 0.711474 0.840375
O O10 0.856016 0.506750 0.924083
O O11 0.570858 0.348865 0.259268
O O12 0.511591 0.486926 0.378492
O O13 0.500000 0.154738 0.000000
O O14 0.817270 0.310002 0.032490
O O15 0.911419 0.170552 0.354788
#
# Coordination Sequence:
#
# PCOD8048488 Si02
#       8
#     4   2   4   4   4   4   4   2
#     4  10  21  42  72  91 121 175 223 257 325 399
#     4  12  22  42  76  90 126 174 228 252 334 402
#     4  11  26  42  63  98 134 164 219 277 321 381
#     4  11  26  43  66  97 129 178 211 273 324 390
#     4  12  25  45  64  96 136 169 215 276 331 380
#     4  11  20  41  68  99 120 173 215 267 324 385
#     4  10  20  43  68  93 129 170 220 264 320 395
#     4  10  18  44  68  90 130 168 222 252 318 398
#
# _framework density 20.619447000000001
#
# number of rings (size 3 to 8) (size 9 to 14) (size 15 to 20)
#    0.000    1.143    5.714    1.714    5.000    0.000 
#   12.857    0.000    0.000    0.000    0.000    0.000 
#    0.000    0.000    0.000    0.000    0.000    0.000 
#
# Total GULP energy -173590.727909 kJ/mol
# GULP energy per Si atom -12399.337708 kJ/mol
# Density = 2.057252 g / cm^3
# Si number density = 20.619447 Si / 1000 Ang^3
#
#
#
# Elastic Constant Matrix: (Units=GPa)
#
#
# Indices 1 2 3 4 5 6 
#
# 1 160.1897 78.7687 37.7751 0.0000 -37.1055 0.0000
# 2 78.7687 118.8786 29.8487 0.0000 -19.9814 0.0000
# 3 37.7751 29.8487 60.7957 0.0000 -19.1669 0.0000
# 4 0.0000 0.0000 0.0000 35.3772 0.0000 -10.8022
# 5 -37.1055 -19.9814 -19.1669 0.0000 31.0704 0.0000
# 6 0.0000 0.0000 0.0000 -10.8022 0.0000 98.8809
#
#
#
# Elastic Compliance Matrix: (Units=1/GPa)
#
#
# Indices 1 2 3 4 5 6 
#
# 1 0.011533 -0.005732 -0.001455 0.000000 0.009189 0.000000
# 2 -0.005732 0.012873 -0.002864 0.000000 -0.000333 0.000000
# 3 -0.001455 -0.002864 0.021887 0.000000 0.009923 0.000000
# 4 0.000000 0.000000 0.000000 0.029242 0.000000 0.003195
# 5 0.009189 -0.000333 0.009923 0.000000 0.049066 0.000000
# 6 0.000000 0.000000 0.000000 0.003195 0.000000 0.010462
#
#
# Mechanical properties :
#
#
# Convention : Reuss Voigt Hill
#
# Bulk Modulus (GPa) = 38.17968 70.29434 54.23701
# Shear Modulus (GPa) = 30.50769 45.96381 38.23575
#
# Velocity S-wave (km/s) = 3.85068 4.72651 4.31089
# Velocity P-wave (km/s) = 6.19087 7.99699 7.15118
#
# Compressibility (1/GPa) = 0.02619195
#
# Stress axis : x y z
#
# Youngs Moduli (GPa) = 86.71130 77.68319 45.68996
#
# Poissons Ratio (x) = 0.44525 0.06646
# Poissons Ratio (y) = 0.49700 0.13085
# Poissons Ratio (z) = 0.12612 0.22247
#
# Static dielectric constant tensor:
#      x y z
#    x 4.290560 0.000000 -0.467010 
#    y 0.000000 3.694850 0.000000 
#    z -0.467010 0.000000 3.691190 
# 
# 
# High freq. dielectric constant tensor:
#      x y z
#    x 1.820290 0.000000 -0.022880 
#    y 0.000000 1.806390 0.000000 
#    z -0.022880 0.000000 1.792300 
# 
# From -- ./inp_files/29165.got.cif
#   From: 2010.03.12/outbox.cif.g09.slc.cpg/sg5_15_cif.got.tgz:29165.got - 2010.03.31 09:47:26.
