data_PCOD8048652
_publ_section_title
;
Structure prediction by ZEFSAII (Michael W. Deem and Ramdas Pophale) SiO2 
 PCOD8048652
Probable space group: C 2
;
_chemical_formula_sum "Si O2"
_cell_formula_units_Z 32
_cell_length_a 17.545575
_cell_length_b 8.994437
_cell_length_c 19.059349
_cell_angle_alpha 90.000000
_cell_angle_beta 31.832968
_cell_angle_gamma 90.000000
_cell_volume 1586.450826
_symmetry_space_group_name_H-M "C 2"
_symmetry_group_IT_number 5
_symmetry_cell_setting 'monoclinic'
loop_
_space_group_symop_operation_xyz
x,y,z
-x,y,-z
1/2+x,1/2+y,z
1/2-x,1/2+y,-z
loop_
_atom_site_type_symbol
_atom_site_label
_atom_site_fract_x
_atom_site_fract_y
_atom_site_fract_z
Si Si1 0.987672 0.845570 0.397306
Si Si2 0.819109 0.620277 0.000245
Si Si3 0.431116 0.655991 0.480425
Si Si4 0.783915 0.786825 0.886747
Si Si5 0.296943 0.788304 0.781463
Si Si6 0.658458 0.593960 0.869355
Si Si7 0.729553 0.299746 0.323528
Si Si8 0.652972 0.121646 0.768117
O O1 0.051003 0.787082 0.273700
O O2 0.115064 0.835736 0.353335
O O3 0.847698 0.761804 0.540842
O O4 0.941299 0.015924 0.420444
O O5 0.780269 0.670090 0.952491
O O6 0.987456 0.656166 0.881659
O O7 0.772914 0.449372 0.046617
O O8 0.726213 0.726625 0.122897
O O9 0.500000 0.600632 0.500000
O O10 0.531415 0.785699 0.371008
O O11 0.263047 0.700328 0.625437
O O12 0.675809 0.726866 0.911647
O O13 0.195776 0.687286 0.810547
O O14 0.268664 0.962368 0.798410
O O15 0.679772 0.656801 0.773362
O O16 0.500000 0.525321 0.000000
O O17 0.830891 0.444014 0.250021
#
# Coordination Sequence:
#
# PCOD8048652 Si02
#       8
#     4   4   4   4   4   4   4   4
#     4   9  14  33  58  81 108 151 190 234 290 356
#     4  12  23  38  62  82 117 161 199 242 294 356
#     4   9  15  33  60  89 112 146 187 240 294 351
#     4  11  24  39  58  83 119 160 200 240 301 354
#     4  11  20  36  60  89 120 157 188 241 300 346
#     4  11  22  36  58  91 125 149 198 254 291 344
#     4   9  16  32  59  86 112 147 194 241 292 342
#     4  10  19  35  63  89 114 148 202 239 294 348
#
# _framework density 20.170809999999999
#
# number of rings (size 3 to 8) (size 9 to 14) (size 15 to 20)
#    0.000    1.750    5.000    3.375    0.000    0.000 
#   13.500    0.000   13.750    0.000    0.000    0.000 
#    0.000    0.000    0.000    0.000    0.000    0.000 
#
# Total GULP energy -198247.491011 kJ/mol
# GULP energy per Si atom -12390.468188 kJ/mol
# Density = 2.012490 g / cm^3
# Si number density = 20.170810 Si / 1000 Ang^3
#
#
#
# Elastic Constant Matrix: (Units=GPa)
#
#
# Indices 1 2 3 4 5 6 
#
# 1 33.3241 9.7844 36.0655 0.0000 10.7163 0.0000
# 2 9.7844 99.1713 56.8516 0.0000 12.7585 0.0000
# 3 36.0655 56.8516 147.4279 0.0000 13.4381 0.0000
# 4 0.0000 0.0000 0.0000 31.7946 0.0000 6.7206
# 5 10.7163 12.7585 13.4381 0.0000 23.9813 0.0000
# 6 0.0000 0.0000 0.0000 6.7206 0.0000 18.2378
#
#
#
# Elastic Compliance Matrix: (Units=1/GPa)
#
#
# Indices 1 2 3 4 5 6 
#
# 1 0.046525 0.004107 -0.011456 0.000000 -0.016556 0.000000
# 2 0.004107 0.013745 -0.005766 0.000000 -0.005917 0.000000
# 3 -0.011456 -0.005766 0.011658 0.000000 0.001654 0.000000
# 4 0.000000 0.000000 0.000000 0.034109 0.000000 -0.012569
# 5 -0.016556 -0.005917 0.001654 0.000000 0.051318 0.000000
# 6 0.000000 0.000000 0.000000 -0.012569 0.000000 0.059463
#
#
# Mechanical properties :
#
#
# Convention : Reuss Voigt Hill
#
# Bulk Modulus (GPa) = 21.88258 53.92514 37.90386
# Shear Modulus (GPa) = 19.35880 26.61752 22.98816
#
# Velocity S-wave (km/s) = 3.10133 3.63658 3.37957
# Velocity P-wave (km/s) = 4.86791 6.66523 5.83617
#
# Compressibility (1/GPa) = 0.04569845
#
# Stress axis : x y z
#
# Youngs Moduli (GPa) = 21.49378 72.75439 85.77677
#
# Poissons Ratio (x) = -0.29881 0.98268
# Poissons Ratio (y) = -0.08828 0.49457
# Poissons Ratio (z) = 0.24624 0.41948
#
# Static dielectric constant tensor:
#      x y z
#    x 3.153510 0.000000 0.199670 
#    y 0.000000 3.465130 0.000000 
#    z 0.199670 0.000000 4.522460 
# 
# 
# High freq. dielectric constant tensor:
#      x y z
#    x 1.729810 0.000000 0.007100 
#    y 0.000000 1.775180 0.000000 
#    z 0.007100 0.000000 1.817630 
# 
# From -- ./inp_files/67047.got.cif
#   From: 2010.03.12/outbox.cif.g09.slc.cpg/sg5_34_cif.got.tgz:67047.got - 2010.03.31 09:47:26.
