data_PCOD8048366
_publ_section_title
;
Structure prediction by ZEFSAII (Michael W. Deem and Ramdas Pophale) SiO2 
 PCOD8048366
Probable space group: C 2
;
_chemical_formula_sum "Si O2"
_cell_formula_units_Z 28
_cell_length_a 13.527096
_cell_length_b 19.705431
_cell_length_c 4.975448
_cell_angle_alpha 90.000000
_cell_angle_beta 78.562507
_cell_angle_gamma 90.000000
_cell_volume 1299.904761
_symmetry_space_group_name_H-M "C 2"
_symmetry_group_IT_number 5
_symmetry_cell_setting 'monoclinic'
loop_
_space_group_symop_operation_xyz
x,y,z
-x,y,-z
1/2+x,1/2+y,z
1/2-x,1/2+y,-z
loop_
_atom_site_type_symbol
_atom_site_label
_atom_site_fract_x
_atom_site_fract_y
_atom_site_fract_z
Si Si1 0.611349 0.590320 0.962010
Si Si2 0.400307 0.878899 0.923551
Si Si3 0.223849 0.404905 0.508634
Si Si4 0.288687 0.261049 0.392580
Si Si5 0.430310 0.141400 0.296992
Si Si6 0.730687 0.553011 0.401526
Si Si7 0.660380 0.736587 0.970792
O O1 0.677523 0.548604 0.140354
O O2 0.500000 0.557492 0.000000
O O3 0.665285 0.596277 0.644884
O O4 0.600083 0.667949 0.064286
O O5 0.374251 0.903197 0.636246
O O6 0.500000 0.913160 0.000000
O O7 0.307258 0.897440 0.164746
O O8 0.414682 0.797616 0.910592
O O9 0.302505 0.343661 0.394101
O O10 0.272123 0.478735 0.460691
O O11 0.388898 0.216912 0.396621
O O12 0.198913 0.242351 0.644868
O O13 0.258405 0.238778 0.109296
O O14 0.500000 0.114995 0.500000
O O15 0.340701 0.086579 0.306114
O O16 0.500000 0.144936 0.000000
#
# Coordination Sequence:
#
# PCOD8048366 Si02
#       7
#     4   4   4   4   4   4   4
#     4  12  23  40  67  94 125 165 207 266 332 384
#     4  10  20  35  59  92 122 157 210 257 314 398
#     4  10  23  39  62  82 127 178 202 264 336 364
#     4  10  20  40  62  88 122 164 212 262 310 372
#     4  12  24  40  66  96 127 176 221 265 322 379
#     4  12  25  44  61  95 134 168 215 274 320 394
#     4  10  18  36  62  91 123 154 194 262 319 369
#
# _framework density 21.540040999999999
#
# number of rings (size 3 to 8) (size 9 to 14) (size 15 to 20)
#    0.000    1.143    2.857    3.857    0.000    1.714 
#    0.000    6.429    0.000    0.000    0.000    0.000 
#    0.000    0.000    0.000    0.000    0.000    0.000 
#
# Total GULP energy -173562.868120 kJ/mol
# GULP energy per Si atom -12397.347723 kJ/mol
# Density = 2.149101 g / cm^3
# Si number density = 21.540041 Si / 1000 Ang^3
#
#
#
# Elastic Constant Matrix: (Units=GPa)
#
#
# Indices 1 2 3 4 5 6 
#
# 1 117.9387 35.3070 27.8501 0.0000 5.4206 0.0000
# 2 35.3070 117.0201 12.3360 0.0000 0.2413 0.0000
# 3 27.8501 12.3360 89.1050 0.0000 7.8542 0.0000
# 4 0.0000 0.0000 0.0000 16.7688 0.0000 11.0078
# 5 5.4206 0.2413 7.8542 0.0000 31.1018 0.0000
# 6 0.0000 0.0000 0.0000 11.0078 0.0000 4.7010
#
#
#
# Elastic Compliance Matrix: (Units=1/GPa)
#
#
# Indices 1 2 3 4 5 6 
#
# 1 0.009968 -0.002726 -0.002646 0.000000 -0.001048 0.000000
# 2 -0.002726 0.009420 -0.000498 0.000000 0.000528 0.000000
# 3 -0.002646 -0.000498 0.012353 0.000000 -0.002654 0.000000
# 4 0.000000 0.000000 0.000000 -0.111026 0.000000 0.259977
# 5 -0.001048 0.000528 -0.002654 0.000000 0.033001 0.000000
# 6 0.000000 0.000000 0.000000 0.259977 0.000000 -0.396039
#
#
# Mechanical properties :
#
#
# Convention : Reuss Voigt Hill
#
# Bulk Modulus (GPa) = 50.00238 52.78333 51.39285
# Shear Modulus (GPa) = -11.79482 27.08571 7.64545
#
# Velocity S-wave (km/s) = -2.34257 3.54991 1.88603
# Velocity P-wave (km/s) = 3.99340 6.43121 5.35293
#
# Compressibility (1/GPa) = 0.01999905
#
# Stress axis : x y z
#
# Youngs Moduli (GPa) = 100.31971 106.16135 80.95442
#
# Poissons Ratio (x) = 0.28945 0.21418
# Poissons Ratio (y) = 0.27352 0.04035
# Poissons Ratio (z) = 0.26542 0.05292
#
# Static dielectric constant tensor:
#      x y z
#    x 3.830820 0.000000 0.455110 
#    y 0.000000 4.029980 0.000000 
#    z 0.455110 0.000000 4.068280 
# 
# 
# High freq. dielectric constant tensor:
#      x y z
#    x 1.822780 0.000000 0.022050 
#    y 0.000000 1.843650 0.000000 
#    z 0.022050 0.000000 1.855160 
# 
# From -- ./inp_files/5604.got.cif
#   From: 2010.03.12/outbox.cif.g09.slc.cpg/sg5_3_cif.got.tgz:5604.got - 2010.03.31 09:47:26.
