data_PCOD8048703
_publ_section_title
;
Structure prediction by ZEFSAII (Michael W. Deem and Ramdas Pophale) SiO2 
 PCOD8048703
Probable space group: C 2
;
_chemical_formula_sum "Si O2"
_cell_formula_units_Z 16
_cell_length_a 23.362334
_cell_length_b 5.083355
_cell_length_c 7.894946
_cell_angle_alpha 90.000000
_cell_angle_beta 42.765156
_cell_angle_gamma 90.000000
_cell_volume 636.623091
_symmetry_space_group_name_H-M "C 2"
_symmetry_group_IT_number 5
_symmetry_cell_setting 'monoclinic'
loop_
_space_group_symop_operation_xyz
x,y,z
-x,y,-z
1/2+x,1/2+y,z
1/2-x,1/2+y,-z
loop_
_atom_site_type_symbol
_atom_site_label
_atom_site_fract_x
_atom_site_fract_y
_atom_site_fract_z
Si Si1 0.403981 0.604130 0.254836
Si Si2 0.382004 0.111073 0.109223
Si Si3 0.801531 0.559866 0.935002
Si Si4 0.454192 0.278321 0.435320
O O1 0.353606 0.391380 0.248151
O O2 0.400694 0.511991 0.458755
O O3 0.371941 0.896918 0.282647
O O4 0.500000 0.579862 0.000000
O O5 0.319182 0.024586 0.096676
O O6 0.479074 0.129194 0.831799
O O7 0.889351 0.557189 0.641355
O O8 0.742030 0.339700 0.991420
O O9 0.500000 0.407287 0.500000
#
# Coordination Sequence:
#
# PCOD8048703 Si02
#       4
#     4   4   4   4
#     4  10  19  36  63  95 123 155 204 263 313 365
#     4  10  21  39  64  93 124 160 206 260 314 370
#     4  11  24  42  63  92 130 171 212 259 312 375
#     4   9  21  41  68  96 125 166 214 260 313 376
#
# _framework density 25.13261
#
# number of rings (size 3 to 8) (size 9 to 14) (size 15 to 20)
#    0.000    2.000    0.000    3.750    0.000    6.000 
#    0.000   25.000    0.000    3.000    0.000    0.000 
#    0.000    0.000    0.000    0.000    0.000    0.000 
#
# Total GULP energy -99169.138531 kJ/mol
# GULP energy per Si atom -12396.142316 kJ/mol
# Density = 2.507541 g / cm^3
# Si number density = 25.132610 Si / 1000 Ang^3
#
#
#
# Elastic Constant Matrix: (Units=GPa)
#
#
# Indices 1 2 3 4 5 6 
#
# 1 133.0405 28.0885 27.6328 0.0000 21.7541 0.0000
# 2 28.0885 114.4055 16.5660 0.0000 16.6649 0.0000
# 3 27.6328 16.5660 35.3941 0.0000 8.5545 0.0000
# 4 0.0000 0.0000 0.0000 14.0307 0.0000 10.4215
# 5 21.7541 16.6649 8.5545 0.0000 29.6104 0.0000
# 6 0.0000 0.0000 0.0000 10.4215 0.0000 41.5356
#
#
#
# Elastic Compliance Matrix: (Units=1/GPa)
#
#
# Indices 1 2 3 4 5 6 
#
# 1 0.009752 -0.000795 -0.006039 0.000000 -0.004972 0.000000
# 2 -0.000795 0.009982 -0.003047 0.000000 -0.004153 0.000000
# 3 -0.006039 -0.003047 0.035378 0.000000 -0.004069 0.000000
# 4 0.000000 0.000000 0.000000 0.087597 0.000000 -0.021978
# 5 -0.004972 -0.004153 -0.004069 0.000000 0.040938 0.000000
# 6 0.000000 0.000000 0.000000 -0.021978 0.000000 0.029590
#
#
# Mechanical properties :
#
#
# Convention : Reuss Voigt Hill
#
# Bulk Modulus (GPa) = 28.29033 47.49054 37.89043
# Shear Modulus (GPa) = 20.42614 31.07219 25.74917
#
# Velocity S-wave (km/s) = 2.85394 3.51996 3.20430
# Velocity P-wave (km/s) = 4.70541 5.95459 5.36647
#
# Compressibility (1/GPa) = 0.03534777
#
# Stress axis : x y z
#
# Youngs Moduli (GPa) = 102.54465 100.17634 28.26616
#
# Poissons Ratio (x) = 0.07969 0.17071
# Poissons Ratio (y) = 0.08157 0.08614
# Poissons Ratio (z) = 0.61931 0.30527
#
# Static dielectric constant tensor:
#      x y z
#    x 5.213740 0.000000 0.507500 
#    y 0.000000 4.526550 0.000000 
#    z 0.507500 0.000000 4.676750 
# 
# 
# High freq. dielectric constant tensor:
#      x y z
#    x 2.018700 0.000000 0.011780 
#    y 0.000000 1.989210 0.000000 
#    z 0.011780 0.000000 1.980790 
# 
# From -- ./inp_files/25745.got.cif
#   From: 2010.03.12/outbox.cif.g09.slc.cpg/sg5_13_cif.got.tgz:25745.got - 2010.03.31 09:47:26.
