data_PCOD8048523
_publ_section_title
;
Structure prediction by ZEFSAII (Michael W. Deem and Ramdas Pophale) SiO2 
 PCOD8048523
Probable space group: C 2
;
_chemical_formula_sum "Si O2"
_cell_formula_units_Z 32
_cell_length_a 23.338231
_cell_length_b 5.010366
_cell_length_c 13.376223
_cell_angle_alpha 90.000000
_cell_angle_beta 111.414203
_cell_angle_gamma 90.000000
_cell_volume 1456.144244
_symmetry_space_group_name_H-M "C 2"
_symmetry_group_IT_number 5
_symmetry_cell_setting 'monoclinic'
loop_
_space_group_symop_operation_xyz
x,y,z
-x,y,-z
1/2+x,1/2+y,z
1/2-x,1/2+y,-z
loop_
_atom_site_type_symbol
_atom_site_label
_atom_site_fract_x
_atom_site_fract_y
_atom_site_fract_z
Si Si1 0.554808 0.797140 0.910673
Si Si2 0.655344 0.123104 0.773958
Si Si3 0.723857 0.223550 0.431247
Si Si4 0.417080 0.780640 0.858395
Si Si5 0.216382 0.716870 0.007265
Si Si6 0.903366 0.799607 0.723545
Si Si7 0.229184 0.127979 0.759122
Si Si8 0.958620 0.810146 0.219360
O O1 0.487763 0.689834 0.898973
O O2 0.573159 0.592744 0.833148
O O3 0.547094 0.102922 0.875106
O O4 0.601419 0.777774 0.035363
O O5 0.701325 0.334402 0.754357
O O6 0.582789 0.198397 0.713128
O O7 0.673607 0.838893 0.739912
O O8 0.660215 0.115302 0.900880
O O9 0.754402 0.505244 0.475932
O O10 0.649580 0.243436 0.392009
O O11 0.742646 0.141942 0.331934
O O12 0.380884 0.563373 0.769159
O O13 0.405647 0.069446 0.806656
O O14 0.214033 0.674527 0.126137
O O15 0.273690 0.529932 0.008238
O O16 0.968744 0.836079 0.706236
#
# Coordination Sequence:
#
# PCOD8048523 Si02
#       8
#     4   4   4   4   4   4   4   4
#     4   9  17  28  46  79 122 161 189 216 261 341
#     4  10  19  35  58  88 121 153 184 220 278 351
#     4  12  26  45  66  85 108 147 202 261 307 340
#     4   9  17  31  50  78 117 155 192 227 273 339
#     4   8  16  30  50  79 114 149 184 217 260 329
#     4  10  21  37  57  82 110 147 193 245 303 347
#     4  10  21  38  59  83 114 152 194 237 281 336
#     4  10  19  32  54  84 120 156 186 227 287 350
#
# _framework density 21.975843999999999
#
# number of rings (size 3 to 8) (size 9 to 14) (size 15 to 20)
#    0.000    2.250    0.000    3.000    0.000    5.000 
#    0.000    5.000    0.000    4.500    0.000    0.000 
#    0.000    0.000    0.000    0.000    0.000    0.000 
#
# Total GULP energy -198245.113111 kJ/mol
# GULP energy per Si atom -12390.319569 kJ/mol
# Density = 2.192583 g / cm^3
# Si number density = 21.975844 Si / 1000 Ang^3
#
#
#
# Elastic Constant Matrix: (Units=GPa)
#
#
# Indices 1 2 3 4 5 6 
#
# 1 54.5621 -16.1820 27.0185 0.0000 12.6841 0.0000
# 2 -16.1820 71.5808 1.7675 0.0000 3.1183 0.0000
# 3 27.0185 1.7675 59.4661 0.0000 3.6936 0.0000
# 4 0.0000 0.0000 0.0000 29.9831 0.0000 2.3516
# 5 12.6841 3.1183 3.6936 0.0000 27.3357 0.0000
# 6 0.0000 0.0000 0.0000 2.3516 0.0000 16.4436
#
#
#
# Elastic Compliance Matrix: (Units=1/GPa)
#
#
# Indices 1 2 3 4 5 6 
#
# 1 0.030155 0.007712 -0.013117 0.000000 -0.013100 0.000000
# 2 0.007712 0.016018 -0.003675 0.000000 -0.004909 0.000000
# 3 -0.013117 -0.003675 0.022671 0.000000 0.003442 0.000000
# 4 0.000000 0.000000 0.000000 0.033730 0.000000 -0.004824
# 5 -0.013100 -0.004909 0.003442 0.000000 0.042756 0.000000
# 6 0.000000 0.000000 0.000000 -0.004824 0.000000 0.061504
#
#
# Mechanical properties :
#
#
# Convention : Reuss Voigt Hill
#
# Bulk Modulus (GPa) = 19.72976 23.42413 21.57695
# Shear Modulus (GPa) = 20.67060 26.28616 23.47838
#
# Velocity S-wave (km/s) = 3.07026 3.46228 3.27214
# Velocity P-wave (km/s) = 4.64393 5.16385 4.91077
#
# Compressibility (1/GPa) = 0.05068484
#
# Stress axis : x y z
#
# Youngs Moduli (GPa) = 33.16156 62.42908 44.10864
#
# Poissons Ratio (x) = -0.48143 0.57856
# Poissons Ratio (y) = -0.25573 0.16210
# Poissons Ratio (z) = 0.43497 0.22943
#
# Static dielectric constant tensor:
#      x y z
#    x 4.040420 0.000000 0.221120 
#    y 0.000000 4.039400 0.000000 
#    z 0.221120 0.000000 3.668400 
# 
# 
# High freq. dielectric constant tensor:
#      x y z
#    x 1.856650 0.000000 0.008010 
#    y 0.000000 1.886920 0.000000 
#    z 0.008010 0.000000 1.810850 
# 
# From -- ./inp_files/47054.got.cif
#   From: 2010.03.12/outbox.cif.g09.slc.cpg/sg5_24_cif.got.tgz:47054.got - 2010.03.31 09:47:26.
