data_PCOD8048436
_publ_section_title
;
Structure prediction by ZEFSAII (Michael W. Deem and Ramdas Pophale) SiO2 
 PCOD8048436
Probable space group: C 2
;
_chemical_formula_sum "Si O2"
_cell_formula_units_Z 24
_cell_length_a 7.249961
_cell_length_b 14.347515
_cell_length_c 11.278802
_cell_angle_alpha 90.000000
_cell_angle_beta 75.976701
_cell_angle_gamma 90.000000
_cell_volume 1138.244024
_symmetry_space_group_name_H-M "C 2"
_symmetry_group_IT_number 5
_symmetry_cell_setting 'monoclinic'
loop_
_space_group_symop_operation_xyz
x,y,z
-x,y,-z
1/2+x,1/2+y,z
1/2-x,1/2+y,-z
loop_
_atom_site_type_symbol
_atom_site_label
_atom_site_fract_x
_atom_site_fract_y
_atom_site_fract_z
Si Si1 0.366457 0.228390 0.747553
Si Si2 0.937460 0.095479 0.252100
Si Si3 0.000000 0.997734 0.000000
Si Si4 0.000000 0.822378 0.500000
Si Si5 0.143253 0.565914 0.741044
Si Si6 0.810565 0.395759 0.089266
Si Si7 0.301060 0.499985 0.489993
O O1 0.160407 0.196110 0.734002
O O2 0.489466 0.258460 0.616281
O O3 0.482236 0.143713 0.794469
O O4 0.326947 0.316456 0.836785
O O5 0.933598 0.059620 0.119472
O O6 0.796068 0.027787 0.351870
O O7 0.150216 0.109043 0.265121
O O8 0.183892 0.938380 0.005272
O O9 0.813904 0.888071 0.508936
O O10 0.124197 0.473246 0.824427
O O11 0.132850 0.538516 0.601524
O O12 0.000000 0.353076 0.000000
O O13 0.500000 0.546855 0.500000
#
# Coordination Sequence:
#
# PCOD8048436 Si02
#       7
#     4   4   2   2   4   4   4
#     4  12  23  37  68  99 122 170 220 268 322 394
#     4  10  21  38  64  93 127 165 215 268 316 394
#     4  10  22  44  64  86 128 180 212 260 340 380
#     4  10  18  38  66  94 130 162 214 272 322 384
#     4  10  21  43  66  89 128 172 209 266 335 379
#     4  11  24  44  64  92 133 170 217 274 323 388
#     4   8  16  37  65  84 127 166 198 266 331 366
#
# _framework density 21.085111999999999
#
# number of rings (size 3 to 8) (size 9 to 14) (size 15 to 20)
#    0.500    1.333    1.667    3.000    1.167    1.333 
#    4.500    1.667    3.667    0.000    0.000    0.000 
#    0.000    0.000    0.000    0.000    0.000    0.000 
#
# Total GULP energy -148671.125395 kJ/mol
# GULP energy per Si atom -12389.260450 kJ/mol
# Density = 2.103712 g / cm^3
# Si number density = 21.085112 Si / 1000 Ang^3
#
#
#
# Elastic Constant Matrix: (Units=GPa)
#
#
# Indices 1 2 3 4 5 6 
#
# 1 62.3938 35.9103 34.6650 0.0000 -21.1444 0.0000
# 2 35.9103 105.8881 38.4315 0.0000 -3.9853 0.0000
# 3 34.6650 38.4315 137.3708 0.0000 1.1818 0.0000
# 4 0.0000 0.0000 0.0000 2.3056 0.0000 -9.1012
# 5 -21.1444 -3.9853 1.1818 0.0000 23.8387 0.0000
# 6 0.0000 0.0000 0.0000 -9.1012 0.0000 42.6181
#
#
#
# Elastic Compliance Matrix: (Units=1/GPa)
#
#
# Indices 1 2 3 4 5 6 
#
# 1 0.034404 -0.008141 -0.006658 0.000000 0.029484 0.000000
# 2 -0.008141 0.012525 -0.001406 0.000000 -0.005058 0.000000
# 3 -0.006658 -0.001406 0.009410 0.000000 -0.006607 0.000000
# 4 0.000000 0.000000 0.000000 2.762163 0.000000 0.589869
# 5 0.029484 -0.005058 -0.006607 0.000000 0.067583 0.000000
# 6 0.000000 0.000000 0.000000 0.589869 0.000000 0.149433
#
#
# Mechanical properties :
#
#
# Convention : Reuss Voigt Hill
#
# Bulk Modulus (GPa) = 41.79166 58.18514 49.98840
# Shear Modulus (GPa) = 1.62554 26.86221 14.24387
#
# Velocity S-wave (km/s) = 0.87899 3.57317 2.60194
# Velocity P-wave (km/s) = 4.57096 6.68421 5.72592
#
# Compressibility (1/GPa) = 0.02392822
#
# Stress axis : x y z
#
# Youngs Moduli (GPa) = 29.06664 79.84077 106.27220
#
# Poissons Ratio (x) = 0.65002 0.70752
# Poissons Ratio (y) = 0.23664 0.14943
# Poissons Ratio (z) = 0.19351 0.11226
#
# Static dielectric constant tensor:
#      x y z
#    x 3.634810 0.000000 -0.011920 
#    y 0.000000 3.621020 0.000000 
#    z -0.011920 0.000000 3.957460 
# 
# 
# High freq. dielectric constant tensor:
#      x y z
#    x 1.810410 0.000000 -0.007890 
#    y 0.000000 1.812570 0.000000 
#    z -0.007890 0.000000 1.840300 
# 
# From -- ./inp_files/35361.got.cif
#   From: 2010.03.12/outbox.cif.g09.slc.cpg/sg5_18_cif.got.tgz:35361.got - 2010.03.31 09:47:26.
