data_PCOD8048894
_publ_section_title
;
Structure prediction by ZEFSAII (Michael W. Deem and Ramdas Pophale) SiO2 
 PCOD8048894
Probable space group: C 2
;
_chemical_formula_sum "Si O2"
_cell_formula_units_Z 30
_cell_length_a 13.653760
_cell_length_b 15.938031
_cell_length_c 11.675419
_cell_angle_alpha 90.000000
_cell_angle_beta 150.123002
_cell_angle_gamma 90.000000
_cell_volume 1265.641014
_symmetry_space_group_name_H-M "C 2"
_symmetry_group_IT_number 5
_symmetry_cell_setting 'monoclinic'
loop_
_space_group_symop_operation_xyz
x,y,z
-x,y,-z
1/2+x,1/2+y,z
1/2-x,1/2+y,-z
loop_
_atom_site_type_symbol
_atom_site_label
_atom_site_fract_x
_atom_site_fract_y
_atom_site_fract_z
Si Si1 0.227471 0.198090 0.242135
Si Si2 0.664064 0.332429 0.816205
Si Si3 0.573318 0.463191 0.310547
Si Si4 0.675704 0.759992 0.608081
Si Si5 0.228458 0.562742 0.903056
Si Si6 0.056241 0.688368 0.301589
Si Si7 0.500000 0.369353 0.000000
Si Si8 0.008503 0.409483 0.288455
O O1 0.338332 0.280364 0.304673
O O2 0.279746 0.115448 0.221895
O O3 0.299507 0.182148 0.442591
O O4 0.000000 0.216174 0.000000
O O5 0.513384 0.410488 0.669772
O O6 0.584266 0.269890 0.835038
O O7 0.884155 0.367815 0.059447
O O8 0.535346 0.424834 0.146898
O O9 0.807949 0.467829 0.569349
O O10 0.452598 0.551944 0.180183
O O11 0.500000 0.714462 0.500000
O O12 0.801069 0.692042 0.663543
O O13 0.587192 0.831188 0.437322
O O14 0.815334 0.808351 0.838807
O O15 0.089683 0.608686 0.856064
O O16 0.137977 0.469913 0.787662
#
# Coordination Sequence:
#
# PCOD8048894 Si02
#       8
#     4   4   4   4   4   4   2   4
#     4  11  25  38  63  98 141 182 216 268 340 408
#     4  10  19  41  61  90 133 169 220 266 315 398
#     4  10  21  37  63  94 130 170 217 270 334 394
#     4  11  22  38  64  94 125 172 224 281 329 393
#     4  10  23  38  59  96 139 168 208 275 335 399
#     4  11  23  42  61 101 140 175 225 272 343 410
#     4  10  20  34  58  90 124 160 218 278 324 390
#     4  10  21  39  66  95 134 170 219 272 335 397
#
# _framework density 23.703403999999999
#
# number of rings (size 3 to 8) (size 9 to 14) (size 15 to 20)
#    0.000    1.600    2.667    4.000    2.800    4.267 
#    0.000    0.000    0.000    0.000   24.267    0.000 
#    0.000    0.000    0.000    0.000    0.000    0.000 
#
# Total GULP energy -185839.954399 kJ/mol
# GULP energy per Si atom -12389.330293 kJ/mol
# Density = 2.364945 g / cm^3
# Si number density = 23.703404 Si / 1000 Ang^3
#
#
#
# Elastic Constant Matrix: (Units=GPa)
#
#
# Indices 1 2 3 4 5 6 
#
# 1 116.9388 29.7708 28.3761 0.0000 32.7849 0.0000
# 2 29.7708 69.3801 24.1585 0.0000 1.2359 0.0000
# 3 28.3761 24.1585 104.6462 0.0000 39.6542 0.0000
# 4 0.0000 0.0000 0.0000 38.0282 0.0000 19.6754
# 5 32.7849 1.2359 39.6542 0.0000 36.8976 0.0000
# 6 0.0000 0.0000 0.0000 19.6754 0.0000 22.7739
#
#
#
# Elastic Compliance Matrix: (Units=1/GPa)
#
#
# Indices 1 2 3 4 5 6 
#
# 1 0.014069 -0.007203 0.004207 0.000000 -0.016780 0.000000
# 2 -0.007203 0.020098 -0.008194 0.000000 0.014533 0.000000
# 3 0.004207 -0.008194 0.019602 0.000000 -0.024530 0.000000
# 4 0.000000 0.000000 0.000000 0.047552 0.000000 -0.041082
# 5 -0.016780 0.014533 -0.024530 0.000000 0.067888 0.000000
# 6 0.000000 0.000000 0.000000 -0.041082 0.000000 0.079403
#
#
# Mechanical properties :
#
#
# Convention : Reuss Voigt Hill
#
# Bulk Modulus (GPa) = 31.85755 50.61952 41.23854
# Shear Modulus (GPa) = 17.76485 33.45058 25.60771
#
# Velocity S-wave (km/s) = 2.74060 3.76069 3.29042
# Velocity P-wave (km/s) = 4.84601 6.34498 5.64547
#
# Compressibility (1/GPa) = 0.03138973
#
# Stress axis : x y z
#
# Youngs Moduli (GPa) = 71.07817 49.75557 51.01459
#
# Poissons Ratio (x) = 0.35838 -0.21460
# Poissons Ratio (y) = 0.51196 0.41800
# Poissons Ratio (z) = -0.29900 0.40768
#
# Static dielectric constant tensor:
#      x y z
#    x 4.439570 0.000000 0.585000 
#    y 0.000000 4.258650 0.000000 
#    z 0.585000 0.000000 4.748340 
# 
# 
# High freq. dielectric constant tensor:
#      x y z
#    x 1.923790 0.000000 0.043390 
#    y 0.000000 1.919630 0.000000 
#    z 0.043390 0.000000 1.942540 
# 
# From -- ./inp_files/43335.got.cif
#   From: 2010.03.12/outbox.cif.g09.slc.cpg/sg5_22_cif.got.tgz:43335.got - 2010.03.31 09:47:26.
