data_PCOD8048230
_publ_section_title
;
Structure prediction by ZEFSAII (Michael W. Deem and Ramdas Pophale) SiO2 
 PCOD8048230
Probable space group: C 2
;
_chemical_formula_sum "Si O2"
_cell_formula_units_Z 32
_cell_length_a 16.420664
_cell_length_b 8.124577
_cell_length_c 12.047065
_cell_angle_alpha 90.000000
_cell_angle_beta 97.218317
_cell_angle_gamma 90.000000
_cell_volume 1594.472562
_symmetry_space_group_name_H-M "C 2"
_symmetry_group_IT_number 5
_symmetry_cell_setting 'monoclinic'
loop_
_space_group_symop_operation_xyz
x,y,z
-x,y,-z
1/2+x,1/2+y,z
1/2-x,1/2+y,-z
loop_
_atom_site_type_symbol
_atom_site_label
_atom_site_fract_x
_atom_site_fract_y
_atom_site_fract_z
Si Si1 0.800815 0.324490 0.283106
Si Si2 0.134108 0.019004 0.824652
Si Si3 0.336994 0.034398 0.084339
Si Si4 0.722130 0.816996 0.261402
Si Si5 0.179433 0.207264 0.036319
Si Si6 0.851999 0.617986 0.412335
Si Si7 0.142341 0.636211 0.330632
Si Si8 0.464995 0.223202 0.239161
O O1 0.862224 0.180088 0.253527
O O2 0.791168 0.460136 0.184855
O O3 0.839260 0.420658 0.395282
O O4 0.712799 0.254303 0.298466
O O5 0.211933 0.903310 0.809955
O O6 0.051310 0.917353 0.785131
O O7 0.130584 0.072691 0.954212
O O8 0.275872 0.172293 0.022841
O O9 0.422677 0.117128 0.133878
O O10 0.351757 0.889438 0.000092
O O11 0.668027 0.700507 0.168721
O O12 0.768320 0.711657 0.362640
O O13 0.663611 0.946320 0.312053
O O14 0.871339 0.662077 0.541543
O O15 0.929287 0.675945 0.353304
O O16 0.060969 0.686815 0.250797
#
# Coordination Sequence:
#
# PCOD8048230 Si02
#       8
#     4   4   4   4   4   4   4   4
#     4   9  19  34  56  87 108 141 193 238 275 336
#     4   9  18  32  59  86 109 143 192 232 282 348
#     4  10  18  32  61  80 106 144 193 231 274 344
#     4  10  19  33  57  86 111 143 196 233 274 340
#     4  11  16  32  61  84 105 146 196 234 275 337
#     4  10  19  38  59  82 108 153 196 232 274 346
#     4  11  22  35  57  81 120 149 184 239 295 323
#     4  10  20  38  55  84 114 148 188 234 288 352
#
# _framework density 20.069331999999999
#
# number of rings (size 3 to 8) (size 9 to 14) (size 15 to 20)
#    0.000    2.000    5.000    1.125    0.000    0.000 
#    0.000    4.375    2.750   12.000    0.000    0.000 
#    0.000    0.000    0.000    0.000    0.000    0.000 
#
# Total GULP energy -198294.134515 kJ/mol
# GULP energy per Si atom -12393.383407 kJ/mol
# Density = 2.002365 g / cm^3
# Si number density = 20.069332 Si / 1000 Ang^3
#
#
#
# Elastic Constant Matrix: (Units=GPa)
#
#
# Indices 1 2 3 4 5 6 
#
# 1 57.6413 30.5100 12.2418 0.0000 16.2804 0.0000
# 2 30.5100 101.7861 19.1389 0.0000 16.5316 0.0000
# 3 12.2418 19.1389 55.4421 0.0000 18.0275 0.0000
# 4 0.0000 0.0000 0.0000 27.3068 0.0000 0.5223
# 5 16.2804 16.5316 18.0275 0.0000 21.2694 0.0000
# 6 0.0000 0.0000 0.0000 0.5223 0.0000 20.6296
#
#
#
# Elastic Compliance Matrix: (Units=1/GPa)
#
#
# Indices 1 2 3 4 5 6 
#
# 1 0.024139 -0.004937 0.001566 0.000000 -0.015967 0.000000
# 2 -0.004937 0.012337 -0.001766 0.000000 -0.004313 0.000000
# 3 0.001566 -0.001766 0.025185 0.000000 -0.021172 0.000000
# 4 0.000000 0.000000 0.000000 0.036639 0.000000 -0.000928
# 5 -0.015967 -0.004313 -0.021172 0.000000 0.080535 0.000000
# 6 0.000000 0.000000 0.000000 -0.000928 0.000000 0.048498
#
#
# Mechanical properties :
#
#
# Convention : Reuss Voigt Hill
#
# Bulk Modulus (GPa) = 19.46017 37.62789 28.54403
# Shear Modulus (GPa) = 19.62822 24.03973 21.83397
#
# Velocity S-wave (km/s) = 3.13072 3.46473 3.30195
# Velocity P-wave (km/s) = 4.77348 5.89877 5.36570
#
# Compressibility (1/GPa) = 0.05138701
#
# Stress axis : x y z
#
# Youngs Moduli (GPa) = 41.42681 81.05762 39.70606
#
# Poissons Ratio (x) = 0.40016 -0.06218
# Poissons Ratio (y) = 0.20451 0.07013
# Poissons Ratio (z) = -0.06488 0.14317
#
# Static dielectric constant tensor:
#      x y z
#    x 3.142200 0.000000 0.141690 
#    y 0.000000 3.985850 0.000000 
#    z 0.141690 0.000000 3.665450 
# 
# 
# High freq. dielectric constant tensor:
#      x y z
#    x 1.734030 0.000000 0.014400 
#    y 0.000000 1.796600 0.000000 
#    z 0.014400 0.000000 1.781990 
# 
# From -- ./inp_files/41974.got.cif
#   From: 2010.03.12/outbox.cif.g09.slc.cpg/sg5_21_cif.got.tgz:41974.got - 2010.03.31 09:47:26.
