data_PCOD8048941
_publ_section_title
;
Structure prediction by ZEFSAII (Michael W. Deem and Ramdas Pophale) SiO2 
 PCOD8048941
Probable space group: C 2
;
_chemical_formula_sum "Si O2"
_cell_formula_units_Z 32
_cell_length_a 10.740754
_cell_length_b 19.295342
_cell_length_c 10.750846
_cell_angle_alpha 90.000000
_cell_angle_beta 56.034720
_cell_angle_gamma 90.000000
_cell_volume 1847.912918
_symmetry_space_group_name_H-M "C 2"
_symmetry_group_IT_number 5
_symmetry_cell_setting 'monoclinic'
loop_
_space_group_symop_operation_xyz
x,y,z
-x,y,-z
1/2+x,1/2+y,z
1/2-x,1/2+y,-z
loop_
_atom_site_type_symbol
_atom_site_label
_atom_site_fract_x
_atom_site_fract_y
_atom_site_fract_z
Si Si1 0.905581 0.312520 0.927525
Si Si2 0.525261 0.460782 0.340582
Si Si3 0.159086 0.238761 0.669059
Si Si4 0.729948 0.583690 0.923536
Si Si5 0.666834 0.226797 0.169904
Si Si6 0.339966 0.961601 0.027340
Si Si7 0.577626 0.311993 0.590293
Si Si8 0.431587 0.589938 0.235066
O O1 0.008288 0.284849 0.758091
O O2 0.757423 0.265648 0.011281
O O3 0.854821 0.391604 0.939510
O O4 0.000000 0.304968 0.000000
O O5 0.500000 0.473498 0.500000
O O6 0.703356 0.455317 0.204654
O O7 0.435983 0.390651 0.350187
O O8 0.447520 0.525271 0.317254
O O9 0.244572 0.237858 0.751621
O O10 0.256070 0.279743 0.511688
O O11 0.123418 0.157971 0.657142
O O12 0.849889 0.646148 0.854785
O O13 0.684486 0.566451 0.807252
O O14 0.806573 0.518239 0.942493
O O15 0.587722 0.609829 0.082221
O O16 0.503357 0.260053 0.269551
O O17 0.500000 0.979852 0.000000
O O18 0.500000 0.311839 0.500000
#
# Coordination Sequence:
#
# PCOD8048941 Si02
#       8
#     4   4   4   4   4   4   4   4
#     4   9  15  25  46  70  92 118 161 210 237 276
#     4  10  20  33  50  73 103 134 162 200 249 298
#     4   9  16  27  47  72  93 121 164 203 245 283
#     4   9  17  31  53  75  98 127 165 208 244 289
#     4   9  14  27  45  69  96 117 158 208 243 272
#     4  10  20  32  50  76 101 131 166 202 246 293
#     4   9  17  27  44  71  98 124 158 203 245 283
#     4   9  17  32  53  74  97 130 166 200 247 298
#
# _framework density 17.316832999999999
#
# number of rings (size 3 to 8) (size 9 to 14) (size 15 to 20)
#    0.000    2.750    2.500    0.000    5.250    0.000 
#    2.250    0.000    0.000    3.000    0.000    0.000 
#    0.000    0.000    0.000    0.000    0.000    0.000 
#
# Total GULP energy -198257.069525 kJ/mol
# GULP energy per Si atom -12391.066845 kJ/mol
# Density = 1.727742 g / cm^3
# Si number density = 17.316833 Si / 1000 Ang^3
#
#
#
# Elastic Constant Matrix: (Units=GPa)
#
#
# Indices 1 2 3 4 5 6 
#
# 1 43.5364 52.1114 37.1337 0.0000 -11.1377 0.0000
# 2 52.1114 160.5248 81.8959 0.0000 -14.2978 0.0000
# 3 37.1337 81.8959 108.0435 0.0000 -25.8290 0.0000
# 4 0.0000 0.0000 0.0000 31.3854 0.0000 -3.2346
# 5 -11.1377 -14.2978 -25.8290 0.0000 22.4429 0.0000
# 6 0.0000 0.0000 0.0000 -3.2346 0.0000 25.3720
#
#
#
# Elastic Compliance Matrix: (Units=1/GPa)
#
#
# Indices 1 2 3 4 5 6 
#
# 1 0.041401 -0.010570 -0.004021 0.000000 0.009184 0.000000
# 2 -0.010570 0.013036 -0.007611 0.000000 -0.005700 0.000000
# 3 -0.004021 -0.007611 0.020377 0.000000 0.016607 0.000000
# 4 0.000000 0.000000 0.000000 0.032286 0.000000 0.004116
# 5 0.009184 -0.005700 0.016607 0.000000 0.064596 0.000000
# 6 0.000000 0.000000 0.000000 0.004116 0.000000 0.039938
#
#
# Mechanical properties :
#
#
# Convention : Reuss Voigt Hill
#
# Bulk Modulus (GPa) = 32.88582 72.70965 52.79774
# Shear Modulus (GPa) = 18.78449 25.23765 22.01107
#
# Velocity S-wave (km/s) = 3.29713 3.82174 3.56909
# Velocity P-wave (km/s) = 5.79022 7.84559 6.89492
#
# Compressibility (1/GPa) = 0.03040824
#
# Stress axis : x y z
#
# Youngs Moduli (GPa) = 24.15390 76.70831 49.07523
#
# Poissons Ratio (x) = 0.81084 0.19735
# Poissons Ratio (y) = 0.25532 0.37352
# Poissons Ratio (z) = 0.09713 0.58384
#
# Static dielectric constant tensor:
#      x y z
#    x 2.801970 0.000000 -0.343850 
#    y 0.000000 3.427870 0.000000 
#    z -0.343850 0.000000 3.352400 
# 
# 
# High freq. dielectric constant tensor:
#      x y z
#    x 1.612700 0.000000 -0.028480 
#    y 0.000000 1.688030 0.000000 
#    z -0.028480 0.000000 1.660940 
# 
# From -- ./inp_files/21803.got.cif
#   From: 2010.03.12/outbox.cif.g09.slc.cpg/sg5_11_cif.got.tgz:21803.got - 2010.03.31 09:47:26.
