data_PCOD8048679
_publ_section_title
;
Structure prediction by ZEFSAII (Michael W. Deem and Ramdas Pophale) SiO2 
 PCOD8048679
Probable space group: C 2
;
_chemical_formula_sum "Si O2"
_cell_formula_units_Z 30
_cell_length_a 10.542672
_cell_length_b 8.580449
_cell_length_c 16.565631
_cell_angle_alpha 90.000000
_cell_angle_beta 86.436437
_cell_angle_gamma 90.000000
_cell_volume 1495.643725
_symmetry_space_group_name_H-M "C 2"
_symmetry_group_IT_number 5
_symmetry_cell_setting 'monoclinic'
loop_
_space_group_symop_operation_xyz
x,y,z
-x,y,-z
1/2+x,1/2+y,z
1/2-x,1/2+y,-z
loop_
_atom_site_type_symbol
_atom_site_label
_atom_site_fract_x
_atom_site_fract_y
_atom_site_fract_z
Si Si1 0.491006 0.954130 0.677949
Si Si2 0.378950 0.251597 0.060923
Si Si3 0.787774 0.102069 0.057070
Si Si4 0.759065 0.459119 0.578852
Si Si5 0.450440 0.050505 0.856230
Si Si6 0.497045 0.630876 0.405808
Si Si7 0.269777 0.093420 0.406828
Si Si8 0.000000 0.326696 0.000000
O O1 0.367796 0.020024 0.635620
O O2 0.460080 0.955017 0.773697
O O3 0.520368 0.779659 0.649934
O O4 0.616585 0.058664 0.659179
O O5 0.327987 0.424956 0.073257
O O6 0.429860 0.170144 0.141613
O O7 0.500000 0.261434 0.000000
O O8 0.273735 0.133128 0.029088
O O9 0.684283 0.144098 0.131396
O O10 0.905488 0.219233 0.056272
O O11 0.621986 0.522917 0.609797
O O12 0.747248 0.275438 0.578973
O O13 0.804256 0.510739 0.488964
O O14 0.437031 0.934114 0.933945
O O15 0.500000 0.680780 0.500000
O O16 0.629504 0.538684 0.380555
#
# Coordination Sequence:
#
# PCOD8048679 Si02
#       8
#     4   4   4   4   4   4   4   2
#     4  11  23  38  59  87 128 162 194 249 311 355
#     4  10  19  36  60  89 113 145 196 249 296 362
#     4  11  20  38  66  87 110 149 202 252 303 363
#     4  10  21  38  63  92 121 160 208 249 293 357
#     4  11  24  40  58  87 123 155 200 252 305 367
#     4   9  20  39  62  88 120 160 205 248 291 355
#     4  10  20  37  61  92 118 161 206 243 302 353
#     4  12  22  40  66  88 106 162 206 252 314 354
#
# _framework density 20.058253000000001
#
# number of rings (size 3 to 8) (size 9 to 14) (size 15 to 20)
#    0.000    1.600    4.000    2.800    0.000    7.467 
#    0.000    0.000    0.000    0.000    0.000    0.000 
#    0.000    0.000    0.000    0.000    0.000    0.000 
#
# Total GULP energy -185887.285909 kJ/mol
# GULP energy per Si atom -12392.485727 kJ/mol
# Density = 2.001260 g / cm^3
# Si number density = 20.058253 Si / 1000 Ang^3
#
#
#
# Elastic Constant Matrix: (Units=GPa)
#
#
# Indices 1 2 3 4 5 6 
#
# 1 131.7495 34.8347 25.6281 0.0000 -6.4456 0.0000
# 2 34.8347 69.9052 17.0726 0.0000 -3.5216 0.0000
# 3 25.6281 17.0726 73.9307 0.0000 -10.7540 0.0000
# 4 0.0000 0.0000 0.0000 15.7005 0.0000 -4.2723
# 5 -6.4456 -3.5216 -10.7540 0.0000 18.4599 0.0000
# 6 0.0000 0.0000 0.0000 -4.2723 0.0000 26.5851
#
#
#
# Elastic Compliance Matrix: (Units=1/GPa)
#
#
# Indices 1 2 3 4 5 6 
#
# 1 0.009100 -0.003970 -0.002060 0.000000 0.001220 0.000000
# 2 -0.003970 0.016907 -0.002470 0.000000 0.000400 0.000000
# 3 -0.002060 -0.002470 0.015993 0.000000 0.008126 0.000000
# 4 0.000000 0.000000 0.000000 0.066605 0.000000 0.010704
# 5 0.001220 0.000400 0.008126 0.000000 0.059408 0.000000
# 6 0.000000 0.000000 0.000000 0.010704 0.000000 0.039335
#
#
# Mechanical properties :
#
#
# Convention : Reuss Voigt Hill
#
# Bulk Modulus (GPa) = 40.00107 47.85069 43.92588
# Shear Modulus (GPa) = 21.48859 25.35242 23.42051
#
# Velocity S-wave (km/s) = 3.27664 3.55905 3.42076
# Velocity P-wave (km/s) = 5.85669 6.38723 6.12771
#
# Compressibility (1/GPa) = 0.02499933
#
# Stress axis : x y z
#
# Youngs Moduli (GPa) = 109.88587 59.14774 62.52823
#
# Poissons Ratio (x) = 0.23483 0.12883
# Poissons Ratio (y) = 0.43627 0.15443
# Poissons Ratio (z) = 0.22641 0.14608
#
# Static dielectric constant tensor:
#      x y z
#    x 4.372440 0.000000 0.111750 
#    y 0.000000 3.608750 0.000000 
#    z 0.111750 0.000000 3.355550 
# 
# 
# High freq. dielectric constant tensor:
#      x y z
#    x 1.814080 0.000000 -0.001530 
#    y 0.000000 1.777640 0.000000 
#    z -0.001530 0.000000 1.743610 
# 
# From -- ./inp_files/52276.got.cif
#   From: 2010.03.12/outbox.cif.g09.slc.cpg/sg5_27_cif.got.tgz:52276.got - 2010.03.31 09:47:26.
