data_PCOD8048131
_publ_section_title
;
Structure prediction by ZEFSAII (Michael W. Deem and Ramdas Pophale) SiO2 
 PCOD8048131
Probable space group: C 2
;
_chemical_formula_sum "Si O2"
_cell_formula_units_Z 26
_cell_length_a 14.654225
_cell_length_b 18.079107
_cell_length_c 8.937841
_cell_angle_alpha 90.000000
_cell_angle_beta 145.992455
_cell_angle_gamma 90.000000
_cell_volume 1324.399116
_symmetry_space_group_name_H-M "C 2"
_symmetry_group_IT_number 5
_symmetry_cell_setting 'monoclinic'
loop_
_space_group_symop_operation_xyz
x,y,z
-x,y,-z
1/2+x,1/2+y,z
1/2-x,1/2+y,-z
loop_
_atom_site_type_symbol
_atom_site_label
_atom_site_fract_x
_atom_site_fract_y
_atom_site_fract_z
Si Si1 0.118177 0.835630 0.290541
Si Si2 0.000000 0.076993 0.000000
Si Si3 0.396700 0.773447 0.496269
Si Si4 0.500000 0.561824 0.500000
Si Si5 0.500000 0.067807 0.000000
Si Si6 0.351508 0.664438 0.049838
Si Si7 0.183251 0.986966 0.503037
Si Si8 0.602500 0.197757 0.930341
O O1 0.300058 0.830181 0.468607
O O2 0.144077 0.899527 0.446983
O O3 0.041945 0.759725 0.256638
O O4 0.000000 0.864821 0.000000
O O5 0.134901 0.127307 0.095535
O O6 0.906856 0.027277 0.755208
O O7 0.500000 0.810874 0.500000
O O8 0.520615 0.731645 0.774622
O O9 0.260232 0.719147 0.243040
O O10 0.400077 0.609273 0.247152
O O11 0.626378 0.510087 0.588604
O O12 0.454250 0.120214 0.077956
O O13 0.630205 0.011575 0.247278
O O14 0.165978 0.689528 0.843257
#
# Coordination Sequence:
#
# PCOD8048131 Si02
#       8
#     4   2   4   2   2   4   4   4
#     4  10  20  36  57  89 123 157 199 249 308 357
#     4  10  22  35  61  88 130 144 198 256 330 327
#     4   9  16  31  59  86 113 154 207 241 292 365
#     4  10  18  34  64  82 120 156 214 232 312 364
#     4  12  20  37  67  92 114 162 218 242 286 367
#     4  10  17  35  59  94 109 155 203 266 286 358
#     4  11  23  40  60  90 123 165 193 257 303 373
#     4  10  17  33  63  88 112 157 216 243 281 373
#
# _framework density 19.631544999999999
#
# number of rings (size 3 to 8) (size 9 to 14) (size 15 to 20)
#    0.000    1.846    6.923    0.923    0.000    0.000 
#    0.000    9.231    0.000    0.000    0.000    0.000 
#    0.000    0.000    0.000    0.000    0.000    0.000 
#
# Total GULP energy -161046.011061 kJ/mol
# GULP energy per Si atom -12388.154697 kJ/mol
# Density = 1.958686 g / cm^3
# Si number density = 19.631545 Si / 1000 Ang^3
#
#
#
# Elastic Constant Matrix: (Units=GPa)
#
#
# Indices 1 2 3 4 5 6 
#
# 1 127.6871 35.2783 26.5422 0.0000 14.7804 0.0000
# 2 35.2783 83.9158 26.8743 0.0000 6.9318 0.0000
# 3 26.5422 26.8743 56.4910 0.0000 14.5508 0.0000
# 4 0.0000 0.0000 0.0000 20.1023 0.0000 -4.8200
# 5 14.7804 6.9318 14.5508 0.0000 30.4124 0.0000
# 6 0.0000 0.0000 0.0000 -4.8200 0.0000 58.9358
#
#
#
# Elastic Compliance Matrix: (Units=1/GPa)
#
#
# Indices 1 2 3 4 5 6 
#
# 1 0.009466 -0.003014 -0.002288 0.000000 -0.002819 0.000000
# 2 -0.003014 0.015018 -0.005958 0.000000 0.000893 0.000000
# 3 -0.002288 -0.005958 0.023923 0.000000 -0.008976 0.000000
# 4 0.000000 0.000000 0.000000 0.050741 0.000000 0.004150
# 5 -0.002819 0.000893 -0.008976 0.000000 0.038343 0.000000
# 6 0.000000 0.000000 0.000000 0.004150 0.000000 0.017307
#
#
# Mechanical properties :
#
#
# Convention : Reuss Voigt Hill
#
# Bulk Modulus (GPa) = 38.62834 49.49814 44.06324
# Shear Modulus (GPa) = 26.88927 33.85004 30.36965
#
# Velocity S-wave (km/s) = 3.70496 4.15694 3.93744
# Velocity P-wave (km/s) = 6.16617 6.95043 6.57001
#
# Compressibility (1/GPa) = 0.02588773
#
# Stress axis : x y z
#
# Youngs Moduli (GPa) = 105.63823 66.58546 41.80001
#
# Poissons Ratio (x) = 0.20070 0.09563
# Poissons Ratio (y) = 0.31841 0.24906
# Poissons Ratio (z) = 0.24167 0.39674
#
# Static dielectric constant tensor:
#      x y z
#    x 4.158800 0.000000 0.269100 
#    y 0.000000 3.506960 0.000000 
#    z 0.269100 0.000000 3.339030 
# 
# 
# High freq. dielectric constant tensor:
#      x y z
#    x 1.781050 0.000000 0.018680 
#    y 0.000000 1.745720 0.000000 
#    z 0.018680 0.000000 1.738340 
# 
# From -- ./inp_files/25406.got.cif
#   From: 2010.03.12/outbox.cif.g09.slc.cpg/sg5_13_cif.got.tgz:25406.got - 2010.03.31 09:47:26.
