data_PCOD8048213
_publ_section_title
;
Structure prediction by ZEFSAII (Michael W. Deem and Ramdas Pophale) SiO2 
 PCOD8048213
Probable space group: C 2
;
_chemical_formula_sum "Si O2"
_cell_formula_units_Z 30
_cell_length_a 13.573478
_cell_length_b 19.327997
_cell_length_c 11.096396
_cell_angle_alpha 90.000000
_cell_angle_beta 148.856128
_cell_angle_gamma 90.000000
_cell_volume 1505.598166
_symmetry_space_group_name_H-M "C 2"
_symmetry_group_IT_number 5
_symmetry_cell_setting 'monoclinic'
loop_
_space_group_symop_operation_xyz
x,y,z
-x,y,-z
1/2+x,1/2+y,z
1/2-x,1/2+y,-z
loop_
_atom_site_type_symbol
_atom_site_label
_atom_site_fract_x
_atom_site_fract_y
_atom_site_fract_z
Si Si1 0.737272 0.918320 0.475668
Si Si2 0.213698 0.624808 0.518953
Si Si3 0.500000 0.182566 0.500000
Si Si4 0.473730 0.515772 0.113720
Si Si5 0.789972 0.941117 0.260298
Si Si6 0.258026 0.788534 0.846565
Si Si7 0.657451 0.770452 0.346272
Si Si8 0.586212 0.015963 0.841752
O O1 0.941239 0.948490 0.728944
O O2 0.689163 0.930196 0.283482
O O3 0.741367 0.836309 0.506339
O O4 0.562394 0.956911 0.360604
O O5 0.156090 0.633967 0.599560
O O6 0.408998 0.582096 0.717759
O O7 0.257883 0.700106 0.506941
O O8 0.036684 0.586413 0.268606
O O9 0.589778 0.233336 0.698447
O O10 0.500000 0.504416 0.000000
O O11 0.252056 0.524835 0.915802
O O12 0.805946 0.868200 0.204581
O O13 0.000000 0.971479 0.500000
O O14 0.675681 0.997412 0.064251
O O15 0.301743 0.773989 0.752552
O O16 0.428289 0.772408 0.116748
#
# Coordination Sequence:
#
# PCOD8048213 Si02
#       8
#     4   4   2   4   4   4   4   4
#     4  10  21  38  60  89 112 148 190 240 293 340
#     4  10  23  34  52  81 118 153 189 228 288 347
#     4  10  18  32  52  80 114 156 190 228 296 348
#     4  11  24  39  56  81 117 156 200 233 277 339
#     4  11  18  34  60  93 121 142 187 238 297 352
#     4   9  17  27  54  88 115 143 175 239 304 343
#     4   9  18  33  53  83 119 142 182 239 292 346
#     4  11  22  37  56  84 120 157 184 233 289 343
#
# _framework density 19.925635
#
# number of rings (size 3 to 8) (size 9 to 14) (size 15 to 20)
#    0.000    1.867    3.333    1.200    5.600    1.600 
#    0.000    0.000    0.000    3.200    0.000    1.867 
#    0.000    0.000    0.000    0.000    0.000    0.000 
#
# Total GULP energy -185922.332499 kJ/mol
# GULP energy per Si atom -12394.822167 kJ/mol
# Density = 1.988028 g / cm^3
# Si number density = 19.925635 Si / 1000 Ang^3
#
#
#
# Elastic Constant Matrix: (Units=GPa)
#
#
# Indices 1 2 3 4 5 6 
#
# 1 54.6362 22.6207 15.1458 0.0000 12.7220 0.0000
# 2 22.6207 157.8459 61.2382 0.0000 5.5448 0.0000
# 3 15.1458 61.2382 87.8752 0.0000 13.6268 0.0000
# 4 0.0000 0.0000 0.0000 34.9466 0.0000 1.8190
# 5 12.7220 5.5448 13.6268 0.0000 30.4030 0.0000
# 6 0.0000 0.0000 0.0000 1.8190 0.0000 20.9814
#
#
#
# Elastic Compliance Matrix: (Units=1/GPa)
#
#
# Indices 1 2 3 4 5 6 
#
# 1 0.021446 -0.002529 -0.000660 0.000000 -0.008217 0.000000
# 2 -0.002529 0.009023 -0.006191 0.000000 0.002188 0.000000
# 3 -0.000660 -0.006191 0.016755 0.000000 -0.006104 0.000000
# 4 0.000000 0.000000 0.000000 0.028745 0.000000 -0.002492
# 5 -0.008217 0.002188 -0.006104 0.000000 0.038667 0.000000
# 6 0.000000 0.000000 0.000000 -0.002492 0.000000 0.047877
#
#
# Mechanical properties :
#
#
# Convention : Reuss Voigt Hill
#
# Bulk Modulus (GPa) = 35.13224 55.37405 45.25315
# Shear Modulus (GPa) = 26.21095 30.68971 28.45033
#
# Velocity S-wave (km/s) = 3.63083 3.92881 3.78276
# Velocity P-wave (km/s) = 5.93694 6.95927 6.46833
#
# Compressibility (1/GPa) = 0.02846389
#
# Stress axis : x y z
#
# Youngs Moduli (GPa) = 46.62844 110.83075 59.68528
#
# Poissons Ratio (x) = 0.28026 0.03939
# Poissons Ratio (y) = 0.11791 0.36952
# Poissons Ratio (z) = 0.03077 0.68617
#
# Static dielectric constant tensor:
#      x y z
#    x 3.355780 0.000000 0.445640 
#    y 0.000000 3.879150 0.000000 
#    z 0.445640 0.000000 3.767300 
# 
# 
# High freq. dielectric constant tensor:
#      x y z
#    x 1.730780 0.000000 0.046150 
#    y 0.000000 1.781420 0.000000 
#    z 0.046150 0.000000 1.773700 
# 
# From -- ./inp_files/43458.got.cif
#   From: 2010.03.12/outbox.cif.g09.slc.cpg/sg5_22_cif.got.tgz:43458.got - 2010.03.31 09:47:26.
