data_PCOD8048194
_publ_section_title
;
Structure prediction by ZEFSAII (Michael W. Deem and Ramdas Pophale) SiO2 
 PCOD8048194
Probable space group: C 2
;
_chemical_formula_sum "Si O2"
_cell_formula_units_Z 24
_cell_length_a 8.665126
_cell_length_b 25.815614
_cell_length_c 5.390024
_cell_angle_alpha 90.000000
_cell_angle_beta 81.272627
_cell_angle_gamma 90.000000
_cell_volume 1191.763904
_symmetry_space_group_name_H-M "C 2"
_symmetry_group_IT_number 5
_symmetry_cell_setting 'monoclinic'
loop_
_space_group_symop_operation_xyz
x,y,z
-x,y,-z
1/2+x,1/2+y,z
1/2-x,1/2+y,-z
loop_
_atom_site_type_symbol
_atom_site_label
_atom_site_fract_x
_atom_site_fract_y
_atom_site_fract_z
Si Si1 0.000000 0.776800 0.000000
Si Si2 0.500000 0.586120 0.000000
Si Si3 0.500000 0.798952 0.000000
Si Si4 0.296395 0.742339 0.680207
Si Si5 0.500000 0.652070 0.500000
Si Si6 0.821550 0.943835 0.535542
Si Si7 0.293407 0.329226 0.678206
Si Si8 0.673202 0.486922 0.965523
O O1 0.952923 0.815324 0.785593
O O2 0.146555 0.739550 0.900540
O O3 0.484786 0.619008 0.253665
O O4 0.345218 0.549496 0.021260
O O5 0.548193 0.762113 0.217288
O O6 0.352731 0.835637 0.097956
O O7 0.341486 0.686255 0.560927
O O8 0.247808 0.781104 0.479804
O O9 0.812444 0.881824 0.521063
O O10 0.000000 0.963871 0.500000
O O11 0.739598 0.967911 0.308583
O O12 0.739516 0.965875 0.807453
O O13 0.500000 0.460470 0.000000
#
# Coordination Sequence:
#
# PCOD8048194 Si02
#       8
#     2   2   2   4   2   4   4   4
#     4  10  24  35  56  80 130 160 209 250 290 346
#     4  10  21  37  58  88 116 150 207 267 320 346
#     4  10  21  38  54  76 134 164 206 247 288 352
#     4  11  22  39  55  87 125 167 205 252 290 375
#     4  12  22  36  66  86 118 170 200 248 326 360
#     4  10  18  30  55  82 116 156 184 240 312 354
#     4  11  22  35  56  86 123 172 202 241 300 373
#     4   8  18  33  50  80 119 135 190 264 304 342
#
# _framework density 20.138218999999999
#
# number of rings (size 3 to 8) (size 9 to 14) (size 15 to 20)
#    0.500    1.333    1.667    3.000   10.500    0.000 
#    0.000    0.000    0.000    0.000    0.000    7.000 
#    0.000    0.000    0.000    0.000    0.000    0.000 
#
# Total GULP energy -148719.059447 kJ/mol
# GULP energy per Si atom -12393.254954 kJ/mol
# Density = 2.009238 g / cm^3
# Si number density = 20.138219 Si / 1000 Ang^3
#
#
#
# Elastic Constant Matrix: (Units=GPa)
#
#
# Indices 1 2 3 4 5 6 
#
# 1 61.4040 21.1023 15.4192 0.0000 1.6064 0.0000
# 2 21.1023 131.9417 71.1187 0.0000 -0.6293 0.0000
# 3 15.4192 71.1187 165.1004 0.0000 16.8762 0.0000
# 4 0.0000 0.0000 0.0000 46.9808 0.0000 -2.8413
# 5 1.6064 -0.6293 16.8762 0.0000 27.2564 0.0000
# 6 0.0000 0.0000 0.0000 -2.8413 0.0000 -56.5233
#
#
#
# Elastic Compliance Matrix: (Units=1/GPa)
#
#
# Indices 1 2 3 4 5 6 
#
# 1 0.017287 -0.002530 -0.000442 0.000000 -0.000803 0.000000
# 2 -0.002530 0.010485 -0.004612 0.000000 0.003247 0.000000
# 3 -0.000442 -0.004612 0.008640 0.000000 -0.005430 0.000000
# 4 0.000000 0.000000 0.000000 0.021221 0.000000 -0.001067
# 5 -0.000803 0.003247 -0.005430 0.000000 0.040173 0.000000
# 6 0.000000 0.000000 0.000000 -0.001067 0.000000 -0.017638
#
#
# Mechanical properties :
#
#
# Convention : Reuss Voigt Hill
#
# Bulk Modulus (GPa) = 47.07482 63.74741 55.41111
# Shear Modulus (GPa) = 48.81898 20.26314 34.54106
#
# Velocity S-wave (km/s) = 4.92895 3.17551 4.14599
# Velocity P-wave (km/s) = 7.47124 6.72078 7.10592
#
# Compressibility (1/GPa) = 0.02124278
#
# Stress axis : x y z
#
# Youngs Moduli (GPa) = 57.84608 95.37119 115.73977
#
# Poissons Ratio (x) = 0.24131 0.05121
# Poissons Ratio (y) = 0.14636 0.53382
# Poissons Ratio (z) = 0.02560 0.43988
#
# Static dielectric constant tensor:
#      x y z
#    x 3.586380 0.000000 -0.231020 
#    y 0.000000 3.394230 0.000000 
#    z -0.231020 0.000000 4.243050 
# 
# 
# High freq. dielectric constant tensor:
#      x y z
#    x 1.739170 0.000000 -0.004890 
#    y 0.000000 1.760910 0.000000 
#    z -0.004890 0.000000 1.818530 
# 
# From -- ./inp_files/3552.got.cif
#   From: 2010.03.12/outbox.cif.g09.slc.cpg/sg5_2_cif.got.tgz:3552.got - 2010.03.31 09:47:26.
