data_PCOD8048858
_publ_section_title
;
Structure prediction by ZEFSAII (Michael W. Deem and Ramdas Pophale) SiO2 
 PCOD8048858
Probable space group: C 2
;
_chemical_formula_sum "Si O2"
_cell_formula_units_Z 32
_cell_length_a 18.943176
_cell_length_b 13.162272
_cell_length_c 13.393764
_cell_angle_alpha 90.000000
_cell_angle_beta 151.115673
_cell_angle_gamma 90.000000
_cell_volume 1613.139732
_symmetry_space_group_name_H-M "C 2"
_symmetry_group_IT_number 5
_symmetry_cell_setting 'monoclinic'
loop_
_space_group_symop_operation_xyz
x,y,z
-x,y,-z
1/2+x,1/2+y,z
1/2-x,1/2+y,-z
loop_
_atom_site_type_symbol
_atom_site_label
_atom_site_fract_x
_atom_site_fract_y
_atom_site_fract_z
Si Si1 0.221489 0.138480 0.543893
Si Si2 0.342565 0.005914 0.850751
Si Si3 0.448724 0.925814 0.548432
Si Si4 0.333775 0.177400 0.994269
Si Si5 0.914575 0.242864 0.169945
Si Si6 0.659241 0.313499 0.186707
Si Si7 0.617820 0.139326 0.453460
Si Si8 0.655870 0.769921 0.140402
O O1 0.223314 0.046737 0.624768
O O2 0.330378 0.227586 0.715122
O O3 0.275176 0.101105 0.502240
O O4 0.058448 0.176827 0.339764
O O5 0.307976 0.888330 0.816185
O O6 0.500000 0.028514 0.000000
O O7 0.334699 0.064261 0.947048
O O8 0.500000 0.904575 0.500000
O O9 0.546560 0.857096 0.744490
O O10 0.278372 0.899879 0.350056
O O11 0.458043 0.044216 0.585446
O O12 0.480846 0.200957 0.238724
O O13 0.193180 0.184851 0.889931
O O14 0.315489 0.263412 0.888969
O O15 0.843179 0.239488 0.973231
O O16 0.500000 0.364751 0.000000
O O17 0.711894 0.210082 0.643415
O O18 0.500000 0.747425 0.000000
#
# Coordination Sequence:
#
# PCOD8048858 Si02
#       8
#     4   4   4   4   4   4   4   4
#     4  10  20  38  67  96 121 164 216 262 312 366
#     4  10  20  39  69  99 123 164 217 261 314 377
#     4  11  25  42  65  95 127 166 213 260 329 379
#     4  11  21  41  67  94 128 164 210 260 319 376
#     4  11  24  43  66  92 128 168 207 268 324 377
#     4  10  19  39  66  98 123 157 220 267 306 372
#     4  12  24  41  63  93 130 170 210 256 312 384
#     4  11  25  43  64  92 132 170 212 259 318 382
#
# _framework density 19.837091000000001
#
# number of rings (size 3 to 8) (size 9 to 14) (size 15 to 20)
#    0.000    1.250    5.000    1.500    3.500    0.500 
#    0.000    3.750    0.000    0.000    0.000    0.000 
#    0.000    0.000    0.000    0.000    0.000    0.000 
#
# Total GULP energy -198404.748709 kJ/mol
# GULP energy per Si atom -12400.296794 kJ/mol
# Density = 1.979194 g / cm^3
# Si number density = 19.837091 Si / 1000 Ang^3
#
#
#
# Elastic Constant Matrix: (Units=GPa)
#
#
# Indices 1 2 3 4 5 6 
#
# 1 96.3410 21.7894 29.2560 -0.0002 -2.4885 0.0000
# 2 21.7894 79.9383 38.7533 -0.0001 -1.0179 0.0000
# 3 29.2560 38.7533 114.0820 -0.0003 -11.0078 0.0001
# 4 -0.0002 -0.0001 -0.0003 -207.7775 -0.0003 64.0862
# 5 -2.4885 -1.0179 -11.0078 -0.0003 30.7966 0.0001
# 6 0.0000 0.0000 0.0001 64.0862 0.0001 6.8964
#
#
#
# Elastic Compliance Matrix: (Units=1/GPa)
#
#
# Indices 1 2 3 4 5 6 
#
# 1 0.011529 -0.002049 -0.002255 0.000000 0.000058 0.000000
# 2 -0.002049 0.015396 -0.004838 0.000000 -0.001386 0.000000
# 3 -0.002255 -0.004838 0.011346 0.000000 0.003713 0.000000
# 4 0.000000 0.000000 0.000000 -0.001245 0.000000 0.011568
# 5 0.000058 -0.001386 0.003713 0.000000 0.033757 0.000000
# 6 0.000000 0.000000 0.000000 0.011568 0.000000 0.037505
#
#
# Mechanical properties :
#
#
# Convention : Reuss Voigt Hill
#
# Bulk Modulus (GPa) = 50.03274 52.21764 51.12519
# Shear Modulus (GPa) = 37.52752 -20.64606 8.44073
#
# Velocity S-wave (km/s) = 4.35418 -3.22961 2.06501
# Velocity P-wave (km/s) = 7.11021 3.53174 5.61375
#
# Compressibility (1/GPa) = 0.01998691
#
# Stress axis : x y z
#
# Youngs Moduli (GPa) = 86.73422 64.95198 88.13811
#
# Poissons Ratio (x) = 0.13306 0.19877
# Poissons Ratio (y) = 0.17769 0.42644
# Poissons Ratio (z) = 0.19560 0.31426
#
# Static dielectric constant tensor:
#      x y z
#    x 5.324150 0.000000 -2.996390 
#    y 0.000000 3.474710 0.000000 
#    z -2.996390 0.000000 8.696470 
# 
# 
# High freq. dielectric constant tensor:
#      x y z
#    x 1.780750 0.000000 -0.007010 
#    y 0.000000 1.755940 0.000000 
#    z -0.007010 0.000000 1.782990 
# 
# From -- ./inp_files/44970.got.cif
#   From: 2010.03.12/outbox.cif.g09.slc.cpg/sg5_23_cif.got.tgz:44970.got - 2010.03.31 09:47:26.
