data_PCOD8048323
_publ_section_title
;
Structure prediction by ZEFSAII (Michael W. Deem and Ramdas Pophale) SiO2 
 PCOD8048323
Probable space group: C 2
;
_chemical_formula_sum "Si O2"
_cell_formula_units_Z 24
_cell_length_a 15.574087
_cell_length_b 8.983912
_cell_length_c 15.615252
_cell_angle_alpha 90.000000
_cell_angle_beta 34.507463
_cell_angle_gamma 90.000000
_cell_volume 1237.734243
_symmetry_space_group_name_H-M "C 2"
_symmetry_group_IT_number 5
_symmetry_cell_setting 'monoclinic'
loop_
_space_group_symop_operation_xyz
x,y,z
-x,y,-z
1/2+x,1/2+y,z
1/2-x,1/2+y,-z
loop_
_atom_site_type_symbol
_atom_site_label
_atom_site_fract_x
_atom_site_fract_y
_atom_site_fract_z
Si Si1 0.345275 0.651950 0.313620
Si Si2 0.475678 0.776763 0.612297
Si Si3 0.661012 0.608667 0.121710
Si Si4 0.386268 0.270915 0.824090
Si Si5 0.775846 0.854732 0.458624
Si Si6 0.360447 0.102247 0.671174
O O1 0.527771 0.653092 0.164070
O O2 0.275529 0.810977 0.401964
O O3 0.291899 0.531330 0.430013
O O4 0.290457 0.610757 0.263477
O O5 0.500000 0.700733 0.500000
O O6 0.375333 0.672224 0.754578
O O7 0.646007 0.794402 0.504226
O O8 0.389228 0.933710 0.676467
O O9 0.684832 0.433912 0.111568
O O10 0.817354 0.673005 0.957188
O O11 0.565951 0.273146 0.691696
O O12 0.340537 0.204133 0.770096
O O13 0.500000 0.162607 0.500000
#
# Coordination Sequence:
#
# PCOD8048323 Si02
#       6
#     4   4   4   4   4   4
#     4  10  20  36  59  88 112 152 190 236 286 345
#     4  10  19  37  64  87 115 143 194 239 289 344
#     4  10  24  39  58  83 118 158 193 232 291 340
#     4  11  22  38  59  82 121 153 194 235 287 341
#     4  10  18  35  58  88 111 149 188 232 288 344
#     4  11  19  36  64  89 116 144 192 240 291 334
#
# _framework density 19.390269
#
# number of rings (size 3 to 8) (size 9 to 14) (size 15 to 20)
#    0.000    1.667    5.000    1.000    0.000    2.667 
#    3.000    0.833    3.667    0.000    0.000    0.000 
#    0.000    0.000    0.000    0.000    0.000    0.000 
#
# Total GULP energy -148772.451822 kJ/mol
# GULP energy per Si atom -12397.704318 kJ/mol
# Density = 1.934614 g / cm^3
# Si number density = 19.390269 Si / 1000 Ang^3
#
#
#
# Elastic Constant Matrix: (Units=GPa)
#
#
# Indices 1 2 3 4 5 6 
#
# 1 99.5755 25.2689 20.3799 0.0000 11.8724 0.0000
# 2 25.2689 75.5296 25.4092 0.0000 12.8465 0.0000
# 3 20.3799 25.4092 67.6482 0.0000 13.7182 0.0000
# 4 0.0000 0.0000 0.0000 34.2874 0.0000 5.5386
# 5 11.8724 12.8465 13.7182 0.0000 24.6249 0.0000
# 6 0.0000 0.0000 0.0000 5.5386 0.0000 25.7606
#
#
#
# Elastic Compliance Matrix: (Units=1/GPa)
#
#
# Indices 1 2 3 4 5 6 
#
# 1 0.011469 -0.002699 -0.001810 0.000000 -0.003113 0.000000
# 2 -0.002699 0.016439 -0.004381 0.000000 -0.004834 0.000000
# 3 -0.001810 -0.004381 0.018413 0.000000 -0.007099 0.000000
# 4 0.000000 0.000000 0.000000 0.030215 0.000000 -0.006496
# 5 -0.003113 -0.004834 -0.007099 0.000000 0.048587 0.000000
# 6 0.000000 0.000000 0.000000 -0.006496 0.000000 0.040216
#
#
# Mechanical properties :
#
#
# Convention : Reuss Voigt Hill
#
# Bulk Modulus (GPa) = 35.03766 42.76327 38.90047
# Shear Modulus (GPa) = 25.95621 28.38092 27.16856
#
# Velocity S-wave (km/s) = 3.66269 3.82994 3.74725
# Velocity P-wave (km/s) = 5.99966 6.45444 6.23120
#
# Compressibility (1/GPa) = 0.02854072
#
# Stress axis : x y z
#
# Youngs Moduli (GPa) = 87.19053 60.83169 54.30943
#
# Poissons Ratio (x) = 0.16416 0.09832
# Poissons Ratio (y) = 0.23529 0.23795
# Poissons Ratio (z) = 0.15784 0.26652
#
# Static dielectric constant tensor:
#      x y z
#    x 3.649530 0.000000 -0.005730 
#    y 0.000000 3.672740 0.000000 
#    z -0.005730 0.000000 3.476330 
# 
# 
# High freq. dielectric constant tensor:
#      x y z
#    x 1.754460 0.000000 -0.005600 
#    y 0.000000 1.752100 0.000000 
#    z -0.005600 0.000000 1.746340 
# 
# From -- ./inp_files/22913.got.cif
#   From: 2010.03.12/outbox.cif.g09.slc.cpg/sg5_12_cif.got.tgz:22913.got - 2010.03.31 09:47:26.
