data_PCOD8048318
_publ_section_title
;
Structure prediction by ZEFSAII (Michael W. Deem and Ramdas Pophale) SiO2 
 PCOD8048318
Probable space group: C 2
;
_chemical_formula_sum "Si O2"
_cell_formula_units_Z 28
_cell_length_a 8.833624
_cell_length_b 32.338280
_cell_length_c 5.240425
_cell_angle_alpha 90.000000
_cell_angle_beta 64.864566
_cell_angle_gamma 90.000000
_cell_volume 1355.245181
_symmetry_space_group_name_H-M "C 2"
_symmetry_group_IT_number 5
_symmetry_cell_setting 'monoclinic'
loop_
_space_group_symop_operation_xyz
x,y,z
-x,y,-z
1/2+x,1/2+y,z
1/2-x,1/2+y,-z
loop_
_atom_site_type_symbol
_atom_site_label
_atom_site_fract_x
_atom_site_fract_y
_atom_site_fract_z
Si Si1 0.681109 0.517530 0.091018
Si Si2 0.108000 0.722722 0.675032
Si Si3 0.890170 0.629276 0.329570
Si Si4 0.803246 0.301617 0.621241
Si Si5 0.602973 0.424525 0.167638
Si Si6 0.302588 0.845884 0.123077
Si Si7 0.807708 0.052135 0.420199
O O1 0.669841 0.469275 0.036605
O O2 0.503117 0.541236 0.249541
O O3 0.774621 0.524512 0.293122
O O4 0.779564 0.539196 0.785229
O O5 0.179392 0.676087 0.629955
O O6 0.262052 0.754239 0.582980
O O7 0.000000 0.730816 0.500000
O O8 0.000000 0.731527 0.000000
O O9 0.728409 0.599699 0.476658
O O10 0.000000 0.622480 0.500000
O O11 0.000000 0.619105 0.000000
O O12 0.727821 0.329819 0.445762
O O13 0.000000 0.306129 0.500000
O O14 0.729388 0.317474 0.944773
O O15 0.500000 0.429540 0.500000
O O16 0.754306 0.393369 0.111809
O O17 0.500000 0.407030 0.000000
O O18 0.500000 0.842870 0.000000
#
# Coordination Sequence:
#
# PCOD8048318 Si02
#       7
#     4   4   4   4   4   4   4
#     4  10  19  35  57  79 109 148 180 253 278 324
#     4  10  21  37  61  85 121 150 191 244 287 344
#     4  10  21  37  56  84 117 154 188 236 286 348
#     4  10  21  40  59  83 119 154 192 234 295 347
#     4  12  21  37  60  87 115 147 199 245 292 333
#     4  10  23  39  58  83 120 156 186 241 293 353
#     4  10  18  35  57  77 111 147 186 225 298 325
#
# _framework density 20.660471000000001
#
# number of rings (size 3 to 8) (size 9 to 14) (size 15 to 20)
#    0.000    1.714    2.857    2.571    0.000    3.429 
#    2.571    2.143    6.286    0.000    0.000    0.000 
#    0.000    0.000    0.000    0.000    0.000    0.000 
#
# Total GULP energy -173496.776219 kJ/mol
# GULP energy per Si atom -12392.626873 kJ/mol
# Density = 2.061345 g / cm^3
# Si number density = 20.660471 Si / 1000 Ang^3
#
#
#
# Elastic Constant Matrix: (Units=GPa)
#
#
# Indices 1 2 3 4 5 6 
#
# 1 34.7935 43.8494 35.0962 0.0000 23.6746 0.0000
# 2 43.8494 156.8164 48.3383 0.0000 6.9963 0.0000
# 3 35.0962 48.3383 155.6697 0.0000 50.6328 0.0000
# 4 0.0000 0.0000 0.0000 26.0111 0.0000 2.5292
# 5 23.6746 6.9963 50.6328 0.0000 29.7149 0.0000
# 6 0.0000 0.0000 0.0000 2.5292 0.0000 26.9205
#
#
#
# Elastic Compliance Matrix: (Units=1/GPa)
#
#
# Indices 1 2 3 4 5 6 
#
# 1 0.316102 -0.095319 0.073911 0.000000 -0.355345 0.000000
# 2 -0.095319 0.036093 -0.026144 0.000000 0.111994 0.000000
# 3 0.073911 -0.026144 0.033716 0.000000 -0.110182 0.000000
# 4 0.000000 0.000000 0.000000 0.038800 0.000000 -0.003645
# 5 -0.355345 0.111994 -0.110182 0.000000 0.478142 0.000000
# 6 0.000000 0.000000 0.000000 -0.003645 0.000000 0.037489
#
#
# Mechanical properties :
#
#
# Convention : Reuss Voigt Hill
#
# Bulk Modulus (GPa) = 3.43871 66.87192 35.15532
# Shear Modulus (GPa) = 4.41547 31.19568 17.80558
#
# Velocity S-wave (km/s) = 1.46349 3.88999 2.93886
# Velocity P-wave (km/s) = 2.12691 7.25351 5.34495
#
# Compressibility (1/GPa) = 0.29080665
#
# Stress axis : x y z
#
# Youngs Moduli (GPa) = 3.16353 27.70658 29.65919
#
# Poissons Ratio (x) = 2.64095 -2.19213
# Poissons Ratio (y) = 0.30154 0.77542
# Poissons Ratio (z) = -0.23382 0.72437
#
# Static dielectric constant tensor:
#      x y z
#    x 3.809800 0.000000 1.322470 
#    y 0.000000 3.869520 0.000000 
#    z 1.322470 0.000000 6.024440 
# 
# 
# High freq. dielectric constant tensor:
#      x y z
#    x 1.774610 0.000000 0.038580 
#    y 0.000000 1.813920 0.000000 
#    z 0.038580 0.000000 1.831780 
# 
# From -- ./inp_files/3765.got.cif
#   From: 2010.03.12/outbox.cif.g09.slc.cpg/sg5_2_cif.got.tgz:3765.got - 2010.03.31 09:47:26.
