data_PCOD8048478
_publ_section_title
;
Structure prediction by ZEFSAII (Michael W. Deem and Ramdas Pophale) SiO2 
 PCOD8048478
Probable space group: C 2
;
_chemical_formula_sum "Si O2"
_cell_formula_units_Z 20
_cell_length_a 7.771668
_cell_length_b 12.733754
_cell_length_c 11.681319
_cell_angle_alpha 90.000000
_cell_angle_beta 124.968367
_cell_angle_gamma 90.000000
_cell_volume 947.316042
_symmetry_space_group_name_H-M "C 2"
_symmetry_group_IT_number 5
_symmetry_cell_setting 'monoclinic'
loop_
_space_group_symop_operation_xyz
x,y,z
-x,y,-z
1/2+x,1/2+y,z
1/2-x,1/2+y,-z
loop_
_atom_site_type_symbol
_atom_site_label
_atom_site_fract_x
_atom_site_fract_y
_atom_site_fract_z
Si Si1 0.726358 0.667350 0.645286
Si Si2 0.571213 0.791027 0.797672
Si Si3 0.112559 0.533104 0.776538
Si Si4 0.500000 0.984549 0.500000
Si Si5 0.000000 0.172249 0.000000
Si Si6 0.800309 0.826237 0.488065
O O1 0.500000 0.639372 0.500000
O O2 0.712422 0.726408 0.761217
O O3 0.855089 0.740417 0.605230
O O4 0.877298 0.567887 0.726758
O O5 0.581302 0.745358 0.928520
O O6 0.334467 0.775780 0.664938
O O7 0.645748 0.912357 0.826652
O O8 0.300702 0.599997 0.898765
O O9 0.123757 0.550679 0.642541
O O10 0.669235 0.917317 0.496788
O O11 0.000000 0.874343 0.500000
#
# Coordination Sequence:
#
# PCOD8048478 Si02
#       6
#     4   4   4   2   2   4
#     4  10  21  41  71 105 136 175 231 293 342 404
#     4  10  24  47  61  99 146 173 233 282 337 416
#     4  11  25  44  70  99 134 185 227 284 343 409
#     4  10  22  44  66 108 136 168 246 288 334 408
#     4  12  28  44  66  98 142 190 224 272 350 424
#     4  10  18  40  72 102 137 177 221 296 348 384
#
# _framework density 21.112279000000001
#
# number of rings (size 3 to 8) (size 9 to 14) (size 15 to 20)
#    0.000    1.600    5.000    1.200    7.000    7.200 
#    3.600    0.000    0.000    0.000    0.000    0.000 
#    0.000    0.000    0.000    0.000    0.000    0.000 
#
# Total GULP energy -123917.889481 kJ/mol
# GULP energy per Si atom -12391.788948 kJ/mol
# Density = 2.106423 g / cm^3
# Si number density = 21.112279 Si / 1000 Ang^3
#
#
#
# Elastic Constant Matrix: (Units=GPa)
#
#
# Indices 1 2 3 4 5 6 
#
# 1 157.5747 53.4371 65.2489 0.0000 -5.8541 0.0000
# 2 53.4371 106.7261 67.9976 0.0000 -9.0628 0.0000
# 3 65.2489 67.9976 137.7077 0.0000 -23.4492 0.0000
# 4 0.0000 0.0000 0.0000 36.0919 0.0000 12.6850
# 5 -5.8541 -9.0628 -23.4492 0.0000 34.4083 0.0000
# 6 0.0000 0.0000 0.0000 12.6850 0.0000 245.2265
#
#
#
# Elastic Compliance Matrix: (Units=1/GPa)
#
#
# Indices 1 2 3 4 5 6 
#
# 1 0.008345 -0.002378 -0.002992 0.000000 -0.001246 0.000000
# 2 -0.002378 0.014387 -0.006110 0.000000 -0.000779 0.000000
# 3 -0.002992 -0.006110 0.012824 0.000000 0.006621 0.000000
# 4 0.000000 0.000000 0.000000 0.028220 0.000000 -0.001460
# 5 -0.001246 -0.000779 0.006621 0.000000 0.033158 0.000000
# 6 0.000000 0.000000 0.000000 -0.001460 0.000000 0.004153
#
#
# Mechanical properties :
#
#
# Convention : Reuss Voigt Hill
#
# Bulk Modulus (GPa) = 79.38888 86.15287 82.77087
# Shear Modulus (GPa) = 38.98740 77.50034 58.24387
#
# Velocity S-wave (km/s) = 4.30195 6.06534 5.25810
# Velocity P-wave (km/s) = 7.89687 9.48402 8.72660
#
# Compressibility (1/GPa) = 0.01259622
#
# Stress axis : x y z
#
# Youngs Moduli (GPa) = 119.82792 69.50698 77.97873
#
# Poissons Ratio (x) = 0.16528 0.23332
# Poissons Ratio (y) = 0.28493 0.47646
# Poissons Ratio (z) = 0.35854 0.42469
#
# Static dielectric constant tensor:
#      x y z
#    x 3.758330 0.000000 -0.163650 
#    y 0.000000 3.794710 0.000000 
#    z -0.163650 0.000000 3.995010 
# 
# 
# High freq. dielectric constant tensor:
#      x y z
#    x 1.832440 0.000000 -0.009110 
#    y 0.000000 1.829550 0.000000 
#    z -0.009110 0.000000 1.820240 
# 
# From -- ./inp_files/34990.got.cif
#   From: 2010.03.12/outbox.cif.g09.slc.cpg/sg5_18_cif.got.tgz:34990.got - 2010.03.31 09:47:26.
