data_PCOD8048086
_publ_section_title
;
Structure prediction by ZEFSAII (Michael W. Deem and Ramdas Pophale) SiO2 
 PCOD8048086
Probable space group: C 2
;
_chemical_formula_sum "Si O2"
_cell_formula_units_Z 22
_cell_length_a 25.260535
_cell_length_b 9.524248
_cell_length_c 15.573118
_cell_angle_alpha 90.000000
_cell_angle_beta 162.949486
_cell_angle_gamma 90.000000
_cell_volume 1098.587260
_symmetry_space_group_name_H-M "C 2"
_symmetry_group_IT_number 5
_symmetry_cell_setting 'monoclinic'
loop_
_space_group_symop_operation_xyz
x,y,z
-x,y,-z
1/2+x,1/2+y,z
1/2-x,1/2+y,-z
loop_
_atom_site_type_symbol
_atom_site_label
_atom_site_fract_x
_atom_site_fract_y
_atom_site_fract_z
Si Si1 0.517114 0.177890 0.290106
Si Si2 0.130170 0.693452 0.122479
Si Si3 0.000000 0.403117 0.500000
Si Si4 0.762200 0.990807 0.768389
Si Si5 0.645956 0.633656 0.792137
Si Si6 0.968189 0.004753 0.676409
O O1 0.702773 0.100012 0.603359
O O2 0.540075 0.338829 0.353066
O O3 0.488970 0.155930 0.145176
O O4 0.351022 0.101921 0.081895
O O5 0.269707 0.569146 0.359205
O O6 0.241690 0.834902 0.277209
O O7 0.000000 0.717649 0.000000
O O8 0.125134 0.500189 0.635807
O O9 0.122985 0.303008 0.752017
O O10 0.958245 0.030520 0.112110
O O11 0.500000 0.563356 0.500000
O O12 0.609665 0.574991 0.830169
#
# Coordination Sequence:
#
# PCOD8048086 Si02
#       6
#     4   4   2   4   4   4
#     4  11  24  39  62  98 125 158 205 251 306 368
#     4  11  24  45  67  83 119 169 210 256 306 356
#     4  10  16  40  60  92 126 162 192 238 304 376
#     4  11  23  41  65  94 125 159 201 253 309 370
#     4  10  17  37  63  87 124 164 192 238 302 368
#     4  11  21  42  61  93 127 157 206 252 304 368
#
# _framework density 20.025718999999999
#
# number of rings (size 3 to 8) (size 9 to 14) (size 15 to 20)
#    0.545    0.727    7.273    1.091    0.000    4.364 
#    4.909    0.909    0.000    0.000    0.000    0.000 
#    0.000    0.000    0.000    0.000    0.000    0.000 
#
# Total GULP energy -136371.375448 kJ/mol
# GULP energy per Si atom -12397.397768 kJ/mol
# Density = 1.998014 g / cm^3
# Si number density = 20.025719 Si / 1000 Ang^3
#
#
#
# Elastic Constant Matrix: (Units=GPa)
#
#
# Indices 1 2 3 4 5 6 
#
# 1 88.2822 27.9269 40.2929 0.0000 1.4276 0.0000
# 2 27.9269 80.4338 57.7802 0.0000 -24.7122 0.0000
# 3 40.2929 57.7802 90.4165 0.0000 -27.1594 0.0000
# 4 0.0000 0.0000 0.0000 37.4727 0.0000 -12.2417
# 5 1.4276 -24.7122 -27.1594 0.0000 33.3947 0.0000
# 6 0.0000 0.0000 0.0000 -12.2417 0.0000 10.7139
#
#
#
# Elastic Compliance Matrix: (Units=1/GPa)
#
#
# Indices 1 2 3 4 5 6 
#
# 1 0.016086 -0.002381 -0.008446 0.000000 -0.009319 0.000000
# 2 -0.002381 0.024527 -0.012082 0.000000 0.008426 0.000000
# 3 -0.008446 -0.012082 0.026423 0.000000 0.012909 0.000000
# 4 0.000000 0.000000 0.000000 0.042580 0.000000 0.048652
# 5 -0.009319 0.008426 0.012909 0.000000 0.047077 0.000000
# 6 0.000000 0.000000 0.000000 0.048652 0.000000 0.148926
#
#
# Mechanical properties :
#
#
# Convention : Reuss Voigt Hill
#
# Bulk Modulus (GPa) = 47.13051 56.79250 51.96151
# Shear Modulus (GPa) = 13.94663 25.19177 19.56920
#
# Velocity S-wave (km/s) = 2.64187 3.55064 3.12942
# Velocity P-wave (km/s) = 5.73516 6.72538 6.24991
#
# Compressibility (1/GPa) = 0.02121768
#
# Stress axis : x y z
#
# Youngs Moduli (GPa) = 62.16544 40.77123 37.84639
#
# Poissons Ratio (x) = 0.09707 0.31966
# Poissons Ratio (y) = 0.14800 0.45726
# Poissons Ratio (z) = 0.52507 0.49260
#
# Static dielectric constant tensor:
#      x y z
#    x 3.478600 0.000000 -0.171550 
#    y 0.000000 3.394240 0.000000 
#    z -0.171550 0.000000 3.738400 
# 
# 
# High freq. dielectric constant tensor:
#      x y z
#    x 1.767690 0.000000 -0.012460 
#    y 0.000000 1.765500 0.000000 
#    z -0.012460 0.000000 1.783970 
# 
# From -- ./inp_files/52061.got.cif
#   From: 2010.03.12/outbox.cif.g09.slc.cpg/sg5_27_cif.got.tgz:52061.got - 2010.03.31 09:47:26.
