data_PCOD8048031
_publ_section_title
;
Structure prediction by ZEFSAII (Michael W. Deem and Ramdas Pophale) SiO2 
 PCOD8048031
Probable space group: P 21
;
_chemical_formula_sum "Si O2"
_cell_formula_units_Z 16
_cell_length_a 15.000000
_cell_length_b 9.000000
_cell_length_c 15.000000
_cell_angle_alpha 90.000000
_cell_angle_beta 20.000000
_cell_angle_gamma 90.000000
_cell_volume 692.590790
_symmetry_space_group_name_H-M "P 21"
_symmetry_group_IT_number 4
_symmetry_cell_setting 'monoclinic'
loop_
_space_group_symop_operation_xyz
x,y,z
-x,1/2+y,-z
loop_
_atom_site_type_symbol
_atom_site_label
_atom_site_fract_x
_atom_site_fract_y
_atom_site_fract_z
Si Si1 0.274285 0.265340 0.403323
Si Si2 0.596859 0.160387 0.725535
Si Si3 0.256623 0.462869 0.256741
Si Si4 0.301998 0.962878 0.301901
Si Si5 0.725351 0.070329 0.208644
Si Si6 0.208653 0.855319 0.725347
Si Si7 0.024460 0.119339 0.188979
Si Si8 0.189150 0.806330 0.024291
O O1 0.201710 0.325760 0.374162
O O2 0.528153 0.355027 0.201748
O O3 0.383433 0.099718 0.287475
O O4 0.020192 0.261457 0.704392
O O5 0.712717 0.326001 0.616426
O O6 0.798607 0.070677 0.471574
O O7 0.625730 0.099921 0.798384
O O8 0.295869 0.164282 0.979454
O O9 0.979570 0.502312 0.474325
O O10 0.473944 0.423470 0.979837
O O11 0.706793 0.212841 0.293192
O O12 0.762504 0.160628 0.081630
O O13 0.463071 0.962825 0.463067
O O14 0.980840 0.962825 0.980834
O O15 0.081699 0.764988 0.762448
O O16 0.080978 0.962826 0.080916
#
# Coordination Sequence:
#
# PCOD8048031 Si02
#       8
#     2   2   2   2   2   2   2   2
#     4  12  25  43  70 102 142 191 245 305 369 434
#     4  12  25  43  70 102 142 191 245 305 369 434
#     4  12  22  46  64 100 139 194 247 302 378 432
#     4  12  26  40  68 100 141 188 249 316 362 440
#     4  12  28  50  81 116 153 194 242 300 365 444
#     4  12  28  50  81 116 153 194 242 300 365 444
#     4  12  25  47  73 105 148 193 242 297 366 436
#     4  12  25  47  73 105 148 193 242 297 366 436
#
# _framework density 23.101664
#
# number of rings (size 3 to 8) (size 9 to 14) (size 15 to 20)
#    0.000    0.000    2.500    7.500    5.250    2.000 
#    0.000    0.000    0.000    0.000    0.000    0.000 
#    0.000    0.000    0.000    0.000    0.000    0.000 
#
# Total GULP energy -198217.666012 kJ/mol
# GULP energy per Si atom -12388.604126 kJ/mol
# Density = 2.304908 g / cm^3
# Si number density = 23.101664 Si / 1000 Ang^3
#
#
#
# Elastic Constant Matrix: (Units=GPa)
#
#
# Indices 1 2 3 4 5 6 
#
# 1 79.4654 30.0735 61.2307 0.0000 -10.7556 0.0000
# 2 30.0735 167.5494 53.8913 0.0000 -4.3519 0.0000
# 3 61.2307 53.8913 216.5302 0.0000 -14.2298 0.0000
# 4 0.0000 0.0000 0.0000 58.6771 0.0000 -3.8089
# 5 -10.7556 -4.3519 -14.2298 0.0000 39.2112 0.0000
# 6 0.0000 0.0000 0.0000 -3.8089 0.0000 37.8605
#
#
#
# Elastic Compliance Matrix: (Units=1/GPa)
#
#
# Indices 1 2 3 4 5 6 
#
# 1 0.016788 -0.001600 -0.004157 0.000000 0.002919 0.000000
# 2 -0.001600 0.006641 -0.001210 0.000000 -0.000141 0.000000
# 3 -0.004157 -0.001210 0.006158 0.000000 0.000960 0.000000
# 4 0.000000 0.000000 0.000000 0.017154 0.000000 0.001726
# 5 0.002919 -0.000141 0.000960 0.000000 0.026636 0.000000
# 6 0.000000 0.000000 0.000000 0.001726 0.000000 0.026586
#
#
# Mechanical properties :
#
#
# Convention : Reuss Voigt Hill
#
# Bulk Modulus (GPa) = 63.88622 83.77067 73.82845
# Shear Modulus (GPa) = 41.97584 48.37306 45.17445
#
# Velocity S-wave (km/s) = 4.26726 4.58090 4.42686
# Velocity P-wave (km/s) = 7.21067 8.01998 7.62607
#
# Compressibility (1/GPa) = 0.01565283
#
# Stress axis : x y z
#
# Youngs Moduli (GPa) = 59.56613 150.57913 162.38951
#
# Poissons Ratio (x) = 0.24098 0.67509
# Poissons Ratio (y) = 0.09533 0.19642
# Poissons Ratio (z) = 0.24763 0.18214
#
# Static dielectric constant tensor:
#      x y z
#    x 4.076710 0.000000 -0.102160 
#    y 0.000000 4.934020 0.000000 
#    z -0.102160 0.000000 4.638570 
# 
# 
# High freq. dielectric constant tensor:
#      x y z
#    x 1.904190 0.000000 -0.009020 
#    y 0.000000 1.965220 0.000000 
#    z -0.009020 0.000000 1.953770 
# 
# From -- ./inp_files/14188.got.cif
#   From: 2010.06.25/outbox.ucp.g09.slc.cvg/sg4_8_cif.got.tgz:14188.got - 2010.06.28 13:22:43.
