data_PCOD8048978
_publ_section_title
;
Structure prediction by ZEFSAII (Michael W. Deem and Ramdas Pophale) SiO2 
 PCOD8048978
Probable space group: C 2
;
_chemical_formula_sum "Si O2"
_cell_formula_units_Z 32
_cell_length_a 13.879127
_cell_length_b 24.229835
_cell_length_c 13.525392
_cell_angle_alpha 90.000000
_cell_angle_beta 159.064181
_cell_angle_gamma 90.000000
_cell_volume 1625.257469
_symmetry_space_group_name_H-M "C 2"
_symmetry_group_IT_number 5
_symmetry_cell_setting 'monoclinic'
loop_
_space_group_symop_operation_xyz
x,y,z
-x,y,-z
1/2+x,1/2+y,z
1/2-x,1/2+y,-z
loop_
_atom_site_type_symbol
_atom_site_label
_atom_site_fract_x
_atom_site_fract_y
_atom_site_fract_z
Si Si1 0.398018 0.665330 0.294596
Si Si2 0.062611 0.883580 0.448233
Si Si3 0.281516 0.792407 0.212560
Si Si4 0.098361 0.334539 0.879734
Si Si5 0.958200 0.224651 0.067180
Si Si6 0.961711 0.647339 0.571048
Si Si7 0.594788 0.106849 0.281465
Si Si8 0.258379 0.001618 0.693236
O O1 0.500000 0.646858 0.500000
O O2 0.337594 0.730097 0.229946
O O3 0.646227 0.647210 0.464106
O O4 0.129770 0.632742 0.005930
O O5 0.290043 0.850327 0.607068
O O6 0.152283 0.947049 0.536837
O O7 0.000000 0.861861 0.500000
O O8 0.789200 0.875984 0.123771
O O9 0.500000 0.812234 0.500000
O O10 0.311089 0.834684 0.148582
O O11 0.000000 0.796539 0.000000
O O12 0.116534 0.271141 0.926906
O O13 0.202010 0.185660 0.330805
O O14 0.702261 0.187338 0.821473
O O15 0.000000 0.252667 0.000000
O O16 0.000000 0.618659 0.500000
O O17 0.983104 0.601350 0.677552
O O18 0.646999 0.044801 0.297503
O O19 0.000000 0.028475 0.500000
O O20 0.500000 0.986603 0.000000
#
# Coordination Sequence:
#
# PCOD8048978 Si02
#       8
#     4   4   4   4   4   4   4   4
#     4  11  22  35  54  84 117 148 185 227 274 333
#     4  11  23  39  58  85 113 140 181 237 293 343
#     4  11  23  38  55  82 119 155 193 233 270 323
#     4  12  22  37  60  82 111 153 191 226 283 341
#     4  10  20  34  53  82 115 146 183 226 275 333
#     4  10  21  35  52  79 116 150 184 226 266 319
#     4  12  21  35  58  82 112 152 189 222 276 336
#     4  11  23  39  58  84 115 142 178 231 287 338
#
# _framework density 19.68919
#
# number of rings (size 3 to 8) (size 9 to 14) (size 15 to 20)
#    0.000    1.000    0.000   10.125    0.000    1.000 
#    0.000    0.000    0.000    2.250    0.000    0.000 
#    0.000    0.000    0.000    0.000    0.000    0.000 
#
# Total GULP energy -198322.128013 kJ/mol
# GULP energy per Si atom -12395.133001 kJ/mol
# Density = 1.964438 g / cm^3
# Si number density = 19.689190 Si / 1000 Ang^3
#
#
#
# Elastic Constant Matrix: (Units=GPa)
#
#
# Indices 1 2 3 4 5 6 
#
# 1 136.0829 61.2834 33.0920 0.0035 -4.7137 0.0089
# 2 61.2834 66.6512 31.5204 0.0002 -9.0973 0.0020
# 3 33.0920 31.5204 122.8951 0.0075 9.5835 0.0275
# 4 0.0035 0.0002 0.0075 29.0412 0.0005 7.5082
# 5 -4.7137 -9.0973 9.5835 0.0005 32.4057 0.0063
# 6 0.0089 0.0020 0.0275 7.5082 0.0063 23.7379
#
#
#
# Elastic Compliance Matrix: (Units=1/GPa)
#
#
# Indices 1 2 3 4 5 6 
#
# 1 0.012619 -0.011640 -0.000308 -0.000001 -0.001341 -0.000003
# 2 -0.011640 0.029137 -0.004959 0.000001 0.007953 0.000005
# 3 -0.000308 -0.004959 0.009831 0.000000 -0.004344 -0.000010
# 4 -0.000001 0.000001 0.000000 0.037500 0.000002 -0.011861
# 5 -0.001341 0.007953 -0.004344 0.000002 0.034181 -0.000005
# 6 -0.000003 0.000005 -0.000010 -0.011861 -0.000005 0.045878
#
#
# Mechanical properties :
#
#
# Convention : Reuss Voigt Hill
#
# Bulk Modulus (GPa) = 56.26661 64.15788 60.21225
# Shear Modulus (GPa) = 23.93676 30.35251 27.14464
#
# Velocity S-wave (km/s) = 3.49052 3.93056 3.71706
# Velocity P-wave (km/s) = 6.69958 7.29761 7.00498
#
# Compressibility (1/GPa) = 0.01777253
#
# Stress axis : x y z
#
# Youngs Moduli (GPa) = 79.24679 34.32097 101.72371
#
# Poissons Ratio (x) = 0.39950 0.03131
# Poissons Ratio (y) = 0.92243 0.50444
# Poissons Ratio (z) = 0.02439 0.17020
#
# Static dielectric constant tensor:
#      x y z
#    x 3.728400 -0.000010 0.080290 
#    y -0.000010 3.206520 -0.000040 
#    z 0.080290 -0.000040 3.786770 
# 
# 
# High freq. dielectric constant tensor:
#      x y z
#    x 1.777640 0.000000 0.006850 
#    y 0.000000 1.731320 0.000000 
#    z 0.006850 0.000000 1.792600 
# 
# From -- ./inp_files/55040.got.cif
#   From: 2010.03.12/outbox.cif.g09.slc.cpg/sg5_28_cif.got.tgz:55040.got - 2010.03.31 09:47:26.
