data_PCOD8048338
_publ_section_title
;
Structure prediction by ZEFSAII (Michael W. Deem and Ramdas Pophale) SiO2 
 PCOD8048338
Probable space group: C 2
;
_chemical_formula_sum "Si O2"
_cell_formula_units_Z 32
_cell_length_a 12.653241
_cell_length_b 8.808792
_cell_length_c 14.971983
_cell_angle_alpha 90.000000
_cell_angle_beta 125.526555
_cell_angle_gamma 90.000000
_cell_volume 1358.125330
_symmetry_space_group_name_H-M "C 2"
_symmetry_group_IT_number 5
_symmetry_cell_setting 'monoclinic'
loop_
_space_group_symop_operation_xyz
x,y,z
-x,y,-z
1/2+x,1/2+y,z
1/2-x,1/2+y,-z
loop_
_atom_site_type_symbol
_atom_site_label
_atom_site_fract_x
_atom_site_fract_y
_atom_site_fract_z
Si Si1 0.649074 0.772010 0.587652
Si Si2 0.991618 0.529774 0.267816
Si Si3 0.914128 0.021209 0.886231
Si Si4 0.810142 0.592396 0.327825
Si Si5 0.738990 0.819479 0.911722
Si Si6 0.080924 0.831573 0.840434
Si Si7 0.603765 0.585769 0.733366
Si Si8 0.335617 0.757557 0.602914
O O1 0.500000 0.820924 0.500000
O O2 0.655126 0.628705 0.658806
O O3 0.713975 0.740401 0.523506
O O4 0.722406 0.916882 0.664017
O O5 0.947816 0.591766 0.345004
O O6 0.881785 0.433122 0.162928
O O7 0.008881 0.680831 0.216192
O O8 0.121382 0.429463 0.347434
O O9 0.860888 0.875731 0.914163
O O10 0.998446 0.964372 0.844944
O O11 0.802355 0.135829 0.798606
O O12 0.000000 0.116087 0.000000
O O13 0.790951 0.705834 0.401821
O O14 0.696853 0.656479 0.854572
O O15 0.786948 0.799401 0.038104
O O16 0.113012 0.904500 0.757445
O O17 0.457228 0.646274 0.674415
#
# Coordination Sequence:
#
# PCOD8048338 Si02
#       8
#     4   4   4   4   4   4   4   4
#     4  10  19  40  64  81 118 164 212 265 317 375
#     4  10  21  39  59  89 130 156 202 268 313 375
#     4   9  18  33  58  83 115 157 202 245 302 377
#     4  11  19  41  63  87 116 168 206 250 327 377
#     4   9  18  36  59  82 117 170 204 239 315 383
#     4  11  20  33  58  93 123 153 205 264 309 374
#     4  10  18  35  63  84 120 165 203 256 316 379
#     4  10  21  40  65  86 115 168 211 254 321 384
#
# _framework density 23.561889999999998
#
# number of rings (size 3 to 8) (size 9 to 14) (size 15 to 20)
#    0.000    2.000    6.250    0.750    0.000    0.000 
#    6.750    0.000    5.500    0.000    0.000    0.000 
#    0.000    0.000    0.000    0.000    0.000    0.000 
#
# Total GULP energy -198219.391067 kJ/mol
# GULP energy per Si atom -12388.711942 kJ/mol
# Density = 2.350826 g / cm^3
# Si number density = 23.561890 Si / 1000 Ang^3
#
#
#
# Elastic Constant Matrix: (Units=GPa)
#
#
# Indices 1 2 3 4 5 6 
#
# 1 42.4944 2.3770 4.0579 0.0000 -16.1294 0.0000
# 2 2.3770 79.3928 30.7306 0.0000 -13.9605 0.0000
# 3 4.0579 30.7306 97.7991 0.0000 -20.1468 0.0000
# 4 0.0000 0.0000 0.0000 21.4999 0.0000 -8.5575
# 5 -16.1294 -13.9605 -20.1468 0.0000 27.3710 0.0000
# 6 0.0000 0.0000 0.0000 -8.5575 0.0000 24.8527
#
#
#
# Elastic Compliance Matrix: (Units=1/GPa)
#
#
# Indices 1 2 3 4 5 6 
#
# 1 0.031226 0.001822 0.002492 0.000000 0.021165 0.000000
# 2 0.001822 0.014981 -0.003522 0.000000 0.006123 0.000000
# 3 0.002492 -0.003522 0.013155 0.000000 0.009355 0.000000
# 4 0.000000 0.000000 0.000000 0.053899 0.000000 0.018559
# 5 0.021165 0.006123 0.009355 0.000000 0.059016 0.000000
# 6 0.000000 0.000000 0.000000 0.018559 0.000000 0.046627
#
#
# Mechanical properties :
#
#
# Convention : Reuss Voigt Hill
#
# Bulk Modulus (GPa) = 16.40771 32.66857 24.53814
# Shear Modulus (GPa) = 21.04062 26.91277 23.97670
#
# Velocity S-wave (km/s) = 2.99154 3.38334 3.19345
# Velocity P-wave (km/s) = 4.34870 5.39979 4.90250
#
# Compressibility (1/GPa) = 0.06094697
#
# Stress axis : x y z
#
# Youngs Moduli (GPa) = 32.02461 66.75228 76.01405
#
# Poissons Ratio (x) = -0.12164 -0.18941
# Poissons Ratio (y) = -0.05836 0.26769
# Poissons Ratio (z) = -0.07980 0.23508
#
# Static dielectric constant tensor:
#      x y z
#    x 3.940960 0.000000 -0.117590 
#    y 0.000000 3.903100 0.000000 
#    z -0.117590 0.000000 4.611510 
# 
# 
# High freq. dielectric constant tensor:
#      x y z
#    x 1.905380 0.000000 -0.004440 
#    y 0.000000 1.903220 0.000000 
#    z -0.004440 0.000000 1.949190 
# 
# From -- ./inp_files/54195.got.cif
#   From: 2010.03.12/outbox.cif.g09.slc.cpg/sg5_28_cif.got.tgz:54195.got - 2010.03.31 09:47:26.
