data_PCOD8048704
_publ_section_title
;
Structure prediction by ZEFSAII (Michael W. Deem and Ramdas Pophale) SiO2 
 PCOD8048704
Probable space group: C 2
;
_chemical_formula_sum "Si O2"
_cell_formula_units_Z 30
_cell_length_a 24.195117
_cell_length_b 8.541269
_cell_length_c 11.017297
_cell_angle_alpha 90.000000
_cell_angle_beta 37.552099
_cell_angle_gamma 90.000000
_cell_volume 1387.670883
_symmetry_space_group_name_H-M "C 2"
_symmetry_group_IT_number 5
_symmetry_cell_setting 'monoclinic'
loop_
_space_group_symop_operation_xyz
x,y,z
-x,y,-z
1/2+x,1/2+y,z
1/2-x,1/2+y,-z
loop_
_atom_site_type_symbol
_atom_site_label
_atom_site_fract_x
_atom_site_fract_y
_atom_site_fract_z
Si Si1 0.595958 0.246010 0.325665
Si Si2 0.000000 0.108617 0.000000
Si Si3 0.876452 0.933592 0.036820
Si Si4 0.212305 0.362643 0.034839
Si Si5 0.559355 0.633570 0.279700
Si Si6 0.032552 0.353772 0.741528
Si Si7 0.179019 0.512538 0.343201
Si Si8 0.389152 0.086243 0.941019
O O1 0.500000 0.339621 0.500000
O O2 0.572383 0.119897 0.261243
O O3 0.630404 0.178210 0.396170
O O4 0.678486 0.355558 0.136096
O O5 0.954411 0.224794 0.177198
O O6 0.073967 0.992287 0.928032
O O7 0.860696 0.745214 0.061702
O O8 0.937462 0.981713 0.813837
O O9 0.782548 0.029080 0.203890
O O10 0.165000 0.190552 0.110277
O O11 0.170223 0.424758 0.231573
O O12 0.195491 0.470269 0.943644
O O13 0.500000 0.589205 0.500000
O O14 0.508102 0.778263 0.308447
O O15 0.129872 0.425377 0.539802
O O16 0.962639 0.495018 0.896704
#
# Coordination Sequence:
#
# PCOD8048704 Si02
#       8
#     4   2   4   4   4   4   4   4
#     4  11  20  35  61 103 142 172 203 257 329 412
#     4  10  26  48  68  86 122 180 240 288 320 380
#     4  11  23  42  63  95 136 170 223 284 330 376
#     4  10  20  35  61  99 141 175 208 251 329 422
#     4  10  19  36  63  98 136 176 210 259 331 408
#     4  10  21  42  68  91 122 176 227 268 336 386
#     4  11  20  36  66  94 135 168 213 270 330 395
#     4  10  22  37  62  98 130 172 208 270 330 400
#
# _framework density 21.618959
#
# number of rings (size 3 to 8) (size 9 to 14) (size 15 to 20)
#    0.000    1.600    5.333    0.000    0.000    1.067 
#    0.000    4.000    0.000    0.000    0.000    0.000 
#    0.000    0.000    0.000    0.000    0.000    0.000 
#
# Total GULP energy -185829.228497 kJ/mol
# GULP energy per Si atom -12388.615233 kJ/mol
# Density = 2.156975 g / cm^3
# Si number density = 21.618959 Si / 1000 Ang^3
#
#
#
# Elastic Constant Matrix: (Units=GPa)
#
#
# Indices 1 2 3 4 5 6 
#
# 1 113.7637 44.0435 42.1769 0.0000 -14.2634 0.0000
# 2 44.0435 108.0862 27.0160 0.0000 -7.6169 0.0000
# 3 42.1769 27.0160 102.1764 0.0000 -24.6655 0.0000
# 4 0.0000 0.0000 0.0000 15.2963 0.0000 3.9661
# 5 -14.2634 -7.6169 -24.6655 0.0000 32.3722 0.0000
# 6 0.0000 0.0000 0.0000 3.9661 0.0000 36.1175
#
#
#
# Elastic Compliance Matrix: (Units=1/GPa)
#
#
# Indices 1 2 3 4 5 6 
#
# 1 0.011749 -0.003810 -0.003442 0.000000 0.001657 0.000000
# 2 -0.003810 0.011147 -0.001405 0.000000 -0.000127 0.000000
# 3 -0.003442 -0.001405 0.013643 0.000000 0.008548 0.000000
# 4 0.000000 0.000000 0.000000 0.067291 0.000000 -0.007389
# 5 0.001657 -0.000127 0.008548 0.000000 0.038104 0.000000
# 6 0.000000 0.000000 0.000000 -0.007389 0.000000 0.028499
#
#
# Mechanical properties :
#
#
# Convention : Reuss Voigt Hill
#
# Bulk Modulus (GPa) = 52.01968 61.16658 56.59313
# Shear Modulus (GPa) = 25.75244 30.80986 28.28115
#
# Velocity S-wave (km/s) = 3.45512 3.77919 3.62078
# Velocity P-wave (km/s) = 6.32704 6.88458 6.61169
#
# Compressibility (1/GPa) = 0.01922349
#
# Stress axis : x y z
#
# Youngs Moduli (GPa) = 85.11074 89.71158 73.29851
#
# Poissons Ratio (x) = 0.34185 0.25232
# Poissons Ratio (y) = 0.32431 0.10298
# Poissons Ratio (z) = 0.29298 0.12604
#
# Static dielectric constant tensor:
#      x y z
#    x 3.822310 0.000000 -0.223770 
#    y 0.000000 4.019560 0.000000 
#    z -0.223770 0.000000 3.602130 
# 
# 
# High freq. dielectric constant tensor:
#      x y z
#    x 1.828800 0.000000 -0.024280 
#    y 0.000000 1.862680 0.000000 
#    z -0.024280 0.000000 1.822960 
# 
# From -- ./inp_files/47298.got.cif
#   From: 2010.03.12/outbox.cif.g09.slc.cpg/sg5_24_cif.got.tgz:47298.got - 2010.03.31 09:47:26.
