data_PCOD8048760
_publ_section_title
;
Structure prediction by ZEFSAII (Michael W. Deem and Ramdas Pophale) SiO2 
 PCOD8048760
Probable space group: C 2
;
_chemical_formula_sum "Si O2"
_cell_formula_units_Z 24
_cell_length_a 27.611788
_cell_length_b 8.723795
_cell_length_c 4.970439
_cell_angle_alpha 90.000000
_cell_angle_beta 80.573432
_cell_angle_gamma 90.000000
_cell_volume 1181.109602
_symmetry_space_group_name_H-M "C 2"
_symmetry_group_IT_number 5
_symmetry_cell_setting 'monoclinic'
loop_
_space_group_symop_operation_xyz
x,y,z
-x,y,-z
1/2+x,1/2+y,z
1/2-x,1/2+y,-z
loop_
_atom_site_type_symbol
_atom_site_label
_atom_site_fract_x
_atom_site_fract_y
_atom_site_fract_z
Si Si1 0.152515 0.783890 0.812729
Si Si2 0.195232 0.114540 0.777387
Si Si3 0.811170 0.613733 0.720809
Si Si4 0.445721 0.425935 0.011791
Si Si5 0.153757 0.276955 0.314302
Si Si6 0.945549 0.131761 0.512633
O O1 0.166006 0.740419 0.496988
O O2 0.093563 0.792661 0.895204
O O3 0.175309 0.947394 0.869250
O O4 0.173852 0.654687 0.989643
O O5 0.253183 0.114044 0.749812
O O6 0.180643 0.158490 0.488350
O O7 0.171658 0.238941 0.998267
O O8 0.832276 0.448954 0.622138
O O9 0.437954 0.570482 0.217479
O O10 0.500000 0.354545 0.000000
O O11 0.438753 0.486789 0.715981
O O12 0.094824 0.261294 0.390468
O O13 0.000000 0.203959 0.500000
#
# Coordination Sequence:
#
# PCOD8048760 Si02
#       6
#     4   4   4   4   4   4
#     4  12  23  42  62  91 121 160 204 251 304 357
#     4  12  23  41  64  84 120 169 213 238 290 366
#     4  12  26  38  59  92 129 158 196 256 308 356
#     4  10  20  38  64  91 115 153 205 254 297 355
#     4  12  23  42  61  91 122 161 204 250 305 355
#     4  10  19  37  64  91 115 153 206 253 294 355
#
# _framework density 20.319873999999999
#
# number of rings (size 3 to 8) (size 9 to 14) (size 15 to 20)
#    0.000    0.667    3.333    6.000    0.000    0.000 
#    0.000    1.667    0.000    0.000    0.000    0.000 
#    0.000    0.000    0.000    0.000    0.000    0.000 
#
# Total GULP energy -148896.122020 kJ/mol
# GULP energy per Si atom -12408.010168 kJ/mol
# Density = 2.027362 g / cm^3
# Si number density = 20.319874 Si / 1000 Ang^3
#
#
#
# Elastic Constant Matrix: (Units=GPa)
#
#
# Indices 1 2 3 4 5 6 
#
# 1 134.9342 50.6823 24.2891 0.0000 -34.6318 0.0000
# 2 50.6823 71.1343 15.0898 0.0000 -9.6245 0.0000
# 3 24.2891 15.0898 80.8305 0.0000 -3.9696 0.0000
# 4 0.0000 0.0000 0.0000 18.3417 0.0000 25.5143
# 5 -34.6318 -9.6245 -3.9696 0.0000 32.0053 0.0000
# 6 0.0000 0.0000 0.0000 25.5143 0.0000 -23.8710
#
#
#
# Elastic Compliance Matrix: (Units=1/GPa)
#
#
# Indices 1 2 3 4 5 6 
#
# 1 0.013907 -0.007776 -0.002116 0.000000 0.012448 0.000000
# 2 -0.007776 0.019537 -0.001444 0.000000 -0.002718 0.000000
# 3 -0.002116 -0.001444 0.013224 0.000000 -0.001084 0.000000
# 4 0.000000 0.000000 0.000000 0.021924 0.000000 0.023433
# 5 0.012448 -0.002718 -0.001084 0.000000 0.043763 0.000000
# 6 0.000000 0.000000 0.000000 0.023433 0.000000 -0.016846
#
#
# Mechanical properties :
#
#
# Convention : Reuss Voigt Hill
#
# Bulk Modulus (GPa) = 41.67388 51.89128 46.78258
# Shear Modulus (GPa) = 39.62605 18.41771 29.02188
#
# Velocity S-wave (km/s) = 4.42080 3.01390 3.78332
# Velocity P-wave (km/s) = 6.82725 6.14036 6.49290
#
# Compressibility (1/GPa) = 0.02399584
#
# Stress axis : x y z
#
# Youngs Moduli (GPa) = 71.90383 51.18583 75.62108
#
# Poissons Ratio (x) = 0.39801 0.16003
# Poissons Ratio (y) = 0.55911 0.10921
# Poissons Ratio (z) = 0.15216 0.07392
#
# Static dielectric constant tensor:
#      x y z
#    x 4.010460 0.000000 -0.060900 
#    y 0.000000 3.296760 0.000000 
#    z -0.060900 0.000000 3.969880 
# 
# 
# High freq. dielectric constant tensor:
#      x y z
#    x 1.814160 0.000000 -0.002600 
#    y 0.000000 1.758550 0.000000 
#    z -0.002600 0.000000 1.815150 
# 
# From -- ./inp_files/10693.got.cif
#   From: 2010.03.12/outbox.cif.g09.slc.cpg/sg5_6_cif.got.tgz:10693.got - 2010.03.31 09:47:26.
