data_PCOD8048193
_publ_section_title
;
Structure prediction by ZEFSAII (Michael W. Deem and Ramdas Pophale) SiO2 
 PCOD8048193
Probable space group: C 2
;
_chemical_formula_sum "Si O2"
_cell_formula_units_Z 30
_cell_length_a 5.153287
_cell_length_b 18.156903
_cell_length_c 16.474568
_cell_angle_alpha 90.000000
_cell_angle_beta 74.802202
_cell_angle_gamma 90.000000
_cell_volume 1487.576845
_symmetry_space_group_name_H-M "C 2"
_symmetry_group_IT_number 5
_symmetry_cell_setting 'monoclinic'
loop_
_space_group_symop_operation_xyz
x,y,z
-x,y,-z
1/2+x,1/2+y,z
1/2-x,1/2+y,-z
loop_
_atom_site_type_symbol
_atom_site_label
_atom_site_fract_x
_atom_site_fract_y
_atom_site_fract_z
Si Si1 0.334749 0.573260 0.671248
Si Si2 0.159612 0.425216 0.636449
Si Si3 0.221030 0.526217 0.252695
Si Si4 0.254709 0.231142 0.355243
Si Si5 0.500000 0.834891 0.500000
Si Si6 0.683692 0.785342 0.732135
Si Si7 0.890969 0.938968 0.092596
Si Si8 0.390720 0.843514 0.093559
O O1 0.353892 0.497646 0.616395
O O2 0.583547 0.578646 0.711919
O O3 0.330763 0.646985 0.616638
O O4 0.053441 0.570601 0.745140
O O5 0.262002 0.368242 0.696865
O O6 0.860596 0.453095 0.687890
O O7 0.160831 0.386478 0.548985
O O8 0.377495 0.504172 0.158672
O O9 0.567727 0.231955 0.306836
O O10 0.211861 0.282455 0.437056
O O11 0.080575 0.259611 0.293809
O O12 0.622629 0.783320 0.833543
O O13 0.591586 0.908096 0.104706
O O14 0.091471 0.874865 0.105657
O O15 0.000000 0.973721 0.000000
O O16 0.500000 0.807935 0.000000
#
# Coordination Sequence:
#
# PCOD8048193 Si02
#       8
#     4   4   4   4   2   4   4   4
#     4  10  22  40  61  83 115 163 196 241 296 374
#     4   9  22  37  65  85 117 148 203 247 302 345
#     4  10  19  36  62  83 120 152 206 231 306 355
#     4  11  25  42  59  87 121 164 196 248 307 364
#     4  10  24  44  58  96 116 150 202 260 296 358
#     4  11  21  38  64  85 120 157 200 248 305 356
#     4  10  18  30  54  92 126 150 192 256 304 341
#     4  10  19  31  54  89 123 154 193 245 301 356
#
# _framework density 20.167027000000001
#
# number of rings (size 3 to 8) (size 9 to 14) (size 15 to 20)
#    0.800    1.067    1.333    3.200    5.600    2.133 
#    2.400    0.000    0.000    4.800    0.000    0.000 
#    0.000    0.000    0.000    0.000    0.000    0.000 
#
# Total GULP energy -185914.652970 kJ/mol
# GULP energy per Si atom -12394.310198 kJ/mol
# Density = 2.012113 g / cm^3
# Si number density = 20.167027 Si / 1000 Ang^3
#
#
#
# Elastic Constant Matrix: (Units=GPa)
#
#
# Indices 1 2 3 4 5 6 
#
# 1 98.1025 6.7786 19.2978 0.0000 2.6802 0.0000
# 2 6.7786 85.5818 19.5617 0.0000 7.7219 0.0000
# 3 19.2978 19.5617 106.4281 0.0000 11.4292 0.0000
# 4 0.0000 0.0000 0.0000 15.7750 0.0000 2.5644
# 5 2.6802 7.7219 11.4292 0.0000 22.0726 0.0000
# 6 0.0000 0.0000 0.0000 2.5644 0.0000 27.7706
#
#
#
# Elastic Compliance Matrix: (Units=1/GPa)
#
#
# Indices 1 2 3 4 5 6 
#
# 1 0.010586 -0.000404 -0.001824 0.000000 -0.000200 0.000000
# 2 -0.000404 0.012442 -0.001855 0.000000 -0.003343 0.000000
# 3 -0.001824 -0.001855 0.010561 0.000000 -0.004598 0.000000
# 4 0.000000 0.000000 0.000000 0.064357 0.000000 -0.005943
# 5 -0.000200 -0.003343 -0.004598 0.000000 0.048880 0.000000
# 6 0.000000 0.000000 0.000000 -0.005943 0.000000 0.036558
#
#
# Mechanical properties :
#
#
# Convention : Reuss Voigt Hill
#
# Bulk Modulus (GPa) = 39.33102 42.37652 40.85377
# Shear Modulus (GPa) = 24.99700 29.42192 27.20946
#
# Velocity S-wave (km/s) = 3.52447 3.82371 3.67714
# Velocity P-wave (km/s) = 6.00895 6.36811 6.19113
#
# Compressibility (1/GPa) = 0.02542522
#
# Stress axis : x y z
#
# Youngs Moduli (GPa) = 94.46872 80.37097 94.68428
#
# Poissons Ratio (x) = 0.03243 0.17268
# Poissons Ratio (y) = 0.03812 0.17561
# Poissons Ratio (z) = 0.17229 0.14906
#
# Static dielectric constant tensor:
#      x y z
#    x 3.606590 0.000000 0.019900 
#    y 0.000000 3.468880 0.000000 
#    z 0.019900 0.000000 3.665380 
# 
# 
# High freq. dielectric constant tensor:
#      x y z
#    x 1.798730 0.000000 0.001670 
#    y 0.000000 1.759750 0.000000 
#    z 0.001670 0.000000 1.773450 
# 
# From -- ./inp_files/49326.got.cif
#   From: 2010.03.12/outbox.cif.g09.slc.cpg/sg5_25_cif.got.tgz:49326.got - 2010.03.31 09:47:26.
