data_PCOD8048258
_publ_section_title
;
Structure prediction by ZEFSAII (Michael W. Deem and Ramdas Pophale) SiO2 
 PCOD8048258
Probable space group: C 2
;
_chemical_formula_sum "Si O2"
_cell_formula_units_Z 24
_cell_length_a 16.891421
_cell_length_b 9.479062
_cell_length_c 16.097303
_cell_angle_alpha 90.000000
_cell_angle_beta 26.401298
_cell_angle_gamma 90.000000
_cell_volume 1146.062518
_symmetry_space_group_name_H-M "C 2"
_symmetry_group_IT_number 5
_symmetry_cell_setting 'monoclinic'
loop_
_space_group_symop_operation_xyz
x,y,z
-x,y,-z
1/2+x,1/2+y,z
1/2-x,1/2+y,-z
loop_
_atom_site_type_symbol
_atom_site_label
_atom_site_fract_x
_atom_site_fract_y
_atom_site_fract_z
Si Si1 0.327205 0.821290 0.842476
Si Si2 0.767931 0.518027 0.038188
Si Si3 0.896863 0.451702 0.169321
Si Si4 0.886224 0.940284 0.442669
Si Si5 0.688969 0.262860 0.799489
Si Si6 0.216859 0.256827 0.471858
O O1 0.222933 0.686253 0.976567
O O2 0.320431 0.818257 0.748306
O O3 0.530649 0.814909 0.679428
O O4 0.243604 0.956985 0.967331
O O5 0.596907 0.470829 0.256122
O O6 0.956224 0.471265 0.897373
O O7 0.717661 0.380748 0.377078
O O8 0.829384 0.593177 0.184918
O O9 0.000000 0.361411 0.000000
O O10 0.779969 0.086938 0.524265
O O11 0.868438 0.825602 0.386620
O O12 0.753766 0.314029 0.649087
O O13 0.500000 0.332460 0.000000
#
# Coordination Sequence:
#
# PCOD8048258 Si02
#       6
#     4   4   4   4   4   4
#     4  11  21  37  60  90 117 158 200 241 299 353
#     4  11  22  36  61  90 119 155 199 243 297 353
#     4  10  19  37  59  84 119 151 196 241 291 344
#     4  10  22  35  58  89 117 154 197 244 296 349
#     4  10  18  33  59  84 116 153 198 240 287 346
#     4  10  21  36  58  86 119 154 199 244 292 352
#
# _framework density 20.941265000000001
#
# number of rings (size 3 to 8) (size 9 to 14) (size 15 to 20)
#    0.000    1.667    5.000    1.500    2.333    0.667 
#    0.000    0.000    3.667    0.000    0.000    0.000 
#    0.000    0.000    0.000    0.000    0.000    0.000 
#
# Total GULP energy -148660.406821 kJ/mol
# GULP energy per Si atom -12388.367235 kJ/mol
# Density = 2.089360 g / cm^3
# Si number density = 20.941265 Si / 1000 Ang^3
#
#
#
# Elastic Constant Matrix: (Units=GPa)
#
#
# Indices 1 2 3 4 5 6 
#
# 1 56.6740 9.1824 2.3012 -0.0007 18.0595 0.0001
# 2 9.1824 30.7231 -0.9884 0.0023 13.6424 -0.0011
# 3 2.3012 -0.9884 77.4694 0.0008 16.1264 -0.0007
# 4 -0.0007 0.0023 0.0008 21.8672 -0.0012 5.4243
# 5 18.0595 13.6424 16.1264 -0.0012 45.3090 0.0004
# 6 0.0001 -0.0011 -0.0007 5.4243 0.0004 30.3999
#
#
#
# Elastic Compliance Matrix: (Units=1/GPa)
#
#
# Indices 1 2 3 4 5 6 
#
# 1 0.020494 -0.002672 0.000961 0.000001 -0.007706 0.000000
# 2 -0.002672 0.038605 0.002992 -0.000006 -0.011623 0.000003
# 3 0.000961 0.002992 0.014240 -0.000001 -0.006352 0.000001
# 4 0.000001 -0.000006 -0.000001 0.047848 0.000003 -0.008538
# 5 -0.007706 -0.011623 -0.006352 0.000003 0.030903 -0.000002
# 6 0.000000 0.000003 0.000001 -0.008538 -0.000002 0.034418
#
#
# Mechanical properties :
#
#
# Convention : Reuss Voigt Hill
#
# Bulk Modulus (GPa) = 13.17515 20.65076 16.91296
# Shear Modulus (GPa) = 23.89501 29.80665 26.85083
#
# Velocity S-wave (km/s) = 3.38161 3.77682 3.58466
# Velocity P-wave (km/s) = 4.64243 5.37604 5.02265
#
# Compressibility (1/GPa) = 0.07590046
#
# Stress axis : x y z
#
# Youngs Moduli (GPa) = 48.79387 25.90329 70.22340
#
# Poissons Ratio (x) = 0.06923 -0.06751
# Poissons Ratio (y) = 0.13040 -0.21008
# Poissons Ratio (z) = -0.04691 -0.07749
#
# Static dielectric constant tensor:
#      x y z
#    x 3.724850 0.000000 0.175170 
#    y 0.000000 3.305310 0.000000 
#    z 0.175170 0.000000 4.250570 
# 
# 
# High freq. dielectric constant tensor:
#      x y z
#    x 1.808430 0.000000 0.004940 
#    y 0.000000 1.753130 0.000000 
#    z 0.004940 0.000000 1.855160 
# 
# From -- ./inp_files/23308.got.cif
#   From: 2010.03.12/outbox.cif.g09.slc.cpg/sg5_12_cif.got.tgz:23308.got - 2010.03.31 09:47:26.
