data_PCOD8048369
_publ_section_title
;
Structure prediction by ZEFSAII (Michael W. Deem and Ramdas Pophale) SiO2 
 PCOD8048369
Probable space group: C 2
;
_chemical_formula_sum "Si O2"
_cell_formula_units_Z 26
_cell_length_a 14.697643
_cell_length_b 8.117792
_cell_length_c 14.237282
_cell_angle_alpha 90.000000
_cell_angle_beta 138.550536
_cell_angle_gamma 90.000000
_cell_volume 1124.459768
_symmetry_space_group_name_H-M "C 2"
_symmetry_group_IT_number 5
_symmetry_cell_setting 'monoclinic'
loop_
_space_group_symop_operation_xyz
x,y,z
-x,y,-z
1/2+x,1/2+y,z
1/2-x,1/2+y,-z
loop_
_atom_site_type_symbol
_atom_site_label
_atom_site_fract_x
_atom_site_fract_y
_atom_site_fract_z
Si Si1 0.872439 0.467170 0.219323
Si Si2 0.469681 0.128795 0.814490
Si Si3 0.500000 0.903392 0.000000
Si Si4 0.885483 0.937848 0.116916
Si Si5 0.720099 0.440679 0.584033
Si Si6 0.206421 0.780649 0.756911
Si Si7 0.560751 0.691175 0.337924
O O1 0.826172 0.584521 0.268876
O O2 0.988902 0.569010 0.256096
O O3 0.951625 0.301166 0.314618
O O4 0.747179 0.439225 0.051131
O O5 0.505049 0.320004 0.851158
O O6 0.307432 0.091793 0.696486
O O7 0.549874 0.022318 0.954323
O O8 0.628741 0.791623 0.127626
O O9 0.846433 0.872670 0.190763
O O10 0.961006 0.115973 0.179059
O O11 0.641110 0.355806 0.610604
O O12 0.611472 0.527108 0.431168
O O13 0.813466 0.300891 0.604093
#
# Coordination Sequence:
#
# PCOD8048369 Si02
#       7
#     4   4   2   4   4   4   4
#     4  10  21  38  66 101 129 176 216 282 332 402
#     4   9  19  36  61  94 129 175 221 258 334 384
#     4  10  18  36  62  94 140 172 214 278 312 404
#     4  11  21  38  65  98 136 179 210 278 339 404
#     4  10  23  43  66  95 132 187 219 280 326 401
#     4  10  22  39  65  95 133 175 233 268 341 389
#     4  11  23  43  68  95 140 173 229 269 343 397
#
# _framework density 23.122214
#
# number of rings (size 3 to 8) (size 9 to 14) (size 15 to 20)
#    0.000    1.846    1.538    2.769    4.308    0.615 
#    2.769    3.077    0.000    0.000    0.000    0.000 
#    0.000    0.000    0.000    0.000    0.000    0.000 
#
# Total GULP energy -161046.003174 kJ/mol
# GULP energy per Si atom -12388.154090 kJ/mol
# Density = 2.306959 g / cm^3
# Si number density = 23.122214 Si / 1000 Ang^3
#
#
#
# Elastic Constant Matrix: (Units=GPa)
#
#
# Indices 1 2 3 4 5 6 
#
# 1 80.5212 58.0555 31.9026 0.0000 -4.2381 0.0000
# 2 58.0555 149.7361 50.1221 0.0000 12.4434 0.0000
# 3 31.9026 50.1221 88.2178 0.0000 5.8890 0.0000
# 4 0.0000 0.0000 0.0000 37.0298 0.0000 2.5670
# 5 -4.2381 12.4434 5.8890 0.0000 26.4700 0.0000
# 6 0.0000 0.0000 0.0000 2.5670 0.0000 40.6550
#
#
#
# Elastic Compliance Matrix: (Units=1/GPa)
#
#
# Indices 1 2 3 4 5 6 
#
# 1 0.019090 -0.006814 -0.003502 0.000000 0.007039 0.000000
# 2 -0.006814 0.010901 -0.003364 0.000000 -0.005467 0.000000
# 3 -0.003502 -0.003364 0.014663 0.000000 -0.002241 0.000000
# 4 0.000000 0.000000 0.000000 0.027124 0.000000 -0.001713
# 5 0.007039 -0.005467 -0.002241 0.000000 0.041974 0.000000
# 6 0.000000 0.000000 0.000000 -0.001713 0.000000 0.024705
#
#
# Mechanical properties :
#
#
# Convention : Reuss Voigt Hill
#
# Bulk Modulus (GPa) = 57.82636 66.51508 62.17072
# Shear Modulus (GPa) = 29.14038 32.72395 30.93216
#
# Velocity S-wave (km/s) = 3.55389 3.76608 3.66152
# Velocity P-wave (km/s) = 6.47329 6.90944 6.69491
#
# Compressibility (1/GPa) = 0.01729315
#
# Stress axis : x y z
#
# Youngs Moduli (GPa) = 52.38300 91.73520 68.19864
#
# Poissons Ratio (x) = 0.62512 0.23882
# Poissons Ratio (y) = 0.35696 0.22944
# Poissons Ratio (z) = 0.18344 0.30862
#
# Static dielectric constant tensor:
#      x y z
#    x 4.125400 0.000000 0.112390 
#    y 0.000000 4.461350 0.000000 
#    z 0.112390 0.000000 4.137060 
# 
# 
# High freq. dielectric constant tensor:
#      x y z
#    x 1.893600 0.000000 0.016250 
#    y 0.000000 1.917520 0.000000 
#    z 0.016250 0.000000 1.908840 
# 
# From -- ./inp_files/54319.got.cif
#   From: 2010.03.12/outbox.cif.g09.slc.cpg/sg5_28_cif.got.tgz:54319.got - 2010.03.31 09:47:26.
