data_PCOD8048057
_publ_section_title
;
Structure prediction by ZEFSAII (Michael W. Deem and Ramdas Pophale) SiO2 
 PCOD8048057
Probable space group: C 2
;
_chemical_formula_sum "Si O2"
_cell_formula_units_Z 26
_cell_length_a 12.242878
_cell_length_b 14.276211
_cell_length_c 19.718663
_cell_angle_alpha 90.000000
_cell_angle_beta 155.085037
_cell_angle_gamma 90.000000
_cell_volume 1451.901778
_symmetry_space_group_name_H-M "C 2"
_symmetry_group_IT_number 5
_symmetry_cell_setting 'monoclinic'
loop_
_space_group_symop_operation_xyz
x,y,z
-x,y,-z
1/2+x,1/2+y,z
1/2-x,1/2+y,-z
loop_
_atom_site_type_symbol
_atom_site_label
_atom_site_fract_x
_atom_site_fract_y
_atom_site_fract_z
Si Si1 0.500000 0.723250 0.500000
Si Si2 0.172791 0.079107 0.483795
Si Si3 0.756767 0.968644 0.176772
Si Si4 0.747444 0.387218 0.591937
Si Si5 0.468319 0.310549 0.211500
Si Si6 0.522718 0.821765 0.151374
Si Si7 0.016467 0.729997 0.637799
O O1 0.574098 0.657292 0.479878
O O2 0.743599 0.791013 0.655210
O O3 0.385691 0.128096 0.555076
O O4 0.307054 0.988124 0.592746
O O5 0.921880 0.052565 0.299466
O O6 0.930290 0.916284 0.217491
O O7 0.668150 0.897218 0.185476
O O8 0.500000 0.013962 0.000000
O O9 0.500000 0.398768 0.500000
O O10 0.988001 0.357403 0.776483
O O11 0.690937 0.310568 0.501852
O O12 0.409533 0.241340 0.241106
O O13 0.261575 0.293431 0.034457
O O14 0.719654 0.732493 0.258312
#
# Coordination Sequence:
#
# PCOD8048057 Si02
#       7
#     2   4   4   4   4   4   4
#     4  10  20  30  52  80  96 134 170 214 256 296
#     4  11  17  31  52  78 100 131 173 215 243 304
#     4   9  16  30  53  75  94 135 175 209 243 300
#     4  10  16  31  53  75  99 130 172 208 241 302
#     4   9  17  32  52  72 103 131 169 206 257 300
#     4   9  16  31  55  75  97 132 172 208 245 300
#     4   9  18  28  52  79  99 132 169 203 255 292
#
# _framework density 17.907548999999999
#
# number of rings (size 3 to 8) (size 9 to 14) (size 15 to 20)
#    0.000    2.462    5.385    1.385    0.000    0.000 
#    2.769    0.000    5.077    3.692    0.000    0.000 
#    0.000    0.000    0.000    0.000    0.000    0.000 
#
# Total GULP energy -161087.759743 kJ/mol
# GULP energy per Si atom -12391.366134 kJ/mol
# Density = 1.786679 g / cm^3
# Si number density = 17.907549 Si / 1000 Ang^3
#
#
#
# Elastic Constant Matrix: (Units=GPa)
#
#
# Indices 1 2 3 4 5 6 
#
# 1 39.2508 31.8863 44.3030 0.0060 -6.7392 0.0036
# 2 31.8863 91.8982 64.4890 0.0140 3.1578 0.0011
# 3 44.3030 64.4890 168.7679 0.0081 -12.5540 0.0173
# 4 0.0060 0.0140 0.0081 29.7293 0.0030 4.3961
# 5 -6.7392 3.1578 -12.5540 0.0030 29.2357 0.0062
# 6 0.0036 0.0011 0.0173 4.3961 0.0062 23.8677
#
#
#
# Elastic Compliance Matrix: (Units=1/GPa)
#
#
# Indices 1 2 3 4 5 6 
#
# 1 0.042916 -0.010511 -0.006641 -0.000002 0.008176 -0.000003
# 2 -0.010511 0.017954 -0.004572 -0.000005 -0.006325 0.000007
# 3 -0.006641 -0.004572 0.009647 0.000002 0.003105 -0.000007
# 4 -0.000002 -0.000005 0.000002 0.034579 -0.000001 -0.006369
# 5 0.008176 -0.006325 0.003105 -0.000001 0.038106 -0.000013
# 6 -0.000003 0.000007 -0.000007 -0.006369 -0.000013 0.043071
#
#
# Mechanical properties :
#
#
# Convention : Reuss Voigt Hill
#
# Bulk Modulus (GPa) = 36.94338 64.58596 50.76467
# Shear Modulus (GPa) = 20.94291 27.18244 24.06267
#
# Velocity S-wave (km/s) = 3.42351 3.90029 3.66965
# Velocity P-wave (km/s) = 6.02512 7.51183 6.80917
#
# Compressibility (1/GPa) = 0.02706845
#
# Stress axis : x y z
#
# Youngs Moduli (GPa) = 23.30127 55.69643 103.66334
#
# Poissons Ratio (x) = 0.58545 0.68843
# Poissons Ratio (y) = 0.24493 0.47394
# Poissons Ratio (z) = 0.15474 0.25464
#
# Static dielectric constant tensor:
#      x y z
#    x 3.239850 0.000020 -0.182010 
#    y 0.000020 3.202270 -0.000010 
#    z -0.182010 -0.000010 3.662900 
# 
# 
# High freq. dielectric constant tensor:
#      x y z
#    x 1.663530 0.000000 -0.022480 
#    y 0.000000 1.668090 0.000000 
#    z -0.022480 0.000000 1.696670 
# 
# From -- ./inp_files/39297.got.cif
#   From: 2010.03.12/outbox.cif.g09.slc.cpg/sg5_20_cif.got.tgz:39297.got - 2010.03.31 09:47:26.
