data_PCOD8048604
_publ_section_title
;
Structure prediction by ZEFSAII (Michael W. Deem and Ramdas Pophale) SiO2 
 PCOD8048604
Probable space group: C 2
;
_chemical_formula_sum "Si O2"
_cell_formula_units_Z 20
_cell_length_a 20.995776
_cell_length_b 5.259509
_cell_length_c 10.370974
_cell_angle_alpha 90.000000
_cell_angle_beta 128.481143
_cell_angle_gamma 90.000000
_cell_volume 896.509106
_symmetry_space_group_name_H-M "C 2"
_symmetry_group_IT_number 5
_symmetry_cell_setting 'monoclinic'
loop_
_space_group_symop_operation_xyz
x,y,z
-x,y,-z
1/2+x,1/2+y,z
1/2-x,1/2+y,-z
loop_
_atom_site_type_symbol
_atom_site_label
_atom_site_fract_x
_atom_site_fract_y
_atom_site_fract_z
Si Si1 0.208886 0.750000 0.000059
Si Si2 0.594866 0.154843 0.647543
Si Si3 0.808309 0.724016 0.719791
Si Si4 0.644909 0.724006 0.348141
Si Si5 0.917071 0.153990 0.474635
O O1 0.203844 0.700547 0.144127
O O2 0.264455 0.537324 0.000074
O O3 0.117893 0.710816 0.824654
O O4 0.500000 0.106972 0.500000
O O5 0.630687 0.385700 0.604810
O O6 0.635510 0.887252 0.653030
O O7 0.722557 0.716263 0.540126
O O8 0.861974 0.483411 0.740662
O O9 0.855995 0.984643 0.748977
O O10 0.569501 0.702957 0.355205
O O11 0.000000 0.108503 0.500000
#
# Coordination Sequence:
#
# PCOD8048604 Si02
#       5
#     4   4   4   4   4
#     4  12  23  37  60  91 120 150 199 252 293 344
#     4  10  21  37  59  84 116 153 194 242 295 349
#     4  10  21  33  54  83 116 151 183 238 300 349
#     4  10  19  35  54  81 117 150 188 234 297 353
#     4  10  20  36  61  84 108 155 205 238 277 349
#
# _framework density 22.308751000000001
#
# number of rings (size 3 to 8) (size 9 to 14) (size 15 to 20)
#    0.000    1.600    0.000    6.000    0.000    3.200 
#    0.000    0.000    0.000   28.800    0.000    0.000 
#    0.000    0.000    0.000    0.000    0.000    0.000 
#
# Total GULP energy -123912.475440 kJ/mol
# GULP energy per Si atom -12391.247544 kJ/mol
# Density = 2.225798 g / cm^3
# Si number density = 22.308751 Si / 1000 Ang^3
#
#
#
# Elastic Constant Matrix: (Units=GPa)
#
#
# Indices 1 2 3 4 5 6 
#
# 1 77.9087 15.3149 21.1639 0.0000 -32.1065 0.0000
# 2 15.3149 193.1517 19.6632 0.0000 -25.2523 0.0000
# 3 21.1639 19.6632 86.0877 0.0000 -22.0081 0.0000
# 4 0.0000 0.0000 0.0000 28.2657 0.0000 -17.4844
# 5 -32.1065 -25.2523 -22.0081 0.0000 45.8429 0.0000
# 6 0.0000 0.0000 0.0000 -17.4844 0.0000 21.7713
#
#
#
# Elastic Compliance Matrix: (Units=1/GPa)
#
#
# Indices 1 2 3 4 5 6 
#
# 1 0.018203 0.000300 -0.001416 0.000000 0.012234 0.000000
# 2 0.000300 0.005608 -0.000583 0.000000 0.003019 0.000000
# 3 -0.001416 -0.000583 0.013407 0.000000 0.005124 0.000000
# 4 0.000000 0.000000 0.000000 0.070303 0.000000 0.056460
# 5 0.012234 0.003019 0.005124 0.000000 0.034505 0.000000
# 6 0.000000 0.000000 0.000000 0.056460 0.000000 0.091275
#
#
# Mechanical properties :
#
#
# Convention : Reuss Voigt Hill
#
# Bulk Modulus (GPa) = 29.56750 52.15914 40.86332
# Shear Modulus (GPa) = 20.16362 39.24306 29.70334
#
# Velocity S-wave (km/s) = 3.00966 4.19870 3.65288
# Velocity P-wave (km/s) = 5.03587 6.85104 6.01235
#
# Compressibility (1/GPa) = 0.03382092
#
# Stress axis : x y z
#
# Youngs Moduli (GPa) = 54.93614 178.33100 74.58706
#
# Poissons Ratio (x) = -0.05356 0.10561
# Poissons Ratio (y) = -0.01650 0.04346
# Poissons Ratio (z) = 0.07779 0.10392
#
# Static dielectric constant tensor:
#      x y z
#    x 3.862620 0.000000 -0.205500 
#    y 0.000000 5.219810 0.000000 
#    z -0.205500 0.000000 3.959570 
# 
# 
# High freq. dielectric constant tensor:
#      x y z
#    x 1.846240 0.000000 -0.025920 
#    y 0.000000 1.921970 0.000000 
#    z -0.025920 0.000000 1.856230 
# 
# From -- ./inp_files/25934.got.cif
#   From: 2010.03.12/outbox.cif.g09.slc.cpg/sg5_13_cif.got.tgz:25934.got - 2010.03.31 09:47:26.
