data_PCOD8048642
_publ_section_title
;
Structure prediction by ZEFSAII (Michael W. Deem and Ramdas Pophale) SiO2 
 PCOD8048642
Probable space group: C 2
;
_chemical_formula_sum "Si O2"
_cell_formula_units_Z 28
_cell_length_a 28.682491
_cell_length_b 8.434437
_cell_length_c 9.526822
_cell_angle_alpha 90.000000
_cell_angle_beta 144.211354
_cell_angle_gamma 90.000000
_cell_volume 1347.802031
_symmetry_space_group_name_H-M "C 2"
_symmetry_group_IT_number 5
_symmetry_cell_setting 'monoclinic'
loop_
_space_group_symop_operation_xyz
x,y,z
-x,y,-z
1/2+x,1/2+y,z
1/2-x,1/2+y,-z
loop_
_atom_site_type_symbol
_atom_site_label
_atom_site_fract_x
_atom_site_fract_y
_atom_site_fract_z
Si Si1 0.488506 0.190210 0.133872
Si Si2 0.658576 0.232369 0.534447
Si Si3 0.226716 0.280683 0.618447
Si Si4 0.374485 0.570338 0.455102
Si Si5 0.332178 0.047217 0.720173
Si Si6 0.533326 0.482989 0.730481
Si Si7 0.804801 0.052461 0.984285
O O1 0.578764 0.146838 0.406908
O O2 0.449483 0.332557 0.128372
O O3 0.500000 0.243991 0.000000
O O4 0.425932 0.042817 0.995959
O O5 0.639542 0.417504 0.482426
O O6 0.673686 0.178352 0.414236
O O7 0.739146 0.191074 0.814927
O O8 0.198435 0.376855 0.409968
O O9 0.274193 0.388708 0.843634
O O10 0.148968 0.225114 0.514343
O O11 0.276110 0.120487 0.704332
O O12 0.467074 0.594506 0.641185
O O13 0.321378 0.536468 0.188530
O O14 0.500000 0.418644 0.500000
O O15 0.613183 0.588246 0.901314
#
# Coordination Sequence:
#
# PCOD8048642 Si02
#       7
#     4   4   4   4   4   4   4
#     4   9  17  34  59  82 118 157 195 241 291 362
#     4   9  19  34  58  82 117 156 195 242 289 357
#     4  11  21  35  62  87 121 155 199 248 293 358
#     4  10  20  35  58  89 116 156 203 240 294 355
#     4  10  20  35  59  85 118 155 195 247 302 347
#     4   9  18  34  59  89 119 155 198 243 299 356
#     4  10  19  35  61  86 118 154 196 251 296 351
#
# _framework density 20.774563000000001
#
# number of rings (size 3 to 8) (size 9 to 14) (size 15 to 20)
#    0.000    2.286    1.429    1.714    0.000    0.000 
#    0.000    0.000   44.000    0.000    0.000    0.000 
#    0.000    0.000    0.000    0.000    0.000    0.000 
#
# Total GULP energy -173449.638182 kJ/mol
# GULP energy per Si atom -12389.259870 kJ/mol
# Density = 2.072728 g / cm^3
# Si number density = 20.774563 Si / 1000 Ang^3
#
#
#
# Elastic Constant Matrix: (Units=GPa)
#
#
# Indices 1 2 3 4 5 6 
#
# 1 96.7750 40.8328 25.8945 0.0000 24.8909 0.0000
# 2 40.8328 63.2767 27.3460 0.0000 15.2341 0.0000
# 3 25.8945 27.3460 84.5162 0.0000 33.6401 0.0000
# 4 0.0000 0.0000 0.0000 27.0832 0.0000 1.8745
# 5 24.8909 15.2341 33.6401 0.0000 35.5792 0.0000
# 6 0.0000 0.0000 0.0000 1.8745 0.0000 33.9099
#
#
#
# Elastic Compliance Matrix: (Units=1/GPa)
#
#
# Indices 1 2 3 4 5 6 
#
# 1 0.015896 -0.008781 0.001444 0.000000 -0.008727 0.000000
# 2 -0.008781 0.023516 -0.005381 0.000000 0.001162 0.000000
# 3 0.001444 -0.005381 0.020228 0.000000 -0.017832 0.000000
# 4 0.000000 0.000000 0.000000 0.037065 0.000000 -0.002049
# 5 -0.008727 0.001162 -0.017832 0.000000 0.050574 0.000000
# 6 0.000000 0.000000 0.000000 -0.002049 0.000000 0.029603
#
#
# Mechanical properties :
#
#
# Convention : Reuss Voigt Hill
#
# Bulk Modulus (GPa) = 29.23533 48.07940 38.65737
# Shear Modulus (GPa) = 23.39502 29.34743 26.37122
#
# Velocity S-wave (km/s) = 3.35944 3.76262 3.56673
# Velocity P-wave (km/s) = 5.39916 6.48614 5.96745
#
# Compressibility (1/GPa) = 0.03420519
#
# Stress axis : x y z
#
# Youngs Moduli (GPa) = 62.90702 42.52452 49.43546
#
# Poissons Ratio (x) = 0.37342 -0.07140
# Poissons Ratio (y) = 0.55240 0.26600
# Poissons Ratio (z) = -0.09086 0.22882
#
# Static dielectric constant tensor:
#      x y z
#    x 3.972500 0.000000 0.354580 
#    y 0.000000 3.336770 0.000000 
#    z 0.354580 0.000000 4.200100 
# 
# 
# High freq. dielectric constant tensor:
#      x y z
#    x 1.828200 0.000000 0.018240 
#    y 0.000000 1.766880 0.000000 
#    z 0.018240 0.000000 1.817210 
# 
# From -- ./inp_files/31766.got.cif
#   From: 2010.03.12/outbox.cif.g09.slc.cpg/sg5_16_cif.got.tgz:31766.got - 2010.03.31 09:47:26.
