data_PCOD8048094
_publ_section_title
;
Structure prediction by ZEFSAII (Michael W. Deem and Ramdas Pophale) SiO2 
 PCOD8048094
Probable space group: C 2
;
_chemical_formula_sum "Si O2"
_cell_formula_units_Z 30
_cell_length_a 17.549207
_cell_length_b 5.497715
_cell_length_c 15.017497
_cell_angle_alpha 90.000000
_cell_angle_beta 100.953992
_cell_angle_gamma 90.000000
_cell_volume 1422.497433
_symmetry_space_group_name_H-M "C 2"
_symmetry_group_IT_number 5
_symmetry_cell_setting 'monoclinic'
loop_
_space_group_symop_operation_xyz
x,y,z
-x,y,-z
1/2+x,1/2+y,z
1/2-x,1/2+y,-z
loop_
_atom_site_type_symbol
_atom_site_label
_atom_site_fract_x
_atom_site_fract_y
_atom_site_fract_z
Si Si1 0.128673 0.494880 0.395975
Si Si2 0.779636 0.980050 0.312550
Si Si3 0.636837 0.864793 0.988443
Si Si4 0.000000 0.660736 0.000000
Si Si5 0.256962 0.646434 0.119900
Si Si6 0.619950 0.477291 0.132447
Si Si7 0.885988 0.998267 0.663419
Si Si8 0.296482 0.983314 0.395020
O O1 0.193053 0.480333 0.332462
O O2 0.078147 0.742196 0.366301
O O3 0.167199 0.499214 0.500198
O O4 0.078687 0.243214 0.375226
O O5 0.775075 0.963249 0.204330
O O6 0.823286 0.231276 0.352294
O O7 0.823767 0.730743 0.350424
O O8 0.660158 0.720176 0.904581
O O9 0.619363 0.717689 0.074090
O O10 0.557499 0.006055 0.949501
O O11 0.709589 0.036549 0.026695
O O12 0.052511 0.807654 0.079944
O O13 0.206525 0.866151 0.149506
O O14 0.599311 0.532813 0.229099
O O15 0.795900 0.981728 0.615352
#
# Coordination Sequence:
#
# PCOD8048094 Si02
#       8
#     4   4   4   2   4   4   4   4
#     4  10  17  28  44  75 111 160 182 229 299 371
#     4  10  18  28  44  75 108 154 185 235 281 368
#     4  11  22  39  59  83 116 158 205 263 302 368
#     4  10  26  40  58  80 118 168 206 258 310 358
#     4  11  21  33  58  85 113 155 209 245 310 359
#     4  11  21  39  54  84 113 162 202 251 307 357
#     4  10  18  28  49  72 109 149 196 232 287 362
#     4  10  17  28  45  71 117 158 183 224 304 369
#
# _framework density 21.089666999999999
#
# number of rings (size 3 to 8) (size 9 to 14) (size 15 to 20)
#    0.000    1.600    4.000    6.000    1.867    0.000 
#    0.000    0.000    0.000    0.000    0.000    0.000 
#    0.000    1.067    2.667    0.667    0.000    0.000 
#
# Total GULP energy -185880.479462 kJ/mol
# GULP energy per Si atom -12392.031964 kJ/mol
# Density = 2.104167 g / cm^3
# Si number density = 21.089667 Si / 1000 Ang^3
#
#
#
# Elastic Constant Matrix: (Units=GPa)
#
#
# Indices 1 2 3 4 5 6 
#
# 1 54.4788 17.8384 21.9525 0.0000 2.9384 0.0000
# 2 17.8384 160.5297 17.8659 0.0000 6.3115 0.0000
# 3 21.9525 17.8659 83.9310 0.0000 -0.9874 0.0000
# 4 0.0000 0.0000 0.0000 109.0337 0.0000 62.9757
# 5 2.9384 6.3115 -0.9874 0.0000 8.7999 0.0000
# 6 0.0000 0.0000 0.0000 62.9757 0.0000 69.4961
#
#
#
# Elastic Compliance Matrix: (Units=1/GPa)
#
#
# Indices 1 2 3 4 5 6 
#
# 1 0.021364 -0.001518 -0.005343 0.000000 -0.006644 0.000000
# 2 -0.001518 0.006692 -0.001079 0.000000 -0.004414 0.000000
# 3 -0.005343 -0.001079 0.013590 0.000000 0.004083 0.000000
# 4 0.000000 0.000000 0.000000 0.019243 0.000000 -0.017438
# 5 -0.006644 -0.004414 0.004083 0.000000 0.119479 0.000000
# 6 0.000000 0.000000 0.000000 -0.017438 0.000000 0.030191
#
#
# Mechanical properties :
#
#
# Convention : Reuss Voigt Hill
#
# Bulk Modulus (GPa) = 38.81226 46.02810 42.42018
# Shear Modulus (GPa) = 21.27405 53.55147 37.41276
#
# Velocity S-wave (km/s) = 3.17952 5.04454 4.21644
# Velocity P-wave (km/s) = 5.65000 7.47009 6.62287
#
# Compressibility (1/GPa) = 0.02576506
#
# Stress axis : x y z
#
# Youngs Moduli (GPa) = 46.80725 149.43846 73.58470
#
# Poissons Ratio (x) = 0.22687 0.39316
# Poissons Ratio (y) = 0.07106 0.07942
# Poissons Ratio (z) = 0.25009 0.16128
#
# Static dielectric constant tensor:
#      x y z
#    x 3.148060 0.000000 -0.019410 
#    y 0.000000 5.052540 0.000000 
#    z -0.019410 0.000000 3.749870 
# 
# 
# High freq. dielectric constant tensor:
#      x y z
#    x 1.739140 0.000000 -0.004280 
#    y 0.000000 1.858110 0.000000 
#    z -0.004280 0.000000 1.833090 
# 
# From -- ./inp_files/55446.got.cif
#   From: 2010.03.12/outbox.cif.g09.slc.cpg/sg5_28_cif.got.tgz:55446.got - 2010.03.31 09:47:26.
