data_PCOD8048091
_publ_section_title
;
Structure prediction by ZEFSAII (Michael W. Deem and Ramdas Pophale) SiO2 
 PCOD8048091
Probable space group: C 2
;
_chemical_formula_sum "Si O2"
_cell_formula_units_Z 32
_cell_length_a 11.314726
_cell_length_b 22.280998
_cell_length_c 9.200929
_cell_angle_alpha 90.000000
_cell_angle_beta 45.445432
_cell_angle_gamma 90.000000
_cell_volume 1652.896140
_symmetry_space_group_name_H-M "C 2"
_symmetry_group_IT_number 5
_symmetry_cell_setting 'monoclinic'
loop_
_space_group_symop_operation_xyz
x,y,z
-x,y,-z
1/2+x,1/2+y,z
1/2-x,1/2+y,-z
loop_
_atom_site_type_symbol
_atom_site_label
_atom_site_fract_x
_atom_site_fract_y
_atom_site_fract_z
Si Si1 0.159655 0.022330 0.761801
Si Si2 0.821945 0.128074 0.079413
Si Si3 0.364304 0.853515 0.858257
Si Si4 0.757645 0.352741 0.399570
Si Si5 0.436307 0.562938 0.708805
Si Si6 0.695014 0.759164 0.864487
Si Si7 0.171003 0.890853 0.768835
Si Si8 0.813011 0.453907 0.124462
O O1 0.269900 0.074624 0.748012
O O2 0.101072 0.040263 0.650451
O O3 0.249048 0.957871 0.677478
O O4 0.000000 0.014241 0.000000
O O5 0.730323 0.192257 0.175704
O O6 0.841830 0.112229 0.890694
O O7 0.000000 0.135399 0.000000
O O8 0.559915 0.846435 0.692383
O O9 0.304131 0.852734 0.744335
O O10 0.276333 0.797985 0.015542
O O11 0.311757 0.916804 0.975781
O O12 0.711415 0.292349 0.350214
O O13 0.636626 0.360241 0.641893
O O14 0.743450 0.410843 0.310237
O O15 0.500000 0.590523 0.500000
O O16 0.308514 0.509653 0.787006
O O17 0.500000 0.758778 0.000000
O O18 0.000000 0.892483 0.000000
O O19 0.000000 0.475742 0.000000
#
# Coordination Sequence:
#
# PCOD8048091 Si02
#       8
#     4   4   4   4   4   4   4   4
#     4   8  16  27  42  66  97 124 146 182 231 277
#     4   8  15  29  47  68  92 120 153 194 235 268
#     4   9  17  30  47  69  93 119 157 197 229 267
#     4   9  18  30  47  70  95 124 157 194 233 278
#     4  10  17  27  45  72  97 119 154 196 233 276
#     4   8  15  31  50  66  88 119 159 198 231 270
#     4  11  19  29  45  72 102 124 148 189 241 284
#     4   9  17  29  45  67  98 131 156 184 229 282
#
# _framework density 19.359957999999999
#
# number of rings (size 3 to 8) (size 9 to 14) (size 15 to 20)
#    0.000    3.250    0.000    4.875    0.000    0.000 
#    0.000    6.875    0.000    0.750    0.000   15.750 
#    0.000    1.000    0.000    0.000    0.000    0.000 
#
# Total GULP energy -198223.585820 kJ/mol
# GULP energy per Si atom -12388.974114 kJ/mol
# Density = 1.931589 g / cm^3
# Si number density = 19.359958 Si / 1000 Ang^3
#
#
#
# Elastic Constant Matrix: (Units=GPa)
#
#
# Indices 1 2 3 4 5 6 
#
# 1 54.8705 33.1578 28.2578 0.0000 25.8178 0.0000
# 2 33.1578 144.5720 48.8608 0.0000 20.0462 0.0000
# 3 28.2578 48.8608 94.1625 0.0000 35.3671 0.0000
# 4 0.0000 0.0000 0.0000 14.5818 0.0000 -0.5974
# 5 25.8178 20.0462 35.3671 0.0000 31.4572 0.0000
# 6 0.0000 0.0000 0.0000 -0.5974 0.0000 13.4534
#
#
#
# Elastic Compliance Matrix: (Units=1/GPa)
#
#
# Indices 1 2 3 4 5 6 
#
# 1 0.032030 -0.004594 0.002676 0.000000 -0.026369 0.000000
# 2 -0.004594 0.009058 -0.004448 0.000000 0.002999 0.000000
# 3 0.002676 -0.004448 0.020573 0.000000 -0.022491 0.000000
# 4 0.000000 0.000000 0.000000 0.068704 0.000000 0.003051
# 5 -0.026369 0.002999 -0.022491 0.000000 0.076806 0.000000
# 6 0.000000 0.000000 0.000000 0.003051 0.000000 0.074466
#
#
# Mechanical properties :
#
#
# Convention : Reuss Voigt Hill
#
# Bulk Modulus (GPa) = 20.43827 57.12864 38.78346
# Shear Modulus (GPa) = 16.09380 24.12038 20.10709
#
# Velocity S-wave (km/s) = 2.88634 3.53355 3.22622
# Velocity P-wave (km/s) = 4.65702 6.79858 5.82703
#
# Compressibility (1/GPa) = 0.04892781
#
# Stress axis : x y z
#
# Youngs Moduli (GPa) = 31.22080 110.39867 48.60830
#
# Poissons Ratio (x) = 0.50720 -0.13007
# Poissons Ratio (y) = 0.14344 0.21621
# Poissons Ratio (z) = -0.08354 0.49105
#
# Static dielectric constant tensor:
#      x y z
#    x 3.376700 0.000000 0.401670 
#    y 0.000000 4.364380 0.000000 
#    z 0.401670 0.000000 3.431690 
# 
# 
# High freq. dielectric constant tensor:
#      x y z
#    x 1.731120 0.000000 0.032390 
#    y 0.000000 1.740380 0.000000 
#    z 0.032390 0.000000 1.733830 
# 
# From -- ./inp_files/21944.got.cif
#   From: 2010.03.12/outbox.cif.g09.slc.cpg/sg5_11_cif.got.tgz:21944.got - 2010.03.31 09:47:26.
