data_PCOD8048510
_publ_section_title
;
Structure prediction by ZEFSAII (Michael W. Deem and Ramdas Pophale) SiO2 
 PCOD8048510
Probable space group: C 2
;
_chemical_formula_sum "Si O2"
_cell_formula_units_Z 24
_cell_length_a 26.831591
_cell_length_b 5.346565
_cell_length_c 10.136455
_cell_angle_alpha 90.000000
_cell_angle_beta 123.826982
_cell_angle_gamma 90.000000
_cell_volume 1207.989880
_symmetry_space_group_name_H-M "C 2"
_symmetry_group_IT_number 5
_symmetry_cell_setting 'monoclinic'
loop_
_space_group_symop_operation_xyz
x,y,z
-x,y,-z
1/2+x,1/2+y,z
1/2-x,1/2+y,-z
loop_
_atom_site_type_symbol
_atom_site_label
_atom_site_fract_x
_atom_site_fract_y
_atom_site_fract_z
Si Si1 0.748882 0.470220 0.687645
Si Si2 0.737438 0.276479 0.057208
Si Si3 0.663953 0.259991 0.362292
Si Si4 0.028447 0.666870 0.187229
Si Si5 0.021383 0.171275 0.880700
Si Si6 0.842869 0.079225 0.899500
O O1 0.727478 0.688989 0.757205
O O2 0.688587 0.351539 0.539807
O O3 0.788971 0.560255 0.623987
O O4 0.789632 0.281638 0.834237
O O5 0.671558 0.359748 0.014861
O O6 0.768449 0.528223 0.043535
O O7 0.599785 0.134409 0.289075
O O8 0.655755 0.486611 0.248768
O O9 0.003971 0.421228 0.227280
O O10 0.006364 0.921162 0.227868
O O11 0.000000 0.676010 0.000000
O O12 0.092764 0.189519 0.970634
O O13 0.000000 0.176458 0.000000
#
# Coordination Sequence:
#
# PCOD8048510 Si02
#       6
#     4   4   4   4   4   4
#     4  11  22  35  60  89 129 164 198 247 318 374
#     4  11  24  43  60  85 121 164 223 259 292 356
#     4  11  21  33  54  93 133 163 189 240 317 393
#     4  10  19  32  49  76 126 160 189 225 280 378
#     4  10  19  32  52  80 119 159 193 233 291 365
#     4  11  21  37  60  87 127 162 199 254 309 365
#
# _framework density 19.867716000000001
#
# number of rings (size 3 to 8) (size 9 to 14) (size 15 to 20)
#    0.000    1.333    6.667    2.000    2.333    0.000 
#    0.000    0.000    0.000    0.000    0.000    1.167 
#   10.000    0.000    0.000    0.000    0.000    0.000 
#
# Total GULP energy -148672.052976 kJ/mol
# GULP energy per Si atom -12389.337748 kJ/mol
# Density = 1.982250 g / cm^3
# Si number density = 19.867716 Si / 1000 Ang^3
#
#
#
# Elastic Constant Matrix: (Units=GPa)
#
#
# Indices 1 2 3 4 5 6 
#
# 1 82.3953 48.1735 61.3963 0.0000 11.1908 0.0000
# 2 48.1735 163.7335 43.2769 0.0000 5.3454 0.0000
# 3 61.3963 43.2769 82.9632 0.0000 20.2025 0.0000
# 4 0.0000 0.0000 0.0000 1.4200 0.0000 -9.0729
# 5 11.1908 5.3454 20.2025 0.0000 26.9779 0.0000
# 6 0.0000 0.0000 0.0000 -9.0729 0.0000 29.1329
#
#
#
# Elastic Compliance Matrix: (Units=1/GPa)
#
#
# Indices 1 2 3 4 5 6 
#
# 1 0.028857 -0.003147 -0.020731 0.000000 0.004178 0.000000
# 2 -0.003147 0.007489 -0.001876 0.000000 0.001227 0.000000
# 3 -0.020731 -0.001876 0.032030 0.000000 -0.015015 0.000000
# 4 0.000000 0.000000 0.000000 -0.711433 0.000000 -0.221562
# 5 0.004178 0.001227 -0.015015 0.000000 0.046335 0.000000
# 6 0.000000 0.000000 0.000000 -0.221562 0.000000 -0.034676
#
#
# Mechanical properties :
#
#
# Convention : Reuss Voigt Hill
#
# Bulk Modulus (GPa) = 59.28552 70.53172 64.90862
# Shear Modulus (GPa) = -8.70678 23.25584 7.27453
#
# Velocity S-wave (km/s) = -2.09568 3.42502 1.91558
# Velocity P-wave (km/s) = 4.90398 7.15673 6.13465
#
# Compressibility (1/GPa) = 0.01686753
#
# Stress axis : x y z
#
# Youngs Moduli (GPa) = 34.65403 133.52289 31.22035
#
# Poissons Ratio (x) = 0.42021 0.64722
# Poissons Ratio (y) = 0.10906 0.05858
# Poissons Ratio (z) = 0.71841 0.25055
#
# Static dielectric constant tensor:
#      x y z
#    x 3.596510 0.000000 0.031370 
#    y 0.000000 5.490610 0.000000 
#    z 0.031370 0.000000 3.293950 
# 
# 
# High freq. dielectric constant tensor:
#      x y z
#    x 1.748360 0.000000 0.021430 
#    y 0.000000 1.806250 0.000000 
#    z 0.021430 0.000000 1.723240 
# 
# From -- ./inp_files/45294.got.cif
#   From: 2010.03.12/outbox.cif.g09.slc.cpg/sg5_23_cif.got.tgz:45294.got - 2010.03.31 09:47:26.
