data_PCOD8048411
_publ_section_title
;
Structure prediction by ZEFSAII (Michael W. Deem and Ramdas Pophale) SiO2 
 PCOD8048411
Probable space group: C 2
;
_chemical_formula_sum "Si O2"
_cell_formula_units_Z 30
_cell_length_a 21.241217
_cell_length_b 8.269520
_cell_length_c 9.545751
_cell_angle_alpha 90.000000
_cell_angle_beta 64.078139
_cell_angle_gamma 90.000000
_cell_volume 1508.059103
_symmetry_space_group_name_H-M "C 2"
_symmetry_group_IT_number 5
_symmetry_cell_setting 'monoclinic'
loop_
_space_group_symop_operation_xyz
x,y,z
-x,y,-z
1/2+x,1/2+y,z
1/2-x,1/2+y,-z
loop_
_atom_site_type_symbol
_atom_site_label
_atom_site_fract_x
_atom_site_fract_y
_atom_site_fract_z
Si Si1 0.772770 0.065530 0.808680
Si Si2 0.788380 0.104030 0.359200
Si Si3 0.500000 0.697596 0.500000
Si Si4 0.941237 0.616431 0.372832
Si Si5 0.578634 0.980433 0.311398
Si Si6 0.324207 0.979073 0.323281
Si Si7 0.733525 0.943958 0.134402
Si Si8 0.889665 0.973118 0.473331
O O1 0.777358 0.257739 0.816904
O O2 0.832677 0.987960 0.652908
O O3 0.697547 0.031401 0.811380
O O4 0.778937 0.974224 0.951024
O O5 0.810813 0.289501 0.348604
O O6 0.853610 0.006407 0.358994
O O7 0.719535 0.078977 0.518741
O O8 0.772216 0.044657 0.218130
O O9 0.547993 0.797823 0.342454
O O10 0.452860 0.592465 0.442337
O O11 0.916089 0.513082 0.528789
O O12 0.904171 0.535727 0.272780
O O13 0.025767 0.598849 0.277832
O O14 0.922183 0.798271 0.425787
O O15 0.655538 0.007293 0.174246
#
# Coordination Sequence:
#
# PCOD8048411 Si02
#       8
#     4   4   2   4   4   4   4   4
#     4  11  25  37  61  86 125 156 199 239 305 351
#     4  11  21  34  62  83 122 148 203 246 293 342
#     4  10  18  38  60  88 120 144 206 244 298 344
#     4  10  20  35  60  88 120 146 200 243 295 340
#     4  10  21  35  59  88 118 161 189 248 293 356
#     4  11  20  37  57  90 113 156 197 252 289 347
#     4  12  23  42  57  90 122 163 192 243 297 366
#     4  11  21  38  62  96 112 156 195 255 292 350
#
# _framework density 19.893118999999999
#
# number of rings (size 3 to 8) (size 9 to 14) (size 15 to 20)
#    0.000    1.333    2.667    7.200    1.867    0.000 
#    0.000    0.667    0.000    0.800    0.000    0.000 
#    0.000    0.000    0.000    0.000    0.000    0.000 
#
# Total GULP energy -185938.292671 kJ/mol
# GULP energy per Si atom -12395.886178 kJ/mol
# Density = 1.984784 g / cm^3
# Si number density = 19.893119 Si / 1000 Ang^3
#
#
#
# Elastic Constant Matrix: (Units=GPa)
#
#
# Indices 1 2 3 4 5 6 
#
# 1 154.3514 56.7766 41.4317 0.0000 11.5340 0.0000
# 2 56.7766 129.0672 30.7552 0.0000 -1.2558 0.0000
# 3 41.4317 30.7552 71.4750 0.0000 17.2604 0.0000
# 4 0.0000 0.0000 0.0000 7.7101 0.0000 3.3201
# 5 11.5340 -1.2558 17.2604 0.0000 25.1409 0.0000
# 6 0.0000 0.0000 0.0000 3.3201 0.0000 40.5432
#
#
#
# Elastic Compliance Matrix: (Units=1/GPa)
#
#
# Indices 1 2 3 4 5 6 
#
# 1 0.008601 -0.003033 -0.003226 0.000000 -0.001883 0.000000
# 2 -0.003033 0.009979 -0.003587 0.000000 0.004353 0.000000
# 3 -0.003226 -0.003587 0.020487 0.000000 -0.012764 0.000000
# 4 0.000000 0.000000 0.000000 0.134440 0.000000 -0.011009
# 5 -0.001883 0.004353 -0.012764 0.000000 0.049620 0.000000
# 6 0.000000 0.000000 0.000000 -0.011009 0.000000 0.025567
#
#
# Mechanical properties :
#
#
# Convention : Reuss Voigt Hill
#
# Bulk Modulus (GPa) = 51.61287 68.09120 59.85203
# Shear Modulus (GPa) = 18.19213 29.74086 23.96650
#
# Velocity S-wave (km/s) = 3.02734 3.87076 3.47474
# Velocity P-wave (km/s) = 6.18232 7.36749 6.80077
#
# Compressibility (1/GPa) = 0.01937501
#
# Stress axis : x y z
#
# Youngs Moduli (GPa) = 116.26456 100.20775 48.81222
#
# Poissons Ratio (x) = 0.30395 0.15746
# Poissons Ratio (y) = 0.35266 0.17508
# Poissons Ratio (z) = 0.37506 0.35943
#
# Static dielectric constant tensor:
#      x y z
#    x 4.385160 0.000000 0.096190 
#    y 0.000000 3.766040 0.000000 
#    z 0.096190 0.000000 3.242070 
# 
# 
# High freq. dielectric constant tensor:
#      x y z
#    x 1.798210 0.000000 0.013940 
#    y 0.000000 1.792310 0.000000 
#    z 0.013940 0.000000 1.726790 
# 
# From -- ./inp_files/30656.got.cif
#   From: 2010.03.12/outbox.cif.g09.slc.cpg/sg5_16_cif.got.tgz:30656.got - 2010.03.31 09:47:26.
