data_PCOD8048179
_publ_section_title
;
Structure prediction by ZEFSAII (Michael W. Deem and Ramdas Pophale) SiO2 
 PCOD8048179
Probable space group: C 2
;
_chemical_formula_sum "Si O2"
_cell_formula_units_Z 28
_cell_length_a 15.213156
_cell_length_b 20.191086
_cell_length_c 14.774633
_cell_angle_alpha 90.000000
_cell_angle_beta 160.332827
_cell_angle_gamma 90.000000
_cell_volume 1527.399962
_symmetry_space_group_name_H-M "C 2"
_symmetry_group_IT_number 5
_symmetry_cell_setting 'monoclinic'
loop_
_space_group_symop_operation_xyz
x,y,z
-x,y,-z
1/2+x,1/2+y,z
1/2-x,1/2+y,-z
loop_
_atom_site_type_symbol
_atom_site_label
_atom_site_fract_x
_atom_site_fract_y
_atom_site_fract_z
Si Si1 0.000000 0.037261 0.500000
Si Si2 0.543280 0.640179 0.388054
Si Si3 0.029212 0.810166 0.812121
Si Si4 0.979704 0.292014 0.585266
Si Si5 0.438830 0.158909 0.198945
Si Si6 0.674763 0.343648 0.761817
Si Si7 0.500000 0.949998 0.000000
Si Si8 0.742757 0.198671 0.797598
O O1 0.039199 0.084119 0.622739
O O2 0.741721 0.994123 0.268235
O O3 0.553536 0.712301 0.444222
O O4 0.810994 0.619626 0.596366
O O5 0.318188 0.635385 0.098041
O O6 0.993019 0.735024 0.747554
O O7 0.031735 0.852692 0.720814
O O8 0.772784 0.829781 0.620126
O O9 0.277592 0.817741 0.119413
O O10 0.000000 0.312897 0.500000
O O11 0.367426 0.147584 0.234783
O O12 0.500000 0.351812 0.500000
O O13 0.820681 0.272114 0.909620
O O14 0.894674 0.400933 0.976514
O O15 0.500000 0.212729 0.500000
O O16 0.000000 0.167548 0.000000
#
# Coordination Sequence:
#
# PCOD8048179 Si02
#       8
#     2   4   4   4   4   4   2   4
#     4  12  24  36  52  74  98 146 186 214 248 300
#     4  10  19  34  48  68 102 138 171 212 254 292
#     4   9  20  29  51  75 100 139 179 199 255 327
#     4  10  18  32  50  76 107 138 170 207 255 318
#     4   9  18  30  48  72  99 135 170 202 249 317
#     4  10  21  36  52  72 109 145 173 218 262 299
#     4  12  24  36  52  74 102 140 188 216 246 300
#     4  10  18  29  50  76 106 138 167 197 254 320
#
# _framework density 18.331807999999999
#
# number of rings (size 3 to 8) (size 9 to 14) (size 15 to 20)
#    0.000    2.000    2.143    2.143    2.000    3.429 
#    0.000    0.000    0.000    0.000    0.000    0.000 
#    0.000   40.000    0.000    0.000    0.000    0.000 
#
# Total GULP energy -173446.774086 kJ/mol
# GULP energy per Si atom -12389.055292 kJ/mol
# Density = 1.829008 g / cm^3
# Si number density = 18.331808 Si / 1000 Ang^3
#
#
#
# Elastic Constant Matrix: (Units=GPa)
#
#
# Indices 1 2 3 4 5 6 
#
# 1 161.1255 36.2999 68.6664 -0.0009 12.1376 0.0000
# 2 36.2999 56.2313 35.1123 -0.0025 4.4238 -0.0003
# 3 68.6664 35.1123 127.9709 -0.0180 28.1944 -0.0005
# 4 -0.0009 -0.0025 -0.0180 21.2010 -0.0007 8.5407
# 5 12.1376 4.4238 28.1944 -0.0007 33.8553 0.0002
# 6 0.0000 -0.0003 -0.0005 8.5407 0.0002 12.7801
#
#
#
# Elastic Compliance Matrix: (Units=1/GPa)
#
#
# Indices 1 2 3 4 5 6 
#
# 1 0.008501 -0.003147 -0.003818 -0.000004 0.000543 0.000003
# 2 -0.003147 0.022810 -0.005097 -0.000003 0.002392 0.000002
# 3 -0.003818 -0.005097 0.013243 0.000014 -0.008994 -0.000009
# 4 -0.000004 -0.000003 0.000014 0.064543 -0.000008 -0.043133
# 5 0.000543 0.002392 -0.008994 -0.000008 0.036520 0.000004
# 6 0.000003 0.000002 -0.000009 -0.043133 0.000004 0.107071
#
#
# Mechanical properties :
#
#
# Convention : Reuss Voigt Hill
#
# Bulk Modulus (GPa) = 48.94639 69.49831 59.22235
# Shear Modulus (GPa) = 17.62913 27.25058 22.43985
#
# Velocity S-wave (km/s) = 3.10444 3.85972 3.50250
# Velocity P-wave (km/s) = 6.29351 7.60637 6.98087
#
# Compressibility (1/GPa) = 0.02043051
#
# Stress axis : x y z
#
# Youngs Moduli (GPa) = 117.62710 43.84123 75.51248
#
# Poissons Ratio (x) = 0.13796 0.28830
# Poissons Ratio (y) = 0.37015 0.38489
# Poissons Ratio (z) = 0.44908 0.22346
#
# Static dielectric constant tensor:
#      x y z
#    x 3.719400 -0.000010 0.235270 
#    y -0.000010 2.941200 0.000000 
#    z 0.235270 0.000000 3.413310 
# 
# 
# High freq. dielectric constant tensor:
#      x y z
#    x 1.722360 0.000000 0.012030 
#    y 0.000000 1.645010 0.000000 
#    z 0.012030 0.000000 1.722680 
# 
# From -- ./inp_files/54980.got.cif
#   From: 2010.03.12/outbox.cif.g09.slc.cpg/sg5_28_cif.got.tgz:54980.got - 2010.03.31 09:47:26.
