data_PCOD8048151
_publ_section_title
;
Structure prediction by ZEFSAII (Michael W. Deem and Ramdas Pophale) SiO2 
 PCOD8048151
Probable space group: C 2
;
_chemical_formula_sum "Si O2"
_cell_formula_units_Z 26
_cell_length_a 11.800834
_cell_length_b 13.660248
_cell_length_c 9.707647
_cell_angle_alpha 90.000000
_cell_angle_beta 63.006787
_cell_angle_gamma 90.000000
_cell_volume 1394.415987
_symmetry_space_group_name_H-M "C 2"
_symmetry_group_IT_number 5
_symmetry_cell_setting 'monoclinic'
loop_
_space_group_symop_operation_xyz
x,y,z
-x,y,-z
1/2+x,1/2+y,z
1/2-x,1/2+y,-z
loop_
_atom_site_type_symbol
_atom_site_label
_atom_site_fract_x
_atom_site_fract_y
_atom_site_fract_z
Si Si1 0.461638 0.652750 0.239934
Si Si2 0.645777 0.143558 0.965566
Si Si3 0.814836 0.221413 0.081749
Si Si4 0.500000 0.763908 0.500000
Si Si5 0.737732 0.925291 0.963510
Si Si6 0.518875 0.441532 0.828353
Si Si7 0.748163 0.826381 0.242095
O O1 0.337055 0.689704 0.226221
O O2 0.471009 0.699659 0.383191
O O3 0.439617 0.538264 0.275229
O O4 0.586303 0.671410 0.078900
O O5 0.730318 0.214195 0.820456
O O6 0.685931 0.029619 0.939118
O O7 0.500000 0.155011 0.000000
O O8 0.675222 0.185871 0.103653
O O9 0.837406 0.338322 0.070779
O O10 0.623970 0.830790 0.406544
O O11 0.884391 0.908731 0.840100
O O12 0.723192 0.906121 0.135187
O O13 0.625935 0.358996 0.744029
O O14 0.500000 0.464837 0.000000
#
# Coordination Sequence:
#
# PCOD8048151 Si02
#       7
#     4   4   4   2   4   4   4
#     4  11  20  37  61  82 117 158 203 242 292 365
#     4  11  20  34  59  94 120 145 204 261 295 339
#     4  10  19  36  55  88 111 154 200 243 301 334
#     4  12  22  38  56  84 130 160 206 240 298 366
#     4  10  18  32  58  87 116 146 200 255 296 341
#     4  10  17  36  63  86 110 152 205 246 300 357
#     4  10  21  36  57  86 123 165 189 248 307 359
#
# _framework density 18.645799
#
# number of rings (size 3 to 8) (size 9 to 14) (size 15 to 20)
#    0.000    1.538    6.154    3.231    2.154    0.000 
#    0.000    4.615    0.000    2.769    0.000    0.000 
#    0.000    0.000    0.000    0.000    0.000    0.000 
#
# Total GULP energy -161064.356432 kJ/mol
# GULP energy per Si atom -12389.565879 kJ/mol
# Density = 1.860336 g / cm^3
# Si number density = 18.645799 Si / 1000 Ang^3
#
#
#
# Elastic Constant Matrix: (Units=GPa)
#
#
# Indices 1 2 3 4 5 6 
#
# 1 124.7270 30.7982 43.8645 0.0000 -0.0401 0.0000
# 2 30.7982 118.2914 22.5063 0.0000 -5.4921 0.0000
# 3 43.8645 22.5063 70.4311 0.0000 -2.7070 0.0000
# 4 0.0000 0.0000 0.0000 15.4346 0.0000 -0.1640
# 5 -0.0401 -5.4921 -2.7070 0.0000 30.5424 0.0000
# 6 0.0000 0.0000 0.0000 -0.1640 0.0000 38.2409
#
#
#
# Elastic Compliance Matrix: (Units=1/GPa)
#
#
# Indices 1 2 3 4 5 6 
#
# 1 0.010561 -0.001629 -0.006088 0.000000 -0.000819 0.000000
# 2 -0.001629 0.009310 -0.001902 0.000000 0.001503 0.000000
# 3 -0.006088 -0.001902 0.018648 0.000000 0.001303 0.000000
# 4 0.000000 0.000000 0.000000 0.064793 0.000000 0.000278
# 5 -0.000819 0.001503 0.001303 0.000000 0.033126 0.000000
# 6 0.000000 0.000000 0.000000 0.000278 0.000000 0.026151
#
#
# Mechanical properties :
#
#
# Convention : Reuss Voigt Hill
#
# Bulk Modulus (GPa) = 51.87047 56.42083 54.14565
# Shear Modulus (GPa) = 26.55993 31.26227 28.91110
#
# Velocity S-wave (km/s) = 3.77828 4.09912 3.94196
# Velocity P-wave (km/s) = 6.84931 7.26145 7.05839
#
# Compressibility (1/GPa) = 0.01927879
#
# Stress axis : x y z
#
# Youngs Moduli (GPa) = 94.69161 107.41550 53.62542
#
# Poissons Ratio (x) = 0.17501 0.32647
# Poissons Ratio (y) = 0.15428 0.10202
# Poissons Ratio (z) = 0.57648 0.20435
#
# Static dielectric constant tensor:
#      x y z
#    x 3.901090 0.000000 0.039040 
#    y 0.000000 3.573700 0.000000 
#    z 0.039040 0.000000 2.975270 
# 
# 
# High freq. dielectric constant tensor:
#      x y z
#    x 1.744420 0.000000 0.001470 
#    y 0.000000 1.735110 0.000000 
#    z 0.001470 0.000000 1.656100 
# 
# From -- ./inp_files/20280.got.cif
#   From: 2010.03.12/outbox.cif.g09.slc.cpg/sg5_11_cif.got.tgz:20280.got - 2010.03.31 09:47:26.
