data_PCOD8048794
_publ_section_title
;
Structure prediction by ZEFSAII (Michael W. Deem and Ramdas Pophale) SiO2 
 PCOD8048794
Probable space group: C 2
;
_chemical_formula_sum "Si O2"
_cell_formula_units_Z 32
_cell_length_a 12.543221
_cell_length_b 11.401264
_cell_length_c 12.281737
_cell_angle_alpha 90.000000
_cell_angle_beta 65.280732
_cell_angle_gamma 90.000000
_cell_volume 1595.451128
_symmetry_space_group_name_H-M "C 2"
_symmetry_group_IT_number 5
_symmetry_cell_setting 'monoclinic'
loop_
_space_group_symop_operation_xyz
x,y,z
-x,y,-z
1/2+x,1/2+y,z
1/2-x,1/2+y,-z
loop_
_atom_site_type_symbol
_atom_site_label
_atom_site_fract_x
_atom_site_fract_y
_atom_site_fract_z
Si Si1 0.621371 0.966190 0.396798
Si Si2 0.873424 0.507425 0.012430
Si Si3 0.384607 0.265648 0.976842
Si Si4 0.138456 0.717451 0.421920
Si Si5 0.342312 0.398067 0.775788
Si Si6 0.848286 0.338349 0.837210
Si Si7 0.174124 0.234531 0.479444
Si Si8 0.435641 0.637989 0.681065
O O1 0.500000 0.005872 0.500000
O O2 0.609321 0.906831 0.286276
O O3 0.675081 0.874512 0.459477
O O4 0.683756 0.091930 0.355587
O O5 0.780179 0.461513 0.141113
O O6 0.834096 0.633381 0.979353
O O7 0.901899 0.404987 0.915974
O O8 0.000000 0.540677 0.000000
O O9 0.398068 0.324880 0.852044
O O10 0.500000 0.274348 0.000000
O O11 0.291674 0.338415 0.088360
O O12 0.181916 0.815609 0.317999
O O13 0.203291 0.720048 0.511134
O O14 0.000000 0.734663 0.500000
O O15 0.436468 0.498808 0.702537
O O16 0.898423 0.205927 0.807446
O O17 0.164440 0.167229 0.367773
O O18 0.063269 0.186611 0.594746
#
# Coordination Sequence:
#
# PCOD8048794 Si02
#       8
#     4   4   4   4   4   4   4   4
#     4  10  20  41  62  89 118 164 212 252 309 386
#     4  10  22  39  63  88 121 164 210 257 313 372
#     4  10  22  41  61  90 123 167 205 256 326 369
#     4  11  27  40  60  96 131 163 207 266 326 373
#     4  11  24  41  62  96 129 161 212 269 315 381
#     4  10  19  38  62  84 119 155 206 257 298 372
#     4  10  22  41  66  88 125 168 212 253 320 384
#     4  10  21  40  65  92 119 167 212 257 311 378
#
# _framework density 20.057023000000001
#
# number of rings (size 3 to 8) (size 9 to 14) (size 15 to 20)
#    0.000    1.750    3.750    0.750    5.250    3.000 
#    2.250    0.625    0.000    0.000    0.000    0.000 
#    0.000    0.000    0.000    0.000    0.000    0.000 
#
# Total GULP energy -198219.874939 kJ/mol
# GULP energy per Si atom -12388.742184 kJ/mol
# Density = 2.001137 g / cm^3
# Si number density = 20.057023 Si / 1000 Ang^3
#
#
#
# Elastic Constant Matrix: (Units=GPa)
#
#
# Indices 1 2 3 4 5 6 
#
# 1 86.0366 24.9900 21.3311 0.0000 7.1807 0.0000
# 2 24.9900 154.8544 45.3694 0.0000 5.6928 0.0000
# 3 21.3311 45.3694 87.2942 0.0000 -0.8429 0.0000
# 4 0.0000 0.0000 0.0000 38.7462 0.0000 -1.8999
# 5 7.1807 5.6928 -0.8429 0.0000 20.1508 0.0000
# 6 0.0000 0.0000 0.0000 -1.8999 0.0000 34.4794
#
#
#
# Elastic Compliance Matrix: (Units=1/GPa)
#
#
# Indices 1 2 3 4 5 6 
#
# 1 0.012976 -0.001169 -0.002606 0.000000 -0.004403 0.000000
# 2 -0.001169 0.007833 -0.003804 0.000000 -0.001956 0.000000
# 3 -0.002606 -0.003804 0.014094 0.000000 0.002593 0.000000
# 4 0.000000 0.000000 0.000000 0.025879 0.000000 0.001426
# 5 -0.004403 -0.001956 0.002593 0.000000 0.051856 0.000000
# 6 0.000000 0.000000 0.000000 0.001426 0.000000 0.029081
#
#
# Mechanical properties :
#
#
# Convention : Reuss Voigt Hill
#
# Bulk Modulus (GPa) = 50.64425 56.84070 53.74248
# Shear Modulus (GPa) = 30.58878 34.44159 32.51519
#
# Velocity S-wave (km/s) = 3.90948 4.14839 4.03070
# Velocity P-wave (km/s) = 6.75897 7.16565 6.96528
#
# Compressibility (1/GPa) = 0.01974558
#
# Stress axis : x y z
#
# Youngs Moduli (GPa) = 77.06552 127.66949 70.94976
#
# Poissons Ratio (x) = 0.14921 0.18489
# Poissons Ratio (y) = 0.09007 0.26991
# Poissons Ratio (z) = 0.20083 0.48568
#
# Static dielectric constant tensor:
#      x y z
#    x 2.332160 0.000000 0.114780 
#    y 0.000000 4.115180 0.000000 
#    z 0.114780 0.000000 3.679660 
# 
# 
# High freq. dielectric constant tensor:
#      x y z
#    x 1.756180 0.000000 -0.006610 
#    y 0.000000 1.807210 0.000000 
#    z -0.006610 0.000000 1.783380 
# 
# From -- ./inp_files/39418.got.cif
#   From: 2010.03.12/outbox.cif.g09.slc.cpg/sg5_20_cif.got.tgz:39418.got - 2010.03.31 09:47:26.
