data_PCOD8048906
_publ_section_title
;
Structure prediction by ZEFSAII (Michael W. Deem and Ramdas Pophale) SiO2 
 PCOD8048906
Probable space group: C 2
;
_chemical_formula_sum "Si O2"
_cell_formula_units_Z 32
_cell_length_a 25.368936
_cell_length_b 7.591104
_cell_length_c 21.660148
_cell_angle_alpha 90.000000
_cell_angle_beta 20.674009
_cell_angle_gamma 90.000000
_cell_volume 1472.669864
_symmetry_space_group_name_H-M "C 2"
_symmetry_group_IT_number 5
_symmetry_cell_setting 'monoclinic'
loop_
_space_group_symop_operation_xyz
x,y,z
-x,y,-z
1/2+x,1/2+y,z
1/2-x,1/2+y,-z
loop_
_atom_site_type_symbol
_atom_site_label
_atom_site_fract_x
_atom_site_fract_y
_atom_site_fract_z
Si Si1 0.450983 0.362970 0.614998
Si Si2 0.485073 0.113550 0.744095
Si Si3 0.321463 0.676986 0.047275
Si Si4 0.661081 0.509696 0.843544
Si Si5 0.477598 0.986585 0.167608
Si Si6 0.787948 0.767327 0.600008
Si Si7 0.754321 0.682991 0.173963
Si Si8 0.746325 0.860750 0.056016
O O1 0.500000 0.254504 0.500000
O O2 0.352443 0.233090 0.765079
O O3 0.598222 0.405427 0.493096
O O4 0.364129 0.530664 0.681521
O O5 0.626561 0.166219 0.548079
O O6 0.561961 0.097466 0.727729
O O7 0.406319 0.932553 0.807316
O O8 0.349982 0.257878 0.893360
O O9 0.364855 0.640394 0.070753
O O10 0.349621 0.515864 0.970799
O O11 0.420425 0.834956 0.914917
O O12 0.735365 0.615825 0.705500
O O13 0.756684 0.340275 0.763419
O O14 0.500000 0.438139 0.000000
O O15 0.339704 0.897551 0.284101
O O16 0.575702 0.106273 0.013110
O O17 0.704001 0.738779 0.160307
#
# Coordination Sequence:
#
# PCOD8048906 Si02
#       8
#     4   4   4   4   4   4   4   4
#     4  11  22  40  64 101 136 168 216 282 338 403
#     4  11  24  41  66  99 134 179 232 273 336 392
#     4  10  19  41  71  91 127 176 229 260 341 408
#     4  11  22  43  72  99 131 180 218 274 346 412
#     4  10  23  45  65  94 135 182 220 278 331 405
#     4  12  25  41  71 102 141 173 223 277 347 397
#     4   9  24  43  69  97 129 178 230 273 337 408
#     4  10  21  40  68  95 125 179 231 278 322 405
#
# _framework density 21.729244000000001
#
# number of rings (size 3 to 8) (size 9 to 14) (size 15 to 20)
#    0.000    1.500    3.750    0.750    3.500    3.000 
#    4.500    0.000    0.000    0.000    0.000    0.000 
#    0.000    0.000    0.000    0.000    0.000    0.000 
#
# Total GULP energy -198274.948307 kJ/mol
# GULP energy per Si atom -12392.184269 kJ/mol
# Density = 2.167979 g / cm^3
# Si number density = 21.729244 Si / 1000 Ang^3
#
#
#
# Elastic Constant Matrix: (Units=GPa)
#
#
# Indices 1 2 3 4 5 6 
#
# 1 101.5535 33.9675 59.6353 -0.0007 -2.4273 0.0003
# 2 33.9675 88.8867 40.1998 0.0034 -1.9201 0.0013
# 3 59.6353 40.1998 105.3845 -0.0053 -8.4234 0.0039
# 4 -0.0007 0.0034 -0.0053 13.6515 0.0014 -8.0825
# 5 -2.4273 -1.9201 -8.4234 0.0014 35.6846 -0.0004
# 6 0.0003 0.0013 0.0039 -8.0825 -0.0004 43.2318
#
#
#
# Elastic Compliance Matrix: (Units=1/GPa)
#
#
# Indices 1 2 3 4 5 6 
#
# 1 0.015160 -0.002296 -0.007777 -0.000001 -0.000928 0.000000
# 2 -0.002296 0.013952 -0.004052 -0.000006 -0.000362 -0.000001
# 3 -0.007777 -0.004052 0.015671 0.000006 0.002952 0.000000
# 4 -0.000001 -0.000006 0.000006 0.082369 -0.000002 0.015399
# 5 -0.000928 -0.000362 0.002952 -0.000002 0.028638 0.000000
# 6 0.000000 -0.000001 0.000000 0.015399 0.000000 0.026010
#
#
# Mechanical properties :
#
#
# Convention : Reuss Voigt Hill
#
# Bulk Modulus (GPa) = 60.48209 62.60331 61.54270
# Shear Modulus (GPa) = 23.19524 29.31507 26.25516
#
# Velocity S-wave (km/s) = 3.27076 3.67700 3.47981
# Velocity P-wave (km/s) = 6.49297 6.84838 6.67304
#
# Compressibility (1/GPa) = 0.01653382
#
# Stress axis : x y z
#
# Youngs Moduli (GPa) = 65.96455 71.67240 63.81014
#
# Poissons Ratio (x) = 0.16456 0.49625
# Poissons Ratio (y) = 0.15146 0.25855
# Poissons Ratio (z) = 0.51300 0.29041
#
# Static dielectric constant tensor:
#      x y z
#    x 3.986190 0.000000 0.022670 
#    y 0.000000 3.901840 0.000000 
#    z 0.022670 0.000000 3.779010 
# 
# 
# High freq. dielectric constant tensor:
#      x y z
#    x 1.870090 0.000000 0.004590 
#    y 0.000000 1.848250 0.000000 
#    z 0.004590 0.000000 1.839210 
# 
# From -- ./inp_files/69915.got.cif
#   From: 2010.03.12/outbox.cif.g09.slc.cpg/sg5_35_cif.got.tgz:69915.got - 2010.03.31 09:47:26.
