data_PCOD8048614
_publ_section_title
;
Structure prediction by ZEFSAII (Michael W. Deem and Ramdas Pophale) SiO2 
 PCOD8048614
Probable space group: C 2
;
_chemical_formula_sum "Si O2"
_cell_formula_units_Z 32
_cell_length_a 17.364012
_cell_length_b 9.127405
_cell_length_c 17.030257
_cell_angle_alpha 90.000000
_cell_angle_beta 31.821335
_cell_angle_gamma 90.000000
_cell_volume 1423.159249
_symmetry_space_group_name_H-M "C 2"
_symmetry_group_IT_number 5
_symmetry_cell_setting 'monoclinic'
loop_
_space_group_symop_operation_xyz
x,y,z
-x,y,-z
1/2+x,1/2+y,z
1/2-x,1/2+y,-z
loop_
_atom_site_type_symbol
_atom_site_label
_atom_site_fract_x
_atom_site_fract_y
_atom_site_fract_z
Si Si1 0.274468 0.226220 0.992753
Si Si2 0.005164 0.743734 0.082084
Si Si3 0.776334 0.870777 0.383341
Si Si4 0.358707 0.687655 0.256024
Si Si5 0.351535 0.560322 0.036664
Si Si6 0.480333 0.401202 0.706618
Si Si7 0.983255 0.243023 0.308999
Si Si8 0.129436 0.712445 0.338214
O O1 0.147386 0.305290 0.155620
O O2 0.395957 0.147696 0.943987
O O3 0.203849 0.095775 0.003291
O O4 0.345502 0.353005 0.878152
O O5 0.842971 0.767002 0.256877
O O6 0.000000 0.672698 0.000000
O O7 0.098040 0.894347 0.999323
O O8 0.607999 0.826559 0.544689
O O9 0.871166 0.843202 0.380767
O O10 0.781561 0.036088 0.349147
O O11 0.398123 0.772542 0.301101
O O12 0.244963 0.780972 0.301393
O O13 0.502484 0.658342 0.078151
O O14 0.221988 0.592407 0.210064
O O15 0.495627 0.574245 0.685464
O O16 0.448484 0.334475 0.648234
O O17 0.000000 0.634685 0.500000
#
# Coordination Sequence:
#
# PCOD8048614 Si02
#       8
#     4   4   4   4   4   4   4   4
#     4   9  18  33  57  81 110 148 190 224 277 347
#     4  10  19  35  57  80 109 144 184 232 284 334
#     4   9  18  35  57  82 110 149 194 235 285 344
#     4   9  18  33  55  82 110 148 194 239 283 335
#     4   9  18  34  55  77 108 149 185 228 280 335
#     4   9  20  37  55  82 120 157 188 232 295 350
#     4  10  19  36  59  81 114 155 194 236 286 347
#     4  11  20  31  53  85 116 144 188 242 286 330
#
# _framework density 22.485185000000001
#
# number of rings (size 3 to 8) (size 9 to 14) (size 15 to 20)
#    0.000    2.500    0.000    4.875    0.000    1.000 
#    0.000    9.375    0.000    7.500    0.000    0.000 
#    0.000    0.000    0.000    0.000    0.000    0.000 
#
# Total GULP energy -198210.393581 kJ/mol
# GULP energy per Si atom -12388.149599 kJ/mol
# Density = 2.243401 g / cm^3
# Si number density = 22.485185 Si / 1000 Ang^3
#
#
#
# Elastic Constant Matrix: (Units=GPa)
#
#
# Indices 1 2 3 4 5 6 
#
# 1 116.6403 2.6826 15.4006 0.0000 5.3730 0.0000
# 2 2.6826 30.3018 17.0428 -0.0001 3.3280 0.0000
# 3 15.4006 17.0428 177.4441 -0.0001 10.2988 0.0000
# 4 0.0000 -0.0001 -0.0001 23.9369 0.0000 -5.2720
# 5 5.3730 3.3280 10.2988 0.0000 24.1116 0.0000
# 6 0.0000 0.0000 0.0000 -5.2720 0.0000 20.9071
#
#
#
# Elastic Compliance Matrix: (Units=1/GPa)
#
#
# Indices 1 2 3 4 5 6 
#
# 1 0.008739 -0.000233 -0.000641 0.000000 -0.001642 0.000000
# 2 -0.000233 0.035178 -0.003158 0.000000 -0.003455 0.000000
# 3 -0.000641 -0.003158 0.006112 0.000000 -0.002032 0.000000
# 4 0.000000 0.000000 0.000000 0.044233 0.000000 0.011154
# 5 -0.001642 -0.003455 -0.002032 0.000000 0.043184 0.000000
# 6 0.000000 0.000000 0.000000 0.011154 0.000000 0.050643
#
#
# Mechanical properties :
#
#
# Convention : Reuss Voigt Hill
#
# Bulk Modulus (GPa) = 23.82910 43.84871 33.83890
# Shear Modulus (GPa) = 23.79347 33.07513 28.43430
#
# Velocity S-wave (km/s) = 3.25650 3.83949 3.55995
# Velocity P-wave (km/s) = 4.97599 6.26092 5.65506
#
# Compressibility (1/GPa) = 0.04196550
#
# Stress axis : x y z
#
# Youngs Moduli (GPa) = 114.43023 28.42725 163.60060
#
# Poissons Ratio (x) = 0.00662 0.10484
# Poissons Ratio (y) = 0.02666 0.51664
# Poissons Ratio (z) = 0.07333 0.08977
#
# Static dielectric constant tensor:
#      x y z
#    x 4.613120 0.000000 -0.094560 
#    y 0.000000 3.357850 0.000000 
#    z -0.094560 0.000000 4.330750 
# 
# 
# High freq. dielectric constant tensor:
#      x y z
#    x 1.893310 0.000000 -0.002750 
#    y 0.000000 1.823270 0.000000 
#    z -0.002750 0.000000 1.904860 
# 
# From -- ./inp_files/62365.got.cif
#   From: 2010.03.12/outbox.cif.g09.slc.cpg/sg5_32_cif.got.tgz:62365.got - 2010.03.31 09:47:26.
