data_PCOD8048562
_publ_section_title
;
Structure prediction by ZEFSAII (Michael W. Deem and Ramdas Pophale) SiO2 
 PCOD8048562
Probable space group: C 2
;
_chemical_formula_sum "Si O2"
_cell_formula_units_Z 24
_cell_length_a 24.553975
_cell_length_b 5.075017
_cell_length_c 11.781277
_cell_angle_alpha 90.000000
_cell_angle_beta 125.559948
_cell_angle_gamma 90.000000
_cell_volume 1194.299453
_symmetry_space_group_name_H-M "C 2"
_symmetry_group_IT_number 5
_symmetry_cell_setting 'monoclinic'
loop_
_space_group_symop_operation_xyz
x,y,z
-x,y,-z
1/2+x,1/2+y,z
1/2-x,1/2+y,-z
loop_
_atom_site_type_symbol
_atom_site_label
_atom_site_fract_x
_atom_site_fract_y
_atom_site_fract_z
Si Si1 0.199461 0.921370 0.187330
Si Si2 0.534305 0.021440 0.869431
Si Si3 0.224609 0.153259 0.906295
Si Si4 0.776163 0.252681 0.590481
Si Si5 0.600951 0.534624 0.872041
Si Si6 0.602458 0.045770 0.189510
O O1 0.249038 0.708601 0.189252
O O2 0.151521 0.790476 0.224883
O O3 0.244841 0.133837 0.311299
O O4 0.154827 0.067696 0.039294
O O5 0.569547 0.246045 0.838015
O O6 0.457992 0.111799 0.797420
O O7 0.541787 0.750208 0.808254
O O8 0.571203 0.958742 0.032242
O O9 0.145458 0.073781 0.811690
O O10 0.231147 0.419191 0.988404
O O11 0.736068 0.524510 0.518451
O O12 0.855518 0.314889 0.698116
#
# Coordination Sequence:
#
# PCOD8048562 Si02
#       6
#     4   4   4   4   4   4
#     4  10  21  36  55  80 120 149 186 235 281 336
#     4  10  21  32  57  79 119 151 176 223 286 349
#     4  10  20  32  54  80 117 155 181 226 284 348
#     4  12  24  37  55  79 117 156 199 233 275 330
#     4  10  19  34  51  85 113 150 181 216 284 354
#     4  10  21  36  54  82 115 151 186 231 286 337
#
# _framework density 20.095464
#
# number of rings (size 3 to 8) (size 9 to 14) (size 15 to 20)
#    0.000    1.667    3.333    3.000    4.667    1.333 
#    0.000    0.000    0.000    0.000    0.000    1.167 
#   10.000    0.000    0.000    0.000    0.000    0.000 
#
# Total GULP energy -148676.640887 kJ/mol
# GULP energy per Si atom -12389.720074 kJ/mol
# Density = 2.004973 g / cm^3
# Si number density = 20.095464 Si / 1000 Ang^3
#
#
#
# Elastic Constant Matrix: (Units=GPa)
#
#
# Indices 1 2 3 4 5 6 
#
# 1 149.6959 48.5119 18.9094 0.0000 11.3849 0.0000
# 2 48.5119 120.3181 27.4879 0.0000 7.1392 0.0000
# 3 18.9094 27.4879 49.4914 0.0000 10.6731 0.0000
# 4 0.0000 0.0000 0.0000 27.2140 0.0000 -3.6392
# 5 11.3849 7.1392 10.6731 0.0000 9.4406 0.0000
# 6 0.0000 0.0000 0.0000 -3.6392 0.0000 37.7180
#
#
#
# Elastic Compliance Matrix: (Units=1/GPa)
#
#
# Indices 1 2 3 4 5 6 
#
# 1 0.008190 -0.002872 0.000169 0.000000 -0.007896 0.000000
# 2 -0.002872 0.010545 -0.005008 0.000000 0.001151 0.000000
# 3 0.000169 -0.005008 0.029291 0.000000 -0.029531 0.000000
# 4 0.000000 0.000000 0.000000 0.037226 0.000000 0.003592
# 5 -0.007896 0.001151 -0.029531 0.000000 0.147963 0.000000
# 6 0.000000 0.000000 0.000000 0.003592 0.000000 0.026859
#
#
# Mechanical properties :
#
#
# Convention : Reuss Voigt Hill
#
# Bulk Modulus (GPa) = 30.67105 56.59153 43.63129
# Shear Modulus (GPa) = 17.46023 29.84761 23.65392
#
# Velocity S-wave (km/s) = 2.95085 3.85813 3.43458
# Velocity P-wave (km/s) = 5.18708 6.93321 6.12271
#
# Compressibility (1/GPa) = 0.03260404
#
# Stress axis : x y z
#
# Youngs Moduli (GPa) = 122.09704 94.83021 34.14029
#
# Poissons Ratio (x) = 0.27238 -0.00576
# Poissons Ratio (y) = 0.35070 0.17096
# Poissons Ratio (z) = -0.02061 0.47487
#
# Static dielectric constant tensor:
#      x y z
#    x 3.842960 0.000000 -0.005400 
#    y 0.000000 3.831590 0.000000 
#    z -0.005400 0.000000 3.379750 
# 
# 
# High freq. dielectric constant tensor:
#      x y z
#    x 1.779770 0.000000 0.002210 
#    y 0.000000 1.804890 0.000000 
#    z 0.002210 0.000000 1.718540 
# 
# From -- ./inp_files/46822.got.cif
#   From: 2010.03.12/outbox.cif.g09.slc.cpg/sg5_24_cif.got.tgz:46822.got - 2010.03.31 09:47:26.
