data_PCOD8048339
_publ_section_title
;
Structure prediction by ZEFSAII (Michael W. Deem and Ramdas Pophale) SiO2 
 PCOD8048339
Probable space group: C 2
;
_chemical_formula_sum "Si O2"
_cell_formula_units_Z 32
_cell_length_a 18.792369
_cell_length_b 14.261145
_cell_length_c 11.744205
_cell_angle_alpha 90.000000
_cell_angle_beta 149.808542
_cell_angle_gamma 90.000000
_cell_volume 1582.827151
_symmetry_space_group_name_H-M "C 2"
_symmetry_group_IT_number 5
_symmetry_cell_setting 'monoclinic'
loop_
_space_group_symop_operation_xyz
x,y,z
-x,y,-z
1/2+x,1/2+y,z
1/2-x,1/2+y,-z
loop_
_atom_site_type_symbol
_atom_site_label
_atom_site_fract_x
_atom_site_fract_y
_atom_site_fract_z
Si Si1 0.942970 0.421340 0.081975
Si Si2 0.878765 0.417873 0.248736
Si Si3 0.719057 0.993724 0.342048
Si Si4 0.333156 0.252766 0.019702
Si Si5 0.355290 0.318563 0.592422
Si Si6 0.661962 0.193809 0.223631
Si Si7 0.340785 0.125811 0.243255
Si Si8 0.131365 0.229064 0.116535
O O1 0.940478 0.443484 0.211249
O O2 0.087198 0.464820 0.236728
O O3 0.812394 0.470493 0.834556
O O4 0.938427 0.309591 0.058253
O O5 0.754978 0.342912 0.064411
O O6 0.819142 0.514667 0.215788
O O7 0.000000 0.377709 0.500000
O O8 0.850983 0.932228 0.572727
O O9 0.751738 0.105208 0.397082
O O10 0.283582 0.219013 0.826720
O O11 0.496434 0.280671 0.246073
O O12 0.308132 0.169629 0.074672
O O13 0.324968 0.286322 0.680287
O O14 0.231326 0.277393 0.345900
O O15 0.500000 0.158390 0.000000
O O16 0.500000 0.154763 0.500000
O O17 0.222658 0.158351 0.168775
O O18 0.000000 0.177766 0.000000
#
# Coordination Sequence:
#
# PCOD8048339 Si02
#       8
#     4   4   4   4   4   4   4   4
#     4  10  18  35  64  90 117 155 215 260 293 370
#     4  11  26  40  63  91 127 169 211 258 326 380
#     4  10  19  37  64  93 117 163 215 257 308 370
#     4  11  23  43  61  91 132 167 207 266 321 378
#     4  10  22  38  62  94 126 163 210 267 317 367
#     4  10  21  38  61  91 125 165 205 251 317 385
#     4  11  23  42  67  93 126 171 218 258 319 390
#     4  11  20  39  65  96 124 163 214 266 310 367
#
# _framework density 20.216989000000002
#
# number of rings (size 3 to 8) (size 9 to 14) (size 15 to 20)
#    0.000    1.500    6.250    0.750    3.500    0.000 
#    2.250    0.625    0.000    0.000    0.000    0.000 
#    0.000    0.000    0.000    0.000    0.000    0.000 
#
# Total GULP energy -198377.853149 kJ/mol
# GULP energy per Si atom -12398.615822 kJ/mol
# Density = 2.017097 g / cm^3
# Si number density = 20.216989 Si / 1000 Ang^3
#
#
#
# Elastic Constant Matrix: (Units=GPa)
#
#
# Indices 1 2 3 4 5 6 
#
# 1 108.2323 20.3332 28.7006 0.0000 -6.0542 0.0000
# 2 20.3332 84.8606 25.0153 0.0000 0.8666 0.0000
# 3 28.7006 25.0153 55.7858 0.0000 0.3646 0.0000
# 4 0.0000 0.0000 0.0000 28.8559 0.0000 -2.0067
# 5 -6.0542 0.8666 0.3646 0.0000 29.9941 0.0000
# 6 0.0000 0.0000 0.0000 -2.0067 0.0000 25.6720
#
#
#
# Elastic Compliance Matrix: (Units=1/GPa)
#
#
# Indices 1 2 3 4 5 6 
#
# 1 0.010943 -0.001131 -0.005138 0.000000 0.002304 0.000000
# 2 -0.001131 0.013699 -0.005557 0.000000 -0.000557 0.000000
# 3 -0.005138 -0.005557 0.023069 0.000000 -0.001157 0.000000
# 4 0.000000 0.000000 0.000000 0.034844 0.000000 0.002724
# 5 0.002304 -0.000557 -0.001157 0.000000 0.033835 0.000000
# 6 0.000000 0.000000 0.000000 0.002724 0.000000 0.039166
#
#
# Mechanical properties :
#
#
# Convention : Reuss Voigt Hill
#
# Bulk Modulus (GPa) = 41.56585 44.10854 42.83720
# Shear Modulus (GPa) = 26.70543 28.55970 27.63257
#
# Velocity S-wave (km/s) = 3.63842 3.76261 3.70104
# Velocity P-wave (km/s) = 6.18508 6.38289 6.28476
#
# Compressibility (1/GPa) = 0.02405821
#
# Stress axis : x y z
#
# Youngs Moduli (GPa) = 91.38087 72.99856 43.34902
#
# Poissons Ratio (x) = 0.08256 0.22272
# Poissons Ratio (y) = 0.10336 0.24090
# Poissons Ratio (z) = 0.46951 0.40567
#
# Static dielectric constant tensor:
#      x y z
#    x 3.743940 0.000000 -0.111920 
#    y 0.000000 3.829560 0.000000 
#    z -0.111920 0.000000 3.624790 
# 
# 
# High freq. dielectric constant tensor:
#      x y z
#    x 1.793020 0.000000 -0.011080 
#    y 0.000000 1.787120 0.000000 
#    z -0.011080 0.000000 1.771160 
# 
# From -- ./inp_files/44977.got.cif
#   From: 2010.03.12/outbox.cif.g09.slc.cpg/sg5_23_cif.got.tgz:44977.got - 2010.03.31 09:47:26.
