data_PCOD8048394
_publ_section_title
;
Structure prediction by ZEFSAII (Michael W. Deem and Ramdas Pophale) SiO2 
 PCOD8048394
Probable space group: C 2
;
_chemical_formula_sum "Si O2"
_cell_formula_units_Z 26
_cell_length_a 20.079078
_cell_length_b 7.517152
_cell_length_c 15.293342
_cell_angle_alpha 90.000000
_cell_angle_beta 148.337870
_cell_angle_gamma 90.000000
_cell_volume 1211.668098
_symmetry_space_group_name_H-M "C 2"
_symmetry_group_IT_number 5
_symmetry_cell_setting 'monoclinic'
loop_
_space_group_symop_operation_xyz
x,y,z
-x,y,-z
1/2+x,1/2+y,z
1/2-x,1/2+y,-z
loop_
_atom_site_type_symbol
_atom_site_label
_atom_site_fract_x
_atom_site_fract_y
_atom_site_fract_z
Si Si1 0.485488 0.853640 0.675210
Si Si2 0.685274 0.347462 0.563335
Si Si3 0.544903 0.532709 0.864823
Si Si4 0.737125 0.170040 0.789908
Si Si5 0.759966 0.018232 0.536812
Si Si6 0.500000 0.917453 0.500000
Si Si7 0.081608 0.747883 0.772861
O O1 0.549827 0.701492 0.804839
O O2 0.338139 0.868144 0.538607
O O3 0.499180 0.799986 0.587367
O O4 0.556674 0.042102 0.769666
O O5 0.758934 0.313973 0.736261
O O6 0.730428 0.523170 0.560514
O O7 0.534546 0.340656 0.409997
O O8 0.709559 0.204549 0.513755
O O9 0.401732 0.484352 0.733763
O O10 0.610166 0.362009 0.891325
O O11 0.628666 0.571961 0.044629
O O12 0.700315 0.263837 0.839862
O O13 0.626136 0.038346 0.634514
#
# Coordination Sequence:
#
# PCOD8048394 Si02
#       7
#     4   4   4   4   4   2   4
#     4  10  20  42  62  85 123 164 202 255 307 368
#     4  10  18  37  62  82 119 160 201 251 308 365
#     4  11  24  36  65  95 117 165 208 250 309 368
#     4  11  20  38  62  90 123 160 203 259 309 362
#     4  10  19  37  58  88 114 159 206 244 305 369
#     4  10  20  40  60  84 124 164 196 254 314 364
#     4   9  21  39  61  86 121 162 203 249 309 368
#
# _framework density 21.458023000000001
#
# number of rings (size 3 to 8) (size 9 to 14) (size 15 to 20)
#    0.000    1.846    6.154    0.000    4.308    0.615 
#    5.538    0.000    3.385    0.000    0.000    0.000 
#    0.000    0.000    0.000    0.000    0.000    0.000 
#
# Total GULP energy -161076.134079 kJ/mol
# GULP energy per Si atom -12390.471852 kJ/mol
# Density = 2.140918 g / cm^3
# Si number density = 21.458023 Si / 1000 Ang^3
#
#
#
# Elastic Constant Matrix: (Units=GPa)
#
#
# Indices 1 2 3 4 5 6 
#
# 1 82.0517 14.3916 33.9304 0.0000 7.3698 0.0000
# 2 14.3916 61.2156 18.6936 0.0000 -4.1935 0.0000
# 3 33.9304 18.6936 113.9805 0.0000 -3.6687 0.0000
# 4 0.0000 0.0000 0.0000 27.1998 0.0000 -12.8806
# 5 7.3698 -4.1935 -3.6687 0.0000 19.2266 0.0000
# 6 0.0000 0.0000 0.0000 -12.8806 0.0000 32.3265
#
#
#
# Elastic Compliance Matrix: (Units=1/GPa)
#
#
# Indices 1 2 3 4 5 6 
#
# 1 0.015079 -0.002733 -0.004272 0.000000 -0.007191 0.000000
# 2 -0.002733 0.017894 -0.001974 0.000000 0.004574 0.000000
# 3 -0.004272 -0.001974 0.010472 0.000000 0.003205 0.000000
# 4 0.000000 0.000000 0.000000 0.045316 0.000000 0.018056
# 5 -0.007191 0.004574 0.003205 0.000000 0.056377 0.000000
# 6 0.000000 0.000000 0.000000 0.018056 0.000000 0.038129
#
#
# Mechanical properties :
#
#
# Convention : Reuss Voigt Hill
#
# Bulk Modulus (GPa) = 39.23516 43.47546 41.35531
# Shear Modulus (GPa) = 23.84114 28.43274 26.13694
#
# Velocity S-wave (km/s) = 3.33687 3.64406 3.49384
# Velocity P-wave (km/s) = 5.75939 6.16524 5.96577
#
# Compressibility (1/GPa) = 0.02548735
#
# Stress axis : x y z
#
# Youngs Moduli (GPa) = 66.31570 55.88343 95.49192
#
# Poissons Ratio (x) = 0.15274 0.40795
# Poissons Ratio (y) = 0.18125 0.18850
# Poissons Ratio (z) = 0.28331 0.11031
#
# Static dielectric constant tensor:
#      x y z
#    x 4.168720 0.000000 0.113910 
#    y 0.000000 3.796020 0.000000 
#    z 0.113910 0.000000 3.647850 
# 
# 
# High freq. dielectric constant tensor:
#      x y z
#    x 1.851270 0.000000 0.011970 
#    y 0.000000 1.821510 0.000000 
#    z 0.011970 0.000000 1.818850 
# 
# From -- ./inp_files/41816.got.cif
#   From: 2010.03.12/outbox.cif.g09.slc.cpg/sg5_21_cif.got.tgz:41816.got - 2010.03.31 09:47:26.
