data_PCOD8048714
_publ_section_title
;
Structure prediction by ZEFSAII (Michael W. Deem and Ramdas Pophale) SiO2 
 PCOD8048714
Probable space group: C 2
;
_chemical_formula_sum "Si O2"
_cell_formula_units_Z 28
_cell_length_a 20.379704
_cell_length_b 14.008943
_cell_length_c 8.667587
_cell_angle_alpha 90.000000
_cell_angle_beta 147.949619
_cell_angle_gamma 90.000000
_cell_volume 1313.172254
_symmetry_space_group_name_H-M "C 2"
_symmetry_group_IT_number 5
_symmetry_cell_setting 'monoclinic'
loop_
_space_group_symop_operation_xyz
x,y,z
-x,y,-z
1/2+x,1/2+y,z
1/2-x,1/2+y,-z
loop_
_atom_site_type_symbol
_atom_site_label
_atom_site_fract_x
_atom_site_fract_y
_atom_site_fract_z
Si Si1 0.699077 0.164260 0.630217
Si Si2 0.133512 0.483117 0.697061
Si Si3 0.012065 0.819003 0.346644
Si Si4 0.654157 0.513011 0.652950
Si Si5 0.237357 0.307813 0.736293
Si Si6 0.142247 0.146914 0.341396
Si Si7 0.629375 0.696201 0.777465
O O1 0.641815 0.083977 0.626942
O O2 0.598990 0.248789 0.419698
O O3 0.749586 0.126797 0.568032
O O4 0.825743 0.204131 0.958396
O O5 0.168272 0.406367 0.635099
O O6 0.000000 0.465703 0.500000
O O7 0.219432 0.473791 0.020000
O O8 0.000000 0.783635 0.500000
O O9 0.061335 0.926351 0.443411
O O10 0.882615 0.823259 0.995982
O O11 0.671607 0.565458 0.524445
O O12 0.600470 0.587713 0.669291
O O13 0.166896 0.253520 0.457039
O O14 0.235264 0.241301 0.883417
O O15 0.000000 0.139669 0.000000
O O16 0.500000 0.753616 0.500000
#
# Coordination Sequence:
#
# PCOD8048714 Si02
#       7
#     4   4   4   4   4   4   4
#     4  11  24  40  64  99 141 180 213 280 346 403
#     4  11  24  42  71 103 137 174 236 288 340 390
#     4  12  22  42  71 104 133 170 237 289 332 400
#     4  10  23  41  70 100 133 177 233 284 334 393
#     4  11  24  42  70  99 134 179 230 283 339 394
#     4  11  27  47  67  99 145 183 224 272 348 420
#     4  10  19  36  66  96 129 175 231 282 327 385
#
# _framework density 21.322413000000001
#
# number of rings (size 3 to 8) (size 9 to 14) (size 15 to 20)
#    0.000    1.143    2.857    3.000    8.000    2.857 
#    0.000    0.000    0.000    0.000    0.000    0.000 
#    0.000    0.000    0.000    0.000    0.000    0.000 
#
# Total GULP energy -173522.512767 kJ/mol
# GULP energy per Si atom -12394.465198 kJ/mol
# Density = 2.127388 g / cm^3
# Si number density = 21.322413 Si / 1000 Ang^3
#
#
#
# Elastic Constant Matrix: (Units=GPa)
#
#
# Indices 1 2 3 4 5 6 
#
# 1 97.6414 20.0694 44.6701 0.0000 12.1718 0.0000
# 2 20.0694 98.1581 32.6559 0.0000 11.9192 0.0000
# 3 44.6701 32.6559 102.3557 0.0000 15.5334 0.0000
# 4 0.0000 0.0000 0.0000 32.0508 0.0000 0.1467
# 5 12.1718 11.9192 15.5334 0.0000 37.7570 0.0000
# 6 0.0000 0.0000 0.0000 0.1467 0.0000 22.8709
#
#
#
# Elastic Compliance Matrix: (Units=1/GPa)
#
#
# Indices 1 2 3 4 5 6 
#
# 1 0.012976 -0.000715 -0.005156 0.000000 -0.001836 0.000000
# 2 -0.000715 0.011617 -0.003064 0.000000 -0.002176 0.000000
# 3 -0.005156 -0.003064 0.013438 0.000000 -0.002899 0.000000
# 4 0.000000 0.000000 0.000000 0.031201 0.000000 -0.000200
# 5 -0.001836 -0.002176 -0.002899 0.000000 0.028957 0.000000
# 6 0.000000 0.000000 0.000000 -0.000200 0.000000 0.043725
#
#
# Mechanical properties :
#
#
# Convention : Reuss Voigt Hill
#
# Bulk Modulus (GPa) = 49.60134 54.77178 52.18656
# Shear Modulus (GPa) = 30.02897 31.91974 30.97435
#
# Velocity S-wave (km/s) = 3.75684 3.87331 3.81552
# Velocity P-wave (km/s) = 6.49088 6.76362 6.62865
#
# Compressibility (1/GPa) = 0.02016075
#
# Stress axis : x y z
#
# Youngs Moduli (GPa) = 77.06298 86.07712 74.41704
#
# Poissons Ratio (x) = 0.06152 0.38373
# Poissons Ratio (y) = 0.05508 0.22803
# Poissons Ratio (z) = 0.39737 0.26376
#
# Static dielectric constant tensor:
#      x y z
#    x 3.777110 0.000000 0.096320 
#    y 0.000000 3.905660 0.000000 
#    z 0.096320 0.000000 3.983670 
# 
# 
# High freq. dielectric constant tensor:
#      x y z
#    x 1.827650 0.000000 0.014910 
#    y 0.000000 1.840610 0.000000 
#    z 0.014910 0.000000 1.840750 
# 
# From -- ./inp_files/29925.got.cif
#   From: 2010.03.12/outbox.cif.g09.slc.cpg/sg5_15_cif.got.tgz:29925.got - 2010.03.31 09:47:26.
