data_PCOD8048337
_publ_section_title
;
Structure prediction by ZEFSAII (Michael W. Deem and Ramdas Pophale) SiO2 
 PCOD8048337
Probable space group: C 2
;
_chemical_formula_sum "Si O2"
_cell_formula_units_Z 30
_cell_length_a 17.220971
_cell_length_b 9.183381
_cell_length_c 10.577721
_cell_angle_alpha 90.000000
_cell_angle_beta 55.546165
_cell_angle_gamma 90.000000
_cell_volume 1379.387703
_symmetry_space_group_name_H-M "C 2"
_symmetry_group_IT_number 5
_symmetry_cell_setting 'monoclinic'
loop_
_space_group_symop_operation_xyz
x,y,z
-x,y,-z
1/2+x,1/2+y,z
1/2-x,1/2+y,-z
loop_
_atom_site_type_symbol
_atom_site_label
_atom_site_fract_x
_atom_site_fract_y
_atom_site_fract_z
Si Si1 0.856854 0.845860 0.220594
Si Si2 0.286293 0.415513 0.554459
Si Si3 0.000000 0.077609 0.000000
Si Si4 0.409591 0.041803 0.259742
Si Si5 0.951524 0.301685 0.848631
Si Si6 0.323364 0.886835 0.753560
Si Si7 0.576026 0.669122 0.519437
Si Si8 0.896263 0.654523 0.553945
O O1 0.791874 0.865051 0.403972
O O2 0.909968 0.690915 0.178201
O O3 0.787579 0.852883 0.162829
O O4 0.933237 0.974511 0.145316
O O5 0.179139 0.440273 0.695470
O O6 0.338579 0.567998 0.520433
O O7 0.331656 0.297116 0.604823
O O8 0.065589 0.182095 0.026310
O O9 0.403233 0.073781 0.414117
O O10 0.504538 0.952890 0.138436
O O11 0.853440 0.338071 0.867602
O O12 0.030203 0.232599 0.686654
O O13 0.387377 0.803343 0.595132
O O14 0.346924 0.055955 0.706740
O O15 0.500000 0.584985 0.500000
O O16 0.000000 0.702990 0.500000
#
# Coordination Sequence:
#
# PCOD8048337 Si02
#       8
#     4   4   2   4   4   4   4   4
#     4  11  24  41  63  92 132 168 214 258 312 381
#     4  11  21  33  63 102 132 159 199 262 330 385
#     4  12  28  46  66  86 122 186 226 256 292 382
#     4  11  22  38  64  98 131 161 201 270 330 374
#     4  11  23  42  65  92 126 171 216 251 319 380
#     4  11  20  40  67  95 128 159 199 274 333 372
#     4  10  18  35  62  98 131 155 196 265 330 376
#     4  11  20  34  58 102 136 158 187 254 345 388
#
# _framework density 21.748781000000001
#
# number of rings (size 3 to 8) (size 9 to 14) (size 15 to 20)
#    0.000    1.067    6.667    0.800    3.733    0.533 
#    0.000    2.667    0.000    0.000    0.000    0.000 
#    0.000    0.000    0.000    0.000    0.000    0.000 
#
# Total GULP energy -186022.898509 kJ/mol
# GULP energy per Si atom -12401.526567 kJ/mol
# Density = 2.169928 g / cm^3
# Si number density = 21.748781 Si / 1000 Ang^3
#
#
#
# Elastic Constant Matrix: (Units=GPa)
#
#
# Indices 1 2 3 4 5 6 
#
# 1 149.6855 57.3088 5.8812 0.0000 10.5546 0.0000
# 2 57.3088 129.8799 21.5944 0.0000 11.3319 0.0000
# 3 5.8812 21.5944 20.5941 0.0000 8.4244 0.0000
# 4 0.0000 0.0000 0.0000 21.0825 0.0000 2.1951
# 5 10.5546 11.3319 8.4244 0.0000 18.8782 0.0000
# 6 0.0000 0.0000 0.0000 2.1951 0.0000 38.9494
#
#
#
# Elastic Compliance Matrix: (Units=1/GPa)
#
#
# Indices 1 2 3 4 5 6 
#
# 1 0.008301 -0.003871 0.003225 0.000000 -0.003757 0.000000
# 2 -0.003871 0.011166 -0.010699 0.000000 0.000237 0.000000
# 3 0.003225 -0.010699 0.069687 0.000000 -0.026479 0.000000
# 4 0.000000 0.000000 0.000000 0.047713 0.000000 -0.002689
# 5 -0.003757 0.000237 -0.026479 0.000000 0.066746 0.000000
# 6 0.000000 0.000000 0.000000 -0.002689 0.000000 0.025826
#
#
# Mechanical properties :
#
#
# Convention : Reuss Voigt Hill
#
# Bulk Modulus (GPa) = 15.04584 52.19200 33.61892
# Shear Modulus (GPa) = 18.22933 30.14037 24.18485
#
# Velocity S-wave (km/s) = 2.89827 3.72673 3.33830
# Velocity P-wave (km/s) = 4.25828 6.52440 5.50912
#
# Compressibility (1/GPa) = 0.06646354
#
# Stress axis : x y z
#
# Youngs Moduli (GPa) = 120.46750 89.55836 14.34983
#
# Poissons Ratio (x) = 0.34671 -0.04628
# Poissons Ratio (y) = 0.46636 0.15354
# Poissons Ratio (z) = -0.38856 0.95822
#
# Static dielectric constant tensor:
#      x y z
#    x 4.318620 0.000000 0.173280 
#    y 0.000000 4.051230 0.000000 
#    z 0.173280 0.000000 3.356290 
# 
# 
# High freq. dielectric constant tensor:
#      x y z
#    x 1.870900 0.000000 0.005630 
#    y 0.000000 1.865950 0.000000 
#    z 0.005630 0.000000 1.803690 
# 
# From -- ./inp_files/44303.got.cif
#   From: 2010.03.12/outbox.cif.g09.slc.cpg/sg5_23_cif.got.tgz:44303.got - 2010.03.31 09:47:26.
