data_PCOD8048759
_publ_section_title
;
Structure prediction by ZEFSAII (Michael W. Deem and Ramdas Pophale) SiO2 
 PCOD8048759
Probable space group: C 2
;
_chemical_formula_sum "Si O2"
_cell_formula_units_Z 24
_cell_length_a 8.016317
_cell_length_b 14.001275
_cell_length_c 9.383404
_cell_angle_alpha 90.000000
_cell_angle_beta 104.460542
_cell_angle_gamma 90.000000
_cell_volume 1019.815748
_symmetry_space_group_name_H-M "C 2"
_symmetry_group_IT_number 5
_symmetry_cell_setting 'monoclinic'
loop_
_space_group_symop_operation_xyz
x,y,z
-x,y,-z
1/2+x,1/2+y,z
1/2-x,1/2+y,-z
loop_
_atom_site_type_symbol
_atom_site_label
_atom_site_fract_x
_atom_site_fract_y
_atom_site_fract_z
Si Si1 0.643749 0.825550 0.744403
Si Si2 0.184402 0.027225 0.575466
Si Si3 0.218684 0.623317 0.668626
Si Si4 0.760228 0.321633 0.549567
Si Si5 0.616440 0.620556 0.833385
Si Si6 0.852359 0.518249 0.087446
O O1 0.453210 0.834637 0.643665
O O2 0.760467 0.815101 0.626728
O O3 0.664324 0.732811 0.849287
O O4 0.693386 0.915017 0.854933
O O5 0.160576 0.913901 0.585181
O O6 0.000000 0.075567 0.500000
O O7 0.315381 0.055958 0.476888
O O8 0.235817 0.072331 0.736647
O O9 0.175959 0.730732 0.610503
O O10 0.413814 0.607577 0.765435
O O11 0.092073 0.587211 0.767900
O O12 0.678293 0.566684 0.988774
O O13 0.000000 0.510607 0.000000
#
# Coordination Sequence:
#
# PCOD8048759 Si02
#       6
#     4   4   4   4   4   4
#     4  10  21  39  67  89 121 170 215 257 306 375
#     4  10  19  37  63  95 124 160 214 266 311 360
#     4  10  21  41  67  90 122 172 216 252 307 377
#     4  10  19  39  67  95 119 163 220 263 303 370
#     4  10  22  41  65  89 128 170 212 256 308 390
#     4  12  25  41  59  99 135 164 202 260 329 373
#
# _framework density 23.533660000000001
#
# number of rings (size 3 to 8) (size 9 to 14) (size 15 to 20)
#    0.000    1.667    3.333    1.500    0.000    4.000 
#    3.000    1.667    0.000    0.000    0.000    0.000 
#    0.000    0.000    0.000    0.000    0.000    0.000 
#
# Total GULP energy -148714.376100 kJ/mol
# GULP energy per Si atom -12392.864675 kJ/mol
# Density = 2.348010 g / cm^3
# Si number density = 23.533660 Si / 1000 Ang^3
#
#
#
# Elastic Constant Matrix: (Units=GPa)
#
#
# Indices 1 2 3 4 5 6 
#
# 1 28.5359 8.7489 20.5845 0.0000 -15.5692 0.0000
# 2 8.7489 186.6454 75.6446 0.0000 -15.9622 0.0000
# 3 20.5845 75.6446 144.8119 0.0000 -28.9709 0.0000
# 4 0.0000 0.0000 0.0000 52.7787 0.0000 -1.6336
# 5 -15.5692 -15.9622 -28.9709 0.0000 37.0726 0.0000
# 6 0.0000 0.0000 0.0000 -1.6336 0.0000 23.1098
#
#
#
# Elastic Compliance Matrix: (Units=1/GPa)
#
#
# Indices 1 2 3 4 5 6 
#
# 1 0.046770 0.000734 -0.003602 0.000000 0.017143 0.000000
# 2 0.000734 0.006809 -0.003571 0.000000 0.000449 0.000000
# 3 -0.003602 -0.003571 0.010280 0.000000 0.004983 0.000000
# 4 0.000000 0.000000 0.000000 0.018989 0.000000 0.001342
# 5 0.017143 0.000449 0.004983 0.000000 0.038261 0.000000
# 6 0.000000 0.000000 0.000000 0.001342 0.000000 0.043366
#
#
# Mechanical properties :
#
#
# Convention : Reuss Voigt Hill
#
# Bulk Modulus (GPa) = 19.61547 63.32768 41.47158
# Shear Modulus (GPa) = 25.72706 39.59324 32.66015
#
# Velocity S-wave (km/s) = 3.30995 4.10617 3.72937
# Velocity P-wave (km/s) = 4.79175 7.03197 6.01704
#
# Compressibility (1/GPa) = 0.05098016
#
# Stress axis : x y z
#
# Youngs Moduli (GPa) = 21.38113 146.86090 97.27704
#
# Poissons Ratio (x) = -0.10772 0.35037
# Poissons Ratio (y) = -0.01568 0.34741
# Poissons Ratio (z) = 0.07701 0.52448
#
# Static dielectric constant tensor:
#      x y z
#    x 3.811400 0.000000 -0.198910 
#    y 0.000000 4.297380 0.000000 
#    z -0.198910 0.000000 4.624830 
# 
# 
# High freq. dielectric constant tensor:
#      x y z
#    x 1.908690 0.000000 -0.011360 
#    y 0.000000 1.936960 0.000000 
#    z -0.011360 0.000000 1.941220 
# 
# From -- ./inp_files/14947.got.cif
#   From: 2010.03.12/outbox.cif.g09.slc.cpg/sg5_8_cif.got.tgz:14947.got - 2010.03.31 09:47:26.
