data_PCOD8048868
_publ_section_title
;
Structure prediction by ZEFSAII (Michael W. Deem and Ramdas Pophale) SiO2 
 PCOD8048868
Probable space group: C 2
;
_chemical_formula_sum "Si O2"
_cell_formula_units_Z 30
_cell_length_a 10.316921
_cell_length_b 9.298998
_cell_length_c 27.127754
_cell_angle_alpha 90.000000
_cell_angle_beta 145.935064
_cell_angle_gamma 90.000000
_cell_volume 1457.775289
_symmetry_space_group_name_H-M "C 2"
_symmetry_group_IT_number 5
_symmetry_cell_setting 'monoclinic'
loop_
_space_group_symop_operation_xyz
x,y,z
-x,y,-z
1/2+x,1/2+y,z
1/2-x,1/2+y,-z
loop_
_atom_site_type_symbol
_atom_site_label
_atom_site_fract_x
_atom_site_fract_y
_atom_site_fract_z
Si Si1 0.734727 0.079440 0.823880
Si Si2 0.500000 0.388886 0.500000
Si Si3 0.473987 0.643736 0.387703
Si Si4 0.864257 0.829753 0.552141
Si Si5 0.853293 0.899933 0.083495
Si Si6 0.641392 0.902006 0.118596
Si Si7 0.127775 0.596675 0.366249
Si Si8 0.089829 0.614080 0.190657
O O1 0.757450 0.250144 0.832898
O O2 0.603214 0.035253 0.731794
O O3 0.587594 0.035412 0.826559
O O4 0.982230 0.002950 0.897274
O O5 0.553695 0.302227 0.567282
O O6 0.271271 0.481655 0.443774
O O7 0.627863 0.781103 0.450523
O O8 0.625985 0.497455 0.428731
O O9 0.299174 0.639294 0.377312
O O10 0.322978 0.670025 0.291013
O O11 0.935310 0.734060 0.620664
O O12 0.788124 0.960727 0.117517
O O13 0.967475 0.744513 0.124373
O O14 0.624933 0.881860 0.979231
O O15 0.671298 0.005295 0.174279
#
# Coordination Sequence:
#
# PCOD8048868 Si02
#       8
#     4   2   4   4   4   4   4   4
#     4  10  22  38  64  89 115 165 198 241 299 358
#     4  10  22  36  54  84 116 154 190 254 286 336
#     4  10  22  37  62  84 117 157 197 247 293 342
#     4  11  19  39  56  81 116 158 192 241 293 341
#     4  10  22  38  62  87 120 160 194 244 304 359
#     4  10  21  41  58  88 126 151 196 251 298 354
#     4  10  19  40  60  80 120 154 195 241 293 339
#     4  10  22  40  60  91 121 152 202 250 292 354
#
# _framework density 20.579301999999998
#
# number of rings (size 3 to 8) (size 9 to 14) (size 15 to 20)
#    0.000    1.867    2.667    1.600    1.867    2.667 
#    4.800    0.000    0.000    0.000    0.000    0.000 
#    0.000    0.000    0.000    0.000    0.000    0.000 
#
# Total GULP energy -185833.219201 kJ/mol
# GULP energy per Si atom -12388.881280 kJ/mol
# Density = 2.053246 g / cm^3
# Si number density = 20.579302 Si / 1000 Ang^3
#
#
#
# Elastic Constant Matrix: (Units=GPa)
#
#
# Indices 1 2 3 4 5 6 
#
# 1 72.4987 28.0272 13.3623 0.0000 -6.4734 0.0000
# 2 28.0272 45.9346 9.3557 0.0000 -1.6105 0.0000
# 3 13.3623 9.3557 80.0333 0.0000 -3.5481 0.0000
# 4 0.0000 0.0000 0.0000 18.6454 0.0000 -5.7203
# 5 -6.4734 -1.6105 -3.5481 0.0000 29.5455 0.0000
# 6 0.0000 0.0000 0.0000 -5.7203 0.0000 27.6992
#
#
#
# Elastic Compliance Matrix: (Units=1/GPa)
#
#
# Indices 1 2 3 4 5 6 
#
# 1 0.018610 -0.010896 -0.001688 0.000000 0.003281 0.000000
# 2 -0.010896 0.028705 -0.001581 0.000000 -0.001012 0.000000
# 3 -0.001688 -0.001581 0.013010 0.000000 0.001106 0.000000
# 4 0.000000 0.000000 0.000000 0.057260 0.000000 0.011825
# 5 0.003281 -0.001012 0.001106 0.000000 0.034643 0.000000
# 6 0.000000 0.000000 0.000000 0.011825 0.000000 0.038544
#
#
# Mechanical properties :
#
#
# Convention : Reuss Voigt Hill
#
# Bulk Modulus (GPa) = 31.25503 33.32855 32.29179
# Shear Modulus (GPa) = 21.76115 25.02612 23.39363
#
# Velocity S-wave (km/s) = 3.25534 3.49102 3.37524
# Velocity P-wave (km/s) = 5.41759 5.69912 5.56013
#
# Compressibility (1/GPa) = 0.03199485
#
# Stress axis : x y z
#
# Youngs Moduli (GPa) = 53.73557 34.83727 76.86100
#
# Poissons Ratio (x) = 0.37959 0.12973
# Poissons Ratio (y) = 0.58550 0.12153
# Poissons Ratio (z) = 0.09070 0.05509
#
# Static dielectric constant tensor:
#      x y z
#    x 4.003330 0.000000 0.011050 
#    y 0.000000 3.610720 0.000000 
#    z 0.011050 0.000000 4.165720 
# 
# 
# High freq. dielectric constant tensor:
#      x y z
#    x 1.810980 0.000000 -0.011990 
#    y 0.000000 1.783820 0.000000 
#    z -0.011990 0.000000 1.817190 
# 
# From -- ./inp_files/71713.got.cif
#   From: 2010.03.12/outbox.cif.g09.slc.cpg/sg5_36_cif.got.tgz:71713.got - 2010.03.31 09:47:26.
