data_PCOD8048011
_publ_section_title
;
Structure prediction by ZEFSAII (Michael W. Deem and Ramdas Pophale) SiO2 
 PCOD8048011
Probable space group: P 21
;
_chemical_formula_sum "Si O2"
_cell_formula_units_Z 16
_cell_length_a 9.931539
_cell_length_b 5.403257
_cell_length_c 14.450478
_cell_angle_alpha 90.000000
_cell_angle_beta 50.056135
_cell_angle_gamma 90.000000
_cell_volume 594.518037
_symmetry_space_group_name_H-M "P 21"
_symmetry_group_IT_number 4
_symmetry_cell_setting 'monoclinic'
loop_
_space_group_symop_operation_xyz
x,y,z
-x,1/2+y,-z
loop_
_atom_site_type_symbol
_atom_site_label
_atom_site_fract_x
_atom_site_fract_y
_atom_site_fract_z
Si Si1 0.554876 0.443070 0.600366
Si Si2 0.040169 0.356867 0.203296
Si Si3 0.432734 0.491893 0.987397
Si Si4 0.080194 0.757019 0.931124
Si Si5 0.971411 0.989411 0.389857
Si Si6 0.256631 0.204528 0.635049
Si Si7 0.471729 0.770165 0.793827
Si Si8 0.773280 0.136125 0.645140
O O1 0.371339 0.296991 0.670846
O O2 0.634149 0.487186 0.463855
O O3 0.515281 0.699253 0.669426
O O4 0.695214 0.305067 0.599580
O O5 0.234736 0.407587 0.084975
O O6 0.942004 0.187931 0.168631
O O7 0.931537 0.611046 0.247801
O O8 0.041271 0.236533 0.306395
O O9 0.548805 0.264567 0.973864
O O10 0.486677 0.533199 0.855922
O O11 0.270330 0.861353 0.880447
O O12 0.044711 0.496023 0.997421
O O13 0.131183 0.788123 0.314438
O O14 0.790462 0.917120 0.418091
O O15 0.926573 0.995038 0.519642
O O16 0.617237 0.973347 0.760943
#
# Coordination Sequence:
#
# PCOD8048011 Si02
#       8
#     2   2   2   2   2   2   2   2
#     4  12  27  48  79 123 167 220 275 348 430 511
#     4  12  30  53  83 119 164 220 284 350 429 509
#     4  12  34  56  82 120 170 228 288 354 422 504
#     4  12  30  56  84 120 164 220 286 358 424 500
#     4  12  28  50  80 123 170 221 278 349 433 516
#     4  12  27  48  79 123 167 220 275 348 430 511
#     4  12  30  53  83 119 164 220 284 350 429 509
#     4  12  28  50  80 123 170 221 278 349 433 516
#
# _framework density 26.912557
#
# number of rings (size 3 to 8) (size 9 to 14) (size 15 to 20)
#    0.000    0.000    3.750    3.000   15.750    0.000 
#    0.000    0.000    0.000    0.000    0.000    0.000 
#    0.000    0.000    0.000    0.000    0.000    0.000 
#
# Total GULP energy -198368.304611 kJ/mol
# GULP energy per Si atom -12398.019038 kJ/mol
# Density = 2.685130 g / cm^3
# Si number density = 26.912557 Si / 1000 Ang^3
#
#
#
# Elastic Constant Matrix: (Units=GPa)
#
#
# Indices 1 2 3 4 5 6 
#
# 1 133.6858 18.1388 18.1038 0.0000 -15.6390 0.0000
# 2 18.1388 92.3897 11.8378 0.0000 -13.8332 0.0000
# 3 18.1038 11.8378 50.6722 0.0000 -4.5855 0.0000
# 4 0.0000 0.0000 0.0000 29.7612 0.0000 -5.2708
# 5 -15.6390 -13.8332 -4.5855 0.0000 44.9556 0.0000
# 6 0.0000 0.0000 0.0000 -5.2708 0.0000 51.5275
#
#
#
# Elastic Compliance Matrix: (Units=1/GPa)
#
#
# Indices 1 2 3 4 5 6 
#
# 1 0.008218 -0.000946 -0.002506 0.000000 0.002312 0.000000
# 2 -0.000946 0.011741 -0.002127 0.000000 0.003067 0.000000
# 3 -0.002506 -0.002127 0.021184 0.000000 0.000634 0.000000
# 4 0.000000 0.000000 0.000000 0.034221 0.000000 0.003500
# 5 0.002312 0.003067 0.000634 0.000000 0.024057 0.000000
# 6 0.000000 0.000000 0.000000 0.003500 0.000000 0.019765
#
#
# Mechanical properties :
#
#
# Convention : Reuss Voigt Hill
#
# Bulk Modulus (GPa) = 33.34999 41.43429 37.39214
# Shear Modulus (GPa) = 35.62751 40.49334 38.06043
#
# Velocity S-wave (km/s) = 3.64239 3.88316 3.76470
# Velocity P-wave (km/s) = 5.48709 5.96109 5.72899
#
# Compressibility (1/GPa) = 0.02998502
#
# Stress axis : x y z
#
# Youngs Moduli (GPa) = 121.67725 85.16992 47.20460
#
# Poissons Ratio (x) = 0.08059 0.11829
# Poissons Ratio (y) = 0.11514 0.10042
# Poissons Ratio (z) = 0.30492 0.18119
#
# Static dielectric constant tensor:
#      x y z
#    x 5.206470 0.000000 0.207550 
#    y 0.000000 4.728340 0.000000 
#    z 0.207550 0.000000 5.161980 
# 
# 
# High freq. dielectric constant tensor:
#      x y z
#    x 2.104170 0.000000 -0.004620 
#    y 0.000000 2.071780 0.000000 
#    z -0.004620 0.000000 2.085410 
# 
# From -- ./inp_files/13581.got.cif
#   From: 2010.03.12/outbox.cif.g09.slc.cpg/sg4_7_cif.got.tgz:13581.got - 2010.03.31 09:31:35.
