data_PCOD8048846
_publ_section_title
;
Structure prediction by ZEFSAII (Michael W. Deem and Ramdas Pophale) SiO2 
 PCOD8048846
Probable space group: C 2
;
_chemical_formula_sum "Si O2"
_cell_formula_units_Z 30
_cell_length_a 13.752832
_cell_length_b 14.050655
_cell_length_c 15.327680
_cell_angle_alpha 90.000000
_cell_angle_beta 150.558560
_cell_angle_gamma 90.000000
_cell_volume 1455.856165
_symmetry_space_group_name_H-M "C 2"
_symmetry_group_IT_number 5
_symmetry_cell_setting 'monoclinic'
loop_
_space_group_symop_operation_xyz
x,y,z
-x,y,-z
1/2+x,1/2+y,z
1/2-x,1/2+y,-z
loop_
_atom_site_type_symbol
_atom_site_label
_atom_site_fract_x
_atom_site_fract_y
_atom_site_fract_z
Si Si1 0.225309 0.061370 0.872458
Si Si2 0.890593 0.395680 0.701402
Si Si3 0.646288 0.412467 0.940127
Si Si4 0.405813 0.107209 0.726864
Si Si5 0.561032 0.287209 0.351721
Si Si6 0.500000 0.352955 0.000000
Si Si7 0.711244 0.872127 0.185381
Si Si8 0.825707 0.205720 0.311905
O O1 0.117732 0.143610 0.731163
O O2 0.295253 0.976027 0.864298
O O3 0.404304 0.111445 0.061880
O O4 0.097964 0.011031 0.850435
O O5 0.865442 0.504832 0.652110
O O6 0.779636 0.326788 0.546715
O O7 0.771244 0.381837 0.697732
O O8 0.125880 0.376346 0.893183
O O9 0.504898 0.331625 0.791588
O O10 0.590471 0.423126 0.997730
O O11 0.422581 0.175413 0.655492
O O12 0.233219 0.131593 0.658730
O O13 0.395221 0.309225 0.295273
O O14 0.330290 0.285742 0.831340
O O15 0.500000 0.821536 0.000000
O O16 0.000000 0.260153 0.500000
#
# Coordination Sequence:
#
# PCOD8048846 Si02
#       8
#     4   4   4   4   4   2   4   4
#     4  10  19  39  64  91 125 161 208 268 319 374
#     4  11  23  40  67  93 131 174 214 268 315 389
#     4  10  23  38  62  86 129 167 212 259 323 381
#     4  11  21  40  59  97 131 167 210 272 320 374
#     4  11  23  38  62  99 135 166 212 268 325 380
#     4  12  24  44  58  90 134 164 210 272 318 388
#     4  11  18  37  66  97 126 164 213 263 323 370
#     4  12  23  33  63  96 124 156 213 266 323 376
#
# _framework density 20.60643
#
# number of rings (size 3 to 8) (size 9 to 14) (size 15 to 20)
#    0.000    1.067    8.000    0.400    5.600    0.000 
#    0.000    0.000    5.867    3.200    0.000    0.000 
#    0.000    0.000    0.000    0.000    0.000    0.000 
#
# Total GULP energy -185849.240778 kJ/mol
# GULP energy per Si atom -12389.949385 kJ/mol
# Density = 2.055953 g / cm^3
# Si number density = 20.606430 Si / 1000 Ang^3
#
#
#
# Elastic Constant Matrix: (Units=GPa)
#
#
# Indices 1 2 3 4 5 6 
#
# 1 117.9075 40.0749 30.7611 0.0025 -22.9620 0.0052
# 2 40.0749 76.5016 44.0620 0.0050 -11.4582 0.0036
# 3 30.7611 44.0620 114.4620 0.0054 -12.1201 0.0016
# 4 0.0025 0.0050 0.0054 7.2982 0.0030 -3.9443
# 5 -22.9620 -11.4582 -12.1201 0.0030 15.2397 0.0030
# 6 0.0052 0.0036 0.0016 -3.9443 0.0030 26.8312
#
#
#
# Elastic Compliance Matrix: (Units=1/GPa)
#
#
# Indices 1 2 3 4 5 6 
#
# 1 0.013221 -0.004383 -0.000115 -0.000011 0.016533 -0.000005
# 2 -0.004383 0.019236 -0.005891 -0.000010 0.003174 -0.000003
# 3 -0.000115 -0.005891 0.011518 -0.000007 0.004557 -0.000001
# 4 -0.000011 -0.000010 -0.000007 0.148847 -0.000064 0.021881
# 5 0.016533 0.003174 0.004557 -0.000064 0.096540 -0.000024
# 6 -0.000005 -0.000003 -0.000001 0.021881 -0.000024 0.040487
#
#
# Mechanical properties :
#
#
# Convention : Reuss Voigt Hill
#
# Bulk Modulus (GPa) = 43.11024 59.85190 51.48107
# Shear Modulus (GPa) = 13.95255 22.80536 18.37896
#
# Velocity S-wave (km/s) = 2.60493 3.33034 2.98972
# Velocity P-wave (km/s) = 5.47848 6.62544 6.07907
#
# Compressibility (1/GPa) = 0.02319634
#
# Stress axis : x y z
#
# Youngs Moduli (GPa) = 75.63903 51.98614 86.82281
#
# Poissons Ratio (x) = 0.22786 0.01000
# Poissons Ratio (y) = 0.33153 0.51146
# Poissons Ratio (z) = 0.00871 0.30624
#
# Static dielectric constant tensor:
#      x y z
#    x 3.856930 0.000010 0.009320 
#    y 0.000010 3.554510 0.000010 
#    z 0.009320 0.000010 4.067420 
# 
# 
# High freq. dielectric constant tensor:
#      x y z
#    x 1.795560 0.000000 -0.006550 
#    y 0.000000 1.773510 0.000000 
#    z -0.006550 0.000000 1.818520 
# 
# From -- ./inp_files/54797.got.cif
#   From: 2010.03.12/outbox.cif.g09.slc.cpg/sg5_28_cif.got.tgz:54797.got - 2010.03.31 09:47:26.
