data_PCOD8048643
_publ_section_title
;
Structure prediction by ZEFSAII (Michael W. Deem and Ramdas Pophale) SiO2 
 PCOD8048643
Probable space group: C 2
;
_chemical_formula_sum "Si O2"
_cell_formula_units_Z 24
_cell_length_a 13.364301
_cell_length_b 17.754763
_cell_length_c 5.232042
_cell_angle_alpha 90.000000
_cell_angle_beta 76.112978
_cell_angle_gamma 90.000000
_cell_volume 1205.172146
_symmetry_space_group_name_H-M "C 2"
_symmetry_group_IT_number 5
_symmetry_cell_setting 'monoclinic'
loop_
_space_group_symop_operation_xyz
x,y,z
-x,y,-z
1/2+x,1/2+y,z
1/2-x,1/2+y,-z
loop_
_atom_site_type_symbol
_atom_site_label
_atom_site_fract_x
_atom_site_fract_y
_atom_site_fract_z
Si Si1 0.756044 0.629520 0.194022
Si Si2 0.066232 0.886123 0.715708
Si Si3 0.603804 0.549495 0.594855
Si Si4 0.806950 0.753436 0.539704
Si Si5 0.436995 0.156081 0.778964
Si Si6 0.886167 0.200060 0.089718
O O1 0.704332 0.555664 0.348982
O O2 0.820733 0.679585 0.354577
O O3 0.835561 0.605619 0.917404
O O4 0.663566 0.684785 0.156202
O O5 0.163075 0.829701 0.624582
O O6 0.000000 0.886884 0.500000
O O7 0.110817 0.970044 0.738326
O O8 0.000000 0.860778 0.000000
O O9 0.500000 0.555452 0.500000
O O10 0.606462 0.617721 0.790098
O O11 0.890847 0.737391 0.714757
O O12 0.688682 0.757462 0.711120
O O13 0.500000 0.119307 0.500000
O O14 0.500000 0.168636 0.000000
O O15 0.000000 0.236756 0.000000
#
# Coordination Sequence:
#
# PCOD8048643 Si02
#       6
#     4   4   4   4   4   4
#     4  10  21  35  59  87 118 157 202 251 294 348
#     4  11  26  38  60  89 127 162 190 242 307 369
#     4  10  20  38  58  87 121 157 197 249 307 358
#     4  10  23  35  56  91 120 160 198 246 297 355
#     4  11  21  35  56  86 122 157 192 247 294 349
#     4  10  19  35  61  86 119 152 206 253 296 346
#
# _framework density 19.914166000000002
#
# number of rings (size 3 to 8) (size 9 to 14) (size 15 to 20)
#    0.000    1.667    3.333    1.000    9.333    0.000 
#    0.000    0.000    0.000    1.000    0.000    0.000 
#    0.000    0.000    0.000    0.000    0.000    0.000 
#
# Total GULP energy -148674.770735 kJ/mol
# GULP energy per Si atom -12389.564228 kJ/mol
# Density = 1.986884 g / cm^3
# Si number density = 19.914166 Si / 1000 Ang^3
#
#
#
# Elastic Constant Matrix: (Units=GPa)
#
#
# Indices 1 2 3 4 5 6 
#
# 1 101.3606 28.6802 57.4720 0.0000 -19.6379 0.0000
# 2 28.6802 85.7349 30.5139 0.0000 -16.1940 0.0000
# 3 57.4720 30.5139 128.7054 0.0000 -25.0974 0.0000
# 4 0.0000 0.0000 0.0000 24.1496 0.0000 -11.5283
# 5 -19.6379 -16.1940 -25.0974 0.0000 51.3807 0.0000
# 6 0.0000 0.0000 0.0000 -11.5283 0.0000 12.0739
#
#
#
# Elastic Compliance Matrix: (Units=1/GPa)
#
#
# Indices 1 2 3 4 5 6 
#
# 1 0.013911 -0.002408 -0.005253 0.000000 0.001992 0.000000
# 2 -0.002408 0.013533 -0.001637 0.000000 0.002545 0.000000
# 3 -0.005253 -0.001637 0.011065 0.000000 0.002881 0.000000
# 4 0.000000 0.000000 0.000000 0.076091 0.000000 0.072653
# 5 0.001992 0.002545 0.002881 0.000000 0.022434 0.000000
# 6 0.000000 0.000000 0.000000 0.072653 0.000000 0.152193
#
#
# Mechanical properties :
#
#
# Convention : Reuss Voigt Hill
#
# Bulk Modulus (GPa) = 50.21447 61.01481 55.61464
# Shear Modulus (GPa) = 15.90030 30.79649 23.34839
#
# Velocity S-wave (km/s) = 2.82874 3.93677 3.42782
# Velocity P-wave (km/s) = 5.99493 7.16726 6.60715
#
# Compressibility (1/GPa) = 0.01991458
#
# Stress axis : x y z
#
# Youngs Moduli (GPa) = 71.88386 73.89512 90.37427
#
# Poissons Ratio (x) = 0.17793 0.47470
# Poissons Ratio (y) = 0.17309 0.14793
# Poissons Ratio (z) = 0.37758 0.12095
#
# Static dielectric constant tensor:
#      x y z
#    x 4.052780 0.000000 -0.224970 
#    y 0.000000 3.347520 0.000000 
#    z -0.224970 0.000000 4.070180 
# 
# 
# High freq. dielectric constant tensor:
#      x y z
#    x 1.788480 0.000000 -0.004520 
#    y 0.000000 1.707370 0.000000 
#    z -0.004520 0.000000 1.802800 
# 
# From -- ./inp_files/5354.got.cif
#   From: 2010.03.12/outbox.cif.g09.slc.cpg/sg5_3_cif.got.tgz:5354.got - 2010.03.31 09:47:26.
