data_PCOD8048870
_publ_section_title
;
Structure prediction by ZEFSAII (Michael W. Deem and Ramdas Pophale) SiO2 
 PCOD8048870
Probable space group: C 2
;
_chemical_formula_sum "Si O2"
_cell_formula_units_Z 32
_cell_length_a 11.748301
_cell_length_b 15.833110
_cell_length_c 17.300890
_cell_angle_alpha 90.000000
_cell_angle_beta 149.706982
_cell_angle_gamma 90.000000
_cell_volume 1623.319889
_symmetry_space_group_name_H-M "C 2"
_symmetry_group_IT_number 5
_symmetry_cell_setting 'monoclinic'
loop_
_space_group_symop_operation_xyz
x,y,z
-x,y,-z
1/2+x,1/2+y,z
1/2-x,1/2+y,-z
loop_
_atom_site_type_symbol
_atom_site_label
_atom_site_fract_x
_atom_site_fract_y
_atom_site_fract_z
Si Si1 0.942463 0.058360 0.700598
Si Si2 0.307365 0.979094 0.825575
Si Si3 0.205520 0.453864 0.678187
Si Si4 0.612144 0.279113 0.180193
Si Si5 0.746585 0.866002 0.353550
Si Si6 0.758216 0.614729 0.674199
Si Si7 0.646816 0.740915 0.835029
Si Si8 0.105570 0.513248 0.378862
O O1 0.735590 0.067420 0.520138
O O2 0.087778 0.142483 0.795353
O O3 0.852004 0.031533 0.731642
O O4 0.084105 0.980976 0.747153
O O5 0.310580 0.906835 0.762853
O O6 0.322747 0.071208 0.793457
O O7 0.500000 0.962869 0.000000
O O8 0.369927 0.373519 0.777490
O O9 0.000000 0.432262 0.500000
O O10 0.123544 0.478767 0.716421
O O11 0.710855 0.214803 0.301603
O O12 0.771866 0.274237 0.199469
O O13 0.351109 0.255779 0.014152
O O14 0.574516 0.790224 0.267229
O O15 0.000000 0.828796 0.500000
O O16 0.737531 0.934412 0.417497
O O17 0.500000 0.591064 0.500000
O O18 0.934334 0.580314 0.713195
#
# Coordination Sequence:
#
# PCOD8048870 Si02
#       8
#     4   4   4   4   4   4   4   4
#     4  11  21  40  61  92 129 162 210 260 317 381
#     4  11  21  35  63  93 121 161 207 259 316 376
#     4  10  23  38  65  92 131 165 210 267 326 376
#     4  11  22  41  59  97 127 171 212 264 315 383
#     4  11  22  41  67  92 125 165 217 267 317 381
#     4  11  19  36  67  93 124 164 221 265 306 375
#     4  11  24  40  62  92 132 166 216 260 326 382
#     4  10  19  40  62  97 118 163 213 264 313 382
#
# _framework density 19.712689000000001
#
# number of rings (size 3 to 8) (size 9 to 14) (size 15 to 20)
#    0.000    1.250    5.000    1.875    1.750    1.500 
#    0.000    1.250    0.000    0.000    0.000    0.000 
#    0.000    0.000    0.000    0.000    0.000    0.000 
#
# Total GULP energy -198356.995996 kJ/mol
# GULP energy per Si atom -12397.312250 kJ/mol
# Density = 1.966782 g / cm^3
# Si number density = 19.712689 Si / 1000 Ang^3
#
#
#
# Elastic Constant Matrix: (Units=GPa)
#
#
# Indices 1 2 3 4 5 6 
#
# 1 121.3204 38.7254 42.7825 -0.0025 6.9691 -0.0011
# 2 38.7254 76.6563 42.3825 -0.0254 2.7129 0.0009
# 3 42.7825 42.3825 89.2849 -0.0387 -1.1562 -0.0050
# 4 -0.0025 -0.0254 -0.0387 27.2825 -0.0023 4.8775
# 5 6.9691 2.7129 -1.1562 -0.0023 26.2028 -0.0002
# 6 -0.0011 0.0009 -0.0050 4.8775 -0.0002 30.8658
#
#
#
# Elastic Compliance Matrix: (Units=1/GPa)
#
#
# Indices 1 2 3 4 5 6 
#
# 1 0.010728 -0.003341 -0.003589 -0.000008 -0.002666 0.000001
# 2 -0.003341 0.018856 -0.007368 0.000007 -0.001389 -0.000003
# 3 -0.003589 -0.007368 0.016449 0.000016 0.002443 0.000000
# 4 -0.000008 0.000007 0.000016 0.037719 0.000005 -0.005960
# 5 -0.002666 -0.001389 0.002443 0.000005 0.039124 0.000000
# 6 0.000001 -0.000003 0.000000 -0.005960 0.000000 0.033340
#
#
# Mechanical properties :
#
#
# Convention : Reuss Voigt Hill
#
# Bulk Modulus (GPa) = 57.34898 59.44915 58.39907
# Shear Modulus (GPa) = 26.22967 27.76164 26.99565
#
# Velocity S-wave (km/s) = 3.65169 3.75682 3.70463
# Velocity P-wave (km/s) = 6.85094 7.00297 6.92737
#
# Compressibility (1/GPa) = 0.01743710
#
# Stress axis : x y z
#
# Youngs Moduli (GPa) = 93.21569 53.03446 60.79421
#
# Poissons Ratio (x) = 0.17718 0.21820
# Poissons Ratio (y) = 0.31141 0.44792
# Poissons Ratio (z) = 0.33456 0.39075
#
# Static dielectric constant tensor:
#      x y z
#    x 3.789800 0.000000 -0.006300 
#    y 0.000000 3.374720 0.000000 
#    z -0.006300 0.000000 3.622270 
# 
# 
# High freq. dielectric constant tensor:
#      x y z
#    x 1.776460 0.000000 -0.001250 
#    y 0.000000 1.755270 0.000000 
#    z -0.001250 0.000000 1.757250 
# 
# From -- ./inp_files/60709.got.cif
#   From: 2010.03.12/outbox.cif.g09.slc.cpg/sg5_31_cif.got.tgz:60709.got - 2010.03.31 09:47:26.
