data_PCOD8048740
_publ_section_title
;
Structure prediction by ZEFSAII (Michael W. Deem and Ramdas Pophale) SiO2 
 PCOD8048740
Probable space group: C 2
;
_chemical_formula_sum "Si O2"
_cell_formula_units_Z 30
_cell_length_a 17.557395
_cell_length_b 9.122800
_cell_length_c 9.451357
_cell_angle_alpha 90.000000
_cell_angle_beta 82.907556
_cell_angle_gamma 90.000000
_cell_volume 1502.264833
_symmetry_space_group_name_H-M "C 2"
_symmetry_group_IT_number 5
_symmetry_cell_setting 'monoclinic'
loop_
_space_group_symop_operation_xyz
x,y,z
-x,y,-z
1/2+x,1/2+y,z
1/2-x,1/2+y,-z
loop_
_atom_site_type_symbol
_atom_site_label
_atom_site_fract_x
_atom_site_fract_y
_atom_site_fract_z
Si Si1 0.754851 0.976090 0.592600
Si Si2 0.629952 0.256336 0.324549
Si Si3 0.500000 0.060555 0.500000
Si Si4 0.353724 0.724454 0.659113
Si Si5 0.900067 0.345168 0.349743
Si Si6 0.101171 0.080636 0.856697
Si Si7 0.232569 0.506318 0.272963
Si Si8 0.058800 0.018831 0.177559
O O1 0.818373 0.846524 0.575270
O O2 0.675134 0.932310 0.683762
O O3 0.738559 0.027052 0.438607
O O4 0.784503 0.109436 0.679840
O O5 0.566482 0.164092 0.424441
O O6 0.595574 0.365622 0.216100
O O7 0.685520 0.146049 0.225357
O O8 0.469079 0.956433 0.378312
O O9 0.378046 0.752300 0.493017
O O10 0.319465 0.864422 0.749790
O O11 0.428008 0.651923 0.714947
O O12 0.915326 0.238673 0.212932
O O13 0.031425 0.981168 0.813954
O O14 0.182043 0.003144 0.808110
O O15 0.094795 0.086157 0.026784
#
# Coordination Sequence:
#
# PCOD8048740 Si02
#       8
#     4   4   2   4   4   4   4   4
#     4  10  19  37  60  97 125 160 204 261 321 374
#     4  11  23  39  60  98 132 162 206 267 322 377
#     4  12  24  34  66 106 138 152 208 276 330 364
#     4  10  20  38  63  94 125 157 213 261 317 377
#     4  11  21  37  67  96 125 164 207 268 321 371
#     4  11  23  43  64  84 128 171 215 254 315 385
#     4  11  20  37  64  90 128 159 209 264 318 377
#     4  10  26  42  61  87 127 171 215 256 314 379
#
# _framework density 19.969847999999999
#
# number of rings (size 3 to 8) (size 9 to 14) (size 15 to 20)
#    0.000    1.333    5.333    1.600    1.867    1.067 
#    0.000    0.000    5.867    0.000    0.000    0.000 
#    0.000    0.000    0.000    0.000    0.000    0.000 
#
# Total GULP energy -185891.942108 kJ/mol
# GULP energy per Si atom -12392.796141 kJ/mol
# Density = 1.992440 g / cm^3
# Si number density = 19.969848 Si / 1000 Ang^3
#
#
#
# Elastic Constant Matrix: (Units=GPa)
#
#
# Indices 1 2 3 4 5 6 
#
# 1 105.2938 43.0156 17.9818 0.0000 -5.3071 0.0000
# 2 43.0156 122.7296 33.3804 0.0000 2.8621 0.0000
# 3 17.9818 33.3804 56.6755 0.0000 -3.6840 0.0000
# 4 0.0000 0.0000 0.0000 25.7257 0.0000 2.0728
# 5 -5.3071 2.8621 -3.6840 0.0000 25.6103 0.0000
# 6 0.0000 0.0000 0.0000 2.0728 0.0000 34.9783
#
#
#
# Elastic Compliance Matrix: (Units=1/GPa)
#
#
# Indices 1 2 3 4 5 6 
#
# 1 0.011353 -0.003698 -0.001256 0.000000 0.002585 0.000000
# 2 -0.003698 0.011001 -0.005487 0.000000 -0.002785 0.000000
# 3 -0.001256 -0.005487 0.021499 0.000000 0.003446 0.000000
# 4 0.000000 0.000000 0.000000 0.039058 0.000000 -0.002315
# 5 0.002585 -0.002785 0.003446 0.000000 0.040389 0.000000
# 6 0.000000 0.000000 0.000000 -0.002315 0.000000 0.028726
#
#
# Mechanical properties :
#
#
# Convention : Reuss Voigt Hill
#
# Bulk Modulus (GPa) = 43.53401 52.60604 48.07003
# Shear Modulus (GPa) = 27.69075 29.95093 28.82084
#
# Velocity S-wave (km/s) = 3.72779 3.87694 3.80309
# Velocity P-wave (km/s) = 6.35419 6.81475 6.58849
#
# Compressibility (1/GPa) = 0.02297055
#
# Stress axis : x y z
#
# Youngs Moduli (GPa) = 88.08521 90.89735 46.51438
#
# Poissons Ratio (x) = 0.33611 0.05843
# Poissons Ratio (y) = 0.32571 0.25524
# Poissons Ratio (z) = 0.11064 0.49879
#
# Static dielectric constant tensor:
#      x y z
#    x 4.095510 0.000000 0.134260 
#    y 0.000000 3.864300 0.000000 
#    z 0.134260 0.000000 3.277860 
# 
# 
# High freq. dielectric constant tensor:
#      x y z
#    x 1.805840 0.000000 0.011990 
#    y 0.000000 1.787090 0.000000 
#    z 0.011990 0.000000 1.736320 
# 
# From -- ./inp_files/41755.got.cif
#   From: 2010.03.12/outbox.cif.g09.slc.cpg/sg5_21_cif.got.tgz:41755.got - 2010.03.31 09:47:26.
