data_PCOD8048764
_publ_section_title
;
Structure prediction by ZEFSAII (Michael W. Deem and Ramdas Pophale) SiO2 
 PCOD8048764
Probable space group: C 2
;
_chemical_formula_sum "Si O2"
_cell_formula_units_Z 32
_cell_length_a 14.409015
_cell_length_b 26.560416
_cell_length_c 9.699096
_cell_angle_alpha 90.000000
_cell_angle_beta 153.125796
_cell_angle_gamma 90.000000
_cell_volume 1677.917923
_symmetry_space_group_name_H-M "C 2"
_symmetry_group_IT_number 5
_symmetry_cell_setting 'monoclinic'
loop_
_space_group_symop_operation_xyz
x,y,z
-x,y,-z
1/2+x,1/2+y,z
1/2-x,1/2+y,-z
loop_
_atom_site_type_symbol
_atom_site_label
_atom_site_fract_x
_atom_site_fract_y
_atom_site_fract_z
Si Si1 0.422858 0.760360 0.745631
Si Si2 0.976517 0.491607 0.115582
Si Si3 0.172145 0.189145 0.614805
Si Si4 0.133367 0.327716 0.806393
Si Si5 0.932547 0.007695 0.763908
Si Si6 0.681457 0.576541 0.632630
Si Si7 0.308847 0.945554 0.152898
Si Si8 0.030494 0.774869 0.894569
O O1 0.439673 0.711978 0.668710
O O2 0.532713 0.808602 0.816450
O O3 0.186565 0.769359 0.463053
O O4 0.500000 0.748756 0.000000
O O5 0.200862 0.488450 0.480991
O O6 0.816658 0.467887 0.009479
O O7 0.000000 0.462037 0.000000
O O8 0.882642 0.546755 0.953852
O O9 0.253319 0.132984 0.691211
O O10 0.000000 0.186985 0.500000
O O11 0.363214 0.222222 0.920892
O O12 0.169621 0.386691 0.845592
O O13 0.000000 0.308204 0.500000
O O14 0.352903 0.303024 0.072784
O O15 0.922382 0.051649 0.639134
O O16 0.000000 0.030396 0.000000
O O17 0.090773 0.962697 0.929375
O O18 0.500000 0.576817 0.500000
O O19 0.500000 0.964516 0.500000
O O20 0.000000 0.805566 0.000000
#
# Coordination Sequence:
#
# PCOD8048764 Si02
#       8
#     4   4   4   4   4   4   4   4
#     4  11  23  38  60  91 129 154 192 254 306 352
#     4  10  22  39  59  87 119 155 202 252 297 358
#     4  10  19  40  66  89 116 162 208 241 292 373
#     4  11  21  40  61  89 118 160 209 247 291 365
#     4  11  22  38  58  88 121 159 198 249 307 358
#     4  10  21  38  67  88 118 162 204 249 302 360
#     4  11  23  38  62  87 123 158 206 256 302 352
#     4  10  19  37  65  86 116 158 203 241 292 359
#
# _framework density 19.071255000000001
#
# number of rings (size 3 to 8) (size 9 to 14) (size 15 to 20)
#    0.000    1.500    6.250    0.000    0.000    7.500 
#    0.000    3.750    0.000    3.000    0.000    0.000 
#    0.000    0.000    0.000    0.000    0.000    0.000 
#
# Total GULP energy -198216.310346 kJ/mol
# GULP energy per Si atom -12388.519397 kJ/mol
# Density = 1.902785 g / cm^3
# Si number density = 19.071255 Si / 1000 Ang^3
#
#
#
# Elastic Constant Matrix: (Units=GPa)
#
#
# Indices 1 2 3 4 5 6 
#
# 1 103.8981 48.6683 48.3346 0.0001 -2.7373 0.0001
# 2 48.6683 97.0045 40.1982 0.0000 -0.1871 -0.0001
# 3 48.3346 40.1982 126.5240 -0.0001 -2.3050 -0.0003
# 4 0.0001 0.0000 -0.0001 20.2639 0.0000 5.7026
# 5 -2.7373 -0.1871 -2.3050 0.0000 37.0246 -0.0001
# 6 0.0001 -0.0001 -0.0003 5.7026 -0.0001 67.4968
#
#
#
# Elastic Compliance Matrix: (Units=1/GPa)
#
#
# Indices 1 2 3 4 5 6 
#
# 1 0.013861 -0.005487 -0.003538 0.000000 0.000777 0.000000
# 2 -0.005487 0.014045 -0.002375 0.000000 -0.000483 0.000000
# 3 -0.003538 -0.002375 0.010016 0.000000 0.000350 0.000000
# 4 0.000000 0.000000 0.000000 0.050551 0.000000 -0.004271
# 5 0.000777 -0.000483 0.000350 0.000000 0.027086 0.000000
# 6 0.000000 0.000000 0.000000 -0.004271 0.000000 0.015176
#
#
# Mechanical properties :
#
#
# Convention : Reuss Voigt Hill
#
# Bulk Modulus (GPa) = 66.12465 66.86986 66.49725
# Shear Modulus (GPa) = 31.53072 37.63876 34.58474
#
# Velocity S-wave (km/s) = 4.07050 4.44733 4.26308
# Velocity P-wave (km/s) = 7.53921 7.84289 7.69255
#
# Compressibility (1/GPa) = 0.01512295
#
# Stress axis : x y z
#
# Youngs Moduli (GPa) = 72.14329 71.20061 99.83916
#
# Poissons Ratio (x) = 0.39066 0.35322
# Poissons Ratio (y) = 0.39583 0.23711
# Poissons Ratio (z) = 0.25524 0.16910
#
# Static dielectric constant tensor:
#      x y z
#    x 3.834710 0.000000 0.085970 
#    y 0.000000 3.501830 0.000000 
#    z 0.085970 0.000000 3.364810 
# 
# 
# High freq. dielectric constant tensor:
#      x y z
#    x 1.767390 0.000000 0.012110 
#    y 0.000000 1.719120 0.000000 
#    z 0.012110 0.000000 1.736940 
# 
# From -- ./inp_files/25708.got.cif
#   From: 2010.03.12/outbox.cif.g09.slc.cpg/sg5_13_cif.got.tgz:25708.got - 2010.03.31 09:47:26.
