data_PCOD8048348
_publ_section_title
;
Structure prediction by ZEFSAII (Michael W. Deem and Ramdas Pophale) SiO2 
 PCOD8048348
Probable space group: C 2
;
_chemical_formula_sum "Si O2"
_cell_formula_units_Z 26
_cell_length_a 20.766165
_cell_length_b 8.760373
_cell_length_c 14.581638
_cell_angle_alpha 90.000000
_cell_angle_beta 31.763818
_cell_angle_gamma 90.000000
_cell_volume 1396.422238
_symmetry_space_group_name_H-M "C 2"
_symmetry_group_IT_number 5
_symmetry_cell_setting 'monoclinic'
loop_
_space_group_symop_operation_xyz
x,y,z
-x,y,-z
1/2+x,1/2+y,z
1/2-x,1/2+y,-z
loop_
_atom_site_type_symbol
_atom_site_label
_atom_site_fract_x
_atom_site_fract_y
_atom_site_fract_z
Si Si1 0.500000 0.392061 0.500000
Si Si2 0.306023 0.155044 0.715844
Si Si3 0.279607 0.272561 0.369777
Si Si4 0.500000 0.344041 0.000000
Si Si5 0.727433 0.634026 0.614091
Si Si6 0.500000 0.891492 0.500000
Si Si7 0.458700 0.595829 0.900462
Si Si8 0.970788 0.141834 0.388607
O O1 0.385943 0.285919 0.666245
O O2 0.468317 0.490808 0.450908
O O3 0.290191 0.196618 0.628728
O O4 0.376194 0.992302 0.640773
O O5 0.171737 0.170417 0.921672
O O6 0.389475 0.236934 0.166302
O O7 0.260820 0.452362 0.402160
O O8 0.308000 0.205756 0.435601
O O9 0.166968 0.183635 0.465560
O O10 0.541205 0.439541 0.040513
O O11 0.583032 0.684216 0.782410
O O12 0.526350 0.785338 0.378423
O O13 0.459695 0.592142 0.788565
#
# Coordination Sequence:
#
# PCOD8048348 Si02
#       8
#     2   4   4   2   4   2   4   4
#     4  10  26  36  58  82 118 160 196 234 284 328
#     4  11  20  38  58  85 115 154 195 240 274 358
#     4  10  20  36  61  84 118 146 193 235 300 336
#     4  10  18  36  56  96 108 154 174 244 304 346
#     4  10  20  35  62  87 111 154 183 242 292 347
#     4  10  20  38  60  76 116 162 200 222 294 330
#     4  10  19  35  62  84 114 144 193 237 301 328
#     4  10  21  40  57  84 114 160 191 243 278 347
#
# _framework density 18.619008999999998
#
# number of rings (size 3 to 8) (size 9 to 14) (size 15 to 20)
#    0.000    1.846    4.615    0.000    6.462    1.231 
#    0.000    3.077    0.000    0.000    0.000    0.000 
#    0.000    0.000    0.000    0.000    0.000    0.000 
#
# Total GULP energy -161052.277054 kJ/mol
# GULP energy per Si atom -12388.636696 kJ/mol
# Density = 1.857663 g / cm^3
# Si number density = 18.619009 Si / 1000 Ang^3
#
#
#
# Elastic Constant Matrix: (Units=GPa)
#
#
# Indices 1 2 3 4 5 6 
#
# 1 103.5959 34.8438 62.2558 0.0000 16.2028 0.0000
# 2 34.8438 76.5413 48.3099 -0.0003 2.4866 0.0001
# 3 62.2558 48.3099 144.4017 -0.0003 14.2499 0.0001
# 4 0.0000 -0.0003 -0.0003 22.5421 0.0001 6.5367
# 5 16.2028 2.4866 14.2499 0.0001 30.3479 0.0000
# 6 0.0000 0.0001 0.0001 6.5367 0.0000 29.7878
#
#
#
# Elastic Compliance Matrix: (Units=1/GPa)
#
#
# Indices 1 2 3 4 5 6 
#
# 1 0.014364 -0.003534 -0.004491 0.000000 -0.005271 0.000000
# 2 -0.003534 0.017481 -0.004582 0.000000 0.002606 0.000000
# 3 -0.004491 -0.004582 0.010612 0.000000 -0.002210 0.000000
# 4 0.000000 0.000000 0.000000 0.047376 0.000000 -0.010396
# 5 -0.005271 0.002606 -0.002210 0.000000 0.036590 0.000000
# 6 0.000000 0.000000 0.000000 -0.010396 0.000000 0.035852
#
#
# Mechanical properties :
#
#
# Convention : Reuss Voigt Hill
#
# Bulk Modulus (GPa) = 57.98752 68.37309 63.18030
# Shear Modulus (GPa) = 25.87512 28.47752 27.17632
#
# Velocity S-wave (km/s) = 3.73193 3.91511 3.82462
# Velocity P-wave (km/s) = 7.05561 7.56567 7.31509
#
# Compressibility (1/GPa) = 0.01724509
#
# Stress axis : x y z
#
# Youngs Moduli (GPa) = 69.61644 57.20593 94.23181
#
# Poissons Ratio (x) = 0.20214 0.42316
# Poissons Ratio (y) = 0.24599 0.43176
# Poissons Ratio (z) = 0.31262 0.26211
#
# Static dielectric constant tensor:
#      x y z
#    x 3.754130 0.000000 0.106410 
#    y 0.000000 3.282370 0.000000 
#    z 0.106410 0.000000 3.791770 
# 
# 
# High freq. dielectric constant tensor:
#      x y z
#    x 1.739650 0.000000 0.001060 
#    y 0.000000 1.701070 0.000000 
#    z 0.001060 0.000000 1.721740 
# 
# From -- ./inp_files/41462.got.cif
#   From: 2010.03.12/outbox.cif.g09.slc.cpg/sg5_21_cif.got.tgz:41462.got - 2010.03.31 09:47:26.
