data_PCOD8048966
_publ_section_title
;
Structure prediction by ZEFSAII (Michael W. Deem and Ramdas Pophale) SiO2 
 PCOD8048966
Probable space group: C 2
;
_chemical_formula_sum "Si O2"
_cell_formula_units_Z 24
_cell_length_a 12.780229
_cell_length_b 13.663623
_cell_length_c 12.533939
_cell_angle_alpha 90.000000
_cell_angle_beta 147.329866
_cell_angle_gamma 90.000000
_cell_volume 1181.479666
_symmetry_space_group_name_H-M "C 2"
_symmetry_group_IT_number 5
_symmetry_cell_setting 'monoclinic'
loop_
_space_group_symop_operation_xyz
x,y,z
-x,y,-z
1/2+x,1/2+y,z
1/2-x,1/2+y,-z
loop_
_atom_site_type_symbol
_atom_site_label
_atom_site_fract_x
_atom_site_fract_y
_atom_site_fract_z
Si Si1 0.784850 0.223160 0.788291
Si Si2 0.594590 0.587159 0.287992
Si Si3 0.933922 0.546626 0.743350
Si Si4 0.217873 0.706913 0.968759
Si Si5 0.290363 0.429805 0.032719
Si Si6 0.298465 0.433873 0.292424
O O1 0.782872 0.131135 0.706089
O O2 0.680750 0.194799 0.809490
O O3 0.693696 0.320832 0.658477
O O4 0.000000 0.256939 0.000000
O O5 0.744563 0.565031 0.510025
O O6 0.482565 0.487385 0.157085
O O7 0.429216 0.664703 0.183509
O O8 0.874184 0.492506 0.800367
O O9 0.041228 0.647127 0.869990
O O10 0.094259 0.479958 0.818393
O O11 0.200376 0.817593 0.995775
O O12 0.274423 0.438594 0.146020
O O13 0.500000 0.483639 0.500000
#
# Coordination Sequence:
#
# PCOD8048966 Si02
#       6
#     4   4   4   4   4   4
#     4   9  19  36  57  85 113 140 182 231 274 328
#     4  10  20  33  55  88 113 143 185 226 278 331
#     4  11  21  33  56  85 115 144 179 238 276 322
#     4   9  21  37  57  82 113 147 184 227 280 325
#     4  10  21  39  56  84 114 146 184 230 277 329
#     4  11  20  34  58  86 111 142 186 230 276 328
#
# _framework density 20.313510999999998
#
# number of rings (size 3 to 8) (size 9 to 14) (size 15 to 20)
#    0.000    2.000    1.667    3.500    4.667    1.333 
#    0.000    0.000    0.000   22.000    0.000    0.000 
#    0.000    0.000    0.000    0.000    0.000    0.000 
#
# Total GULP energy -148736.514731 kJ/mol
# GULP energy per Si atom -12394.709561 kJ/mol
# Density = 2.026728 g / cm^3
# Si number density = 20.313511 Si / 1000 Ang^3
#
#
#
# Elastic Constant Matrix: (Units=GPa)
#
#
# Indices 1 2 3 4 5 6 
#
# 1 54.7926 33.8577 8.5273 0.0000 2.5815 -0.0001
# 2 33.8577 159.9995 34.3982 0.0000 7.7981 0.0000
# 3 8.5273 34.3982 100.4863 0.0004 11.4674 0.0001
# 4 0.0000 0.0000 0.0004 22.3402 0.0002 -7.5823
# 5 2.5815 7.7981 11.4674 0.0002 21.9259 0.0000
# 6 -0.0001 0.0000 0.0001 -7.5823 0.0000 19.7712
#
#
#
# Elastic Compliance Matrix: (Units=1/GPa)
#
#
# Indices 1 2 3 4 5 6 
#
# 1 0.021017 -0.004365 -0.000196 0.000000 -0.000820 0.000000
# 2 -0.004365 0.007687 -0.002135 0.000000 -0.001103 0.000000
# 3 -0.000196 -0.002135 0.011283 0.000000 -0.005119 0.000000
# 4 0.000000 0.000000 0.000000 0.051461 0.000000 0.019735
# 5 -0.000820 -0.001103 -0.005119 0.000000 0.048774 0.000000
# 6 0.000000 0.000000 0.000000 0.019735 0.000000 0.058147
#
#
# Mechanical properties :
#
#
# Convention : Reuss Voigt Hill
#
# Bulk Modulus (GPa) = 37.60105 52.09387 44.84746
# Shear Modulus (GPa) = 22.66278 28.70714 25.68496
#
# Velocity S-wave (km/s) = 3.34376 3.76334 3.55974
# Velocity P-wave (km/s) = 5.78431 6.67714 6.24670
#
# Compressibility (1/GPa) = 0.02659500
#
# Stress axis : x y z
#
# Youngs Moduli (GPa) = 47.58001 130.09737 88.62755
#
# Poissons Ratio (x) = 0.56794 0.01734
# Poissons Ratio (y) = 0.20771 0.18921
# Poissons Ratio (z) = 0.00931 0.27774
#
# Static dielectric constant tensor:
#      x y z
#    x 3.598700 0.000000 0.212880 
#    y 0.000000 3.914390 0.000000 
#    z 0.212880 0.000000 3.670660 
# 
# 
# High freq. dielectric constant tensor:
#      x y z
#    x 1.760180 0.000000 0.025420 
#    y 0.000000 1.796620 0.000000 
#    z 0.025420 0.000000 1.798980 
# 
# From -- ./inp_files/43000.got.cif
#   From: 2010.03.12/outbox.cif.g09.slc.cpg/sg5_22_cif.got.tgz:43000.got - 2010.03.31 09:47:26.
