data_PCOD8048271
_publ_section_title
;
Structure prediction by ZEFSAII (Michael W. Deem and Ramdas Pophale) SiO2 
 PCOD8048271
Probable space group: C 2
;
_chemical_formula_sum "Si O2"
_cell_formula_units_Z 26
_cell_length_a 8.795145
_cell_length_b 14.680370
_cell_length_c 16.327589
_cell_angle_alpha 90.000000
_cell_angle_beta 141.996683
_cell_angle_gamma 90.000000
_cell_volume 1298.004574
_symmetry_space_group_name_H-M "C 2"
_symmetry_group_IT_number 5
_symmetry_cell_setting 'monoclinic'
loop_
_space_group_symop_operation_xyz
x,y,z
-x,y,-z
1/2+x,1/2+y,z
1/2-x,1/2+y,-z
loop_
_atom_site_type_symbol
_atom_site_label
_atom_site_fract_x
_atom_site_fract_y
_atom_site_fract_z
Si Si1 0.846896 0.578670 0.579374
Si Si2 0.390693 0.564015 0.774591
Si Si3 0.000000 0.103254 0.000000
Si Si4 0.120338 0.881733 0.303872
Si Si5 0.011401 0.187309 0.690526
Si Si6 0.635909 0.876936 0.429805
Si Si7 0.490072 0.194389 0.793630
O O1 0.632019 0.615141 0.428575
O O2 0.810632 0.472826 0.594317
O O3 0.856304 0.642894 0.662144
O O4 0.100080 0.579235 0.635487
O O5 0.502345 0.477520 0.773408
O O6 0.514558 0.653076 0.786192
O O7 0.432972 0.547047 0.889842
O O8 0.239053 0.158185 0.071276
O O9 0.382078 0.878713 0.370675
O O10 0.143656 0.869426 0.411128
O O11 0.952202 0.798970 0.202981
O O12 0.876412 0.286746 0.632448
O O13 0.299314 0.190153 0.787872
#
# Coordination Sequence:
#
# PCOD8048271 Si02
#       7
#     4   4   2   4   4   4   4
#     4  10  18  34  56  87 121 150 172 230 294 352
#     4  10  21  37  60  81 117 152 194 227 280 334
#     4  10  24  44  54  74 112 164 198 240 272 318
#     4   9  16  33  57  84 108 151 184 228 283 345
#     4  11  19  33  59  90 113 145 187 234 284 345
#     4   9  17  29  54  89 122 142 174 221 299 356
#     4  10  21  37  58  80 116 151 192 232 282 333
#
# _framework density 20.030745
#
# number of rings (size 3 to 8) (size 9 to 14) (size 15 to 20)
#    0.000    2.154    3.077    0.923    0.000    0.615 
#    0.000   13.846    0.000    0.000    0.000    0.000 
#    0.000    0.000    0.000    0.000    0.000    0.000 
#
# Total GULP energy -161049.531962 kJ/mol
# GULP energy per Si atom -12388.425536 kJ/mol
# Density = 1.998515 g / cm^3
# Si number density = 20.030745 Si / 1000 Ang^3
#
#
#
# Elastic Constant Matrix: (Units=GPa)
#
#
# Indices 1 2 3 4 5 6 
#
# 1 59.1403 31.8979 21.1080 0.0005 -1.7230 0.0003
# 2 31.8979 142.6377 19.0657 0.0000 -9.5718 0.0000
# 3 21.1080 19.0657 66.6245 0.0006 0.7897 0.0006
# 4 0.0005 0.0000 0.0006 13.8757 0.0007 -1.6459
# 5 -1.7230 -9.5718 0.7897 0.0007 31.5132 0.0005
# 6 0.0003 0.0000 0.0006 -1.6459 0.0005 22.3949
#
#
#
# Elastic Compliance Matrix: (Units=1/GPa)
#
#
# Indices 1 2 3 4 5 6 
#
# 1 0.021018 -0.003956 -0.005528 0.000000 0.000086 0.000000
# 2 -0.003956 0.008200 -0.001121 0.000000 0.002302 0.000000
# 3 -0.005528 -0.001121 0.017094 -0.000001 -0.001071 0.000000
# 4 0.000000 0.000000 -0.000001 0.072702 -0.000002 0.005343
# 5 0.000086 0.002302 -0.001071 -0.000002 0.032464 -0.000001
# 6 0.000000 0.000000 0.000000 0.005343 -0.000001 0.045046
#
#
# Mechanical properties :
#
#
# Convention : Reuss Voigt Hill
#
# Bulk Modulus (GPa) = 39.83488 45.83842 42.83665
# Shear Modulus (GPa) = 22.11416 26.64549 24.37983
#
# Velocity S-wave (km/s) = 3.32627 3.65119 3.49251
# Velocity P-wave (km/s) = 5.88915 6.38033 6.13966
#
# Compressibility (1/GPa) = 0.02510363
#
# Stress axis : x y z
#
# Youngs Moduli (GPa) = 47.57844 121.95687 58.49932
#
# Poissons Ratio (x) = 0.48240 0.32338
# Poissons Ratio (y) = 0.18820 0.06555
# Poissons Ratio (z) = 0.26301 0.13666
#
# Static dielectric constant tensor:
#      x y z
#    x 3.455240 0.000000 -0.011260 
#    y 0.000000 4.053840 0.000000 
#    z -0.011260 0.000000 3.344190 
# 
# 
# High freq. dielectric constant tensor:
#      x y z
#    x 1.761100 0.000000 -0.002640 
#    y 0.000000 1.791840 0.000000 
#    z -0.002640 0.000000 1.752300 
# 
# From -- ./inp_files/35807.got.cif
#   From: 2010.03.12/outbox.cif.g09.slc.cpg/sg5_18_cif.got.tgz:35807.got - 2010.03.31 09:47:26.
