data_PCOD8048684
_publ_section_title
;
Structure prediction by ZEFSAII (Michael W. Deem and Ramdas Pophale) SiO2 
 PCOD8048684
Probable space group: C 2
;
_chemical_formula_sum "Si O2"
_cell_formula_units_Z 28
_cell_length_a 13.673120
_cell_length_b 12.230562
_cell_length_c 14.258329
_cell_angle_alpha 90.000000
_cell_angle_beta 139.720647
_cell_angle_gamma 90.000000
_cell_volume 1541.562763
_symmetry_space_group_name_H-M "C 2"
_symmetry_group_IT_number 5
_symmetry_cell_setting 'monoclinic'
loop_
_space_group_symop_operation_xyz
x,y,z
-x,y,-z
1/2+x,1/2+y,z
1/2-x,1/2+y,-z
loop_
_atom_site_type_symbol
_atom_site_label
_atom_site_fract_x
_atom_site_fract_y
_atom_site_fract_z
Si Si1 0.241776 0.916730 0.650111
Si Si2 0.583880 0.836398 0.463253
Si Si3 0.610511 0.286406 0.388881
Si Si4 0.495369 0.653636 0.257426
Si Si5 0.809269 0.559452 0.537140
Si Si6 0.658768 0.437261 0.799619
Si Si7 0.455206 0.813521 0.069110
O O1 0.169217 0.820474 0.535112
O O2 0.153127 0.931005 0.682339
O O3 0.415938 0.889809 0.794215
O O4 0.236669 0.027498 0.584941
O O5 0.500000 0.833409 0.500000
O O6 0.758965 0.798882 0.594830
O O7 0.493238 0.754305 0.329115
O O8 0.591708 0.961395 0.432871
O O9 0.570572 0.158128 0.365099
O O10 0.469858 0.357880 0.253460
O O11 0.663018 0.599577 0.369493
O O12 0.372347 0.562177 0.195277
O O13 0.435061 0.704322 0.115860
O O14 0.811251 0.393442 0.957637
O O15 0.500000 0.769110 0.000000
#
# Coordination Sequence:
#
# PCOD8048684 Si02
#       7
#     4   4   4   4   4   4   4
#     4  10  19  38  60  91 116 154 204 244 295 348
#     4  10  21  35  58  90 121 154 190 248 310 342
#     4  10  20  35  57  92 118 150 202 249 284 351
#     4  11  21  40  60  89 123 155 196 250 300 352
#     4  10  19  36  61  86 126 146 199 255 288 352
#     4  11  23  35  65  88 117 159 202 243 296 355
#     4  10  22  42  59  84 125 163 198 240 296 361
#
# _framework density 18.163385999999999
#
# number of rings (size 3 to 8) (size 9 to 14) (size 15 to 20)
#    0.000    1.714    7.143    0.429    4.000    2.286 
#    0.000    0.000    0.000    0.000    0.000    0.000 
#    0.000    0.000    0.000    0.000    0.000    0.000 
#
# Total GULP energy -173502.545619 kJ/mol
# GULP energy per Si atom -12393.038973 kJ/mol
# Density = 1.812205 g / cm^3
# Si number density = 18.163386 Si / 1000 Ang^3
#
#
#
# Elastic Constant Matrix: (Units=GPa)
#
#
# Indices 1 2 3 4 5 6 
#
# 1 108.8702 56.2632 33.2673 0.0000 -3.1806 0.0000
# 2 56.2632 162.8373 36.0435 0.0000 -2.9866 0.0000
# 3 33.2673 36.0435 53.2496 -0.0001 1.8777 0.0000
# 4 0.0000 0.0000 -0.0001 31.9919 0.0000 -0.9221
# 5 -3.1806 -2.9866 1.8777 0.0000 22.7416 0.0000
# 6 0.0000 0.0000 0.0000 -0.9221 0.0000 18.0156
#
#
#
# Elastic Compliance Matrix: (Units=1/GPa)
#
#
# Indices 1 2 3 4 5 6 
#
# 1 0.012599 -0.003014 -0.005896 0.000000 0.001853 0.000000
# 2 -0.003014 0.007986 -0.003555 0.000000 0.000921 0.000000
# 3 -0.005896 -0.003555 0.024988 0.000000 -0.003355 0.000000
# 4 0.000000 0.000000 0.000000 0.031304 0.000000 0.001602
# 5 0.001853 0.000921 -0.003355 0.000000 0.044629 0.000000
# 6 0.000000 0.000000 0.000000 0.001602 0.000000 0.055589
#
#
# Mechanical properties :
#
#
# Convention : Reuss Voigt Hill
#
# Bulk Modulus (GPa) = 48.44495 64.01169 56.22832
# Shear Modulus (GPa) = 23.93408 27.84204 25.88806
#
# Velocity S-wave (km/s) = 3.63397 3.91943 3.77939
# Velocity P-wave (km/s) = 6.65862 7.47002 7.07596
#
# Compressibility (1/GPa) = 0.02064199
#
# Stress axis : x y z
#
# Youngs Moduli (GPa) = 79.37348 125.21407 40.01947
#
# Poissons Ratio (x) = 0.37739 0.23596
# Poissons Ratio (y) = 0.23923 0.14228
# Poissons Ratio (z) = 0.46800 0.44517
#
# Static dielectric constant tensor:
#      x y z
#    x 3.360050 0.000000 -0.039270 
#    y 0.000000 3.544550 0.000000 
#    z -0.039270 0.000000 3.347270 
# 
# 
# High freq. dielectric constant tensor:
#      x y z
#    x 1.696230 0.000000 0.004130 
#    y 0.000000 1.717030 0.000000 
#    z 0.004130 0.000000 1.683060 
# 
# From -- ./inp_files/54453.got.cif
#   From: 2010.03.12/outbox.cif.g09.slc.cpg/sg5_28_cif.got.tgz:54453.got - 2010.03.31 09:47:26.
