data_PCOD8048590
_publ_section_title
;
Structure prediction by ZEFSAII (Michael W. Deem and Ramdas Pophale) SiO2 
 PCOD8048590
Probable space group: C 2
;
_chemical_formula_sum "Si O2"
_cell_formula_units_Z 32
_cell_length_a 8.914614
_cell_length_b 23.281030
_cell_length_c 15.428607
_cell_angle_alpha 90.000000
_cell_angle_beta 149.892726
_cell_angle_gamma 90.000000
_cell_volume 1606.226499
_symmetry_space_group_name_H-M "C 2"
_symmetry_group_IT_number 5
_symmetry_cell_setting 'monoclinic'
loop_
_space_group_symop_operation_xyz
x,y,z
-x,y,-z
1/2+x,1/2+y,z
1/2-x,1/2+y,-z
loop_
_atom_site_type_symbol
_atom_site_label
_atom_site_fract_x
_atom_site_fract_y
_atom_site_fract_z
Si Si1 0.820950 0.642260 0.282505
Si Si2 0.696768 0.831694 0.512717
Si Si3 0.184045 0.266286 0.173702
Si Si4 0.176142 0.523960 0.818058
Si Si5 0.346446 0.778044 0.183572
Si Si6 0.672678 0.555292 0.676895
Si Si7 0.828519 0.949312 0.503219
Si Si8 0.957341 0.153895 0.677506
O O1 0.688172 0.697224 0.166216
O O2 0.801357 0.584237 0.219883
O O3 0.627698 0.630610 0.271206
O O4 0.160731 0.659745 0.472222
O O5 0.500000 0.823571 0.500000
O O6 0.497196 0.820169 0.328207
O O7 0.813259 0.896892 0.562216
O O8 0.979748 0.789859 0.658929
O O9 0.021400 0.285423 0.180757
O O10 0.000000 0.291202 0.000000
O O11 0.012882 0.538271 0.827040
O O12 0.003552 0.473897 0.680635
O O13 0.500000 0.498591 0.000000
O O14 0.369998 0.713819 0.232286
O O15 0.000000 0.794809 0.000000
O O16 0.500000 0.568761 0.500000
O O17 0.509555 0.501010 0.640608
O O18 0.681434 0.609332 0.744514
O O19 0.000000 0.931716 0.500000
#
# Coordination Sequence:
#
# PCOD8048590 Si02
#       8
#     4   4   4   4   4   4   4   4
#     4  10  19  34  58  90 122 159 193 244 301 366
#     4  12  25  41  65  91 117 163 211 256 315 364
#     4  11  23  42  63  92 126 162 205 255 306 370
#     4  10  20  35  58  89 119 152 196 246 302 356
#     4  11  24  41  61  91 128 165 206 253 306 365
#     4   9  18  35  56  84 114 155 196 239 295 355
#     4   9  20  39  59  82 111 158 199 248 302 364
#     4  10  19  34  58  86 122 161 197 238 305 359
#
# _framework density 19.922470000000001
#
# number of rings (size 3 to 8) (size 9 to 14) (size 15 to 20)
#    0.000    2.000    3.750    2.250    0.000    6.000 
#    0.000    2.500    0.000    0.750    0.000    0.000 
#    0.000    0.000    0.000    0.000    0.000    0.000 
#
# Total GULP energy -198375.351697 kJ/mol
# GULP energy per Si atom -12398.459481 kJ/mol
# Density = 1.987713 g / cm^3
# Si number density = 19.922470 Si / 1000 Ang^3
#
#
#
# Elastic Constant Matrix: (Units=GPa)
#
#
# Indices 1 2 3 4 5 6 
#
# 1 105.4468 39.8837 37.9274 -0.0022 9.3042 -0.0058
# 2 39.8837 74.6398 15.7523 0.0011 -5.8621 0.0038
# 3 37.9274 15.7523 98.3235 0.0022 10.2464 -0.0041
# 4 -0.0022 0.0011 0.0022 14.9950 0.0002 -1.1807
# 5 9.3042 -5.8621 10.2464 0.0002 31.6645 -0.0052
# 6 -0.0058 0.0038 -0.0041 -1.1807 -0.0052 36.0425
#
#
#
# Elastic Compliance Matrix: (Units=1/GPa)
#
#
# Indices 1 2 3 4 5 6 
#
# 1 0.013826 -0.006909 -0.003798 0.000003 -0.004113 0.000002
# 2 -0.006909 0.017682 -0.000746 -0.000002 0.005545 -0.000002
# 3 -0.003798 -0.000746 0.012060 -0.000002 -0.002925 0.000000
# 4 0.000003 -0.000002 -0.000002 0.066861 -0.000001 0.002190
# 5 -0.004113 0.005545 -0.002925 -0.000001 0.034763 0.000003
# 6 0.000002 -0.000002 0.000000 0.002190 0.000003 0.027817
#
#
# Mechanical properties :
#
#
# Convention : Reuss Voigt Hill
#
# Bulk Modulus (GPa) = 48.39592 51.72631 50.06112
# Shear Modulus (GPa) = 24.65477 28.86354 26.75916
#
# Velocity S-wave (km/s) = 3.52168 3.81043 3.66890
# Velocity P-wave (km/s) = 6.39384 6.73642 6.56736
#
# Compressibility (1/GPa) = 0.02066290
#
# Stress axis : x y z
#
# Youngs Moduli (GPa) = 72.32970 56.55323 82.92144
#
# Poissons Ratio (x) = 0.39074 0.31490
# Poissons Ratio (y) = 0.49974 0.06182
# Poissons Ratio (z) = 0.27468 0.04216
#
# Static dielectric constant tensor:
#      x y z
#    x 3.662870 -0.000010 0.174820 
#    y -0.000010 3.570650 -0.000030 
#    z 0.174820 -0.000030 3.682120 
# 
# 
# High freq. dielectric constant tensor:
#      x y z
#    x 1.778270 0.000000 0.015610 
#    y 0.000000 1.773970 0.000000 
#    z 0.015610 0.000000 1.765740 
# 
# From -- ./inp_files/51707.got.cif
#   From: 2010.03.12/outbox.cif.g09.slc.cpg/sg5_26_cif.got.tgz:51707.got - 2010.03.31 09:47:26.
