data_PCOD8048742
_publ_section_title
;
Structure prediction by ZEFSAII (Michael W. Deem and Ramdas Pophale) SiO2 
 PCOD8048742
Probable space group: C 2
;
_chemical_formula_sum "Si O2"
_cell_formula_units_Z 18
_cell_length_a 11.670198
_cell_length_b 18.519820
_cell_length_c 5.111588
_cell_angle_alpha 90.000000
_cell_angle_beta 59.079954
_cell_angle_gamma 90.000000
_cell_volume 947.763532
_symmetry_space_group_name_H-M "C 2"
_symmetry_group_IT_number 5
_symmetry_cell_setting 'monoclinic'
loop_
_space_group_symop_operation_xyz
x,y,z
-x,y,-z
1/2+x,1/2+y,z
1/2-x,1/2+y,-z
loop_
_atom_site_type_symbol
_atom_site_label
_atom_site_fract_x
_atom_site_fract_y
_atom_site_fract_z
Si Si1 0.148880 0.658650 0.805743
Si Si2 0.500000 0.460749 0.000000
Si Si3 0.214554 0.746769 0.228756
Si Si4 0.108935 0.076891 0.566134
Si Si5 0.000000 0.207566 0.000000
Si Si6 0.000000 0.865395 0.500000
O O1 0.172069 0.685660 0.483732
O O2 0.248029 0.590725 0.737941
O O3 0.173219 0.722159 0.986389
O O4 0.000000 0.628274 0.000000
O O5 0.378538 0.516945 0.216750
O O6 0.536850 0.411428 0.202008
O O7 0.375955 0.757955 0.050592
O O8 0.133391 0.818724 0.397803
O O9 0.000000 0.041619 0.500000
O O10 0.052093 0.155607 0.709720
#
# Coordination Sequence:
#
# PCOD8048742 Si02
#       6
#     4   2   4   4   2   2
#     4  11  20  35  58  92 117 138 181 249 304 330
#     4  11  24  38  58  82 110 165 202 222 262 349
#     4  11  21  35  58  88 119 146 182 238 293 342
#     4  10  19  37  61  84 113 146 195 240 282 333
#     4   9  20  34  60  92 112 139 186 248 304 325
#     4  12  22  38  58  82 120 156 194 226 272 348
#
# _framework density 18.992077999999999
#
# number of rings (size 3 to 8) (size 9 to 14) (size 15 to 20)
#    0.000    1.333    5.556    1.333    0.000    0.000 
#    0.000    0.000    2.444    2.667    0.000    0.000 
#    0.000    0.000    0.000    0.000    0.000    0.000 
#
# Total GULP energy -111528.186886 kJ/mol
# GULP energy per Si atom -12392.020765 kJ/mol
# Density = 1.894885 g / cm^3
# Si number density = 18.992078 Si / 1000 Ang^3
#
#
#
# Elastic Constant Matrix: (Units=GPa)
#
#
# Indices 1 2 3 4 5 6 
#
# 1 114.5168 41.7211 55.8866 0.0000 -28.9815 0.0000
# 2 41.7211 82.0058 35.5582 0.0000 -14.1475 0.0000
# 3 55.8866 35.5582 96.7319 0.0000 -17.0586 0.0000
# 4 0.0000 0.0000 0.0000 28.7644 0.0000 11.7327
# 5 -28.9815 -14.1475 -17.0586 0.0000 48.9343 0.0000
# 6 0.0000 0.0000 0.0000 11.7327 0.0000 15.4557
#
#
#
# Elastic Compliance Matrix: (Units=1/GPa)
#
#
# Indices 1 2 3 4 5 6 
#
# 1 0.014384 -0.003809 -0.005969 0.000000 0.005337 0.000000
# 2 -0.003809 0.015805 -0.003411 0.000000 0.001125 0.000000
# 3 -0.005969 -0.003411 0.015176 0.000000 0.000769 0.000000
# 4 0.000000 0.000000 0.000000 0.050358 0.000000 -0.038228
# 5 0.005337 0.001125 0.000769 0.000000 0.024190 0.000000
# 6 0.000000 0.000000 0.000000 -0.038228 0.000000 0.093720
#
#
# Mechanical properties :
#
#
# Convention : Reuss Voigt Hill
#
# Bulk Modulus (GPa) = 52.66744 62.17625 57.42185
# Shear Modulus (GPa) = 20.29728 29.30346 24.80037
#
# Velocity S-wave (km/s) = 3.27268 3.93228 3.61754
# Velocity P-wave (km/s) = 6.48630 7.30932 6.91007
#
# Compressibility (1/GPa) = 0.01898706
#
# Stress axis : x y z
#
# Youngs Moduli (GPa) = 69.52401 63.27068 65.89447
#
# Poissons Ratio (x) = 0.24099 0.39331
# Poissons Ratio (y) = 0.26481 0.22476
# Poissons Ratio (z) = 0.41497 0.21581
#
# Static dielectric constant tensor:
#      x y z
#    x 3.742780 0.000000 -0.116780 
#    y 0.000000 3.294110 0.000000 
#    z -0.116780 0.000000 3.754730 
# 
# 
# High freq. dielectric constant tensor:
#      x y z
#    x 1.732940 0.000000 0.009970 
#    y 0.000000 1.701690 0.000000 
#    z 0.009970 0.000000 1.754890 
# 
# From -- ./inp_files/4910.got.cif
#   From: 2010.03.12/outbox.cif.g09.slc.cpg/sg5_3_cif.got.tgz:4910.got - 2010.03.31 09:47:26.
