data_PCOD8048023
_publ_section_title
;
Structure prediction by ZEFSAII (Michael W. Deem and Ramdas Pophale) SiO2 
 PCOD8048023
Probable space group: P 21
;
_chemical_formula_sum "Si O2"
_cell_formula_units_Z 10
_cell_length_a 10.167764
_cell_length_b 8.502616
_cell_length_c 10.163238
_cell_angle_alpha 90.000000
_cell_angle_beta 27.710515
_cell_angle_gamma 90.000000
_cell_volume 408.570776
_symmetry_space_group_name_H-M "P 21"
_symmetry_group_IT_number 4
_symmetry_cell_setting 'monoclinic'
loop_
_space_group_symop_operation_xyz
x,y,z
-x,1/2+y,-z
loop_
_atom_site_type_symbol
_atom_site_label
_atom_site_fract_x
_atom_site_fract_y
_atom_site_fract_z
Si Si1 0.811985 0.260070 0.550064
Si Si2 0.033105 0.605685 0.327198
Si Si3 0.807603 0.718651 0.009382
Si Si4 0.471812 0.652387 0.710893
Si Si5 0.747962 0.436741 0.260945
O O1 0.954795 0.429736 0.437887
O O2 0.786790 0.182516 0.715406
O O3 0.017120 0.158853 0.273581
O O4 0.505208 0.269145 0.755676
O O5 0.741253 0.699911 0.562072
O O6 0.208143 0.611908 0.036885
O O7 0.962266 0.870494 0.934442
O O8 0.823255 0.576111 0.096260
O O9 0.551146 0.500025 0.553034
O O10 0.419467 0.799204 0.662902
#
# Coordination Sequence:
#
# PCOD8048023 Si02
#       5
#     2   2   2   2   2
#     4  12  29  51  81 113 157 211 269 331 384 478
#     4  12  29  51  81 113 157 211 269 331 384 478
#     4  12  29  51  83 115 162 206 270 322 409 462
#     4  12  29  51  83 115 162 206 270 322 409 462
#     4  12  30  52  84 118 164 214 256 342 392 492
#
# _framework density 24.475562
#
# number of rings (size 3 to 8) (size 9 to 14) (size 15 to 20)
#    0.000    0.000    2.000    4.800   11.200    6.400 
#    0.000    0.000    0.000    0.000    0.000    0.000 
#    0.000    0.000    0.000    0.000    0.000    0.000 
#
# Total GULP energy -124035.771149 kJ/mol
# GULP energy per Si atom -12403.577115 kJ/mol
# Density = 2.441985 g / cm^3
# Si number density = 24.475562 Si / 1000 Ang^3
#
#
#
# Elastic Constant Matrix: (Units=GPa)
#
#
# Indices 1 2 3 4 5 6 
#
# 1 72.9896 107.6880 43.3342 0.0000 75.7402 0.0000
# 2 107.6880 90.8241 21.4057 0.0000 -29.1547 0.0000
# 3 43.3342 21.4057 106.4862 0.0000 -18.8956 0.0000
# 4 0.0000 0.0000 0.0000 38.8175 0.0000 -1.3916
# 5 75.7402 -29.1547 -18.8956 0.0000 -37.9918 0.0000
# 6 0.0000 0.0000 0.0000 -1.3916 0.0000 32.8155
#
#
#
# Elastic Compliance Matrix: (Units=1/GPa)
#
#
# Indices 1 2 3 4 5 6 
#
# 1 0.004967 -0.002327 0.000478 0.000000 0.011451 0.000000
# 2 -0.002327 0.010887 -0.003260 0.000000 -0.011372 0.000000
# 3 0.000478 -0.003260 0.009616 0.000000 -0.001328 0.000000
# 4 0.000000 0.000000 0.000000 0.025801 0.000000 0.001094
# 5 0.011451 -0.011372 -0.001328 0.000000 0.005894 0.000000
# 6 0.000000 0.000000 0.000000 0.001094 0.000000 0.030520
#
#
# Mechanical properties :
#
#
# Convention : Reuss Voigt Hill
#
# Bulk Modulus (GPa) = 65.55694 68.35064 66.95379
# Shear Modulus (GPa) = 48.55065 13.25303 30.90184
#
# Velocity S-wave (km/s) = 4.45864 2.32950 3.55711
# Velocity P-wave (km/s) = 7.30402 5.93482 6.65473
#
# Compressibility (1/GPa) = 0.01525391
#
# Stress axis : x y z
#
# Youngs Moduli (GPa) = 201.31312 91.85389 103.99465
#
# Poissons Ratio (x) = 0.21372 -0.04972
# Poissons Ratio (y) = 0.46840 0.33897
# Poissons Ratio (z) = -0.09625 0.29940
#
# Static dielectric constant tensor:
#      x y z
#    x 4.726220 0.000000 0.026230 
#    y 0.000000 4.829950 0.000000 
#    z 0.026230 0.000000 4.755760 
# 
# 
# High freq. dielectric constant tensor:
#      x y z
#    x 1.993140 0.000000 -0.000570 
#    y 0.000000 1.973450 0.000000 
#    z -0.000570 0.000000 1.993390 
# 
# From -- ./inp_files/11802.got.cif
#   From: 2010.03.12/outbox.cif.g09.slc.cpg/sg4_6_cif.got.tgz:11802.got - 2010.03.31 09:31:35.
