data_PCOD8048226
_publ_section_title
;
Structure prediction by ZEFSAII (Michael W. Deem and Ramdas Pophale) SiO2 
 PCOD8048226
Probable space group: C 2
;
_chemical_formula_sum "Si O2"
_cell_formula_units_Z 30
_cell_length_a 13.902451
_cell_length_b 19.599686
_cell_length_c 11.673290
_cell_angle_alpha 90.000000
_cell_angle_beta 32.889442
_cell_angle_gamma 90.000000
_cell_volume 1727.226788
_symmetry_space_group_name_H-M "C 2"
_symmetry_group_IT_number 5
_symmetry_cell_setting 'monoclinic'
loop_
_space_group_symop_operation_xyz
x,y,z
-x,y,-z
1/2+x,1/2+y,z
1/2-x,1/2+y,-z
loop_
_atom_site_type_symbol
_atom_site_label
_atom_site_fract_x
_atom_site_fract_y
_atom_site_fract_z
Si Si1 0.000000 0.550640 0.500000
Si Si2 0.999935 0.809231 0.368639
Si Si3 0.200965 0.185543 0.428314
Si Si4 0.201027 0.185544 0.169721
Si Si5 0.202435 0.337471 0.098432
Si Si6 0.202359 0.337475 0.496797
Si Si7 0.704142 0.439621 0.795858
Si Si8 0.999945 0.655143 0.295711
O O1 0.177988 0.506899 0.322001
O O2 0.000017 0.595864 0.612932
O O3 0.825277 0.841348 0.485683
O O4 0.999915 0.727558 0.359209
O O5 0.000000 0.831489 0.500000
O O6 0.174578 0.841338 0.136340
O O7 0.241565 0.161493 0.258449
O O8 0.235899 0.266408 0.398441
O O9 0.327026 0.145883 0.389518
O O10 0.999956 0.168213 0.664218
O O11 0.235927 0.266412 0.129781
O O12 0.327145 0.145896 0.956345
O O13 0.252089 0.397224 0.134856
O O14 0.000051 0.344977 0.260132
O O15 0.252052 0.397223 0.361008
O O16 0.500000 0.461878 0.000000
#
# Coordination Sequence:
#
# PCOD8048226 Si02
#       8
#     2   4   4   4   4   4   4   4
#     4  12  26  40  54  78 126 162 194 220 264 370
#     4  10  20  34  56  83 119 148 185 238 283 350
#     4   9  17  30  57  89 114 138 179 250 290 327
#     4   9  17  30  57  89 114 138 179 250 290 327
#     4  10  18  32  56  88 118 138 184 240 302 332
#     4  10  18  32  56  88 118 138 184 240 302 332
#     4  12  22  36  60  88 110 150 192 245 284 332
#     4  10  21  36  51  78 118 163 188 212 283 347
#
# _framework density 17.368883
#
# number of rings (size 3 to 8) (size 9 to 14) (size 15 to 20)
#    0.000    1.867    4.667    0.400    0.000    1.600 
#    0.000    0.000    0.000    3.200    0.000    0.000 
#    0.000    0.000    0.000    0.000    0.000    0.000 
#
# Total GULP energy -186028.875291 kJ/mol
# GULP energy per Si atom -12401.925019 kJ/mol
# Density = 1.732935 g / cm^3
# Si number density = 17.368883 Si / 1000 Ang^3
#
#
#
# Elastic Constant Matrix: (Units=GPa)
#
#
# Indices 1 2 3 4 5 6 
#
# 1 146.6361 55.8267 96.7183 0.0013 1.1317 -0.0145
# 2 55.8267 80.1040 54.6321 0.0282 1.3863 -0.0176
# 3 96.7183 54.6321 151.6371 0.0335 -7.4021 -0.0078
# 4 0.0013 0.0282 0.0335 25.0470 -0.0131 0.9271
# 5 1.1317 1.3863 -7.4021 -0.0131 34.6956 0.0136
# 6 -0.0145 -0.0176 -0.0078 0.9271 0.0136 25.8424
#
#
#
# Elastic Compliance Matrix: (Units=1/GPa)
#
#
# Indices 1 2 3 4 5 6 
#
# 1 0.012973 -0.004391 -0.006775 0.000012 -0.001693 0.000003
# 2 -0.004391 0.018169 -0.003813 -0.000016 -0.001396 0.000010
# 3 -0.006775 -0.003813 0.012438 -0.000010 0.003027 -0.000004
# 4 0.000012 -0.000016 -0.000010 0.039978 0.000014 -0.001434
# 5 -0.001693 -0.001396 0.003027 0.000014 0.029579 -0.000017
# 6 0.000003 0.000010 -0.000004 -0.001434 -0.000017 0.038748
#
#
# Mechanical properties :
#
#
# Convention : Reuss Voigt Hill
#
# Bulk Modulus (GPa) = 73.41897 88.08126 80.75012
# Shear Modulus (GPa) = 26.82625 28.53035 27.67830
#
# Velocity S-wave (km/s) = 3.93428 4.05731 3.99627
# Velocity P-wave (km/s) = 7.93727 8.53061 8.23928
#
# Compressibility (1/GPa) = 0.01362046
#
# Stress axis : x y z
#
# Youngs Moduli (GPa) = 77.08089 55.03863 80.40029
#
# Poissons Ratio (x) = 0.24169 0.54474
# Poissons Ratio (y) = 0.33849 0.30658
# Poissons Ratio (z) = 0.52225 0.20987
#
# Static dielectric constant tensor:
#      x y z
#    x 3.304310 -0.000020 -0.193800 
#    y -0.000020 2.875670 0.000030 
#    z -0.193800 0.000030 3.465000 
# 
# 
# High freq. dielectric constant tensor:
#      x y z
#    x 1.675790 0.000000 -0.010860 
#    y 0.000000 1.630290 0.000010 
#    z -0.010860 0.000010 1.684770 
# 
# From -- ./inp_files/25359.got.cif
#   From: 2010.03.12/outbox.cif.g09.slc.cpg/sg5_13_cif.got.tgz:25359.got - 2010.03.31 09:47:26.
