data_PCOD8048343
_publ_section_title
;
Structure prediction by ZEFSAII (Michael W. Deem and Ramdas Pophale) SiO2 
 PCOD8048343
Probable space group: C 2
;
_chemical_formula_sum "Si O2"
_cell_formula_units_Z 32
_cell_length_a 14.337754
_cell_length_b 22.527741
_cell_length_c 9.383403
_cell_angle_alpha 90.000000
_cell_angle_beta 30.109138
_cell_angle_gamma 90.000000
_cell_volume 1520.403427
_symmetry_space_group_name_H-M "C 2"
_symmetry_group_IT_number 5
_symmetry_cell_setting 'monoclinic'
loop_
_space_group_symop_operation_xyz
x,y,z
-x,y,-z
1/2+x,1/2+y,z
1/2-x,1/2+y,-z
loop_
_atom_site_type_symbol
_atom_site_label
_atom_site_fract_x
_atom_site_fract_y
_atom_site_fract_z
Si Si1 0.409629 0.905850 0.759024
Si Si2 0.815646 0.672232 0.700565
Si Si3 0.019021 0.916738 0.626305
Si Si4 0.655227 0.583196 0.696410
Si Si5 0.999227 0.164203 0.667113
Si Si6 0.371137 0.978625 0.301291
Si Si7 0.212313 0.795520 0.364322
Si Si8 0.954251 0.289881 0.297893
O O1 0.500000 0.935413 0.500000
O O2 0.494698 0.935933 0.786710
O O3 0.479753 0.837689 0.672509
O O4 0.187147 0.913257 0.033309
O O5 0.704586 0.640395 0.723580
O O6 0.892098 0.733540 0.527120
O O7 0.000000 0.635822 0.500000
O O8 0.701924 0.676389 0.998154
O O9 0.172084 0.948876 0.523173
O O10 0.085892 0.851154 0.492887
O O11 0.000000 0.951442 0.500000
O O12 0.590946 0.608207 0.627869
O O13 0.824852 0.538126 0.449457
O O14 0.500000 0.550031 0.000000
O O15 0.099072 0.227903 0.554370
O O16 0.000000 0.146490 0.500000
O O17 0.500000 0.996870 0.000000
O O18 0.268375 0.806415 0.455554
O O19 0.388066 0.787122 0.029790
#
# Coordination Sequence:
#
# PCOD8048343 Si02
#       8
#     4   4   4   4   4   4   4   4
#     4  12  27  43  67 102 136 171 216 273 336 392
#     4  10  21  39  65  96 126 168 217 262 322 397
#     4  12  23  42  71 100 130 172 225 266 323 402
#     4  10  24  45  66  91 127 172 221 272 326 379
#     4  10  21  40  65  94 129 170 211 265 328 386
#     4  12  26  47  70  94 130 177 226 276 322 385
#     4  10  18  35  69  95 127 171 214 261 321 397
#     4  10  18  37  65  95 134 169 207 264 329 389
#
# _framework density 21.047046000000002
#
# number of rings (size 3 to 8) (size 9 to 14) (size 15 to 20)
#    0.000    1.250    5.000    0.750    3.500    2.000 
#    2.250    0.000    0.000    0.000    0.000    0.000 
#    0.000    0.000    0.000    0.000    0.000    0.000 
#
# Total GULP energy -198226.722793 kJ/mol
# GULP energy per Si atom -12389.170175 kJ/mol
# Density = 2.099914 g / cm^3
# Si number density = 21.047046 Si / 1000 Ang^3
#
#
#
# Elastic Constant Matrix: (Units=GPa)
#
#
# Indices 1 2 3 4 5 6 
#
# 1 106.6410 9.3195 39.0761 -0.0007 1.3825 0.0010
# 2 9.3195 70.1250 24.4462 -0.0004 3.4704 0.0012
# 3 39.0761 24.4462 80.3640 -0.0017 6.6011 0.0012
# 4 -0.0007 -0.0004 -0.0017 23.8328 0.0020 -2.6426
# 5 1.3825 3.4704 6.6011 0.0020 39.4254 -0.0019
# 6 0.0010 0.0012 0.0012 -2.6426 -0.0019 5.9878
#
#
#
# Elastic Compliance Matrix: (Units=1/GPa)
#
#
# Indices 1 2 3 4 5 6 
#
# 1 0.011434 0.000456 -0.005741 0.000000 0.000520 -0.000001
# 2 0.000456 0.015984 -0.005036 0.000000 -0.000580 -0.000003
# 3 -0.005741 -0.005036 0.016947 0.000001 -0.002193 -0.000002
# 4 0.000000 0.000000 0.000001 0.044118 -0.000001 0.019471
# 5 0.000520 -0.000580 -0.002193 -0.000001 0.025764 0.000008
# 6 -0.000001 -0.000003 -0.000002 0.019471 0.000008 0.175601
#
#
# Mechanical properties :
#
#
# Convention : Reuss Voigt Hill
#
# Bulk Modulus (GPa) = 42.15418 44.75706 43.45562
# Shear Modulus (GPa) = 15.70355 26.13507 20.91931
#
# Velocity S-wave (km/s) = 2.73448 3.52766 3.15609
# Velocity P-wave (km/s) = 5.48104 6.15662 5.82863
#
# Compressibility (1/GPa) = 0.02372244
#
# Stress axis : x y z
#
# Youngs Moduli (GPa) = 87.45511 62.56239 59.00676
#
# Poissons Ratio (x) = -0.02854 0.33878
# Poissons Ratio (y) = -0.03989 0.29718
# Poissons Ratio (z) = 0.50211 0.31509
#
# Static dielectric constant tensor:
#      x y z
#    x 3.922990 0.000000 -0.044430 
#    y 0.000000 3.698290 0.000000 
#    z -0.044430 0.000000 3.692110 
# 
# 
# High freq. dielectric constant tensor:
#      x y z
#    x 1.837130 0.000000 -0.002660 
#    y 0.000000 1.814380 0.000000 
#    z -0.002660 0.000000 1.808060 
# 
# From -- ./inp_files/25581.got.cif
#   From: 2010.03.12/outbox.cif.g09.slc.cpg/sg5_13_cif.got.tgz:25581.got - 2010.03.31 09:47:26.
