data_PCOD8048916
_publ_section_title
;
Structure prediction by ZEFSAII (Michael W. Deem and Ramdas Pophale) SiO2 
 PCOD8048916
Probable space group: C 2
;
_chemical_formula_sum "Si O2"
_cell_formula_units_Z 30
_cell_length_a 11.717024
_cell_length_b 15.091223
_cell_length_c 8.565642
_cell_angle_alpha 90.000000
_cell_angle_beta 109.919223
_cell_angle_gamma 90.000000
_cell_volume 1423.999558
_symmetry_space_group_name_H-M "C 2"
_symmetry_group_IT_number 5
_symmetry_cell_setting 'monoclinic'
loop_
_space_group_symop_operation_xyz
x,y,z
-x,y,-z
1/2+x,1/2+y,z
1/2-x,1/2+y,-z
loop_
_atom_site_type_symbol
_atom_site_label
_atom_site_fract_x
_atom_site_fract_y
_atom_site_fract_z
Si Si1 0.286225 0.860280 0.402760
Si Si2 0.000000 0.018441 0.000000
Si Si3 0.774310 0.107509 0.008049
Si Si4 0.513445 0.404516 0.328476
Si Si5 0.659504 0.933345 0.883583
Si Si6 0.432277 0.831484 0.760830
Si Si7 0.707314 0.296752 0.872013
Si Si8 0.409677 0.692270 0.331118
O O1 0.146270 0.863108 0.382165
O O2 0.327877 0.934723 0.297955
O O3 0.372367 0.881760 0.587942
O O4 0.314843 0.760050 0.363273
O O5 0.120061 0.079729 0.065060
O O6 0.994603 0.966305 0.165189
O O7 0.700914 0.195782 0.927427
O O8 0.676507 0.028896 0.969615
O O9 0.834438 0.116399 0.207873
O O10 0.500000 0.447135 0.500000
O O11 0.415947 0.323843 0.273894
O O12 0.528508 0.899799 0.880697
O O13 0.770633 0.866281 0.977867
O O14 0.327571 0.803767 0.826625
O O15 0.507675 0.743615 0.755228
O O16 0.500000 0.647965 0.500000
#
# Coordination Sequence:
#
# PCOD8048916 Si02
#       8
#     4   2   4   4   4   4   4   4
#     4  10  19  42  68  95 132 180 228 281 347 407
#     4  12  26  44  72 102 140 188 232 290 342 420
#     4  12  23  40  68 102 133 180 231 285 347 412
#     4  12  24  45  73 100 145 185 231 284 352 418
#     4  11  22  40  65 101 132 173 230 279 349 405
#     4  10  20  39  70  93 129 175 226 282 338 408
#     4  12  23  42  67  97 135 176 228 281 345 414
#     4   9  20  38  67 102 130 174 235 289 342 408
#
# _framework density 21.067422000000001
#
# number of rings (size 3 to 8) (size 9 to 14) (size 15 to 20)
#    0.000    1.067    6.667    2.400    0.000    0.533 
#    0.000    4.000    2.933    0.000    0.000    0.000 
#    0.000    0.000    0.000    0.000    0.000    0.000 
#
# Total GULP energy -185853.101093 kJ/mol
# GULP energy per Si atom -12390.206740 kJ/mol
# Density = 2.101947 g / cm^3
# Si number density = 21.067422 Si / 1000 Ang^3
#
#
#
# Elastic Constant Matrix: (Units=GPa)
#
#
# Indices 1 2 3 4 5 6 
#
# 1 71.3256 8.0241 11.9591 0.0000 3.1617 0.0000
# 2 8.0241 112.1831 47.4013 0.0000 13.0795 0.0000
# 3 11.9591 47.4013 129.4235 0.0000 0.7503 0.0000
# 4 0.0000 0.0000 0.0000 26.5712 0.0000 8.0513
# 5 3.1617 13.0795 0.7503 0.0000 33.8672 0.0000
# 6 0.0000 0.0000 0.0000 8.0513 0.0000 24.7236
#
#
#
# Elastic Compliance Matrix: (Units=1/GPa)
#
#
# Indices 1 2 3 4 5 6 
#
# 1 0.014312 -0.000394 -0.001172 0.000000 -0.001158 0.000000
# 2 -0.000394 0.011124 -0.004014 0.000000 -0.004171 0.000000
# 3 -0.001172 -0.004014 0.009296 0.000000 0.001454 0.000000
# 4 0.000000 0.000000 0.000000 0.041755 0.000000 -0.013597
# 5 -0.001158 -0.004171 0.001454 0.000000 0.031214 0.000000
# 6 0.000000 0.000000 0.000000 -0.013597 0.000000 0.044875
#
#
# Mechanical properties :
#
#
# Convention : Reuss Voigt Hill
#
# Bulk Modulus (GPa) = 42.41763 49.74456 46.08110
# Shear Modulus (GPa) = 29.13871 33.40226 31.27049
#
# Velocity S-wave (km/s) = 3.72306 3.98615 3.85685
# Velocity P-wave (km/s) = 6.21768 6.69695 6.46176
#
# Compressibility (1/GPa) = 0.02357510
#
# Stress axis : x y z
#
# Youngs Moduli (GPa) = 69.87007 89.89299 107.56809
#
# Poissons Ratio (x) = 0.03538 0.12603
# Poissons Ratio (y) = 0.02750 0.43175
# Poissons Ratio (z) = 0.08186 0.36081
#
# Static dielectric constant tensor:
#      x y z
#    x 3.905120 0.000000 0.052680 
#    y 0.000000 3.512970 0.000000 
#    z 0.052680 0.000000 4.355430 
# 
# 
# High freq. dielectric constant tensor:
#      x y z
#    x 1.827920 0.000000 0.005990 
#    y 0.000000 1.792280 0.000000 
#    z 0.005990 0.000000 1.844880 
# 
# From -- ./inp_files/20698.got.cif
#   From: 2010.03.12/outbox.cif.g09.slc.cpg/sg5_11_cif.got.tgz:20698.got - 2010.03.31 09:47:26.
