data_PCOD8048358
_publ_section_title
;
Structure prediction by ZEFSAII (Michael W. Deem and Ramdas Pophale) SiO2 
 PCOD8048358
Probable space group: C 2
;
_chemical_formula_sum "Si O2"
_cell_formula_units_Z 20
_cell_length_a 15.868373
_cell_length_b 7.489601
_cell_length_c 30.604706
_cell_angle_alpha 90.000000
_cell_angle_beta 164.387173
_cell_angle_gamma 90.000000
_cell_volume 978.926724
_symmetry_space_group_name_H-M "C 2"
_symmetry_group_IT_number 5
_symmetry_cell_setting 'monoclinic'
loop_
_space_group_symop_operation_xyz
x,y,z
-x,y,-z
1/2+x,1/2+y,z
1/2-x,1/2+y,-z
loop_
_atom_site_type_symbol
_atom_site_label
_atom_site_fract_x
_atom_site_fract_y
_atom_site_fract_z
Si Si1 0.956119 0.732620 0.756862
Si Si2 0.501469 0.886952 0.826292
Si Si3 0.329410 0.516751 0.072769
Si Si4 0.985682 0.640231 0.388768
Si Si5 0.769028 0.311424 0.446272
O O1 0.059105 0.526432 0.815910
O O2 0.606840 0.746094 0.600300
O O3 0.975324 0.784154 0.715479
O O4 0.187790 0.864481 0.898729
O O5 0.728908 0.713434 0.934632
O O6 0.138381 0.816121 0.646792
O O7 0.566748 0.981930 0.905471
O O8 0.675911 0.520447 0.223090
O O9 0.218528 0.521856 0.535035
O O10 0.162467 0.691148 0.433215
#
# Coordination Sequence:
#
# PCOD8048358 Si02
#       5
#     4   4   4   4   4
#     4  10  19  36  58  82 116 143 189 237 273 335
#     4  10  18  36  60  80 108 154 184 229 277 332
#     4   9  19  34  59  82 105 150 191 225 275 338
#     4   9  20  35  57  82 116 149 184 232 283 335
#     4  10  20  37  53  87 115 146 186 233 284 337
#
# _framework density 20.430537999999999
#
# number of rings (size 3 to 8) (size 9 to 14) (size 15 to 20)
#    1.200    1.200    2.000    1.200    0.000    0.000 
#   10.800    4.000    0.000    2.400    0.000    0.000 
#    0.000    0.000    0.000    0.000    0.000    0.000 
#
# Total GULP energy -123887.424733 kJ/mol
# GULP energy per Si atom -12388.742473 kJ/mol
# Density = 2.038404 g / cm^3
# Si number density = 20.430538 Si / 1000 Ang^3
#
#
#
# Elastic Constant Matrix: (Units=GPa)
#
#
# Indices 1 2 3 4 5 6 
#
# 1 68.9198 56.6636 24.1294 -0.0297 -23.9436 0.0383
# 2 56.6636 172.0322 45.0842 -0.0031 -33.2646 0.0119
# 3 24.1294 45.0842 54.8863 0.0826 -30.6189 0.0292
# 4 -0.0297 -0.0031 0.0826 35.2528 0.0013 -6.7473
# 5 -23.9436 -33.2646 -30.6189 0.0013 30.4421 -0.0251
# 6 0.0383 0.0119 0.0292 -6.7473 -0.0251 26.2290
#
#
#
# Elastic Compliance Matrix: (Units=1/GPa)
#
#
# Indices 1 2 3 4 5 6 
#
# 1 0.023285 -0.005456 0.002588 0.000009 0.014955 -0.000018
# 2 -0.005456 0.008966 -0.004317 0.000009 0.001165 0.000012
# 3 0.002588 -0.004317 0.043590 -0.000109 0.041162 -0.000039
# 4 0.000009 0.000009 -0.000109 0.029836 -0.000089 0.007675
# 5 0.014955 0.001165 0.041162 -0.000089 0.087285 -0.000007
# 6 -0.000018 0.000012 -0.000039 0.007675 -0.000007 0.040100
#
#
# Mechanical properties :
#
#
# Convention : Reuss Voigt Hill
#
# Bulk Modulus (GPa) = 16.26761 60.84363 38.55562
# Shear Modulus (GPa) = 18.66205 29.71552 24.18878
#
# Velocity S-wave (km/s) = 3.02559 3.81788 3.44459
# Velocity P-wave (km/s) = 4.49281 7.02000 5.89346
#
# Compressibility (1/GPa) = 0.06147186
#
# Stress axis : x y z
#
# Youngs Moduli (GPa) = 42.94616 111.52691 22.94088
#
# Poissons Ratio (x) = 0.60849 -0.05937
# Poissons Ratio (y) = 0.23431 0.09903
# Poissons Ratio (z) = -0.11114 0.48145
#
# Static dielectric constant tensor:
#      x y z
#    x 3.312120 0.000060 -0.220090 
#    y 0.000060 3.913710 0.000110 
#    z -0.220090 0.000110 3.524100 
# 
# 
# High freq. dielectric constant tensor:
#      x y z
#    x 1.756010 0.000000 -0.014420 
#    y 0.000000 1.812260 0.000000 
#    z -0.014420 0.000000 1.776700 
# 
# From -- ./inp_files/28506.got.cif
#   From: 2010.03.12/outbox.cif.g09.slc.cpg/sg5_15_cif.got.tgz:28506.got - 2010.03.31 09:47:26.
