data_PCOD8048380
_publ_section_title
;
Structure prediction by ZEFSAII (Michael W. Deem and Ramdas Pophale) SiO2 
 PCOD8048380
Probable space group: C 2
;
_chemical_formula_sum "Si O2"
_cell_formula_units_Z 26
_cell_length_a 18.306942
_cell_length_b 12.929414
_cell_length_c 7.320442
_cell_angle_alpha 90.000000
_cell_angle_beta 136.835442
_cell_angle_gamma 90.000000
_cell_volume 1185.356633
_symmetry_space_group_name_H-M "C 2"
_symmetry_group_IT_number 5
_symmetry_cell_setting 'monoclinic'
loop_
_space_group_symop_operation_xyz
x,y,z
-x,y,-z
1/2+x,1/2+y,z
1/2-x,1/2+y,-z
loop_
_atom_site_type_symbol
_atom_site_label
_atom_site_fract_x
_atom_site_fract_y
_atom_site_fract_z
Si Si1 0.146716 0.271370 0.524291
Si Si2 0.825237 0.775725 0.155955
Si Si3 0.687114 0.332684 0.448802
Si Si4 0.500000 0.894610 0.500000
Si Si5 0.150329 0.042311 0.507589
Si Si6 0.000000 0.931132 0.500000
Si Si7 0.000000 0.678073 0.000000
Si Si8 0.880626 0.571126 0.099396
O O1 0.201387 0.328881 0.454702
O O2 0.118907 0.157975 0.390931
O O3 0.039796 0.326358 0.400350
O O4 0.223680 0.272756 0.840034
O O5 0.793095 0.809802 0.301141
O O6 0.874326 0.660590 0.242031
O O7 0.914668 0.855923 0.241489
O O8 0.648453 0.452085 0.349913
O O9 0.602861 0.250442 0.218764
O O10 0.406796 0.966121 0.251595
O O11 0.059730 0.009617 0.480854
O O12 0.268511 0.048470 0.802712
O O13 0.029184 0.604208 0.883715
#
# Coordination Sequence:
#
# PCOD8048380 Si02
#       8
#     4   4   4   2   4   2   2   4
#     4  11  25  44  62  97 135 171 217 267 325 401
#     4  10  21  42  66  96 126 165 222 276 316 378
#     4  11  23  40  72  94 128 168 222 279 315 382
#     4  12  24  40  66  94 136 182 206 262 348 384
#     4  10  22  40  64  93 129 171 212 268 321 379
#     4  10  18  36  66  88 126 166 206 262 322 368
#     4  12  22  42  70  96 130 166 234 272 318 376
#     4  11  23  40  67  98 129 173 220 271 324 390
#
# _framework density 21.934327
#
# number of rings (size 3 to 8) (size 9 to 14) (size 15 to 20)
#    0.000    1.231    3.077    5.538    2.154    1.231 
#    0.000    0.000    6.769    0.000    0.000    0.000 
#    0.000    0.000    0.000    0.000    0.000    0.000 
#
# Total GULP energy -161107.348191 kJ/mol
# GULP energy per Si atom -12392.872938 kJ/mol
# Density = 2.188440 g / cm^3
# Si number density = 21.934327 Si / 1000 Ang^3
#
#
#
# Elastic Constant Matrix: (Units=GPa)
#
#
# Indices 1 2 3 4 5 6 
#
# 1 145.6094 55.9753 -2.9884 0.0000 12.1127 0.0000
# 2 55.9753 140.9020 -5.5881 0.0000 1.7183 0.0000
# 3 -2.9884 -5.5881 24.7322 0.0000 0.8311 0.0000
# 4 0.0000 0.0000 0.0000 27.4121 0.0000 3.0146
# 5 12.1127 1.7183 0.8311 0.0000 29.0735 0.0000
# 6 0.0000 0.0000 0.0000 3.0146 0.0000 30.6634
#
#
#
# Elastic Compliance Matrix: (Units=1/GPa)
#
#
# Indices 1 2 3 4 5 6 
#
# 1 0.008416 -0.003287 0.000386 0.000000 -0.003323 0.000000
# 2 -0.003287 0.008452 0.001485 0.000000 0.000828 0.000000
# 3 0.000386 0.001485 0.040863 0.000000 -0.001417 0.000000
# 4 0.000000 0.000000 0.000000 0.036879 0.000000 -0.003626
# 5 -0.003323 0.000828 -0.001417 0.000000 0.035772 0.000000
# 6 0.000000 0.000000 0.000000 -0.003626 0.000000 0.032969
#
#
# Mechanical properties :
#
#
# Convention : Reuss Voigt Hill
#
# Bulk Modulus (GPa) = 18.21612 45.11566 31.66589
# Shear Modulus (GPa) = 27.10281 35.01945 31.06113
#
# Velocity S-wave (km/s) = 3.51897 4.00003 3.76719
# Velocity P-wave (km/s) = 4.98335 6.47664 5.77843
#
# Compressibility (1/GPa) = 0.05489644
#
# Stress axis : x y z
#
# Youngs Moduli (GPa) = 118.82412 118.31639 24.47210
#
# Poissons Ratio (x) = 0.38896 -0.00944
# Poissons Ratio (y) = 0.39063 -0.03633
# Poissons Ratio (z) = -0.04584 -0.17566
#
# Static dielectric constant tensor:
#      x y z
#    x 4.127450 0.000000 0.103110 
#    y 0.000000 4.571240 0.000000 
#    z 0.103110 0.000000 3.676390 
# 
# 
# High freq. dielectric constant tensor:
#      x y z
#    x 1.869760 0.000000 0.016050 
#    y 0.000000 1.883850 0.000000 
#    z 0.016050 0.000000 1.833220 
# 
# From -- ./inp_files/29679.got.cif
#   From: 2010.03.12/outbox.cif.g09.slc.cpg/sg5_15_cif.got.tgz:29679.got - 2010.03.31 09:47:26.
