data_PCOD8048354
_publ_section_title
;
Structure prediction by ZEFSAII (Michael W. Deem and Ramdas Pophale) SiO2 
 PCOD8048354
Probable space group: C 2
;
_chemical_formula_sum "Si O2"
_cell_formula_units_Z 30
_cell_length_a 20.553435
_cell_length_b 8.145321
_cell_length_c 9.517997
_cell_angle_alpha 90.000000
_cell_angle_beta 102.942516
_cell_angle_gamma 90.000000
_cell_volume 1552.967898
_symmetry_space_group_name_H-M "C 2"
_symmetry_group_IT_number 5
_symmetry_cell_setting 'monoclinic'
loop_
_space_group_symop_operation_xyz
x,y,z
-x,y,-z
1/2+x,1/2+y,z
1/2-x,1/2+y,-z
loop_
_atom_site_type_symbol
_atom_site_label
_atom_site_fract_x
_atom_site_fract_y
_atom_site_fract_z
Si Si1 0.716753 0.320000 0.944466
Si Si2 0.540494 0.955455 0.851000
Si Si3 0.179038 0.464865 0.824441
Si Si4 0.233627 0.460942 0.312271
Si Si5 0.500000 0.256006 0.000000
Si Si6 0.261565 0.332858 0.625345
Si Si7 0.905488 0.326785 0.833432
Si Si8 0.874329 0.952860 0.858504
O O1 0.721391 0.397858 0.793414
O O2 0.694062 0.132928 0.915916
O O3 0.788447 0.323758 0.059659
O O4 0.665719 0.425595 0.015441
O O5 0.599046 0.944832 0.762895
O O6 0.471773 0.864773 0.769163
O O7 0.572404 0.866833 0.999802
O O8 0.527275 0.144738 0.885675
O O9 0.211733 0.455598 0.685925
O O10 0.253024 0.354294 0.456428
O O11 0.255428 0.646632 0.346421
O O12 0.154542 0.444640 0.244526
O O13 0.553890 0.373870 0.094562
O O14 0.336888 0.368804 0.709761
O O15 0.880780 0.141389 0.817120
#
# Coordination Sequence:
#
# PCOD8048354 Si02
#       8
#     4   4   4   4   2   4   4   4
#     4  11  21  34  60  84 123 142 200 235 294 333
#     4  10  20  35  56  87 120 157 187 245 282 348
#     4  11  21  37  56  92 113 156 189 247 285 343
#     4  12  22  42  58  87 114 160 187 246 289 357
#     4  10  18  36  58  86 122 150 196 232 294 336
#     4  11  25  37  63  82 121 148 199 237 301 341
#     4  10  21  35  59  83 122 150 196 231 292 340
#     4  11  21  37  59  95 112 156 190 247 283 348
#
# _framework density 19.317851000000001
#
# number of rings (size 3 to 8) (size 9 to 14) (size 15 to 20)
#    0.000    1.333    2.667    7.200    1.867    0.000 
#    0.000    0.667    0.000    0.800    0.000    0.000 
#    0.000    0.000    0.000    0.000    0.000    0.000 
#
# Total GULP energy -185954.997411 kJ/mol
# GULP energy per Si atom -12396.999827 kJ/mol
# Density = 1.927388 g / cm^3
# Si number density = 19.317851 Si / 1000 Ang^3
#
#
#
# Elastic Constant Matrix: (Units=GPa)
#
#
# Indices 1 2 3 4 5 6 
#
# 1 97.5704 10.1985 4.3812 0.0000 6.4280 0.0000
# 2 10.1985 69.9168 -2.8836 0.0000 -2.7711 0.0000
# 3 4.3812 -2.8836 69.5874 0.0000 0.3791 0.0000
# 4 0.0000 0.0000 0.0000 25.6315 0.0000 5.7485
# 5 6.4280 -2.7711 0.3791 0.0000 18.5164 0.0000
# 6 0.0000 0.0000 0.0000 5.7485 0.0000 29.8894
#
#
#
# Elastic Compliance Matrix: (Units=1/GPa)
#
#
# Indices 1 2 3 4 5 6 
#
# 1 0.010726 -0.001752 -0.000726 0.000000 -0.003971 0.000000
# 2 -0.001752 0.014698 0.000704 0.000000 0.002793 0.000000
# 3 -0.000726 0.000704 0.014445 0.000000 0.000062 0.000000
# 4 0.000000 0.000000 0.000000 0.040773 0.000000 -0.007842
# 5 -0.003971 0.002793 0.000062 0.000000 0.055802 0.000000
# 6 0.000000 0.000000 0.000000 -0.007842 0.000000 0.034965
#
#
# Mechanical properties :
#
#
# Convention : Reuss Voigt Hill
#
# Bulk Modulus (GPa) = 27.53215 28.94076 28.23646
# Shear Modulus (GPa) = 26.72880 29.83269 28.28075
#
# Velocity S-wave (km/s) = 3.72376 3.93403 3.83034
# Velocity P-wave (km/s) = 5.72465 5.97071 5.84897
#
# Compressibility (1/GPa) = 0.03632117
#
# Stress axis : x y z
#
# Youngs Moduli (GPa) = 93.22830 68.03633 69.22813
#
# Poissons Ratio (x) = 0.11920 0.05028
# Poissons Ratio (y) = 0.16333 -0.04875
# Poissons Ratio (z) = 0.06771 -0.04791
#
# Static dielectric constant tensor:
#      x y z
#    x 4.205070 0.000000 -0.003580 
#    y 0.000000 3.692470 0.000000 
#    z -0.003580 0.000000 3.327930 
# 
# 
# High freq. dielectric constant tensor:
#      x y z
#    x 1.759630 0.000000 0.003060 
#    y 0.000000 1.763670 0.000000 
#    z 0.003060 0.000000 1.717080 
# 
# From -- ./inp_files/28978.got.cif
#   From: 2010.03.12/outbox.cif.g09.slc.cpg/sg5_15_cif.got.tgz:28978.got - 2010.03.31 09:47:26.
