data_PCOD8048276
_publ_section_title
;
Structure prediction by ZEFSAII (Michael W. Deem and Ramdas Pophale) SiO2 
 PCOD8048276
Probable space group: C 2
;
_chemical_formula_sum "Si O2"
_cell_formula_units_Z 24
_cell_length_a 8.656852
_cell_length_b 15.650013
_cell_length_c 15.728785
_cell_angle_alpha 90.000000
_cell_angle_beta 145.945903
_cell_angle_gamma 90.000000
_cell_volume 1193.270284
_symmetry_space_group_name_H-M "C 2"
_symmetry_group_IT_number 5
_symmetry_cell_setting 'monoclinic'
loop_
_space_group_symop_operation_xyz
x,y,z
-x,y,-z
1/2+x,1/2+y,z
1/2-x,1/2+y,-z
loop_
_atom_site_type_symbol
_atom_site_label
_atom_site_fract_x
_atom_site_fract_y
_atom_site_fract_z
Si Si1 0.785448 0.993450 0.582590
Si Si2 0.826959 0.218562 0.846268
Si Si3 0.554769 0.374283 0.818698
Si Si4 0.153242 0.670971 0.481954
Si Si5 0.528239 0.843625 0.374288
Si Si6 0.282579 0.815302 0.089375
O O1 0.500000 0.010687 0.500000
O O2 0.033153 0.965909 0.760200
O O3 0.748166 0.917204 0.497555
O O4 0.846387 0.085800 0.568038
O O5 0.713383 0.307625 0.831955
O O6 0.577934 0.160897 0.697838
O O7 0.036852 0.237536 0.864601
O O8 0.000000 0.170505 0.000000
O O9 0.238059 0.345205 0.686313
O O10 0.709005 0.382590 0.980012
O O11 0.345609 0.751156 0.551368
O O12 0.000000 0.688597 0.500000
O O13 0.451934 0.861704 0.241118
O O14 0.000000 0.776653 0.000000
#
# Coordination Sequence:
#
# PCOD8048276 Si02
#       6
#     4   4   4   4   4   4
#     4   9  19  33  53  83 112 148 185 225 282 330
#     4  10  19  33  56  83 112 146 187 229 287 333
#     4   9  18  34  57  78 112 148 182 227 283 337
#     4  11  20  33  57  87 113 148 190 234 282 334
#     4  10  18  34  58  81 109 146 191 233 279 326
#     4   9  18  32  57  85 105 148 189 228 281 334
#
# _framework density 20.112794000000001
#
# number of rings (size 3 to 8) (size 9 to 14) (size 15 to 20)
#    0.000    2.333    3.333    0.000    0.000    0.000 
#    0.000    5.833   11.000    7.000    0.000    0.000 
#    0.000    0.000    0.000    0.000    0.000    0.000 
#
# Total GULP energy -148704.857162 kJ/mol
# GULP energy per Si atom -12392.071430 kJ/mol
# Density = 2.006702 g / cm^3
# Si number density = 20.112794 Si / 1000 Ang^3
#
#
#
# Elastic Constant Matrix: (Units=GPa)
#
#
# Indices 1 2 3 4 5 6 
#
# 1 63.9872 17.2956 16.8704 0.0009 -6.8503 0.0004
# 2 17.2956 123.5636 52.2037 0.0006 -5.6153 0.0003
# 3 16.8704 52.2037 140.1949 0.0012 -14.8040 0.0004
# 4 0.0009 0.0006 0.0012 29.5344 0.0010 -1.4359
# 5 -6.8503 -5.6153 -14.8040 0.0010 21.6351 0.0004
# 6 0.0004 0.0003 0.0004 -1.4359 0.0004 14.5337
#
#
#
# Elastic Compliance Matrix: (Units=1/GPa)
#
#
# Indices 1 2 3 4 5 6 
#
# 1 0.016802 -0.001773 -0.000915 -0.000001 0.004234 -0.000001
# 2 -0.001773 0.009791 -0.003474 0.000000 -0.000398 0.000000
# 3 -0.000915 -0.003474 0.009066 0.000000 0.005012 0.000000
# 4 -0.000001 0.000000 0.000000 0.034022 -0.000002 0.003361
# 5 0.004234 -0.000398 0.005012 -0.000002 0.050888 -0.000002
# 6 -0.000001 0.000000 0.000000 0.003361 -0.000002 0.069138
#
#
# Mechanical properties :
#
#
# Convention : Reuss Voigt Hill
#
# Bulk Modulus (GPa) = 42.85452 55.60944 49.23198
# Shear Modulus (GPa) = 23.83119 29.23238 26.53178
#
# Velocity S-wave (km/s) = 3.44594 3.81651 3.63595
# Velocity P-wave (km/s) = 6.09803 6.86512 6.49291
#
# Compressibility (1/GPa) = 0.02333476
#
# Stress axis : x y z
#
# Youngs Moduli (GPa) = 59.51751 102.13450 110.30210
#
# Poissons Ratio (x) = 0.18108 0.10088
# Poissons Ratio (y) = 0.10552 0.38324
# Poissons Ratio (z) = 0.05443 0.35486
#
# Static dielectric constant tensor:
#      x y z
#    x 3.604810 0.000000 -0.159500 
#    y 0.000000 3.416750 0.000000 
#    z -0.159500 0.000000 4.232040 
# 
# 
# High freq. dielectric constant tensor:
#      x y z
#    x 1.774570 0.000000 -0.012070 
#    y 0.000000 1.737010 0.000000 
#    z -0.012070 0.000000 1.807360 
# 
# From -- ./inp_files/51005.got.cif
#   From: 2010.03.12/outbox.cif.g09.slc.cpg/sg5_26_cif.got.tgz:51005.got - 2010.03.31 09:47:26.
