data_PCOD8048357
_publ_section_title
;
Structure prediction by ZEFSAII (Michael W. Deem and Ramdas Pophale) SiO2 
 PCOD8048357
Probable space group: C 2
;
_chemical_formula_sum "Si O2"
_cell_formula_units_Z 32
_cell_length_a 17.722056
_cell_length_b 15.397823
_cell_length_c 11.758256
_cell_angle_alpha 90.000000
_cell_angle_beta 151.133482
_cell_angle_gamma 90.000000
_cell_volume 1549.020793
_symmetry_space_group_name_H-M "C 2"
_symmetry_group_IT_number 5
_symmetry_cell_setting 'monoclinic'
loop_
_space_group_symop_operation_xyz
x,y,z
-x,y,-z
1/2+x,1/2+y,z
1/2-x,1/2+y,-z
loop_
_atom_site_type_symbol
_atom_site_label
_atom_site_fract_x
_atom_site_fract_y
_atom_site_fract_z
Si Si1 0.094041 0.880500 0.852568
Si Si2 0.027193 0.497101 0.158292
Si Si3 0.744260 0.833228 0.390509
Si Si4 0.796167 0.361119 0.915194
Si Si5 0.059996 0.055516 0.911056
Si Si6 0.244214 0.015361 0.358227
Si Si7 0.158224 0.344631 0.643693
Si Si8 0.059724 0.236160 0.323222
O O1 0.923044 0.847594 0.657988
O O2 0.119615 0.983979 0.900948
O O3 0.137181 0.862908 0.778060
O O4 0.207210 0.828855 0.086798
O O5 0.143015 0.417126 0.286326
O O6 0.115120 0.553338 0.373987
O O7 0.861999 0.459439 0.984777
O O8 0.000000 0.546599 0.000000
O O9 0.674253 0.750848 0.366319
O O10 0.732920 0.812780 0.242117
O O11 0.921689 0.305707 0.149283
O O12 0.912463 0.009567 0.775170
O O13 0.011476 0.140513 0.777996
O O14 0.199461 0.074198 0.188088
O O15 0.295518 0.919786 0.385030
O O16 0.147636 0.253844 0.558926
O O17 0.000000 0.370777 0.500000
#
# Coordination Sequence:
#
# PCOD8048357 Si02
#       8
#     4   4   4   4   4   4   4   4
#     4  11  20  38  62  92 119 159 223 256 302 367
#     4   9  16  32  57  87 114 159 211 252 292 363
#     4  10  20  34  61  88 117 161 213 256 294 378
#     4  10  20  34  63  85 121 162 208 252 307 379
#     4  10  23  33  62  91 122 160 202 269 310 359
#     4  10  18  36  58  93 117 157 218 256 294 373
#     4  11  20  37  66  91 123 168 215 256 308 389
#     4  11  21  40  61  90 125 161 208 252 322 371
#
# _framework density 20.658211999999999
#
# number of rings (size 3 to 8) (size 9 to 14) (size 15 to 20)
#    0.000    1.750    5.000    1.500    3.500    0.500 
#    0.000    1.250   11.000    0.000    0.000    0.000 
#    0.000    0.000    0.000    0.000    0.000    0.000 
#
# Total GULP energy -198266.391225 kJ/mol
# GULP energy per Si atom -12391.649452 kJ/mol
# Density = 2.061119 g / cm^3
# Si number density = 20.658212 Si / 1000 Ang^3
#
#
#
# Elastic Constant Matrix: (Units=GPa)
#
#
# Indices 1 2 3 4 5 6 
#
# 1 87.7602 26.0684 18.3481 0.0000 -10.3012 0.0000
# 2 26.0684 61.9203 24.0335 0.0000 -10.8614 0.0000
# 3 18.3481 24.0335 110.3943 0.0000 -18.4161 0.0000
# 4 0.0000 0.0000 0.0000 29.4063 0.0000 -4.4596
# 5 -10.3012 -10.8614 -18.4161 0.0000 29.3134 0.0000
# 6 0.0000 0.0000 0.0000 -4.4596 0.0000 11.6291
#
#
#
# Elastic Compliance Matrix: (Units=1/GPa)
#
#
# Indices 1 2 3 4 5 6 
#
# 1 0.013282 -0.004883 -0.000746 0.000000 0.002390 0.000000
# 2 -0.004883 0.020011 -0.002898 0.000000 0.003878 0.000000
# 3 -0.000746 -0.002898 0.010713 0.000000 0.005395 0.000000
# 4 0.000000 0.000000 0.000000 0.036106 0.000000 0.013846
# 5 0.002390 0.003878 0.005395 0.000000 0.039780 0.000000
# 6 0.000000 0.000000 0.000000 0.013846 0.000000 0.091301
#
#
# Mechanical properties :
#
#
# Convention : Reuss Voigt Hill
#
# Bulk Modulus (GPa) = 37.10295 44.10829 40.60562
# Shear Modulus (GPa) = 21.07666 26.84475 23.96071
#
# Velocity S-wave (km/s) = 3.19761 3.60873 3.40937
# Velocity P-wave (km/s) = 5.62426 6.22589 5.93271
#
# Compressibility (1/GPa) = 0.02695204
#
# Stress axis : x y z
#
# Youngs Moduli (GPa) = 75.29268 49.97376 93.34233
#
# Poissons Ratio (x) = 0.24402 0.06961
# Poissons Ratio (y) = 0.36765 0.27050
# Poissons Ratio (z) = 0.05615 0.14482
#
# Static dielectric constant tensor:
#      x y z
#    x 3.838980 0.000000 -0.208650 
#    y 0.000000 3.113610 0.000000 
#    z -0.208650 0.000000 4.240170 
# 
# 
# High freq. dielectric constant tensor:
#      x y z
#    x 1.813640 0.000000 -0.013460 
#    y 0.000000 1.742880 0.000000 
#    z -0.013460 0.000000 1.823830 
# 
# From -- ./inp_files/44926.got.cif
#   From: 2010.03.12/outbox.cif.g09.slc.cpg/sg5_23_cif.got.tgz:44926.got - 2010.03.31 09:47:26.
