data_PCOD8048977
_publ_section_title
;
Structure prediction by ZEFSAII (Michael W. Deem and Ramdas Pophale) SiO2 
 PCOD8048977
Probable space group: C 2
;
_chemical_formula_sum "Si O2"
_cell_formula_units_Z 32
_cell_length_a 17.609305
_cell_length_b 13.216975
_cell_length_c 7.159108
_cell_angle_alpha 90.000000
_cell_angle_beta 90.333329
_cell_angle_gamma 90.000000
_cell_volume 1666.195084
_symmetry_space_group_name_H-M "C 2"
_symmetry_group_IT_number 5
_symmetry_cell_setting 'monoclinic'
loop_
_space_group_symop_operation_xyz
x,y,z
-x,y,-z
1/2+x,1/2+y,z
1/2-x,1/2+y,-z
loop_
_atom_site_type_symbol
_atom_site_label
_atom_site_fract_x
_atom_site_fract_y
_atom_site_fract_z
Si Si1 0.635724 0.768580 0.697931
Si Si2 0.636039 0.778266 0.258726
Si Si3 0.636057 0.604527 0.982903
Si Si4 0.807957 0.774803 0.291785
Si Si5 0.215577 0.556857 0.823950
Si Si6 0.087399 0.881073 0.998968
Si Si7 0.792640 0.863023 0.686376
Si Si8 0.582087 0.929829 0.971538
O O1 0.381840 0.768823 0.522133
O O2 0.723637 0.791106 0.749259
O O3 0.619998 0.658552 0.784562
O O4 0.582211 0.850278 0.799381
O O5 0.608856 0.675076 0.156266
O O6 0.724214 0.801341 0.217318
O O7 0.595232 0.874136 0.169008
O O8 0.725715 0.584461 0.010610
O O9 0.588763 0.501735 0.973162
O O10 0.811558 0.652211 0.301057
O O11 0.872783 0.820690 0.165232
O O12 0.822468 0.828648 0.487580
O O13 0.257474 0.476853 0.686798
O O14 0.142592 0.516297 0.931992
O O15 0.133311 0.851434 0.185143
O O16 0.000000 0.845533 0.000000
O O17 0.500000 0.980990 0.000000
#
# Coordination Sequence:
#
# PCOD8048977 Si02
#       8
#     4   4   4   4   4   4   4   4
#     4   9  18  35  60  83 104 136 182 231 275 314
#     4   9  18  35  59  84 105 134 180 231 275 315
#     4   9  18  33  55  81 107 138 181 228 270 316
#     4  10  20  36  59  79 104 141 183 227 268 311
#     4   9  18  36  58  82 108 139 184 227 269 320
#     4  11  23  36  51  77 114 150 180 214 266 327
#     4   9  19  37  59  82 105 133 180 233 270 313
#     4  10  20  34  53  81 117 146 172 215 271 330
#
# _framework density 19.205432999999999
#
# number of rings (size 3 to 8) (size 9 to 14) (size 15 to 20)
#    0.000    2.500    0.000    3.750    0.000    7.500 
#    0.000    7.500    0.000    4.500    0.000    0.000 
#    0.000    0.000    0.000    0.000    0.000    0.000 
#
# Total GULP energy -198315.085657 kJ/mol
# GULP energy per Si atom -12394.692854 kJ/mol
# Density = 1.916172 g / cm^3
# Si number density = 19.205433 Si / 1000 Ang^3
#
#
#
# Elastic Constant Matrix: (Units=GPa)
#
#
# Indices 1 2 3 4 5 6 
#
# 1 89.8290 17.9545 43.4830 0.0000 -8.2263 0.0000
# 2 17.9545 58.8039 50.3737 0.0000 -0.3461 0.0000
# 3 43.4830 50.3737 136.3287 0.0000 -5.9765 0.0000
# 4 0.0000 0.0000 0.0000 26.9944 0.0000 3.6336
# 5 -8.2263 -0.3461 -5.9765 0.0000 18.7177 0.0000
# 6 0.0000 0.0000 0.0000 3.6336 0.0000 15.8580
#
#
#
# Elastic Compliance Matrix: (Units=1/GPa)
#
#
# Indices 1 2 3 4 5 6 
#
# 1 0.013580 -0.000857 -0.003807 0.000000 0.004737 0.000000
# 2 -0.000857 0.025052 -0.009107 0.000000 -0.002821 0.000000
# 3 -0.003807 -0.009107 0.012002 0.000000 0.001991 0.000000
# 4 0.000000 0.000000 0.000000 0.038224 0.000000 -0.008758
# 5 0.004737 -0.002821 0.001991 0.000000 0.056091 0.000000
# 6 0.000000 0.000000 0.000000 -0.008758 0.000000 0.065067
#
#
# Mechanical properties :
#
#
# Convention : Reuss Voigt Hill
#
# Bulk Modulus (GPa) = 43.30596 56.50934 49.90765
# Shear Modulus (GPa) = 20.38688 23.85736 22.12212
#
# Velocity S-wave (km/s) = 3.26163 3.52834 3.39760
# Velocity P-wave (km/s) = 6.06482 6.78870 6.43694
#
# Compressibility (1/GPa) = 0.02309151
#
# Stress axis : x y z
#
# Youngs Moduli (GPa) = 73.63611 39.91636 83.32018
#
# Poissons Ratio (x) = 0.03422 0.31721
# Poissons Ratio (y) = 0.06313 0.75881
# Poissons Ratio (z) = 0.28034 0.36352
#
# Static dielectric constant tensor:
#      x y z
#    x 3.390000 0.000000 0.057250 
#    y 0.000000 3.588300 0.000000 
#    z 0.057250 0.000000 3.563850 
# 
# 
# High freq. dielectric constant tensor:
#      x y z
#    x 1.736880 0.000000 -0.002230 
#    y 0.000000 1.743940 0.000000 
#    z -0.002230 0.000000 1.739540 
# 
# From -- ./inp_files/23872.got.cif
#   From: 2010.03.12/outbox.cif.g09.slc.cpg/sg5_12_cif.got.tgz:23872.got - 2010.03.31 09:47:26.
