data_PCOD8048001
_publ_section_title
;
Structure prediction by ZEFSAII (Michael W. Deem and Ramdas Pophale) SiO2 
 PCOD8048001
Probable space group: P 21
;
_chemical_formula_sum "Si O2"
_cell_formula_units_Z 16
_cell_length_a 9.868427
_cell_length_b 7.936202
_cell_length_c 10.054770
_cell_angle_alpha 90.000000
_cell_angle_beta 59.438853
_cell_angle_gamma 90.000000
_cell_volume 678.078271
_symmetry_space_group_name_H-M "P 21"
_symmetry_group_IT_number 4
_symmetry_cell_setting 'monoclinic'
loop_
_space_group_symop_operation_xyz
x,y,z
-x,1/2+y,-z
loop_
_atom_site_type_symbol
_atom_site_label
_atom_site_fract_x
_atom_site_fract_y
_atom_site_fract_z
Si Si1 0.040002 0.736320 0.303150
Si Si2 0.682863 0.241733 0.428450
Si Si3 0.447143 0.303641 0.196973
Si Si4 0.774816 0.438975 0.992693
Si Si5 0.280084 0.315883 0.010411
Si Si6 0.820440 0.996633 0.551686
Si Si7 0.478920 0.494706 0.697465
Si Si8 0.058368 0.958589 0.830939
O O1 0.119559 0.583985 0.343904
O O2 0.946645 0.647522 0.227537
O O3 0.931210 0.840882 0.457103
O O4 0.167676 0.862027 0.175846
O O5 0.814496 0.132388 0.438046
O O6 0.575882 0.340184 0.588328
O O7 0.579625 0.119880 0.388542
O O8 0.780745 0.375933 0.297474
O O9 0.635415 0.321264 0.118492
O O10 0.356037 0.425435 0.344167
O O11 0.413686 0.108235 0.255678
O O12 0.389116 0.360965 0.081045
O O13 0.695325 0.618354 0.014426
O O14 0.923113 0.460525 0.018534
O O15 0.334441 0.415454 0.852282
O O16 0.098491 0.358128 0.130367
#
# Coordination Sequence:
#
# PCOD8048001 Si02
#       8
#     2   2   2   2   2   2   2   2
#     4  12  28  50  76 113 152 199 257 311 374 456
#     4  12  28  47  78 109 155 201 248 308 381 450
#     4  12  26  51  75 113 149 198 253 309 379 446
#     4  12  28  46  81 110 151 195 252 317 378 445
#     4  12  28  46  81 110 151 195 252 317 378 445
#     4  12  28  47  78 109 155 201 248 308 381 450
#     4  12  28  50  76 113 152 199 257 311 374 456
#     4  12  26  51  75 113 149 198 253 309 379 446
#
# _framework density 23.596097
#
# number of rings (size 3 to 8) (size 9 to 14) (size 15 to 20)
#    0.000    0.000    2.500    6.000   14.000    0.000 
#    0.000    0.000    0.000    0.000    0.000    0.000 
#    0.000    0.000    0.000    0.000    0.000    0.000 
#
# Total GULP energy -198444.434202 kJ/mol
# GULP energy per Si atom -12402.777138 kJ/mol
# Density = 2.354239 g / cm^3
# Si number density = 23.596097 Si / 1000 Ang^3
#
#
#
# Elastic Constant Matrix: (Units=GPa)
#
#
# Indices 1 2 3 4 5 6 
#
# 1 100.9978 29.0005 36.3577 0.0000 1.8448 0.0000
# 2 29.0005 126.8077 48.7174 0.0000 1.1361 0.0000
# 3 36.3577 48.7174 113.2957 0.0000 -0.0379 0.0000
# 4 0.0000 0.0000 0.0000 58.0489 0.0000 5.0442
# 5 1.8448 1.1361 -0.0379 0.0000 29.1654 0.0000
# 6 0.0000 0.0000 0.0000 5.0442 0.0000 45.5475
#
#
#
# Elastic Compliance Matrix: (Units=1/GPa)
#
#
# Indices 1 2 3 4 5 6 
#
# 1 0.011423 -0.001435 -0.003049 0.000000 -0.000671 0.000000
# 2 -0.001435 0.009631 -0.003681 0.000000 -0.000289 0.000000
# 3 -0.003049 -0.003681 0.011388 0.000000 0.000351 0.000000
# 4 0.000000 0.000000 0.000000 0.017394 0.000000 -0.001926
# 5 -0.000671 -0.000289 0.000351 0.000000 0.034341 0.000000
# 6 0.000000 0.000000 0.000000 -0.001926 0.000000 0.022168
#
#
# Mechanical properties :
#
#
# Convention : Reuss Voigt Hill
#
# Bulk Modulus (GPa) = 62.06543 63.25028 62.65785
# Shear Modulus (GPa) = 39.04842 41.68740 40.36791
#
# Velocity S-wave (km/s) = 4.07242 4.20778 4.14065
# Velocity P-wave (km/s) = 6.96227 7.10428 7.03363
#
# Compressibility (1/GPa) = 0.01611203
#
# Stress axis : x y z
#
# Youngs Moduli (GPa) = 87.54201 103.83280 87.81336
#
# Poissons Ratio (x) = 0.14901 0.26774
# Poissons Ratio (y) = 0.12563 0.32323
# Poissons Ratio (z) = 0.26691 0.38219
#
# Static dielectric constant tensor:
#      x y z
#    x 4.071790 0.000000 0.187650 
#    y 0.000000 4.376040 0.000000 
#    z 0.187650 0.000000 4.289740 
# 
# 
# High freq. dielectric constant tensor:
#      x y z
#    x 1.932120 0.000000 0.007890 
#    y 0.000000 1.951410 0.000000 
#    z 0.007890 0.000000 1.944460 
# 
# From -- ./inp_files/5780.got.cif
#   From: 2010.03.12/outbox.cif.g09.slc.cpg/sg4_3_cif.got.tgz:5780.got - 2010.03.31 09:31:35.
