data_PCOD8048168
_publ_section_title
;
Structure prediction by ZEFSAII (Michael W. Deem and Ramdas Pophale) SiO2 
 PCOD8048168
Probable space group: C 2
;
_chemical_formula_sum "Si O2"
_cell_formula_units_Z 26
_cell_length_a 9.607508
_cell_length_b 10.779867
_cell_length_c 24.433437
_cell_angle_alpha 90.000000
_cell_angle_beta 149.570858
_cell_angle_gamma 90.000000
_cell_volume 1281.635411
_symmetry_space_group_name_H-M "C 2"
_symmetry_group_IT_number 5
_symmetry_cell_setting 'monoclinic'
loop_
_space_group_symop_operation_xyz
x,y,z
-x,y,-z
1/2+x,1/2+y,z
1/2-x,1/2+y,-z
loop_
_atom_site_type_symbol
_atom_site_label
_atom_site_fract_x
_atom_site_fract_y
_atom_site_fract_z
Si Si1 0.478186 0.787170 0.874613
Si Si2 0.414872 0.414168 0.774085
Si Si3 0.500000 0.782647 0.500000
Si Si4 0.207098 0.151171 0.674775
Si Si5 0.522220 0.460915 0.321845
Si Si6 0.000000 0.893476 0.000000
Si Si7 0.773123 0.532759 0.190009
Si Si8 0.500000 0.871532 0.000000
O O1 0.343002 0.654569 0.819070
O O2 0.270557 0.895803 0.786690
O O3 0.549967 0.788772 0.963275
O O4 0.749424 0.803040 0.930140
O O5 0.393241 0.265618 0.758400
O O6 0.350553 0.487760 0.695726
O O7 0.199127 0.441001 0.748879
O O8 0.723709 0.452324 0.897894
O O9 0.526941 0.695165 0.562259
O O10 0.234680 0.867762 0.423268
O O11 0.422154 0.045849 0.730061
O O12 0.014163 0.088230 0.655940
O O13 0.068583 0.981167 0.074575
#
# Coordination Sequence:
#
# PCOD8048168 Si02
#       8
#     4   4   2   4   4   2   4   2
#     4  11  22  40  61  95 129 170 209 254 308 379
#     4  10  23  39  61  94 125 171 208 253 315 374
#     4  10  22  44  66  94 120 164 210 266 332 362
#     4  11  23  43  69  88 124 164 210 269 316 375
#     4  10  22  44  66  91 126 161 213 262 314 375
#     4  12  25  37  62 100 132 173 211 248 314 374
#     4  12  23  39  65  91 133 169 211 261 305 374
#     4  10  17  39  56  84 132 165 209 242 304 370
#
# _framework density 20.286581000000002
#
# number of rings (size 3 to 8) (size 9 to 14) (size 15 to 20)
#    0.000    1.231    7.692    0.462    0.000    4.308 
#    0.000    0.000    0.000    0.000    0.000    0.000 
#    0.000    0.000    0.000    0.000    0.000    0.000 
#
# Total GULP energy -161148.771080 kJ/mol
# GULP energy per Si atom -12396.059314 kJ/mol
# Density = 2.024041 g / cm^3
# Si number density = 20.286581 Si / 1000 Ang^3
#
#
#
# Elastic Constant Matrix: (Units=GPa)
#
#
# Indices 1 2 3 4 5 6 
#
# 1 134.4986 46.8366 36.2334 0.0000 -11.0690 0.0000
# 2 46.8366 56.4009 23.6619 0.0001 -11.7890 0.0000
# 3 36.2334 23.6619 86.2876 -0.0003 -16.2107 0.0002
# 4 0.0000 0.0001 -0.0003 16.7865 0.0000 6.5270
# 5 -11.0690 -11.7890 -16.2107 0.0000 29.9005 0.0000
# 6 0.0000 0.0000 0.0002 6.5270 0.0000 46.0503
#
#
#
# Elastic Compliance Matrix: (Units=1/GPa)
#
#
# Indices 1 2 3 4 5 6 
#
# 1 0.010875 -0.008113 -0.002435 0.000000 -0.000493 0.000000
# 2 -0.008113 0.026927 -0.002836 0.000000 0.006076 0.000000
# 3 -0.002435 -0.002836 0.014485 0.000000 0.005834 0.000000
# 4 0.000000 0.000000 0.000000 0.063046 0.000000 -0.008936
# 5 -0.000493 0.006076 0.005834 0.000000 0.038820 0.000000
# 6 0.000000 0.000000 0.000000 -0.008936 0.000000 0.022982
#
#
# Mechanical properties :
#
#
# Convention : Reuss Voigt Hill
#
# Bulk Modulus (GPa) = 39.18325 54.51677 46.85001
# Shear Modulus (GPa) = 23.53943 29.91113 26.72528
#
# Velocity S-wave (km/s) = 3.41008 3.84400 3.63352
# Velocity P-wave (km/s) = 5.90437 6.82886 6.38338
#
# Compressibility (1/GPa) = 0.02552111
#
# Stress axis : x y z
#
# Youngs Moduli (GPa) = 91.94989 37.13746 69.03644
#
# Poissons Ratio (x) = 0.30129 0.16808
# Poissons Ratio (y) = 0.74597 0.19577
# Poissons Ratio (z) = 0.22386 0.10531
#
# Static dielectric constant tensor:
#      x y z
#    x 3.844100 0.000000 -0.121400 
#    y 0.000000 3.404140 0.000000 
#    z -0.121400 0.000000 3.651420 
# 
# 
# High freq. dielectric constant tensor:
#      x y z
#    x 1.803240 0.000000 -0.007080 
#    y 0.000000 1.769060 0.000000 
#    z -0.007080 0.000000 1.788010 
# 
# From -- ./inp_files/35463.got.cif
#   From: 2010.03.12/outbox.cif.g09.slc.cpg/sg5_18_cif.got.tgz:35463.got - 2010.03.31 09:47:26.
