data_PCOD8048877
_publ_section_title
;
Structure prediction by ZEFSAII (Michael W. Deem and Ramdas Pophale) SiO2 
 PCOD8048877
Probable space group: C 2
;
_chemical_formula_sum "Si O2"
_cell_formula_units_Z 30
_cell_length_a 15.603488
_cell_length_b 11.483948
_cell_length_c 18.572493
_cell_angle_alpha 90.000000
_cell_angle_beta 26.550256
_cell_angle_gamma 90.000000
_cell_volume 1487.557447
_symmetry_space_group_name_H-M "C 2"
_symmetry_group_IT_number 5
_symmetry_cell_setting 'monoclinic'
loop_
_space_group_symop_operation_xyz
x,y,z
-x,y,-z
1/2+x,1/2+y,z
1/2-x,1/2+y,-z
loop_
_atom_site_type_symbol
_atom_site_label
_atom_site_fract_x
_atom_site_fract_y
_atom_site_fract_z
Si Si1 0.619747 0.923990 0.177081
Si Si2 0.219590 0.816241 0.658061
Si Si3 0.649442 0.125536 0.609506
Si Si4 0.833339 0.240517 0.335332
Si Si5 0.500000 0.344669 0.500000
Si Si6 0.051005 0.009073 0.174715
Si Si7 0.348048 0.775523 0.711889
Si Si8 0.050076 0.022145 0.336604
O O1 0.452834 0.857269 0.259853
O O2 0.709811 0.844078 0.172357
O O3 0.530872 0.044250 0.274660
O O4 0.790212 0.957507 0.996409
O O5 0.094812 0.711400 0.716858
O O6 0.205701 0.811784 0.754980
O O7 0.435006 0.807806 0.468665
O O8 0.146267 0.939772 0.686516
O O9 0.708751 0.205964 0.498280
O O10 0.824182 0.044951 0.503018
O O11 0.680654 0.263754 0.386408
O O12 0.992245 0.141412 0.199123
O O13 0.579369 0.421989 0.373843
O O14 0.125167 0.989034 0.200561
O O15 0.330201 0.636653 0.732079
#
# Coordination Sequence:
#
# PCOD8048877 Si02
#       8
#     4   4   4   4   2   4   4   4
#     4  12  23  41  66  93 130 174 209 263 327 388
#     4  10  20  37  64  97 120 162 207 272 310 373
#     4  10  20  39  69  92 123 161 226 260 316 374
#     4  11  24  42  64 101 124 169 220 269 317 384
#     4  12  22  40  74  96 128 166 222 278 314 366
#     4  11  25  40  62  90 141 171 207 253 333 398
#     4  10  20  37  67  95 123 156 224 266 306 366
#     4  10  19  40  65  96 120 164 217 271 305 378
#
# _framework density 20.167287999999999
#
# number of rings (size 3 to 8) (size 9 to 14) (size 15 to 20)
#    0.000    1.333    5.333    4.000    1.867    2.667 
#    0.000    0.667    0.000    0.000    0.000    0.000 
#    0.000    0.000    0.000    0.000    0.000    0.000 
#
# Total GULP energy -185983.411285 kJ/mol
# GULP energy per Si atom -12398.894086 kJ/mol
# Density = 2.012139 g / cm^3
# Si number density = 20.167288 Si / 1000 Ang^3
#
#
#
# Elastic Constant Matrix: (Units=GPa)
#
#
# Indices 1 2 3 4 5 6 
#
# 1 119.4657 46.0915 34.9218 0.0075 13.3329 -0.0067
# 2 46.0915 93.6211 43.4824 0.0267 4.8186 0.0130
# 3 34.9218 43.4824 74.6988 -0.0161 18.6651 0.0178
# 4 0.0075 0.0267 -0.0161 27.4586 0.0068 6.6950
# 5 13.3329 4.8186 18.6651 0.0068 21.7820 -0.0080
# 6 -0.0067 0.0130 0.0178 6.6950 -0.0080 35.3917
#
#
#
# Elastic Compliance Matrix: (Units=1/GPa)
#
#
# Indices 1 2 3 4 5 6 
#
# 1 0.011042 -0.004571 -0.001356 0.000001 -0.004586 0.000003
# 2 -0.004571 0.017003 -0.009569 -0.000024 0.007236 0.000004
# 3 -0.001356 -0.009569 0.023992 0.000033 -0.017612 -0.000019
# 4 0.000001 -0.000024 0.000033 0.038180 -0.000038 -0.007222
# 5 -0.004586 0.007236 -0.017612 -0.000038 0.062208 0.000027
# 6 0.000003 0.000004 -0.000019 -0.007222 0.000027 0.029621
#
#
# Mechanical properties :
#
#
# Convention : Reuss Voigt Hill
#
# Bulk Modulus (GPa) = 47.51344 59.64188 53.57766
# Shear Modulus (GPa) = 22.72185 27.81246 25.26715
#
# Velocity S-wave (km/s) = 3.36023 3.71764 3.54344
# Velocity P-wave (km/s) = 6.21817 6.93293 6.58526
#
# Compressibility (1/GPa) = 0.02104668
#
# Stress axis : x y z
#
# Youngs Moduli (GPa) = 90.56239 58.81147 41.68075
#
# Poissons Ratio (x) = 0.26880 0.05651
# Poissons Ratio (y) = 0.41392 0.39885
# Poissons Ratio (z) = 0.12278 0.56277
#
# Static dielectric constant tensor:
#      x y z
#    x 3.987940 -0.000020 0.114940 
#    y -0.000020 3.844400 0.000010 
#    z 0.114940 0.000010 3.295760 
# 
# 
# High freq. dielectric constant tensor:
#      x y z
#    x 1.789230 0.000000 0.010710 
#    y 0.000000 1.799020 0.000000 
#    z 0.010710 0.000000 1.757020 
# 
# From -- ./inp_files/30925.got.cif
#   From: 2010.03.12/outbox.cif.g09.slc.cpg/sg5_16_cif.got.tgz:30925.got - 2010.03.31 09:47:26.
