data_PCOD8048624
_publ_section_title
;
Structure prediction by ZEFSAII (Michael W. Deem and Ramdas Pophale) SiO2 
 PCOD8048624
Probable space group: C 2
;
_chemical_formula_sum "Si O2"
_cell_formula_units_Z 28
_cell_length_a 18.611981
_cell_length_b 5.208970
_cell_length_c 14.266847
_cell_angle_alpha 90.000000
_cell_angle_beta 111.669888
_cell_angle_gamma 90.000000
_cell_volume 1285.407725
_symmetry_space_group_name_H-M "C 2"
_symmetry_group_IT_number 5
_symmetry_cell_setting 'monoclinic'
loop_
_space_group_symop_operation_xyz
x,y,z
-x,y,-z
1/2+x,1/2+y,z
1/2-x,1/2+y,-z
loop_
_atom_site_type_symbol
_atom_site_label
_atom_site_fract_x
_atom_site_fract_y
_atom_site_fract_z
Si Si1 0.693176 0.563480 0.074875
Si Si2 0.585685 0.522418 0.578249
Si Si3 0.701801 0.586298 0.466511
Si Si4 0.648694 0.063143 0.946166
Si Si5 0.616139 0.553144 0.231809
Si Si6 0.479366 0.057524 0.783019
Si Si7 0.956867 0.522477 0.381214
O O1 0.785051 0.550333 0.101434
O O2 0.677712 0.539834 0.177722
O O3 0.650489 0.332684 0.000843
O O4 0.658737 0.832862 0.024090
O O5 0.500000 0.463461 0.500000
O O6 0.639607 0.571624 0.517412
O O7 0.590732 0.756298 0.655419
O O8 0.604541 0.258335 0.643388
O O9 0.733203 0.875705 0.480554
O O10 0.663606 0.522879 0.349523
O O11 0.567303 0.031384 0.856831
O O12 0.556528 0.318116 0.194169
O O13 0.569624 0.818293 0.203549
O O14 0.479763 0.060810 0.669756
O O15 0.000000 0.469814 0.500000
#
# Coordination Sequence:
#
# PCOD8048624 Si02
#       7
#     4   4   4   4   4   4   4
#     4  10  23  44  66  92 134 167 207 259 325 387
#     4  10  20  37  61  83 116 161 206 250 297 355
#     4  12  26  44  63  93 133 171 212 261 321 380
#     4  10  23  43  66  95 126 169 211 262 315 386
#     4  12  25  43  65  96 129 166 210 269 322 375
#     4  12  24  40  68  98 128 163 219 267 315 373
#     4  10  19  35  58  87 121 159 202 252 301 353
#
# _framework density 21.782969000000001
#
# number of rings (size 3 to 8) (size 9 to 14) (size 15 to 20)
#    0.000    1.143    0.000    7.714    0.000    5.714 
#    0.000    2.857    0.000    0.000    0.000    0.000 
#    0.000    0.000    0.000    0.000    0.000    0.000 
#
# Total GULP energy -173617.010025 kJ/mol
# GULP energy per Si atom -12401.215002 kJ/mol
# Density = 2.173339 g / cm^3
# Si number density = 21.782969 Si / 1000 Ang^3
#
#
#
# Elastic Constant Matrix: (Units=GPa)
#
#
# Indices 1 2 3 4 5 6 
#
# 1 120.0210 20.9538 36.2205 -0.0001 -23.9701 0.0001
# 2 20.9538 126.5648 15.1639 0.0001 -11.5709 -0.0001
# 3 36.2205 15.1639 29.4342 0.0000 -1.0799 0.0000
# 4 -0.0001 0.0001 0.0000 53.1363 0.0000 -21.9145
# 5 -23.9701 -11.5709 -1.0799 0.0000 43.7832 0.0000
# 6 0.0001 -0.0001 0.0000 -21.9145 0.0000 45.6680
#
#
#
# Elastic Compliance Matrix: (Units=1/GPa)
#
#
# Indices 1 2 3 4 5 6 
#
# 1 0.015716 0.000462 -0.019274 0.000000 0.008251 0.000000
# 2 0.000462 0.008636 -0.004929 0.000000 0.002413 0.000000
# 3 -0.019274 -0.004929 0.059851 0.000000 -0.010379 0.000000
# 4 0.000000 0.000000 0.000000 0.023463 0.000000 0.011259
# 5 0.008251 0.002413 -0.010379 0.000000 0.027739 0.000000
# 6 0.000000 0.000000 0.000000 0.011259 0.000000 0.027300
#
#
# Mechanical properties :
#
#
# Convention : Reuss Voigt Hill
#
# Bulk Modulus (GPa) = 27.23331 46.74405 36.98868
# Shear Modulus (GPa) = 22.47936 42.09628 32.28782
#
# Velocity S-wave (km/s) = 3.21591 4.40083 3.85418
# Velocity P-wave (km/s) = 5.13018 6.87958 6.06825
#
# Compressibility (1/GPa) = 0.03671974
#
# Stress axis : x y z
#
# Youngs Moduli (GPa) = 63.63052 115.79698 16.70825
#
# Poissons Ratio (x) = -0.05347 0.32204
# Poissons Ratio (y) = -0.02938 0.08235
# Poissons Ratio (z) = 1.22643 0.57072
#
# Static dielectric constant tensor:
#      x y z
#    x 3.869730 0.000000 -0.254430 
#    y 0.000000 4.847620 0.000000 
#    z -0.254430 0.000000 3.551630 
# 
# 
# High freq. dielectric constant tensor:
#      x y z
#    x 1.863180 0.000000 -0.016180 
#    y 0.000000 1.892090 0.000000 
#    z -0.016180 0.000000 1.831030 
# 
# From -- ./inp_files/55507.got.cif
#   From: 2010.03.12/outbox.cif.g09.slc.cpg/sg5_28_cif.got.tgz:55507.got - 2010.03.31 09:47:26.
