data_PCOD8048864
_publ_section_title
;
Structure prediction by ZEFSAII (Michael W. Deem and Ramdas Pophale) SiO2 
 PCOD8048864
Probable space group: C 2
;
_chemical_formula_sum "Si O2"
_cell_formula_units_Z 32
_cell_length_a 13.982227
_cell_length_b 11.970226
_cell_length_c 8.924469
_cell_angle_alpha 90.000000
_cell_angle_beta 89.921932
_cell_angle_gamma 90.000000
_cell_volume 1493.690713
_symmetry_space_group_name_H-M "C 2"
_symmetry_group_IT_number 5
_symmetry_cell_setting 'monoclinic'
loop_
_space_group_symop_operation_xyz
x,y,z
-x,y,-z
1/2+x,1/2+y,z
1/2-x,1/2+y,-z
loop_
_atom_site_type_symbol
_atom_site_label
_atom_site_fract_x
_atom_site_fract_y
_atom_site_fract_z
Si Si1 0.346264 0.344700 0.743365
Si Si2 0.416895 0.892734 0.749847
Si Si3 0.471151 0.464889 0.325758
Si Si4 0.210414 0.301413 0.999977
Si Si5 0.416296 0.710122 0.249355
Si Si6 0.970802 0.638511 0.674194
Si Si7 0.785724 0.301389 0.500218
Si Si8 0.153164 0.758810 0.744478
O O1 0.438169 0.420477 0.766669
O O2 0.279749 0.366638 0.886910
O O3 0.378724 0.215065 0.713554
O O4 0.281857 0.381123 0.600876
O O5 0.500798 0.802064 0.750213
O O6 0.351004 0.878189 0.604634
O O7 0.458895 0.015239 0.736635
O O8 0.356174 0.884695 0.903305
O O9 0.500000 0.458232 0.500000
O O10 0.459535 0.588242 0.263391
O O11 0.379167 0.388385 0.286000
O O12 0.143491 0.217457 0.904937
O O13 0.281603 0.237067 0.110789
O O14 0.349078 0.723850 0.393519
O O15 0.000000 0.645155 0.500000
O O16 0.061209 0.682954 0.766799
O O17 0.718713 0.222192 0.603150
#
# Coordination Sequence:
#
# PCOD8048864 Si02
#       8
#     4   4   4   4   4   4   4   4
#     4  10  21  44  68 105 134 174 223 293 337 416
#     4  11  24  45  63  96 139 185 223 277 343 415
#     4  11  21  41  75 103 135 173 231 287 353 391
#     4  10  25  45  64  96 140 182 226 267 345 408
#     4  11  24  45  63  96 139 185 223 277 343 415
#     4  11  21  41  75 103 135 173 231 287 353 391
#     4  10  19  39  70  96 136 166 234 277 327 396
#     4  10  21  44  68 105 134 174 223 293 337 416
#
# _framework density 21.423445000000001
#
# number of rings (size 3 to 8) (size 9 to 14) (size 15 to 20)
#    0.000    1.500    2.500    3.000    0.000    6.000 
#   18.000    2.500    0.000    0.000    0.000    0.000 
#    0.000    0.000    0.000    0.000    0.000    0.000 
#
# Total GULP energy -198335.405702 kJ/mol
# GULP energy per Si atom -12395.962856 kJ/mol
# Density = 2.137468 g / cm^3
# Si number density = 21.423445 Si / 1000 Ang^3
#
#
#
# Elastic Constant Matrix: (Units=GPa)
#
#
# Indices 1 2 3 4 5 6 
#
# 1 138.9322 59.8157 64.5583 0.0000 3.4336 0.0000
# 2 59.8157 148.7742 41.6063 0.0000 2.4126 0.0000
# 3 64.5583 41.6063 142.9873 0.0000 3.0369 0.0000
# 4 0.0000 0.0000 0.0000 18.0129 0.0000 0.0900
# 5 3.4336 2.4126 3.0369 0.0000 7.7432 0.0000
# 6 0.0000 0.0000 0.0000 0.0900 0.0000 21.3774
#
#
#
# Elastic Compliance Matrix: (Units=1/GPa)
#
#
# Indices 1 2 3 4 5 6 
#
# 1 0.010295 -0.003067 -0.003710 0.000000 -0.002155 0.000000
# 2 -0.003067 0.008247 -0.000998 0.000000 -0.000818 0.000000
# 3 -0.003710 -0.000998 0.008992 0.000000 -0.001571 0.000000
# 4 0.000000 0.000000 0.000000 0.055517 0.000000 -0.000234
# 5 -0.002155 -0.000818 -0.001571 0.000000 0.130972 0.000000
# 6 0.000000 0.000000 0.000000 -0.000234 0.000000 0.046779
#
#
# Mechanical properties :
#
#
# Convention : Reuss Voigt Hill
#
# Bulk Modulus (GPa) = 83.43460 84.73937 84.08699
# Shear Modulus (GPa) = 17.83501 27.07427 22.45464
#
# Velocity S-wave (km/s) = 2.88844 3.55881 3.24100
# Velocity P-wave (km/s) = 7.08196 7.51846 7.30347
#
# Compressibility (1/GPa) = 0.01198543
#
# Stress axis : x y z
#
# Youngs Moduli (GPa) = 97.13049 121.25770 111.20460
#
# Poissons Ratio (x) = 0.37187 0.41259
# Poissons Ratio (y) = 0.29788 0.11094
# Poissons Ratio (z) = 0.36038 0.12097
#
# Static dielectric constant tensor:
#      x y z
#    x 4.340260 0.000000 0.006670 
#    y 0.000000 3.476870 0.000000 
#    z 0.006670 0.000000 4.127660 
# 
# 
# High freq. dielectric constant tensor:
#      x y z
#    x 1.871840 0.000000 0.000170 
#    y 0.000000 1.801270 0.000000 
#    z 0.000170 0.000000 1.851990 
# 
# From -- ./inp_files/23899.got.cif
#   From: 2010.03.12/outbox.cif.g09.slc.cpg/sg5_12_cif.got.tgz:23899.got - 2010.03.31 09:47:26.
