data_PCOD8048560
_publ_section_title
;
Structure prediction by ZEFSAII (Michael W. Deem and Ramdas Pophale) SiO2 
 PCOD8048560
Probable space group: C 2
;
_chemical_formula_sum "Si O2"
_cell_formula_units_Z 18
_cell_length_a 20.821713
_cell_length_b 5.071824
_cell_length_c 12.839496
_cell_angle_alpha 90.000000
_cell_angle_beta 26.063489
_cell_angle_gamma 90.000000
_cell_volume 595.738774
_symmetry_space_group_name_H-M "C 2"
_symmetry_group_IT_number 5
_symmetry_cell_setting 'monoclinic'
loop_
_space_group_symop_operation_xyz
x,y,z
-x,y,-z
1/2+x,1/2+y,z
1/2-x,1/2+y,-z
loop_
_atom_site_type_symbol
_atom_site_label
_atom_site_fract_x
_atom_site_fract_y
_atom_site_fract_z
Si Si1 0.500000 0.882951 0.500000
Si Si2 0.834327 0.114518 0.906545
Si Si3 0.820305 0.592536 0.271930
Si Si4 0.781422 0.603142 0.680465
Si Si5 0.542539 0.341878 0.745437
O O1 0.479978 0.693537 0.628840
O O2 0.354013 0.065637 0.692156
O O3 0.894232 0.011870 0.934562
O O4 0.742508 0.384422 0.047648
O O5 0.833084 0.341595 0.174730
O O6 0.681661 0.543820 0.553261
O O7 0.801397 0.838295 0.225058
O O8 0.960869 0.658331 0.143973
O O9 0.927710 0.650454 0.396523
#
# Coordination Sequence:
#
# PCOD8048560 Si02
#       5
#     2   4   4   4   4
#     4  12  24  50  72 106 166 192 242 316 368 456
#     4  12  29  44  73 116 151 200 248 300 383 453
#     4  10  19  33  66 105 134 185 257 292 357 442
#     4  10  20  33  64 104 131 190 241 290 369 431
#     4  10  20  39  65 105 148 183 253 307 351 444
#
# _framework density 30.214585
#
# number of rings (size 3 to 8) (size 9 to 14) (size 15 to 20)
#    1.333    0.000    4.444    1.333    0.000    8.000 
#    0.000    0.000    0.000    1.333    5.778    0.000 
#    0.000    0.000    0.000    0.000    0.000    0.000 
#
# Total GULP energy -111562.588710 kJ/mol
# GULP energy per Si atom -12395.843190 kJ/mol
# Density = 3.014582 g / cm^3
# Si number density = 30.214585 Si / 1000 Ang^3
#
#
#
# Elastic Constant Matrix: (Units=GPa)
#
#
# Indices 1 2 3 4 5 6 
#
# 1 222.8153 97.3303 55.4147 0.0016 -16.1043 -0.0004
# 2 97.3303 224.2846 53.0526 -0.0002 -19.2529 -0.0068
# 3 55.4147 53.0526 106.4990 0.0030 -38.8938 -0.0028
# 4 0.0016 -0.0002 0.0030 54.5118 -0.0017 -7.0865
# 5 -16.1043 -19.2529 -38.8938 -0.0017 64.0161 0.0005
# 6 -0.0004 -0.0068 -0.0028 -7.0865 0.0005 72.2568
#
#
#
# Elastic Compliance Matrix: (Units=1/GPa)
#
#
# Indices 1 2 3 4 5 6 
#
# 1 0.005915 -0.002084 -0.002217 0.000000 -0.000486 0.000000
# 2 -0.002084 0.005788 -0.001741 0.000000 0.000159 0.000000
# 3 -0.002217 -0.001741 0.014157 0.000000 0.007520 0.000000
# 4 0.000000 0.000000 0.000000 0.018582 0.000000 0.001822
# 5 -0.000486 0.000159 0.007520 0.000000 0.020115 0.000000
# 6 0.000000 0.000000 0.000000 0.001822 0.000000 0.014018
#
#
# Mechanical properties :
#
#
# Convention : Reuss Voigt Hill
#
# Bulk Modulus (GPa) = 72.58999 107.24380 89.91689
# Shear Modulus (GPa) = 52.49283 61.34368 56.91826
#
# Velocity S-wave (km/s) = 4.17266 4.51074 4.34499
# Velocity P-wave (km/s) = 6.87690 7.91834 7.41592
#
# Compressibility (1/GPa) = 0.01377600
#
# Stress axis : x y z
#
# Youngs Moduli (GPa) = 169.07389 172.75664 70.63711
#
# Poissons Ratio (x) = 0.36003 0.15659
# Poissons Ratio (y) = 0.35235 0.12299
# Poissons Ratio (z) = 0.37480 0.30080
#
# Static dielectric constant tensor:
#      x y z
#    x 5.347070 -0.000010 0.046260 
#    y -0.000010 5.377480 0.000000 
#    z 0.046260 0.000000 5.795780 
# 
# 
# High freq. dielectric constant tensor:
#      x y z
#    x 2.242600 0.000000 0.012470 
#    y 0.000000 2.231110 0.000000 
#    z 0.012470 0.000000 2.285260 
# 
# From -- ./inp_files/56287.got.cif
#   From: 2010.03.12/outbox.cif.g09.slc.cpg/sg5_29_cif.got.tgz:56287.got - 2010.03.31 09:47:26.
