data_PCOD8048052
_publ_section_title
;
Structure prediction by ZEFSAII (Michael W. Deem and Ramdas Pophale) SiO2 
 PCOD8048052
Probable space group: C 2
;
_chemical_formula_sum "Si O2"
_cell_formula_units_Z 26
_cell_length_a 20.429687
_cell_length_b 8.951913
_cell_length_c 14.371854
_cell_angle_alpha 90.000000
_cell_angle_beta 30.144928
_cell_angle_gamma 90.000000
_cell_volume 1319.950194
_symmetry_space_group_name_H-M "C 2"
_symmetry_group_IT_number 5
_symmetry_cell_setting 'monoclinic'
loop_
_space_group_symop_operation_xyz
x,y,z
-x,y,-z
1/2+x,1/2+y,z
1/2-x,1/2+y,-z
loop_
_atom_site_type_symbol
_atom_site_label
_atom_site_fract_x
_atom_site_fract_y
_atom_site_fract_z
Si Si1 0.104208 0.157480 0.514280
Si Si2 0.372749 0.661172 0.911979
Si Si3 0.000000 0.926338 0.500000
Si Si4 0.858858 0.520893 0.136655
Si Si5 0.738030 0.225310 0.250827
Si Si6 0.448024 0.998729 0.461094
Si Si7 0.666484 0.004845 0.048010
O O1 0.256461 0.115895 0.324879
O O2 0.090590 0.326009 0.494420
O O3 0.030857 0.148925 0.705347
O O4 0.021488 0.036777 0.559235
O O5 0.326226 0.828986 0.954236
O O6 0.324760 0.621361 0.074680
O O7 0.302248 0.564777 0.919910
O O8 0.871698 0.823328 0.670086
O O9 0.831560 0.344537 0.187505
O O10 0.850581 0.562093 0.037214
O O11 0.000000 0.564269 0.000000
O O12 0.676156 0.108998 0.400114
O O13 0.500000 0.034704 0.500000
O O14 0.547216 0.055995 0.260387
#
# Coordination Sequence:
#
# PCOD8048052 Si02
#       7
#     4   4   2   4   4   4   4
#     4  10  20  31  54  78 111 142 180 226 272 323
#     4  10  18  31  51  87 111 137 171 226 286 325
#     4  10  16  30  48  82 110 148 174 216 274 328
#     4  10  23  42  55  72 107 158 196 218 250 323
#     4  10  19  33  57  80 116 142 179 223 275 328
#     4  11  19  33  53  90 118 133 163 229 296 330
#     4  10  21  32  57  82 116 139 175 220 279 331
#
# _framework density 19.697713
#
# number of rings (size 3 to 8) (size 9 to 14) (size 15 to 20)
#    0.000    1.846    3.077    2.769    2.154    1.231 
#    0.000    5.385    0.000    0.000    0.000    0.000 
#    0.000    0.000    0.000    0.000    0.000    0.000 
#
# Total GULP energy -161050.195831 kJ/mol
# GULP energy per Si atom -12388.476602 kJ/mol
# Density = 1.965288 g / cm^3
# Si number density = 19.697713 Si / 1000 Ang^3
#
#
#
# Elastic Constant Matrix: (Units=GPa)
#
#
# Indices 1 2 3 4 5 6 
#
# 1 23.0069 9.5778 33.0018 0.0001 -8.2271 0.0000
# 2 9.5778 59.7276 44.5548 0.0006 -0.3336 0.0001
# 3 33.0018 44.5548 187.2360 0.0002 2.7564 0.0000
# 4 0.0001 0.0006 0.0002 30.1603 -0.0001 -0.0769
# 5 -8.2271 -0.3336 2.7564 -0.0001 27.3092 0.0000
# 6 0.0000 0.0001 0.0000 -0.0769 0.0000 9.8007
#
#
#
# Elastic Compliance Matrix: (Units=1/GPa)
#
#
# Indices 1 2 3 4 5 6 
#
# 1 0.069610 -0.001997 -0.012120 0.000000 0.022169 0.000000
# 2 -0.001997 0.020428 -0.004511 0.000000 0.000103 0.000000
# 3 -0.012120 -0.004511 0.008618 0.000000 -0.004576 0.000000
# 4 0.000000 0.000000 0.000000 0.033157 0.000000 0.000260
# 5 0.022169 0.000103 -0.004576 0.000000 0.043759 0.000000
# 6 0.000000 0.000000 0.000000 0.000260 0.000000 0.102036
#
#
# Mechanical properties :
#
#
# Convention : Reuss Voigt Hill
#
# Bulk Modulus (GPa) = 16.28675 49.35992 32.82333
# Shear Modulus (GPa) = 14.91061 25.64312 20.27687
#
# Velocity S-wave (km/s) = 2.75430 3.61201 3.21191
# Velocity P-wave (km/s) = 4.28966 6.51986 5.51859
#
# Compressibility (1/GPa) = 0.06139962
#
# Stress axis : x y z
#
# Youngs Moduli (GPa) = 14.36573 48.95175 116.03781
#
# Poissons Ratio (x) = 0.09777 1.40642
# Poissons Ratio (y) = 0.02869 0.52340
# Poissons Ratio (z) = 0.17412 0.22080
#
# Static dielectric constant tensor:
#      x y z
#    x 3.028140 0.000000 0.270550 
#    y 0.000000 3.651440 0.000000 
#    z 0.270550 0.000000 4.407560 
# 
# 
# High freq. dielectric constant tensor:
#      x y z
#    x 1.695020 0.000000 0.012780 
#    y 0.000000 1.770520 0.000000 
#    z 0.012780 0.000000 1.803660 
# 
# From -- ./inp_files/41448.got.cif
#   From: 2010.03.12/outbox.cif.g09.slc.cpg/sg5_21_cif.got.tgz:41448.got - 2010.03.31 09:47:26.
