data_PCOD8048246
_publ_section_title
;
Structure prediction by ZEFSAII (Michael W. Deem and Ramdas Pophale) SiO2 
 PCOD8048246
Probable space group: C 2
;
_chemical_formula_sum "Si O2"
_cell_formula_units_Z 32
_cell_length_a 11.942227
_cell_length_b 19.254106
_cell_length_c 9.073837
_cell_angle_alpha 90.000000
_cell_angle_beta 50.376804
_cell_angle_gamma 90.000000
_cell_volume 1607.067980
_symmetry_space_group_name_H-M "C 2"
_symmetry_group_IT_number 5
_symmetry_cell_setting 'monoclinic'
loop_
_space_group_symop_operation_xyz
x,y,z
-x,y,-z
1/2+x,1/2+y,z
1/2-x,1/2+y,-z
loop_
_atom_site_type_symbol
_atom_site_label
_atom_site_fract_x
_atom_site_fract_y
_atom_site_fract_z
Si Si1 0.302866 0.085390 0.576768
Si Si2 0.849410 0.440334 0.663022
Si Si3 0.660854 0.387583 0.593472
Si Si4 0.921536 0.786021 0.720663
Si Si5 0.333767 0.880146 0.168927
Si Si6 0.221266 0.507906 0.974048
Si Si7 0.964677 0.033908 0.365131
Si Si8 0.593750 0.135017 0.209597
O O1 0.147023 0.086348 0.624120
O O2 0.422533 0.126366 0.383297
O O3 0.297706 0.118280 0.744482
O O4 0.357274 0.006934 0.548646
O O5 0.715522 0.394857 0.715630
O O6 0.000000 0.400538 0.500000
O O7 0.827621 0.458610 0.850670
O O8 0.537645 0.330171 0.713794
O O9 0.795498 0.368193 0.372764
O O10 0.595564 0.456332 0.574018
O O11 0.773994 0.830326 0.832031
O O12 0.883293 0.716321 0.845148
O O13 0.000000 0.766895 0.500000
O O14 0.309787 0.961739 0.144990
O O15 0.500000 0.857966 0.000000
O O16 0.388340 0.529950 0.852792
O O17 0.133508 0.581225 0.044710
O O18 0.000000 0.061761 0.500000
#
# Coordination Sequence:
#
# PCOD8048246 Si02
#       8
#     4   4   4   4   4   4   4   4
#     4   9  18  33  56  84 115 147 192 246 295 350
#     4  10  18  33  56  89 121 146 196 260 304 351
#     4  10  20  36  60  85 120 162 196 245 312 355
#     4  10  19  39  61  83 118 159 201 246 301 372
#     4  11  22  36  58  91 118 155 204 250 300 361
#     4  11  21  35  59  90 119 154 196 256 300 351
#     4  11  20  36  55  88 124 152 202 252 301 360
#     4  10  19  37  59  89 113 155 202 247 304 357
#
# _framework density 19.912037999999999
#
# number of rings (size 3 to 8) (size 9 to 14) (size 15 to 20)
#    0.000    1.750    6.250    1.125    1.750    4.500 
#    2.250    0.000    0.000    5.250    0.000    0.000 
#    0.000    0.000    0.000    0.000    0.000    0.000 
#
# Total GULP energy -198291.489940 kJ/mol
# GULP energy per Si atom -12393.218121 kJ/mol
# Density = 1.986672 g / cm^3
# Si number density = 19.912038 Si / 1000 Ang^3
#
#
#
# Elastic Constant Matrix: (Units=GPa)
#
#
# Indices 1 2 3 4 5 6 
#
# 1 93.2166 29.8667 20.5198 0.0000 -16.5662 0.0000
# 2 29.8667 106.4092 15.9029 0.0000 -10.0086 0.0000
# 3 20.5198 15.9029 67.2231 0.0000 -22.2379 0.0000
# 4 0.0000 0.0000 0.0000 19.4092 0.0000 -4.1271
# 5 -16.5662 -10.0086 -22.2379 0.0000 31.1095 0.0000
# 6 0.0000 0.0000 0.0000 -4.1271 0.0000 20.8759
#
#
#
# Elastic Compliance Matrix: (Units=1/GPa)
#
#
# Indices 1 2 3 4 5 6 
#
# 1 0.012870 -0.002918 -0.001679 0.000000 0.004715 0.000000
# 2 -0.002918 0.010495 -0.001295 0.000000 0.000896 0.000000
# 3 -0.001679 -0.001295 0.019988 0.000000 0.012977 0.000000
# 4 0.000000 0.000000 0.000000 0.053783 0.000000 0.010633
# 5 0.004715 0.000896 0.012977 0.000000 0.044220 0.000000
# 6 0.000000 0.000000 0.000000 0.010633 0.000000 0.050004
#
#
# Mechanical properties :
#
#
# Convention : Reuss Voigt Hill
#
# Bulk Modulus (GPa) = 31.67738 44.38086 38.02912
# Shear Modulus (GPa) = 23.40097 27.64952 25.52524
#
# Velocity S-wave (km/s) = 3.43186 3.73041 3.58425
# Velocity P-wave (km/s) = 5.62555 6.39464 6.02239
#
# Compressibility (1/GPa) = 0.03156827
#
# Stress axis : x y z
#
# Youngs Moduli (GPa) = 77.69981 95.28686 50.03098
#
# Poissons Ratio (x) = 0.27805 0.08398
# Poissons Ratio (y) = 0.22673 0.06481
# Poissons Ratio (z) = 0.13043 0.12344
#
# Static dielectric constant tensor:
#      x y z
#    x 3.724070 0.000000 -0.210460 
#    y 0.000000 3.459480 0.000000 
#    z -0.210460 0.000000 3.462770 
# 
# 
# High freq. dielectric constant tensor:
#      x y z
#    x 1.774470 0.000000 -0.017680 
#    y 0.000000 1.742410 0.000000 
#    z -0.017680 0.000000 1.762990 
# 
# From -- ./inp_files/21791.got.cif
#   From: 2010.03.12/outbox.cif.g09.slc.cpg/sg5_11_cif.got.tgz:21791.got - 2010.03.31 09:47:26.
