data_PCOD8048316
_publ_section_title
;
Structure prediction by ZEFSAII (Michael W. Deem and Ramdas Pophale) SiO2 
 PCOD8048316
Probable space group: C 2
;
_chemical_formula_sum "Si O2"
_cell_formula_units_Z 28
_cell_length_a 10.508998
_cell_length_b 9.094678
_cell_length_c 32.496640
_cell_angle_alpha 90.000000
_cell_angle_beta 150.803844
_cell_angle_gamma 90.000000
_cell_volume 1515.060115
_symmetry_space_group_name_H-M "C 2"
_symmetry_group_IT_number 5
_symmetry_cell_setting 'monoclinic'
loop_
_space_group_symop_operation_xyz
x,y,z
-x,y,-z
1/2+x,1/2+y,z
1/2-x,1/2+y,-z
loop_
_atom_site_type_symbol
_atom_site_label
_atom_site_fract_x
_atom_site_fract_y
_atom_site_fract_z
Si Si1 0.281230 0.302870 0.820204
Si Si2 0.497570 0.096877 0.409446
Si Si3 0.237503 0.290565 0.450911
Si Si4 0.950986 0.079787 0.135075
Si Si5 0.780272 0.296965 0.732284
Si Si6 0.519691 0.593706 0.686372
Si Si7 0.462935 0.182011 0.032815
O O1 0.371467 0.435599 0.816462
O O2 0.515721 0.270104 0.918756
O O3 0.020224 0.345549 0.770962
O O4 0.229862 0.162097 0.777168
O O5 0.708334 0.192941 0.493603
O O6 0.412244 0.186518 0.345272
O O7 0.252083 0.058777 0.368509
O O8 0.627319 0.946383 0.432804
O O9 0.500000 0.319670 0.500000
O O10 0.023252 0.207710 0.362843
O O11 0.707438 0.063812 0.099047
O O12 0.125517 0.217128 0.199395
O O13 0.824958 0.108476 0.053554
O O14 0.626537 0.442418 0.699589
O O15 0.500000 0.277826 0.000000
#
# Coordination Sequence:
#
# PCOD8048316 Si02
#       7
#     4   4   4   4   4   4   4
#     4  10  18  35  54  73 103 138 164 212 257 291
#     4  10  21  36  56  73 106 136 163 211 257 290
#     4  10  21  37  53  79 102 133 171 208 249 303
#     4   8  17  33  54  72 101 135 169 208 252 299
#     4  10  20  35  51  78 103 134 171 208 249 303
#     4  10  22  34  52  78 106 131 171 208 249 304
#     4   7  17  34  49  75 103 131 166 214 251 298
#
# _framework density 18.481116
#
# number of rings (size 3 to 8) (size 9 to 14) (size 15 to 20)
#    0.857    1.714    0.000    1.714    0.000    3.429 
#    0.000    2.857    0.000    0.000    0.000    0.000 
#    0.000    0.000    0.000    0.000    0.000    0.000 
#
# Total GULP energy -173456.103458 kJ/mol
# GULP energy per Si atom -12389.721676 kJ/mol
# Density = 1.843905 g / cm^3
# Si number density = 18.481116 Si / 1000 Ang^3
#
#
#
# Elastic Constant Matrix: (Units=GPa)
#
#
# Indices 1 2 3 4 5 6 
#
# 1 55.8970 68.0806 39.1731 0.0000 -3.3169 0.0000
# 2 68.0806 148.3105 62.8048 0.0000 0.3640 0.0000
# 3 39.1731 62.8048 117.1812 -0.0001 -16.5503 0.0000
# 4 0.0000 0.0000 -0.0001 23.7791 0.0000 -0.6005
# 5 -3.3169 0.3640 -16.5503 0.0000 14.9408 0.0000
# 6 0.0000 0.0000 0.0000 -0.6005 0.0000 38.6952
#
#
#
# Elastic Compliance Matrix: (Units=1/GPa)
#
#
# Indices 1 2 3 4 5 6 
#
# 1 0.043002 -0.018121 -0.003856 0.000000 0.005717 0.000000
# 2 -0.018121 0.016905 -0.004302 0.000000 -0.009201 0.000000
# 3 -0.003856 -0.004302 0.014252 0.000000 0.015037 0.000000
# 4 0.000000 0.000000 0.000000 0.042070 0.000000 0.000653
# 5 0.005717 -0.009201 0.015037 0.000000 0.085081 0.000000
# 6 0.000000 0.000000 0.000000 0.000653 0.000000 0.025853
#
#
# Mechanical properties :
#
#
# Convention : Reuss Voigt Hill
#
# Bulk Modulus (GPa) = 46.29268 73.50063 59.89666
# Shear Modulus (GPa) = 17.42626 25.57169 21.49897
#
# Velocity S-wave (km/s) = 3.07404 3.72380 3.41441
# Velocity P-wave (km/s) = 6.14025 7.63845 6.92995
#
# Compressibility (1/GPa) = 0.02160169
#
# Stress axis : x y z
#
# Youngs Moduli (GPa) = 23.25455 59.15257 70.16358
#
# Poissons Ratio (x) = 1.07191 0.27054
# Poissons Ratio (y) = 0.42140 0.30187
# Poissons Ratio (z) = 0.08966 0.25450
#
# Static dielectric constant tensor:
#      x y z
#    x 3.201480 0.000000 -0.115630 
#    y 0.000000 3.086560 0.000000 
#    z -0.115630 0.000000 3.723740 
# 
# 
# High freq. dielectric constant tensor:
#      x y z
#    x 1.694530 0.000000 -0.007520 
#    y 0.000000 1.697600 0.000000 
#    z -0.007520 0.000000 1.739730 
# 
# From -- ./inp_files/70169.got.cif
#   From: 2010.03.12/outbox.cif.g09.slc.cpg/sg5_36_cif.got.tgz:70169.got - 2010.03.31 09:47:26.
