data_PCOD8048096
_publ_section_title
;
Structure prediction by ZEFSAII (Michael W. Deem and Ramdas Pophale) SiO2 
 PCOD8048096
Probable space group: C 2
;
_chemical_formula_sum "Si O2"
_cell_formula_units_Z 30
_cell_length_a 22.608517
_cell_length_b 5.109907
_cell_length_c 12.603775
_cell_angle_alpha 90.000000
_cell_angle_beta 78.902749
_cell_angle_gamma 90.000000
_cell_volume 1428.855639
_symmetry_space_group_name_H-M "C 2"
_symmetry_group_IT_number 5
_symmetry_cell_setting 'monoclinic'
loop_
_space_group_symop_operation_xyz
x,y,z
-x,y,-z
1/2+x,1/2+y,z
1/2-x,1/2+y,-z
loop_
_atom_site_type_symbol
_atom_site_label
_atom_site_fract_x
_atom_site_fract_y
_atom_site_fract_z
Si Si1 0.594040 0.995900 0.022062
Si Si2 0.317582 0.406749 0.682173
Si Si3 0.375381 0.491695 0.872267
Si Si4 0.871925 0.407119 0.557220
Si Si5 0.724796 0.007749 0.558491
Si Si6 0.536123 0.979872 0.827857
Si Si7 0.000000 0.214834 0.500000
Si Si8 0.994387 0.980263 0.277792
O O1 0.631181 0.751582 0.055433
O O2 0.629246 0.254881 0.043904
O O3 0.527313 0.995850 0.091352
O O4 0.589788 0.994517 0.895700
O O5 0.321049 0.468348 0.806151
O O6 0.354013 0.618103 0.601101
O O7 0.246870 0.424480 0.669418
O O8 0.346303 0.122048 0.648529
O O9 0.436676 0.484611 0.783647
O O10 0.845626 0.459839 0.446681
O O11 0.944056 0.414144 0.531421
O O12 0.761112 0.813602 0.465637
O O13 0.539375 0.212348 0.740886
O O14 0.543483 0.707629 0.765500
O O15 0.008015 0.020528 0.596000
#
# Coordination Sequence:
#
# PCOD8048096 Si02
#       8
#     4   4   4   4   4   4   2   4
#     4   9  17  28  48  66  89 118 157 198 249 300
#     4  10  18  32  49  69  98 126 165 209 253 291
#     4  10  17  28  46  71  92 118 156 202 248 291
#     4  10  21  32  47  66  97 137 173 204 236 285
#     4   8  16  31  48  65  87 128 168 204 248 288
#     4   9  18  33  44  62  89 127 162 195 240 293
#     4  12  24  34  48  72 104 142 180 202 228 288
#     4  10  21  30  44  62  95 131 168 194 229 279
#
# _framework density 20.995823000000001
#
# number of rings (size 3 to 8) (size 9 to 14) (size 15 to 20)
#    0.000    2.400    1.333    1.600    3.733    5.333 
#    0.000    0.000    0.000    0.000    0.000    0.000 
#    0.000    4.267    0.000    0.267    0.000    0.133 
#
# Total GULP energy -185920.983402 kJ/mol
# GULP energy per Si atom -12394.732227 kJ/mol
# Density = 2.094804 g / cm^3
# Si number density = 20.995823 Si / 1000 Ang^3
#
#
#
# Elastic Constant Matrix: (Units=GPa)
#
#
# Indices 1 2 3 4 5 6 
#
# 1 56.2122 12.5594 34.7115 0.0000 33.9918 0.0000
# 2 12.5594 115.6634 32.1250 0.0000 17.2475 0.0000
# 3 34.7115 32.1250 129.1791 0.0000 54.2290 0.0000
# 4 0.0000 0.0000 0.0000 29.8057 0.0000 11.7511
# 5 33.9918 17.2475 54.2290 0.0000 41.6857 0.0000
# 6 0.0000 0.0000 0.0000 11.7511 0.0000 13.3875
#
#
#
# Elastic Compliance Matrix: (Units=1/GPa)
#
#
# Indices 1 2 3 4 5 6 
#
# 1 0.037103 -0.000023 0.006021 0.000000 -0.038078 0.000000
# 2 -0.000023 0.009352 -0.001549 0.000000 -0.001836 0.000000
# 3 0.006021 -0.001549 0.018288 0.000000 -0.028059 0.000000
# 4 0.000000 0.000000 0.000000 0.051306 0.000000 -0.045035
# 5 -0.038078 -0.001836 -0.028059 0.000000 0.092301 0.000000
# 6 0.000000 0.000000 0.000000 -0.045035 0.000000 0.114226
#
#
# Mechanical properties :
#
#
# Convention : Reuss Voigt Hill
#
# Bulk Modulus (GPa) = 13.57947 51.09404 32.33676
# Shear Modulus (GPa) = 14.78306 31.75303 23.26805
#
# Velocity S-wave (km/s) = 2.65636 3.89311 3.33261
# Velocity P-wave (km/s) = 3.98623 6.67807 5.49939
#
# Compressibility (1/GPa) = 0.07364055
#
# Stress axis : x y z
#
# Youngs Moduli (GPa) = 26.95213 106.92640 54.68129
#
# Poissons Ratio (x) = 0.00246 -0.32923
# Poissons Ratio (y) = 0.00062 0.08470
# Poissons Ratio (z) = -0.16228 0.16563
#
# Static dielectric constant tensor:
#      x y z
#    x 3.577650 0.000000 0.678720 
#    y 0.000000 3.927130 0.000000 
#    z 0.678720 0.000000 3.796110 
# 
# 
# High freq. dielectric constant tensor:
#      x y z
#    x 1.768060 0.000000 0.059260 
#    y 0.000000 1.841290 0.000000 
#    z 0.059260 0.000000 1.808530 
# 
# From -- ./inp_files/47715.got.cif
#   From: 2010.03.12/outbox.cif.g09.slc.cpg/sg5_24_cif.got.tgz:47715.got - 2010.03.31 09:47:26.
