data_PCOD8048619
_publ_section_title
;
Structure prediction by ZEFSAII (Michael W. Deem and Ramdas Pophale) SiO2 
 PCOD8048619
Probable space group: C 2
;
_chemical_formula_sum "Si O2"
_cell_formula_units_Z 28
_cell_length_a 9.484803
_cell_length_b 32.217411
_cell_length_c 5.053066
_cell_angle_alpha 90.000000
_cell_angle_beta 117.271283
_cell_angle_gamma 90.000000
_cell_volume 1372.463912
_symmetry_space_group_name_H-M "C 2"
_symmetry_group_IT_number 5
_symmetry_cell_setting 'monoclinic'
loop_
_space_group_symop_operation_xyz
x,y,z
-x,y,-z
1/2+x,1/2+y,z
1/2-x,1/2+y,-z
loop_
_atom_site_type_symbol
_atom_site_label
_atom_site_fract_x
_atom_site_fract_y
_atom_site_fract_z
Si Si1 0.688036 0.703800 0.641324
Si Si2 0.106088 0.919151 0.850893
Si Si3 0.312498 0.751761 0.862127
Si Si4 0.671206 0.069915 0.758344
Si Si5 0.395945 0.978355 0.167518
Si Si6 0.314614 0.610061 0.393638
Si Si7 0.895517 0.825355 0.153774
O O1 0.500000 0.705811 0.500000
O O2 0.754620 0.735792 0.476825
O O3 0.744136 0.657415 0.621852
O O4 0.751419 0.718125 0.980976
O O5 0.163419 0.872028 0.957856
O O6 0.000000 0.923403 0.500000
O O7 0.263853 0.946019 0.962435
O O8 0.000000 0.935896 0.000000
O O9 0.254166 0.796643 0.908305
O O10 0.500000 0.754676 0.000000
O O11 0.500000 0.083480 0.500000
O O12 0.797094 0.085065 0.650745
O O13 0.685276 0.020485 0.800000
O O14 0.708123 0.090400 0.071688
O O15 0.500000 0.959730 0.500000
O O16 0.500000 0.988747 0.000000
O O17 0.500000 0.608087 0.500000
O O18 0.000000 0.826319 0.500000
O O19 0.000000 0.808018 0.000000
#
# Coordination Sequence:
#
# PCOD8048619 Si02
#       7
#     4   4   4   4   4   4   4
#     4   9  19  35  56  82 113 144 188 244 286 319
#     4  10  22  40  62  88 118 153 190 237 288 340
#     4  10  19  35  58  82 109 149 192 232 278 338
#     4  11  23  40  58  84 122 154 184 237 300 344
#     4  11  23  41  62  86 118 155 191 236 289 343
#     4  11  22  39  62  86 112 153 201 241 281 341
#     4  10  21  38  57  82 119 150 180 231 291 337
#
# _framework density 20.401264999999999
#
# number of rings (size 3 to 8) (size 9 to 14) (size 15 to 20)
#    0.000    1.714    0.000    5.143    0.000    4.571 
#    0.000    9.286    0.000    0.000    0.000    0.000 
#    0.000    0.000    0.000    0.000    0.000    0.000 
#
# Total GULP energy -173596.230575 kJ/mol
# GULP energy per Si atom -12399.730755 kJ/mol
# Density = 2.035483 g / cm^3
# Si number density = 20.401265 Si / 1000 Ang^3
#
#
#
# Elastic Constant Matrix: (Units=GPa)
#
#
# Indices 1 2 3 4 5 6 
#
# 1 90.4691 60.8562 23.8978 0.0000 -22.3442 0.0000
# 2 60.8562 122.3852 32.9070 0.0000 -1.0716 0.0000
# 3 23.8978 32.9070 90.1642 0.0000 -16.2792 0.0000
# 4 0.0000 0.0000 0.0000 42.6530 0.0000 -6.4354
# 5 -22.3442 -1.0716 -16.2792 0.0000 37.6035 0.0000
# 6 0.0000 0.0000 0.0000 -6.4354 0.0000 33.2384
#
#
#
# Elastic Compliance Matrix: (Units=1/GPa)
#
#
# Indices 1 2 3 4 5 6 
#
# 1 0.021047 -0.010489 0.000492 0.000000 0.012420 0.000000
# 2 -0.010489 0.014344 -0.003804 0.000000 -0.007471 0.000000
# 3 0.000492 -0.003804 0.013432 0.000000 0.005999 0.000000
# 4 0.000000 0.000000 0.000000 0.024150 0.000000 0.004676
# 5 0.012420 -0.007471 0.005999 0.000000 0.036358 0.000000
# 6 0.000000 0.000000 0.000000 0.004676 0.000000 0.030991
#
#
# Mechanical properties :
#
#
# Convention : Reuss Voigt Hill
#
# Bulk Modulus (GPa) = 47.12258 59.81561 53.46909
# Shear Modulus (GPa) = 28.57194 35.05617 31.81405
#
# Velocity S-wave (km/s) = 3.74638 4.14978 3.95323
# Velocity P-wave (km/s) = 6.47007 7.23492 6.86316
#
# Compressibility (1/GPa) = 0.02122125
#
# Stress axis : x y z
#
# Youngs Moduli (GPa) = 47.51308 69.71538 74.45035
#
# Poissons Ratio (x) = 0.73126 -0.03665
# Poissons Ratio (y) = 0.49837 0.28319
# Poissons Ratio (z) = -0.02339 0.26518
#
# Static dielectric constant tensor:
#      x y z
#    x 3.719070 0.000000 -0.328800 
#    y 0.000000 3.900640 0.000000 
#    z -0.328800 0.000000 3.893430 
# 
# 
# High freq. dielectric constant tensor:
#      x y z
#    x 1.793640 0.000000 -0.021990 
#    y 0.000000 1.799160 0.000000 
#    z -0.021990 0.000000 1.806590 
# 
# From -- ./inp_files/3868.got.cif
#   From: 2010.03.12/outbox.cif.g09.slc.cpg/sg5_2_cif.got.tgz:3868.got - 2010.03.31 09:47:26.
