data_PCOD8048899
_publ_section_title
;
Structure prediction by ZEFSAII (Michael W. Deem and Ramdas Pophale) SiO2 
 PCOD8048899
Probable space group: C 2
;
_chemical_formula_sum "Si O2"
_cell_formula_units_Z 32
_cell_length_a 18.398712
_cell_length_b 9.645523
_cell_length_c 9.161418
_cell_angle_alpha 90.000000
_cell_angle_beta 105.984151
_cell_angle_gamma 90.000000
_cell_volume 1562.974771
_symmetry_space_group_name_H-M "C 2"
_symmetry_group_IT_number 5
_symmetry_cell_setting 'monoclinic'
loop_
_space_group_symop_operation_xyz
x,y,z
-x,y,-z
1/2+x,1/2+y,z
1/2-x,1/2+y,-z
loop_
_atom_site_type_symbol
_atom_site_label
_atom_site_fract_x
_atom_site_fract_y
_atom_site_fract_z
Si Si1 0.765122 0.375000 0.647646
Si Si2 0.571495 0.806031 0.182759
Si Si3 0.059408 0.618858 0.215970
Si Si4 0.312019 0.438236 0.098454
Si Si5 0.676702 0.947735 0.823665
Si Si6 0.398737 0.179083 0.065482
Si Si7 0.914407 0.199577 0.133443
Si Si8 0.680675 0.100365 0.523156
O O1 0.849524 0.309647 0.686506
O O2 0.742883 0.441060 0.791402
O O3 0.710023 0.254750 0.565197
O O4 0.760782 0.505804 0.535683
O O5 0.503814 0.717810 0.226609
O O6 0.541405 0.962780 0.152041
O O7 0.590580 0.737346 0.039001
O O8 0.102659 0.621222 0.392483
O O9 0.980661 0.699694 0.184504
O O10 0.104595 0.697997 0.111668
O O11 0.344379 0.284607 0.116084
O O12 0.382334 0.544933 0.141687
O O13 0.264083 0.456810 0.922894
O O14 0.628858 0.024496 0.920281
O O15 0.664045 0.021260 0.662970
O O16 0.642576 0.792915 0.800653
#
# Coordination Sequence:
#
# PCOD8048899 Si02
#       8
#     4   4   4   4   4   4   4   4
#     4  11  24  46  60  95 132 173 215 273 337 398
#     4  10  19  41  65  91 130 165 221 267 326 397
#     4  10  21  42  68  93 125 172 222 263 326 406
#     4  12  25  39  65 103 132 162 225 283 322 388
#     4  12  21  40  67  93 123 174 220 262 324 395
#     4  11  21  42  68  93 125 168 219 270 321 389
#     4  11  21  37  68  97 124 169 217 277 324 385
#     4  11  26  41  67  93 132 173 213 274 337 395
#
# _framework density 20.473779
#
# number of rings (size 3 to 8) (size 9 to 14) (size 15 to 20)
#    0.000    1.000    5.000    3.000    3.500    2.500 
#    2.250    0.000    0.000    0.000    0.000    0.000 
#    0.000    0.000    0.000    0.000    0.000    0.000 
#
# Total GULP energy -198317.250365 kJ/mol
# GULP energy per Si atom -12394.828148 kJ/mol
# Density = 2.042718 g / cm^3
# Si number density = 20.473779 Si / 1000 Ang^3
#
#
#
# Elastic Constant Matrix: (Units=GPa)
#
#
# Indices 1 2 3 4 5 6 
#
# 1 101.1306 20.9573 45.1419 0.0000 3.7547 0.0000
# 2 20.9573 55.8876 29.3647 0.0000 -0.3072 0.0000
# 3 45.1419 29.3647 99.7212 0.0000 15.9834 0.0000
# 4 0.0000 0.0000 0.0000 24.6948 0.0000 -4.7201
# 5 3.7547 -0.3072 15.9834 0.0000 22.3603 0.0000
# 6 0.0000 0.0000 0.0000 -4.7201 0.0000 35.7194
#
#
#
# Elastic Compliance Matrix: (Units=1/GPa)
#
#
# Indices 1 2 3 4 5 6 
#
# 1 0.012645 -0.001866 -0.005455 0.000000 0.001751 0.000000
# 2 -0.001866 0.022028 -0.006484 0.000000 0.005250 0.000000
# 3 -0.005455 -0.006484 0.016121 0.000000 -0.010697 0.000000
# 4 0.000000 0.000000 0.000000 0.041544 0.000000 0.005490
# 5 0.001751 0.005250 -0.010697 0.000000 0.052146 0.000000
# 6 0.000000 0.000000 0.000000 0.005490 0.000000 0.028721
#
#
# Mechanical properties :
#
#
# Convention : Reuss Voigt Hill
#
# Bulk Modulus (GPa) = 43.13129 49.74082 46.43606
# Shear Modulus (GPa) = 23.97584 27.30659 25.64121
#
# Velocity S-wave (km/s) = 3.42577 3.65600 3.54276
# Velocity P-wave (km/s) = 6.06302 6.49379 6.28210
#
# Compressibility (1/GPa) = 0.02318502
#
# Stress axis : x y z
#
# Youngs Moduli (GPa) = 79.08288 45.39641 62.03039
#
# Poissons Ratio (x) = 0.08470 0.33840
# Poissons Ratio (y) = 0.14755 0.40218
# Poissons Ratio (z) = 0.43142 0.29433
#
# Static dielectric constant tensor:
#      x y z
#    x 3.834000 0.000000 0.034600 
#    y 0.000000 3.599310 0.000000 
#    z 0.034600 0.000000 3.515430 
# 
# 
# High freq. dielectric constant tensor:
#      x y z
#    x 1.810090 0.000000 -0.000550 
#    y 0.000000 1.793020 0.000000 
#    z -0.000550 0.000000 1.784780 
# 
# From -- ./inp_files/28977.got.cif
#   From: 2010.03.12/outbox.cif.g09.slc.cpg/sg5_15_cif.got.tgz:28977.got - 2010.03.31 09:47:26.
