data_PCOD8048110
_publ_section_title
;
Structure prediction by ZEFSAII (Michael W. Deem and Ramdas Pophale) SiO2 
 PCOD8048110
Probable space group: C 2
;
_chemical_formula_sum "Si O2"
_cell_formula_units_Z 28
_cell_length_a 21.080518
_cell_length_b 11.990378
_cell_length_c 19.412981
_cell_angle_alpha 90.000000
_cell_angle_beta 20.878221
_cell_angle_gamma 90.000000
_cell_volume 1748.731774
_symmetry_space_group_name_H-M "C 2"
_symmetry_group_IT_number 5
_symmetry_cell_setting 'monoclinic'
loop_
_space_group_symop_operation_xyz
x,y,z
-x,y,-z
1/2+x,1/2+y,z
1/2-x,1/2+y,-z
loop_
_atom_site_type_symbol
_atom_site_label
_atom_site_fract_x
_atom_site_fract_y
_atom_site_fract_z
Si Si1 0.538697 0.602150 0.538386
Si Si2 0.427660 0.208089 0.281537
Si Si3 0.234495 0.446307 0.899512
Si Si4 0.424554 0.015343 0.798478
Si Si5 0.958684 0.279392 0.347268
Si Si6 0.944790 0.588261 0.130503
Si Si7 0.236901 0.730481 0.062231
O O1 0.500000 0.640744 0.500000
O O2 0.409521 0.502588 0.691163
O O3 0.508899 0.710229 0.616226
O O4 0.737813 0.554581 0.343503
O O5 0.484270 0.188120 0.144315
O O6 0.586685 0.273660 0.159140
O O7 0.244578 0.274866 0.472293
O O8 0.410225 0.084064 0.334501
O O9 0.259872 0.311616 0.874374
O O10 0.208496 0.479078 0.005474
O O11 0.062991 0.479062 0.027868
O O12 0.493793 0.909115 0.685732
O O13 0.312996 0.103460 0.863880
O O14 0.073687 0.230557 0.168110
O O15 0.000000 0.634961 0.000000
#
# Coordination Sequence:
#
# PCOD8048110 Si02
#       7
#     4   4   4   4   4   4   4
#     4  11  20  30  52  76 104 134 170 208 258 302
#     4   8  18  30  45  74  98 133 160 207 253 299
#     4  10  18  32  49  74 103 130 168 205 266 292
#     4   8  17  33  46  72 103 125 168 208 243 311
#     4  10  17  31  50  71 102 134 167 203 263 294
#     4  10  18  30  48  72 108 131 163 212 242 306
#     4   9  18  32  49  71 106 129 163 212 253 309
#
# _framework density 16.011603999999998
#
# number of rings (size 3 to 8) (size 9 to 14) (size 15 to 20)
#    0.857    1.714    2.857    0.000    0.000    4.571 
#    0.000    0.000    0.000    0.857    0.000    0.000 
#    0.000    0.000    0.000    0.000    0.000    0.000 
#
# Total GULP energy -173437.948091 kJ/mol
# GULP energy per Si atom -12388.424864 kJ/mol
# Density = 1.597516 g / cm^3
# Si number density = 16.011604 Si / 1000 Ang^3
#
#
#
# Elastic Constant Matrix: (Units=GPa)
#
#
# Indices 1 2 3 4 5 6 
#
# 1 54.4372 18.7177 31.4614 -0.0008 0.3121 0.0003
# 2 18.7177 98.1220 38.8992 0.0000 4.6676 0.0002
# 3 31.4614 38.8992 92.1759 0.0011 -4.6360 -0.0002
# 4 -0.0008 0.0000 0.0011 24.1233 0.0000 -2.8687
# 5 0.3121 4.6676 -4.6360 0.0000 22.7205 0.0000
# 6 0.0003 0.0002 -0.0002 -2.8687 0.0000 21.3073
#
#
#
# Elastic Compliance Matrix: (Units=1/GPa)
#
#
# Indices 1 2 3 4 5 6 
#
# 1 0.023127 -0.001416 -0.007373 0.000001 -0.001531 0.000000
# 2 -0.001416 0.012625 -0.005026 0.000000 -0.003600 0.000000
# 3 -0.007373 -0.005026 0.015705 -0.000001 0.004338 0.000000
# 4 0.000001 0.000000 -0.000001 0.042128 0.000000 0.005672
# 5 -0.001531 -0.003600 0.004338 0.000000 0.045659 0.000000
# 6 0.000000 0.000000 0.000000 0.005672 0.000000 0.047696
#
#
# Mechanical properties :
#
#
# Convention : Reuss Voigt Hill
#
# Bulk Modulus (GPa) = 41.96929 46.98798 44.47864
# Shear Modulus (GPa) = 22.47079 24.00731 23.23905
#
# Velocity S-wave (km/s) = 3.75027 3.87637 3.81384
# Velocity P-wave (km/s) = 6.70980 7.03171 6.87264
#
# Compressibility (1/GPa) = 0.02382694
#
# Stress axis : x y z
#
# Youngs Moduli (GPa) = 43.24027 79.20731 63.67595
#
# Poissons Ratio (x) = 0.11214 0.46949
# Poissons Ratio (y) = 0.06122 0.32002
# Poissons Ratio (z) = 0.31881 0.39808
#
# Static dielectric constant tensor:
#      x y z
#    x 2.952730 0.000000 -0.120360 
#    y 0.000000 3.016280 0.000000 
#    z -0.120360 0.000000 3.056650 
# 
# 
# High freq. dielectric constant tensor:
#      x y z
#    x 1.591550 0.000000 -0.015520 
#    y 0.000000 1.594370 0.000000 
#    z -0.015520 0.000000 1.619130 
# 
# From -- ./inp_files/67412.got.cif
#   From: 2010.03.12/outbox.cif.g09.slc.cpg/sg5_34_cif.got.tgz:67412.got - 2010.03.31 09:47:26.
