data_PCOD8048606
_publ_section_title
;
Structure prediction by ZEFSAII (Michael W. Deem and Ramdas Pophale) SiO2 
 PCOD8048606
Probable space group: C 2
;
_chemical_formula_sum "Si O2"
_cell_formula_units_Z 28
_cell_length_a 15.329385
_cell_length_b 14.032936
_cell_length_c 16.473354
_cell_angle_alpha 90.000000
_cell_angle_beta 25.107059
_cell_angle_gamma 90.000000
_cell_volume 1503.625167
_symmetry_space_group_name_H-M "C 2"
_symmetry_group_IT_number 5
_symmetry_cell_setting 'monoclinic'
loop_
_space_group_symop_operation_xyz
x,y,z
-x,y,-z
1/2+x,1/2+y,z
1/2-x,1/2+y,-z
loop_
_atom_site_type_symbol
_atom_site_label
_atom_site_fract_x
_atom_site_fract_y
_atom_site_fract_z
Si Si1 0.830017 0.236770 0.202746
Si Si2 0.436543 0.540790 0.461103
Si Si3 0.501316 0.043694 0.761454
Si Si4 0.312722 0.149258 0.530767
Si Si5 0.124724 0.144416 0.165419
Si Si6 0.042802 0.835141 0.317585
Si Si7 0.608347 0.835898 0.101630
O O1 0.693878 0.156271 0.364554
O O2 0.682778 0.304393 0.275710
O O3 0.939658 0.300682 0.178909
O O4 0.000000 0.188998 0.000000
O O5 0.500000 0.547432 0.500000
O O6 0.203747 0.576961 0.641315
O O7 0.608348 0.606430 0.271325
O O8 0.435341 0.433304 0.429946
O O9 0.524141 0.075794 0.646998
O O10 0.467728 0.931234 0.791314
O O11 0.309957 0.096768 0.961581
O O12 0.370420 0.254565 0.446709
O O13 0.088340 0.112526 0.695883
O O14 0.144722 0.258665 0.142285
O O15 0.176405 0.852590 0.124852
#
# Coordination Sequence:
#
# PCOD8048606 Si02
#       7
#     4   4   4   4   4   4   4
#     4   9  19  32  55  86 117 146 167 222 287 323
#     4  11  22  34  56  86 109 139 179 222 280 333
#     4  11  21  36  56  79 111 148 180 224 271 320
#     4  10  20  33  53  80 114 147 181 211 271 334
#     4  10  21  37  51  78 111 146 183 223 264 321
#     4  11  18  33  57  85 118 139 169 226 279 327
#     4  10  19  35  55  81 115 145 181 219 268 323
#
# _framework density 18.621662000000001
#
# number of rings (size 3 to 8) (size 9 to 14) (size 15 to 20)
#    0.000    1.714    2.857    3.857    0.000    0.571 
#    0.000    0.000    0.000    1.714    0.000    2.000 
#    0.000    0.000    0.000    0.000    0.000    0.000 
#
# Total GULP energy -173483.506283 kJ/mol
# GULP energy per Si atom -12391.679020 kJ/mol
# Density = 1.857928 g / cm^3
# Si number density = 18.621662 Si / 1000 Ang^3
#
#
#
# Elastic Constant Matrix: (Units=GPa)
#
#
# Indices 1 2 3 4 5 6 
#
# 1 41.0164 48.2362 41.4211 0.0058 6.0144 0.0008
# 2 48.2362 106.7063 65.8806 -0.0520 25.2681 0.0306
# 3 41.4211 65.8806 158.0101 -0.0067 16.7164 0.0098
# 4 0.0058 -0.0520 -0.0067 40.6470 0.0153 6.3419
# 5 6.0144 25.2681 16.7164 0.0153 34.8347 -0.0155
# 6 0.0008 0.0306 0.0098 6.3419 -0.0155 23.5730
#
#
#
# Elastic Compliance Matrix: (Units=1/GPa)
#
#
# Indices 1 2 3 4 5 6 
#
# 1 0.058821 -0.025587 -0.005942 -0.000055 0.011256 0.000056
# 2 -0.025587 0.025599 -0.002601 0.000049 -0.012903 -0.000053
# 3 -0.005942 -0.002601 0.009126 0.000000 -0.001467 -0.000001
# 4 -0.000055 0.000049 0.000000 0.025680 -0.000040 -0.006909
# 5 0.011256 -0.012903 -0.001467 -0.000040 0.036827 0.000052
# 6 0.000056 -0.000053 -0.000001 -0.006909 0.000052 0.044280
#
#
# Mechanical properties :
#
#
# Convention : Reuss Voigt Hill
#
# Bulk Modulus (GPa) = 39.54601 68.53429 54.04015
# Shear Modulus (GPa) = 18.04906 29.82393 23.93650
#
# Velocity S-wave (km/s) = 3.11666 4.00631 3.58915
# Velocity P-wave (km/s) = 5.85099 7.63440 6.80140
#
# Compressibility (1/GPa) = 0.02528700
#
# Stress axis : x y z
#
# Youngs Moduli (GPa) = 17.00062 39.06373 109.57682
#
# Poissons Ratio (x) = 0.99951 0.65114
# Poissons Ratio (y) = 0.43499 0.28500
# Poissons Ratio (z) = 0.10102 0.10160
#
# Static dielectric constant tensor:
#      x y z
#    x 3.305480 0.000010 0.137930 
#    y 0.000010 3.468510 0.000020 
#    z 0.137930 0.000020 4.037710 
# 
# 
# High freq. dielectric constant tensor:
#      x y z
#    x 1.687130 0.000000 -0.001550 
#    y 0.000000 1.701040 0.000000 
#    z -0.001550 0.000000 1.762790 
# 
# From -- ./inp_files/54742.got.cif
#   From: 2010.03.12/outbox.cif.g09.slc.cpg/sg5_28_cif.got.tgz:54742.got - 2010.03.31 09:47:26.
