data_PCOD8048346
_publ_section_title
;
Structure prediction by ZEFSAII (Michael W. Deem and Ramdas Pophale) SiO2 
 PCOD8048346
Probable space group: C 2
;
_chemical_formula_sum "Si O2"
_cell_formula_units_Z 26
_cell_length_a 16.674849
_cell_length_b 14.602548
_cell_length_c 10.300251
_cell_angle_alpha 90.000000
_cell_angle_beta 34.986538
_cell_angle_gamma 90.000000
_cell_volume 1438.082815
_symmetry_space_group_name_H-M "C 2"
_symmetry_group_IT_number 5
_symmetry_cell_setting 'monoclinic'
loop_
_space_group_symop_operation_xyz
x,y,z
-x,y,-z
1/2+x,1/2+y,z
1/2-x,1/2+y,-z
loop_
_atom_site_type_symbol
_atom_site_label
_atom_site_fract_x
_atom_site_fract_y
_atom_site_fract_z
Si Si1 0.069279 0.926870 0.267977
Si Si2 0.284761 0.782661 0.075220
Si Si3 0.945140 0.378240 0.319365
Si Si4 0.000000 0.469925 0.500000
Si Si5 0.270950 0.083840 0.953297
Si Si6 0.720549 0.382359 0.414196
Si Si7 0.889270 0.533214 0.053148
O O1 0.195905 0.853867 0.105257
O O2 0.000000 0.939435 0.500000
O O3 0.945883 0.890714 0.336679
O O4 0.129428 0.023643 0.138069
O O5 0.246790 0.679710 0.092565
O O6 0.252039 0.801038 0.270016
O O7 0.449450 0.792097 0.825005
O O8 0.797470 0.355774 0.446556
O O9 0.918696 0.406871 0.503206
O O10 0.021197 0.456711 0.137910
O O11 0.110901 0.532372 0.282118
O O12 0.318771 0.099499 0.040282
O O13 0.769692 0.481045 0.293234
O O14 0.000000 0.586883 0.000000
#
# Coordination Sequence:
#
# PCOD8048346 Si02
#       7
#     4   4   4   2   4   4   4
#     4  10  18  36  56  84 110 146 194 231 278 337
#     4  10  19  33  59  83 111 147 195 233 276 335
#     4   9  17  36  55  78 109 152 185 228 282 341
#     4  10  20  36  56  80 114 152 188 230 300 342
#     4  11  20  33  57  87 115 151 191 237 285 337
#     4   9  17  33  61  79 105 145 196 231 270 334
#     4   8  14  30  56  79 102 140 190 230 268 326
#
# _framework density 18.079626999999999
#
# number of rings (size 3 to 8) (size 9 to 14) (size 15 to 20)
#    0.000    2.462    6.154    1.385    3.231    0.000 
#    1.385    3.846    6.769    0.000    0.000    0.000 
#    0.000    0.000    0.000    0.000    0.000    0.000 
#
# Total GULP energy -161113.739589 kJ/mol
# GULP energy per Si atom -12393.364584 kJ/mol
# Density = 1.803848 g / cm^3
# Si number density = 18.079627 Si / 1000 Ang^3
#
#
#
# Elastic Constant Matrix: (Units=GPa)
#
#
# Indices 1 2 3 4 5 6 
#
# 1 159.2692 49.4733 43.7008 0.0000 -22.9100 0.0000
# 2 49.4733 81.3070 21.1103 0.0000 -2.3236 0.0000
# 3 43.7008 21.1103 61.8081 0.0000 -16.3309 0.0000
# 4 0.0000 0.0000 0.0000 12.8989 0.0000 1.4233
# 5 -22.9100 -2.3236 -16.3309 0.0000 31.1920 0.0000
# 6 0.0000 0.0000 0.0000 1.4233 0.0000 20.5825
#
#
#
# Elastic Compliance Matrix: (Units=1/GPa)
#
#
# Indices 1 2 3 4 5 6 
#
# 1 0.009429 -0.004596 -0.003897 0.000000 0.004543 0.000000
# 2 -0.004596 0.015808 -0.003169 0.000000 -0.003857 0.000000
# 3 -0.003897 -0.003169 0.022280 0.000000 0.008567 0.000000
# 4 0.000000 0.000000 0.000000 0.078122 0.000000 -0.005402
# 5 0.004543 -0.003857 0.008567 0.000000 0.039594 0.000000
# 6 0.000000 0.000000 0.000000 -0.005402 0.000000 0.048959
#
#
# Mechanical properties :
#
#
# Convention : Reuss Voigt Hill
#
# Bulk Modulus (GPa) = 41.33183 58.99481 50.16332
# Shear Modulus (GPa) = 20.36002 25.47465 22.91733
#
# Velocity S-wave (km/s) = 3.35943 3.75777 3.56417
# Velocity P-wave (km/s) = 6.16103 7.17838 6.68908
#
# Compressibility (1/GPa) = 0.02419443
#
# Stress axis : x y z
#
# Youngs Moduli (GPa) = 106.05727 63.25920 44.88320
#
# Poissons Ratio (x) = 0.29072 0.17489
# Poissons Ratio (y) = 0.48741 0.14223
# Poissons Ratio (z) = 0.41327 0.20046
#
# Static dielectric constant tensor:
#      x y z
#    x 4.031640 0.000000 -0.231190 
#    y 0.000000 2.943630 0.000000 
#    z -0.231190 0.000000 3.417330 
# 
# 
# High freq. dielectric constant tensor:
#      x y z
#    x 1.707200 0.000000 -0.017660 
#    y 0.000000 1.657440 0.000000 
#    z -0.017660 0.000000 1.689550 
# 
# From -- ./inp_files/39594.got.cif
#   From: 2010.03.12/outbox.cif.g09.slc.cpg/sg5_20_cif.got.tgz:39594.got - 2010.03.31 09:47:26.
