data_PCOD8048705
_publ_section_title
;
Structure prediction by ZEFSAII (Michael W. Deem and Ramdas Pophale) SiO2 
 PCOD8048705
Probable space group: C 2
;
_chemical_formula_sum "Si O2"
_cell_formula_units_Z 24
_cell_length_a 26.751339
_cell_length_b 9.228551
_cell_length_c 7.928999
_cell_angle_alpha 90.000000
_cell_angle_beta 143.203441
_cell_angle_gamma 90.000000
_cell_volume 1172.482770
_symmetry_space_group_name_H-M "C 2"
_symmetry_group_IT_number 5
_symmetry_cell_setting 'monoclinic'
loop_
_space_group_symop_operation_xyz
x,y,z
-x,y,-z
1/2+x,1/2+y,z
1/2-x,1/2+y,-z
loop_
_atom_site_type_symbol
_atom_site_label
_atom_site_fract_x
_atom_site_fract_y
_atom_site_fract_z
Si Si1 0.500000 0.846900 0.500000
Si Si2 0.846199 0.410023 0.298482
Si Si3 0.088555 0.182441 0.282892
Si Si4 0.000000 0.904581 0.500000
Si Si5 0.616737 0.626007 0.990777
Si Si6 0.225788 0.704342 0.771770
Si Si7 0.564681 0.373398 0.324758
O O1 0.432734 0.935613 0.429249
O O2 0.554527 0.757237 0.780776
O O3 0.859896 0.318291 0.507312
O O4 0.807751 0.566851 0.217346
O O5 0.777925 0.313916 0.023712
O O6 0.079409 0.047751 0.390630
O O7 0.124523 0.106471 0.212310
O O8 0.000000 0.251528 0.000000
O O9 0.965798 0.815301 0.571759
O O10 0.920317 0.990317 0.210478
O O11 0.713444 0.648987 0.209327
O O12 0.147101 0.790918 0.486095
O O13 0.500000 0.344043 0.000000
#
# Coordination Sequence:
#
# PCOD8048705 Si02
#       7
#     2   4   4   2   4   4   4
#     4   9  18  35  62  88 118 162 206 244 306 372
#     4  11  22  40  63  90 125 166 207 259 314 372
#     4  11  19  37  66  95 120 167 215 249 304 382
#     4  11  18  39  72  90 122 170 214 246 314 380
#     4  10  19  36  64  92 123 167 205 251 309 376
#     4  11  25  41  60  92 129 161 209 265 318 365
#     4  11  23  42  66  94 126 167 213 260 310 377
#
# _framework density 20.469384999999999
#
# number of rings (size 3 to 8) (size 9 to 14) (size 15 to 20)
#    0.000    1.333    5.000    4.000    0.000    2.667 
#    3.000    0.000    0.000    0.000    0.000    0.000 
#    0.000    0.000    0.000    0.000    0.000    0.000 
#
# Total GULP energy -148668.422939 kJ/mol
# GULP energy per Si atom -12389.035245 kJ/mol
# Density = 2.042280 g / cm^3
# Si number density = 20.469385 Si / 1000 Ang^3
#
#
#
# Elastic Constant Matrix: (Units=GPa)
#
#
# Indices 1 2 3 4 5 6 
#
# 1 119.5937 23.3280 67.8915 0.0000 5.0449 0.0000
# 2 23.3280 58.3835 32.9304 0.0000 17.0239 0.0000
# 3 67.8915 32.9304 101.0345 0.0000 19.8795 0.0000
# 4 0.0000 0.0000 0.0000 20.9070 0.0000 5.2454
# 5 5.0449 17.0239 19.8795 0.0000 42.3026 0.0000
# 6 0.0000 0.0000 0.0000 5.2454 0.0000 15.9552
#
#
#
# Elastic Compliance Matrix: (Units=1/GPa)
#
#
# Indices 1 2 3 4 5 6 
#
# 1 0.013908 -0.001082 -0.009644 0.000000 0.003309 0.000000
# 2 -0.001082 0.022429 -0.005325 0.000000 -0.006395 0.000000
# 3 -0.009644 -0.005325 0.019245 0.000000 -0.005751 0.000000
# 4 0.000000 0.000000 0.000000 0.052131 0.000000 -0.017139
# 5 0.003309 -0.006395 -0.005751 0.000000 0.028521 0.000000
# 6 0.000000 0.000000 0.000000 -0.017139 0.000000 0.068310
#
#
# Mechanical properties :
#
#
# Convention : Reuss Voigt Hill
#
# Bulk Modulus (GPa) = 42.59034 58.59017 50.59025
# Shear Modulus (GPa) = 20.45233 26.15709 23.30471
#
# Velocity S-wave (km/s) = 3.16439 3.57860 3.37785
# Velocity P-wave (km/s) = 5.84835 6.76466 6.32312
#
# Compressibility (1/GPa) = 0.02347950
#
# Stress axis : x y z
#
# Youngs Moduli (GPa) = 71.90178 44.58610 51.96174
#
# Poissons Ratio (x) = 0.04826 0.50111
# Poissons Ratio (y) = 0.07783 0.27667
# Poissons Ratio (z) = 0.69341 0.23740
#
# Static dielectric constant tensor:
#      x y z
#    x 4.054440 0.000000 0.186550 
#    y 0.000000 3.435450 0.000000 
#    z 0.186550 0.000000 3.747610 
# 
# 
# High freq. dielectric constant tensor:
#      x y z
#    x 1.813080 0.000000 0.006910 
#    y 0.000000 1.765970 0.000000 
#    z 0.006910 0.000000 1.804170 
# 
# From -- ./inp_files/28894.got.cif
#   From: 2010.03.12/outbox.cif.g09.slc.cpg/sg5_15_cif.got.tgz:28894.got - 2010.03.31 09:47:26.
