data_PCOD8048938
_publ_section_title
;
Structure prediction by ZEFSAII (Michael W. Deem and Ramdas Pophale) SiO2 
 PCOD8048938
Probable space group: C 2
;
_chemical_formula_sum "Si O2"
_cell_formula_units_Z 26
_cell_length_a 11.989072
_cell_length_b 13.893859
_cell_length_c 10.595095
_cell_angle_alpha 90.000000
_cell_angle_beta 57.713607
_cell_angle_gamma 90.000000
_cell_volume 1492.003201
_symmetry_space_group_name_H-M "C 2"
_symmetry_group_IT_number 5
_symmetry_cell_setting 'monoclinic'
loop_
_space_group_symop_operation_xyz
x,y,z
-x,y,-z
1/2+x,1/2+y,z
1/2-x,1/2+y,-z
loop_
_atom_site_type_symbol
_atom_site_label
_atom_site_fract_x
_atom_site_fract_y
_atom_site_fract_z
Si Si1 0.924354 0.064970 0.302222
Si Si2 0.242893 0.280823 0.055071
Si Si3 0.453658 0.756363 0.167596
Si Si4 0.237812 0.891414 0.206572
Si Si5 0.000000 0.972344 0.500000
Si Si6 0.229947 0.063447 0.053476
Si Si7 0.348364 0.451206 0.126747
O O1 0.877449 0.172315 0.291048
O O2 0.075654 0.063255 0.172370
O O3 0.915851 0.040741 0.455915
O O4 0.836258 0.986391 0.279170
O O5 0.290588 0.169839 0.030869
O O6 0.303128 0.340089 0.136714
O O7 0.084519 0.290535 0.161177
O O8 0.298319 0.324283 0.890946
O O9 0.352688 0.845114 0.221451
O O10 0.500000 0.719588 0.000000
O O11 0.103185 0.903886 0.365997
O O12 0.294707 0.993114 0.119188
O O13 0.245723 0.019390 0.903310
O O14 0.500000 0.462085 0.000000
#
# Coordination Sequence:
#
# PCOD8048938 Si02
#       7
#     4   4   4   4   2   4   4
#     4   9  16  29  48  67  89 124 166 193 220 271
#     4   9  16  28  49  74  92 114 156 204 241 271
#     4   9  16  30  54  75  90 116 155 202 243 271
#     4   9  17  30  49  71  98 126 155 188 235 283
#     4  10  20  32  46  66  98 134 160 188 222 280
#     4   8  15  28  48  72  94 116 154 200 234 271
#     4   9  15  26  45  68  93 120 151 195 239 272
#
# _framework density 17.426237
#
# number of rings (size 3 to 8) (size 9 to 14) (size 15 to 20)
#    0.000    3.077    0.000    4.154    0.000    0.000 
#    0.000    8.462    0.000    9.231    0.000    0.000 
#    0.000    1.231    0.000    0.000    0.000    0.000 
#
# Total GULP energy -161075.372092 kJ/mol
# GULP energy per Si atom -12390.413238 kJ/mol
# Density = 1.738657 g / cm^3
# Si number density = 17.426237 Si / 1000 Ang^3
#
#
#
# Elastic Constant Matrix: (Units=GPa)
#
#
# Indices 1 2 3 4 5 6 
#
# 1 69.9922 55.2484 26.9990 0.0000 18.5692 0.0000
# 2 55.2484 158.4955 41.1811 0.0000 16.0782 0.0000
# 3 26.9990 41.1811 62.7799 0.0000 10.7102 0.0000
# 4 0.0000 0.0000 0.0000 18.9599 0.0000 1.0139
# 5 18.5692 16.0782 10.7102 0.0000 21.3545 0.0000
# 6 0.0000 0.0000 0.0000 1.0139 0.0000 36.2823
#
#
#
# Elastic Compliance Matrix: (Units=1/GPa)
#
#
# Indices 1 2 3 4 5 6 
#
# 1 0.024501 -0.005980 -0.004099 0.000000 -0.014747 0.000000
# 2 -0.005980 0.009316 -0.003532 0.000000 -0.000043 0.000000
# 3 -0.004099 -0.003532 0.020719 0.000000 -0.004168 0.000000
# 4 0.000000 0.000000 0.000000 0.052822 0.000000 -0.001476
# 5 -0.014747 -0.000043 -0.004168 0.000000 0.061775 0.000000
# 6 0.000000 0.000000 0.000000 -0.001476 0.000000 0.027603
#
#
# Mechanical properties :
#
#
# Convention : Reuss Voigt Hill
#
# Bulk Modulus (GPa) = 36.60889 59.79160 48.20025
# Shear Modulus (GPa) = 21.45362 26.50861 23.98112
#
# Velocity S-wave (km/s) = 3.51252 3.90447 3.71367
# Velocity P-wave (km/s) = 6.12405 7.39678 6.79030
#
# Compressibility (1/GPa) = 0.02731577
#
# Stress axis : x y z
#
# Youngs Moduli (GPa) = 40.81502 107.34557 48.26457
#
# Poissons Ratio (x) = 0.64188 0.19781
# Poissons Ratio (y) = 0.24406 0.17046
# Poissons Ratio (z) = 0.16728 0.37913
#
# Static dielectric constant tensor:
#      x y z
#    x 3.404580 0.000000 0.372320 
#    y 0.000000 3.785720 0.000000 
#    z 0.372320 0.000000 2.943680 
# 
# 
# High freq. dielectric constant tensor:
#      x y z
#    x 1.660320 0.000000 0.022420 
#    y 0.000000 1.680930 0.000000 
#    z 0.022420 0.000000 1.621000 
# 
# From -- ./inp_files/42415.got.cif
#   From: 2010.03.12/outbox.cif.g09.slc.cpg/sg5_22_cif.got.tgz:42415.got - 2010.03.31 09:47:26.
