data_PCOD8048631
_publ_section_title
;
Structure prediction by ZEFSAII (Michael W. Deem and Ramdas Pophale) SiO2 
 PCOD8048631
Probable space group: C 2
;
_chemical_formula_sum "Si O2"
_cell_formula_units_Z 26
_cell_length_a 17.712301
_cell_length_b 5.264296
_cell_length_c 12.264317
_cell_angle_alpha 90.000000
_cell_angle_beta 112.022426
_cell_angle_gamma 90.000000
_cell_volume 1060.121872
_symmetry_space_group_name_H-M "C 2"
_symmetry_group_IT_number 5
_symmetry_cell_setting 'monoclinic'
loop_
_space_group_symop_operation_xyz
x,y,z
-x,y,-z
1/2+x,1/2+y,z
1/2-x,1/2+y,-z
loop_
_atom_site_type_symbol
_atom_site_label
_atom_site_fract_x
_atom_site_fract_y
_atom_site_fract_z
Si Si1 0.901943 0.010630 0.950076
Si Si2 0.152859 0.450780 0.709274
Si Si3 0.878839 0.967249 0.182805
Si Si4 0.574257 0.014188 0.125484
Si Si5 0.551719 0.314740 0.317594
Si Si6 0.000000 0.561863 0.500000
Si Si7 0.228105 0.976521 0.421586
O O1 0.860888 0.012961 0.046085
O O2 0.874110 0.255509 0.863558
O O3 0.000000 0.987849 0.000000
O O4 0.868860 0.755446 0.874225
O O5 0.147077 0.688534 0.789166
O O6 0.224917 0.510976 0.665877
O O7 0.067574 0.399753 0.600007
O O8 0.169865 0.188926 0.781589
O O9 0.976215 0.998431 0.249574
O O10 0.546351 0.063955 0.235373
O O11 0.500000 0.989440 0.000000
O O12 0.632408 0.479562 0.343117
O O13 0.550011 0.233973 0.442354
O O14 0.252085 0.708316 0.487973
#
# Coordination Sequence:
#
# PCOD8048631 Si02
#       7
#     4   4   4   4   4   2   4
#     4  10  19  35  60 101 129 158 212 283 332 385
#     4  11  25  42  63  96 138 178 223 275 346 397
#     4  11  23  40  70 100 129 174 225 288 330 402
#     4  10  20  36  62 100 130 163 218 280 333 390
#     4  11  24  43  70 101 138 179 229 280 340 407
#     4  10  24  40  64 102 130 178 222 286 320 400
#     4  12  27  47  64  95 142 192 225 277 341 418
#
# _framework density 24.525482
#
# number of rings (size 3 to 8) (size 9 to 14) (size 15 to 20)
#    0.000    1.231    4.615    1.846   10.769    1.846 
#    0.000    0.000    0.000    3.692    0.000    0.000 
#    0.000    0.000    0.000    0.000    0.000    0.000 
#
# Total GULP energy -161141.842394 kJ/mol
# GULP energy per Si atom -12395.526338 kJ/mol
# Density = 2.446966 g / cm^3
# Si number density = 24.525482 Si / 1000 Ang^3
#
#
#
# Elastic Constant Matrix: (Units=GPa)
#
#
# Indices 1 2 3 4 5 6 
#
# 1 85.3081 17.6578 22.0424 0.0000 -23.2261 0.0000
# 2 17.6578 167.5886 38.0906 0.0000 -18.0087 0.0000
# 3 22.0424 38.0906 118.3893 0.0000 -48.6806 0.0000
# 4 0.0000 0.0000 0.0000 50.9297 0.0000 -16.5011
# 5 -23.2261 -18.0087 -48.6806 0.0000 37.3282 0.0000
# 6 0.0000 0.0000 0.0000 -16.5011 0.0000 23.0109
#
#
#
# Elastic Compliance Matrix: (Units=1/GPa)
#
#
# Indices 1 2 3 4 5 6 
#
# 1 0.014464 -0.000807 0.002387 0.000000 0.011724 0.000000
# 2 -0.000807 0.006496 -0.001849 0.000000 0.000220 0.000000
# 3 0.002387 -0.001849 0.019064 0.000000 0.025455 0.000000
# 4 0.000000 0.000000 0.000000 0.025578 0.000000 0.018342
# 5 0.011724 0.000220 0.025455 0.000000 0.067388 0.000000
# 6 0.000000 0.000000 0.000000 0.018342 0.000000 0.056610
#
#
# Mechanical properties :
#
#
# Convention : Reuss Voigt Hill
#
# Bulk Modulus (GPa) = 25.32460 58.54083 41.93271
# Shear Modulus (GPa) = 24.59423 41.82012 33.20717
#
# Velocity S-wave (km/s) = 3.17014 4.13385 3.68365
# Velocity P-wave (km/s) = 4.87319 6.83419 5.93524
#
# Compressibility (1/GPa) = 0.03948730
#
# Stress axis : x y z
#
# Youngs Moduli (GPa) = 69.13541 153.94145 52.45424
#
# Poissons Ratio (x) = 0.12420 -0.12523
# Poissons Ratio (y) = 0.05578 0.09700
# Poissons Ratio (z) = -0.16505 0.28467
#
# Static dielectric constant tensor:
#      x y z
#    x 4.083330 0.000000 -0.299020 
#    y 0.000000 5.434360 0.000000 
#    z -0.299020 0.000000 4.510190 
# 
# 
# High freq. dielectric constant tensor:
#      x y z
#    x 1.948540 0.000000 -0.022600 
#    y 0.000000 1.980880 0.000000 
#    z -0.022600 0.000000 1.987360 
# 
# From -- ./inp_files/43768.got.cif
#   From: 2010.03.12/outbox.cif.g09.slc.cpg/sg5_22_cif.got.tgz:43768.got - 2010.03.31 09:47:26.
