data_PCOD8048082
_publ_section_title
;
Structure prediction by ZEFSAII (Michael W. Deem and Ramdas Pophale) SiO2 
 PCOD8048082
Probable space group: C 2
;
_chemical_formula_sum "Si O2"
_cell_formula_units_Z 30
_cell_length_a 19.761785
_cell_length_b 9.215376
_cell_length_c 14.934690
_cell_angle_alpha 90.000000
_cell_angle_beta 30.091474
_cell_angle_gamma 90.000000
_cell_volume 1363.653944
_symmetry_space_group_name_H-M "C 2"
_symmetry_group_IT_number 5
_symmetry_cell_setting 'monoclinic'
loop_
_space_group_symop_operation_xyz
x,y,z
-x,y,-z
1/2+x,1/2+y,z
1/2-x,1/2+y,-z
loop_
_atom_site_type_symbol
_atom_site_label
_atom_site_fract_x
_atom_site_fract_y
_atom_site_fract_z
Si Si1 0.961932 0.893450 0.230984
Si Si2 0.500000 0.519606 0.000000
Si Si3 0.714827 0.238878 0.941331
Si Si4 0.209983 0.295099 0.432374
Si Si5 0.305540 0.738458 0.157602
Si Si6 0.845825 0.471487 0.674609
Si Si7 0.160608 0.556307 0.831408
Si Si8 0.444240 0.693501 0.815289
O O1 0.806760 0.840010 0.405273
O O2 0.010125 0.914121 0.073033
O O3 0.978021 0.040858 0.267232
O O4 0.064691 0.771926 0.153030
O O5 0.373416 0.627954 0.150106
O O6 0.773691 0.392622 0.840315
O O7 0.704387 0.120018 0.876284
O O8 0.811760 0.174722 0.906349
O O9 0.222509 0.413460 0.339079
O O10 0.260443 0.138979 0.337865
O O11 0.056058 0.297507 0.642980
O O12 0.168671 0.646555 0.293658
O O13 0.283136 0.891346 0.231606
O O14 0.399396 0.758047 0.962198
O O15 0.000000 0.425131 0.500000
O O16 0.000000 0.560824 0.000000
#
# Coordination Sequence:
#
# PCOD8048082 Si02
#       8
#     4   2   4   4   4   4   4   4
#     4  11  21  42  70  94 129 177 225 261 330 403
#     4  10  16  36  68  90 114 170 222 258 302 394
#     4  11  22  42  68  95 132 179 219 265 332 407
#     4  11  23  44  69  97 130 176 226 272 323 402
#     4  11  23  40  67  93 136 166 218 277 332 381
#     4  11  21  42  72  95 125 183 233 261 324 413
#     4  11  23  39  70  99 127 171 230 272 323 391
#     4  11  26  41  65 102 138 168 215 284 336 383
#
# _framework density 21.999714000000001
#
# number of rings (size 3 to 8) (size 9 to 14) (size 15 to 20)
#    0.000    1.067    7.333    0.800    1.867    1.067 
#    2.400    0.000    0.000    0.000    0.000    0.000 
#    0.000    0.000    0.000    0.000    0.000    0.000 
#
# Total GULP energy -185949.355003 kJ/mol
# GULP energy per Si atom -12396.623667 kJ/mol
# Density = 2.194964 g / cm^3
# Si number density = 21.999714 Si / 1000 Ang^3
#
#
#
# Elastic Constant Matrix: (Units=GPa)
#
#
# Indices 1 2 3 4 5 6 
#
# 1 98.2521 29.9327 30.0392 0.0000 -26.5947 0.0000
# 2 29.9327 105.4017 21.5303 -0.0001 -3.8198 0.0000
# 3 30.0392 21.5303 70.0250 0.0000 -14.8080 0.0000
# 4 0.0000 -0.0001 0.0000 23.7716 0.0000 -8.4382
# 5 -26.5947 -3.8198 -14.8080 0.0000 36.0105 0.0000
# 6 0.0000 0.0000 0.0000 -8.4382 0.0000 29.5638
#
#
#
# Elastic Compliance Matrix: (Units=1/GPa)
#
#
# Indices 1 2 3 4 5 6 
#
# 1 0.014625 -0.003132 -0.003392 0.000000 0.009074 0.000000
# 2 -0.003132 0.010796 -0.002434 0.000000 -0.002169 0.000000
# 3 -0.003392 -0.002434 0.017414 0.000000 0.004398 0.000000
# 4 0.000000 0.000000 0.000000 0.046810 0.000000 0.013361
# 5 0.009074 -0.002169 0.004398 0.000000 0.036049 0.000000
# 6 0.000000 0.000000 0.000000 0.013361 0.000000 0.037639
#
#
# Mechanical properties :
#
#
# Convention : Reuss Voigt Hill
#
# Bulk Modulus (GPa) = 40.13090 48.52036 44.32563
# Shear Modulus (GPa) = 26.37756 30.68097 28.52926
#
# Velocity S-wave (km/s) = 3.46641 3.73850 3.60502
# Velocity P-wave (km/s) = 5.85683 6.38263 6.12538
#
# Compressibility (1/GPa) = 0.02491845
#
# Stress axis : x y z
#
# Youngs Moduli (GPa) = 68.37517 92.63088 57.42431
#
# Poissons Ratio (x) = 0.29008 0.19479
# Poissons Ratio (y) = 0.21412 0.13980
# Poissons Ratio (z) = 0.23194 0.22551
#
# Static dielectric constant tensor:
#      x y z
#    x 3.984140 0.000000 -0.352410 
#    y 0.000000 3.899930 0.000000 
#    z -0.352410 0.000000 3.838830 
# 
# 
# High freq. dielectric constant tensor:
#      x y z
#    x 1.860720 0.000000 -0.026710 
#    y 0.000000 1.860920 0.000000 
#    z -0.026710 0.000000 1.854070 
# 
# From -- ./inp_files/62766.got.cif
#   From: 2010.03.12/outbox.cif.g09.slc.cpg/sg5_32_cif.got.tgz:62766.got - 2010.03.31 09:47:26.
