data_PCOD8048320
_publ_section_title
;
Structure prediction by ZEFSAII (Michael W. Deem and Ramdas Pophale) SiO2 
 PCOD8048320
Probable space group: C 2
;
_chemical_formula_sum "Si O2"
_cell_formula_units_Z 28
_cell_length_a 11.769696
_cell_length_b 9.220707
_cell_length_c 18.393140
_cell_angle_alpha 90.000000
_cell_angle_beta 135.482112
_cell_angle_gamma 90.000000
_cell_volume 1399.539233
_symmetry_space_group_name_H-M "C 2"
_symmetry_group_IT_number 5
_symmetry_cell_setting 'monoclinic'
loop_
_space_group_symop_operation_xyz
x,y,z
-x,y,-z
1/2+x,1/2+y,z
1/2-x,1/2+y,-z
loop_
_atom_site_type_symbol
_atom_site_label
_atom_site_fract_x
_atom_site_fract_y
_atom_site_fract_z
Si Si1 0.178055 0.093050 0.830599
Si Si2 0.500000 0.655221 0.500000
Si Si3 0.295656 0.080623 0.725632
Si Si4 0.389104 0.821236 0.692826
Si Si5 0.500000 0.260877 0.000000
Si Si6 0.032925 0.881594 0.171094
Si Si7 0.294419 0.056432 0.357791
Si Si8 0.885311 0.413910 0.534116
O O1 0.216560 0.044534 0.766762
O O2 0.047580 0.221899 0.764093
O O3 0.116143 0.954779 0.850765
O O4 0.343251 0.158482 0.938565
O O5 0.653740 0.567020 0.599910
O O6 0.448422 0.754340 0.544270
O O7 0.402195 0.227185 0.768730
O O8 0.417823 0.948259 0.764484
O O9 0.234023 0.726118 0.644472
O O10 0.335844 0.904001 0.594556
O O11 0.495801 0.364071 0.068841
O O12 0.179418 0.994680 0.242415
O O13 0.250990 0.968688 0.414202
O O14 0.475752 0.034764 0.413426
#
# Coordination Sequence:
#
# PCOD8048320 Si02
#       8
#     4   2   4   4   2   4   4   4
#     4  10  23  43  60  89 120 147 196 250 298 358
#     4  10  18  36  56  84 122 160 196 234 276 334
#     4  11  22  38  60  89 121 160 199 238 285 348
#     4  11  23  35  60  89 119 158 201 236 287 344
#     4  10  22  40  66  88 112 146 196 252 302 366
#     4  10  20  40  65  83 115 157 188 241 309 350
#     4   9  20  36  56  85 119 155 194 240 278 345
#     4  10  18  35  57  80 126 158 195 232 282 329
#
# _framework density 20.006582999999999
#
# number of rings (size 3 to 8) (size 9 to 14) (size 15 to 20)
#    0.000    2.000    4.286    0.857    2.000    4.571 
#    0.000    2.857    0.000    1.714    0.000    0.000 
#    0.000    0.000    0.000    0.000    0.000    0.000 
#
# Total GULP energy -173437.014114 kJ/mol
# GULP energy per Si atom -12388.358151 kJ/mol
# Density = 1.996105 g / cm^3
# Si number density = 20.006583 Si / 1000 Ang^3
#
#
#
# Elastic Constant Matrix: (Units=GPa)
#
#
# Indices 1 2 3 4 5 6 
#
# 1 112.1900 67.7507 43.4199 0.0000 -22.7013 0.0000
# 2 67.7507 107.7305 33.9231 0.0000 -21.2316 0.0000
# 3 43.4199 33.9231 103.8879 0.0000 -15.9028 0.0000
# 4 0.0000 0.0000 0.0000 2.8975 0.0000 2.4030
# 5 -22.7013 -21.2316 -15.9028 0.0000 15.8157 0.0000
# 6 0.0000 0.0000 0.0000 2.4030 0.0000 37.9704
#
#
#
# Elastic Compliance Matrix: (Units=1/GPa)
#
#
# Indices 1 2 3 4 5 6 
#
# 1 0.016790 -0.007444 -0.002869 0.000000 0.011222 0.000000
# 2 -0.007444 0.016215 -0.000576 0.000000 0.010504 0.000000
# 3 -0.002869 -0.000576 0.012131 0.000000 0.007308 0.000000
# 4 0.000000 0.000000 0.000000 0.364250 0.000000 -0.023052
# 5 0.011222 0.010504 0.007308 0.000000 0.100785 0.000000
# 6 0.000000 0.000000 0.000000 -0.023052 0.000000 0.027795
#
#
# Mechanical properties :
#
#
# Convention : Reuss Voigt Hill
#
# Bulk Modulus (GPa) = 42.80893 68.22177 55.51535
# Shear Modulus (GPa) = 8.81010 23.25101 16.03055
#
# Velocity S-wave (km/s) = 2.10075 3.41276 2.83373
# Velocity P-wave (km/s) = 5.22763 7.05003 6.20609
#
# Compressibility (1/GPa) = 0.02335961
#
# Stress axis : x y z
#
# Youngs Moduli (GPa) = 59.55989 61.66977 82.43095
#
# Poissons Ratio (x) = 0.45907 0.23648
# Poissons Ratio (y) = 0.44336 0.04746
# Poissons Ratio (z) = 0.17086 0.03550
#
# Static dielectric constant tensor:
#      x y z
#    x 3.622620 0.000000 -0.045680 
#    y 0.000000 3.589210 0.000000 
#    z -0.045680 0.000000 3.744110 
# 
# 
# High freq. dielectric constant tensor:
#      x y z
#    x 1.772450 0.000000 -0.006710 
#    y 0.000000 1.776450 0.000000 
#    z -0.006710 0.000000 1.776260 
# 
# From -- ./inp_files/47963.got.cif
#   From: 2010.03.12/outbox.cif.g09.slc.cpg/sg5_24_cif.got.tgz:47963.got - 2010.03.31 09:47:26.
