data_PCOD8048312
_publ_section_title
;
Structure prediction by ZEFSAII (Michael W. Deem and Ramdas Pophale) SiO2 
 PCOD8048312
Probable space group: C 2
;
_chemical_formula_sum "Si O2"
_cell_formula_units_Z 32
_cell_length_a 14.887317
_cell_length_b 21.694924
_cell_length_c 8.739061
_cell_angle_alpha 90.000000
_cell_angle_beta 149.048809
_cell_angle_gamma 90.000000
_cell_volume 1451.651459
_symmetry_space_group_name_H-M "C 2"
_symmetry_group_IT_number 5
_symmetry_cell_setting 'monoclinic'
loop_
_space_group_symop_operation_xyz
x,y,z
-x,y,-z
1/2+x,1/2+y,z
1/2-x,1/2+y,-z
loop_
_atom_site_type_symbol
_atom_site_label
_atom_site_fract_x
_atom_site_fract_y
_atom_site_fract_z
Si Si1 0.512247 0.936860 0.689568
Si Si2 0.178403 0.877371 0.330504
Si Si3 0.279226 0.550585 0.421789
Si Si4 0.167943 0.917058 0.638787
Si Si5 0.131325 0.694421 0.807343
Si Si6 0.011950 0.570973 0.774155
Si Si7 0.184209 0.742577 0.208777
Si Si8 0.502697 0.657299 0.322267
O O1 0.500000 0.909491 0.500000
O O2 0.333253 0.924430 0.517682
O O3 0.557155 0.009512 0.743750
O O4 0.665411 0.904073 0.010514
O O5 0.161968 0.867780 0.490798
O O6 0.215599 0.812070 0.306428
O O7 0.000000 0.905469 0.000000
O O8 0.322942 0.481133 0.440542
O O9 0.179765 0.557654 0.437225
O O10 0.458254 0.589723 0.690334
O O11 0.157314 0.581706 0.115766
O O12 0.000000 0.913226 0.500000
O O13 0.000000 0.730130 0.500000
O O14 0.023531 0.632155 0.690435
O O15 0.175338 0.739320 0.012028
O O16 0.313162 0.678669 0.986843
O O17 0.345106 0.703562 0.511130
O O18 0.000000 0.715660 0.000000
O O19 0.500000 0.652316 0.500000
#
# Coordination Sequence:
#
# PCOD8048312 Si02
#       8
#     4   4   4   4   4   4   4   4
#     4  11  23  41  65  98 141 185 235 282 353 421
#     4  11  24  46  67  99 134 184 247 301 348 416
#     4  10  18  34  64  97 134 180 225 268 351 424
#     4  11  23  41  68 101 140 181 241 297 354 424
#     4  11  23  40  63 100 144 171 232 288 356 421
#     4  10  19  35  61  96 140 181 213 282 343 419
#     4  10  22  44  70  88 128 182 234 289 354 411
#     4  10  19  36  64  98 129 175 226 275 344 427
#
# _framework density 22.043858
#
# number of rings (size 3 to 8) (size 9 to 14) (size 15 to 20)
#    0.000    1.500    3.750    2.625    1.750    1.500 
#    2.250   12.500    0.000    0.000    0.000    0.000 
#    0.000    0.000    0.000    0.000    0.000    0.000 
#
# Total GULP energy -198380.700957 kJ/mol
# GULP energy per Si atom -12398.793810 kJ/mol
# Density = 2.199368 g / cm^3
# Si number density = 22.043858 Si / 1000 Ang^3
#
#
#
# Elastic Constant Matrix: (Units=GPa)
#
#
# Indices 1 2 3 4 5 6 
#
# 1 115.6746 28.6245 57.3535 0.0000 10.7060 0.0000
# 2 28.6245 77.5506 29.3460 0.0000 2.7692 0.0000
# 3 57.3535 29.3460 144.7280 0.0000 5.4975 0.0000
# 4 0.0000 0.0000 0.0000 18.5639 0.0000 -0.4970
# 5 10.7060 2.7692 5.4975 0.0000 44.9895 0.0000
# 6 0.0000 0.0000 0.0000 -0.4970 0.0000 29.9512
#
#
#
# Elastic Compliance Matrix: (Units=1/GPa)
#
#
# Indices 1 2 3 4 5 6 
#
# 1 0.011437 -0.002667 -0.003913 0.000000 -0.002079 0.000000
# 2 -0.002667 0.014600 -0.001902 0.000000 -0.000032 0.000000
# 3 -0.003913 -0.001902 0.008847 0.000000 -0.000033 0.000000
# 4 0.000000 0.000000 0.000000 0.053892 0.000000 0.000894
# 5 -0.002079 -0.000032 -0.000033 0.000000 0.022728 0.000000
# 6 0.000000 0.000000 0.000000 0.000894 0.000000 0.033403
#
#
# Mechanical properties :
#
#
# Convention : Reuss Voigt Hill
#
# Bulk Modulus (GPa) = 55.80126 63.17791 59.48959
# Shear Modulus (GPa) = 29.78946 33.54284 31.66615
#
# Velocity S-wave (km/s) = 3.68009 3.90505 3.79424
# Velocity P-wave (km/s) = 6.58985 7.00392 6.80004
#
# Compressibility (1/GPa) = 0.01792074
#
# Stress axis : x y z
#
# Youngs Moduli (GPa) = 87.43321 68.49251 113.03181
#
# Poissons Ratio (x) = 0.18265 0.44226
# Poissons Ratio (y) = 0.23316 0.21504
# Poissons Ratio (z) = 0.34210 0.13030
#
# Static dielectric constant tensor:
#      x y z
#    x 4.058750 0.000000 0.189840 
#    y 0.000000 3.666790 0.000000 
#    z 0.189840 0.000000 4.100620 
# 
# 
# High freq. dielectric constant tensor:
#      x y z
#    x 1.870900 0.000000 0.013230 
#    y 0.000000 1.849970 0.000000 
#    z 0.013230 0.000000 1.862260 
# 
# From -- ./inp_files/25675.got.cif
#   From: 2010.03.12/outbox.cif.g09.slc.cpg/sg5_13_cif.got.tgz:25675.got - 2010.03.31 09:47:26.
