data_PCOD8048002
_publ_section_title
;
Structure prediction by ZEFSAII (Michael W. Deem and Ramdas Pophale) SiO2 
 PCOD8048002
Probable space group: P 21
;
_chemical_formula_sum "Si O2"
_cell_formula_units_Z 16
_cell_length_a 9.113675
_cell_length_b 8.780097
_cell_length_c 8.525752
_cell_angle_alpha 90.000000
_cell_angle_beta 117.263796
_cell_angle_gamma 90.000000
_cell_volume 606.431578
_symmetry_space_group_name_H-M "P 21"
_symmetry_group_IT_number 4
_symmetry_cell_setting 'monoclinic'
loop_
_space_group_symop_operation_xyz
x,y,z
-x,1/2+y,-z
loop_
_atom_site_type_symbol
_atom_site_label
_atom_site_fract_x
_atom_site_fract_y
_atom_site_fract_z
Si Si1 0.684623 0.661080 0.139916
Si Si2 0.607186 0.337138 0.996307
Si Si3 0.633983 0.897630 0.500975
Si Si4 0.259754 0.862211 0.376986
Si Si5 0.208247 0.365526 0.101898
Si Si6 0.254652 0.672243 0.655842
Si Si7 0.875516 0.638132 0.531965
Si Si8 0.892953 0.202633 0.962269
O O1 0.586408 0.511049 0.036109
O O2 0.830047 0.603030 0.325681
O O3 0.557991 0.774128 0.173283
O O4 0.733171 0.767785 0.017270
O O5 0.623125 0.212465 0.143305
O O6 0.766052 0.326528 0.967136
O O7 0.441790 0.849316 0.386309
O O8 0.654036 0.908635 0.701479
O O9 0.783660 0.797037 0.511074
O O10 0.659563 0.054367 0.421118
O O11 0.246293 0.826416 0.553975
O O12 0.130355 0.742695 0.233684
O O13 0.195315 0.035351 0.359355
O O14 0.133755 0.527083 0.006127
O O15 0.068427 0.259430 0.113892
O O16 0.074120 0.634565 0.640052
#
# Coordination Sequence:
#
# PCOD8048002 Si02
#       8
#     2   2   2   2   2   2   2   2
#     4  12  28  50  76 112 154 201 256 320 387 473
#     4  12  28  47  77 110 154 202 258 316 394 462
#     4  12  28  47  79 111 151 204 258 321 393 460
#     4  12  26  51  76 108 155 202 260 323 385 464
#     4  12  28  50  76 112 154 201 256 320 387 473
#     4  12  26  51  76 108 155 202 260 323 385 464
#     4  12  28  47  79 111 151 204 258 321 393 460
#     4  12  28  47  77 110 154 202 258 316 394 462
#
# _framework density 26.383845999999998
#
# number of rings (size 3 to 8) (size 9 to 14) (size 15 to 20)
#    0.000    0.000    2.500    6.000   14.000    0.000 
#    0.000    0.000    0.000    0.000    0.000    0.000 
#    0.000    0.000    0.000    0.000    0.000    0.000 
#
# Total GULP energy -198260.548625 kJ/mol
# GULP energy per Si atom -12391.284289 kJ/mol
# Density = 2.632380 g / cm^3
# Si number density = 26.383846 Si / 1000 Ang^3
#
#
#
# Elastic Constant Matrix: (Units=GPa)
#
#
# Indices 1 2 3 4 5 6 
#
# 1 124.7769 28.0425 1.9654 0.0000 2.3501 0.0000
# 2 28.0425 135.9630 29.5745 0.0000 9.8549 0.0000
# 3 1.9654 29.5745 70.1078 0.0000 9.3292 0.0000
# 4 0.0000 0.0000 0.0000 41.8929 0.0000 -13.9611
# 5 2.3501 9.8549 9.3292 0.0000 34.2900 0.0000
# 6 0.0000 0.0000 0.0000 -13.9611 0.0000 59.1359
#
#
#
# Elastic Compliance Matrix: (Units=1/GPa)
#
#
# Indices 1 2 3 4 5 6 
#
# 1 0.008424 -0.001847 0.000570 0.000000 -0.000202 0.000000
# 2 -0.001847 0.008573 -0.003376 0.000000 -0.001419 0.000000
# 3 0.000570 -0.003376 0.016132 0.000000 -0.003458 0.000000
# 4 0.000000 0.000000 0.000000 0.025909 0.000000 0.006117
# 5 -0.000202 -0.001419 -0.003458 0.000000 0.030525 0.000000
# 6 0.000000 0.000000 0.000000 0.006117 0.000000 0.018354
#
#
# Mechanical properties :
#
#
# Convention : Reuss Voigt Hill
#
# Bulk Modulus (GPa) = 41.97581 50.00140 45.98861
# Shear Modulus (GPa) = 39.94738 45.14811 42.54774
#
# Velocity S-wave (km/s) = 3.89535 4.14116 4.02013
# Velocity P-wave (km/s) = 6.01463 6.46979 6.24636
#
# Compressibility (1/GPa) = 0.02382324
#
# Stress axis : x y z
#
# Youngs Moduli (GPa) = 118.70591 116.64513 61.98859
#
# Poissons Ratio (x) = 0.21542 -0.03532
# Poissons Ratio (y) = 0.21923 0.20927
# Poissons Ratio (z) = -0.06763 0.39378
#
# Static dielectric constant tensor:
#      x y z
#    x 4.630980 0.000000 0.065660 
#    y 0.000000 4.592780 0.000000 
#    z 0.065660 0.000000 5.244610 
# 
# 
# High freq. dielectric constant tensor:
#      x y z
#    x 2.058030 0.000000 -0.003060 
#    y 0.000000 2.064380 0.000000 
#    z -0.003060 0.000000 2.083290 
# 
# From -- ./inp_files/5855.got.cif
#   From: 2010.03.12/outbox.cif.g09.slc.cpg/sg4_3_cif.got.tgz:5855.got - 2010.03.31 09:31:35.
