data_PCOD8048427
_publ_section_title
;
Structure prediction by ZEFSAII (Michael W. Deem and Ramdas Pophale) SiO2 
 PCOD8048427
Probable space group: C 2
;
_chemical_formula_sum "Si O2"
_cell_formula_units_Z 26
_cell_length_a 16.728087
_cell_length_b 9.723684
_cell_length_c 10.704988
_cell_angle_alpha 90.000000
_cell_angle_beta 134.672891
_cell_angle_gamma 90.000000
_cell_volume 1238.265131
_symmetry_space_group_name_H-M "C 2"
_symmetry_group_IT_number 5
_symmetry_cell_setting 'monoclinic'
loop_
_space_group_symop_operation_xyz
x,y,z
-x,y,-z
1/2+x,1/2+y,z
1/2-x,1/2+y,-z
loop_
_atom_site_type_symbol
_atom_site_label
_atom_site_fract_x
_atom_site_fract_y
_atom_site_fract_z
Si Si1 0.233112 0.789720 0.728908
Si Si2 0.621913 0.156535 0.913370
Si Si3 0.448766 0.643870 0.073480
Si Si4 0.929229 0.560115 0.531403
Si Si5 0.000000 0.564561 0.000000
Si Si6 0.120686 0.364936 0.319587
Si Si7 0.311330 0.444956 0.090945
O O1 0.155534 0.657429 0.636215
O O2 0.259868 0.836867 0.616228
O O3 0.172446 0.912404 0.741813
O O4 0.348256 0.747899 0.926707
O O5 0.507035 0.154188 0.706896
O O6 0.695571 0.293614 0.977505
O O7 0.593143 0.154651 0.029740
O O8 0.694966 0.026173 0.947925
O O9 0.546721 0.727409 0.252665
O O10 0.411603 0.526970 0.131802
O O11 0.500000 0.580768 0.000000
O O12 0.861120 0.439119 0.527361
O O13 0.000000 0.486228 0.500000
O O14 0.054308 0.471572 0.163509
#
# Coordination Sequence:
#
# PCOD8048427 Si02
#       7
#     4   4   4   4   2   4   4
#     4  11  20  41  61  91 126 170 207 261 323 380
#     4  11  24  38  67  94 127 167 215 271 316 383
#     4  10  21  39  67  91 124 163 224 264 307 376
#     4  11  22  40  60  89 134 166 201 257 339 376
#     4  10  18  38  64  94 124 160 218 264 312 366
#     4  10  20  41  66  88 122 175 213 261 316 382
#     4  12  21  39  65  98 121 167 219 268 312 374
#
# _framework density 20.997119999999999
#
# number of rings (size 3 to 8) (size 9 to 14) (size 15 to 20)
#    0.000    1.231    6.923    0.923    1.077    0.000 
#    5.538    4.615    0.000    0.000    0.000    0.000 
#    0.000    0.000    0.000    0.000    0.000    0.000 
#
# Total GULP energy -161090.626739 kJ/mol
# GULP energy per Si atom -12391.586672 kJ/mol
# Density = 2.094933 g / cm^3
# Si number density = 20.997120 Si / 1000 Ang^3
#
#
#
# Elastic Constant Matrix: (Units=GPa)
#
#
# Indices 1 2 3 4 5 6 
#
# 1 182.1542 61.1115 16.9437 0.0000 -22.9112 0.0000
# 2 61.1115 93.3976 14.1222 0.0000 -5.8450 0.0000
# 3 16.9437 14.1222 26.5909 0.0000 -2.5933 0.0000
# 4 0.0000 0.0000 0.0000 26.7736 0.0000 -11.5675
# 5 -22.9112 -5.8450 -2.5933 0.0000 24.8002 0.0000
# 6 0.0000 0.0000 0.0000 -11.5675 0.0000 50.5481
#
#
#
# Elastic Compliance Matrix: (Units=1/GPa)
#
#
# Indices 1 2 3 4 5 6 
#
# 1 0.007962 -0.004515 -0.002083 0.000000 0.006074 0.000000
# 2 -0.004515 0.014313 -0.004852 0.000000 -0.001305 0.000000
# 3 -0.002083 -0.004852 0.041637 0.000000 0.001285 0.000000
# 4 0.000000 0.000000 0.000000 0.041448 0.000000 0.009485
# 5 0.006074 -0.001305 0.001285 0.000000 0.045760 0.000000
# 6 0.000000 0.000000 0.000000 0.009485 0.000000 0.021954
#
#
# Mechanical properties :
#
#
# Convention : Reuss Voigt Hill
#
# Bulk Modulus (GPa) = 24.38335 54.05527 39.21931
# Shear Modulus (GPa) = 23.84984 34.42207 29.13595
#
# Velocity S-wave (km/s) = 3.37391 4.05331 3.72911
# Velocity P-wave (km/s) = 5.17838 6.90694 6.10415
#
# Compressibility (1/GPa) = 0.04101159
#
# Stress axis : x y z
#
# Youngs Moduli (GPa) = 125.59223 69.86691 24.01729
#
# Poissons Ratio (x) = 0.31543 0.05004
# Poissons Ratio (y) = 0.56701 0.11653
# Poissons Ratio (z) = 0.26167 0.33899
#
# Static dielectric constant tensor:
#      x y z
#    x 5.332590 0.000000 -0.507830 
#    y 0.000000 3.786920 0.000000 
#    z -0.507830 0.000000 3.564070 
# 
# 
# High freq. dielectric constant tensor:
#      x y z
#    x 1.862640 0.000000 -0.013380 
#    y 0.000000 1.804680 0.000000 
#    z -0.013380 0.000000 1.773380 
# 
# From -- ./inp_files/44224.got.cif
#   From: 2010.03.12/outbox.cif.g09.slc.cpg/sg5_23_cif.got.tgz:44224.got - 2010.03.31 09:47:26.
