data_PCOD8048597
_publ_section_title
;
Structure prediction by ZEFSAII (Michael W. Deem and Ramdas Pophale) SiO2 
 PCOD8048597
Probable space group: C 2
;
_chemical_formula_sum "Si O2"
_cell_formula_units_Z 32
_cell_length_a 9.115265
_cell_length_b 23.483564
_cell_length_c 11.940542
_cell_angle_alpha 90.000000
_cell_angle_beta 140.239040
_cell_angle_gamma 90.000000
_cell_volume 1634.768791
_symmetry_space_group_name_H-M "C 2"
_symmetry_group_IT_number 5
_symmetry_cell_setting 'monoclinic'
loop_
_space_group_symop_operation_xyz
x,y,z
-x,y,-z
1/2+x,1/2+y,z
1/2-x,1/2+y,-z
loop_
_atom_site_type_symbol
_atom_site_label
_atom_site_fract_x
_atom_site_fract_y
_atom_site_fract_z
Si Si1 0.450567 0.613650 0.290928
Si Si2 0.817905 0.808387 0.492382
Si Si3 0.636548 0.738676 0.806503
Si Si4 0.360465 0.012152 0.206125
Si Si5 0.129689 0.620221 0.312566
Si Si6 0.177818 0.426533 0.504767
Si Si7 0.497677 0.503638 0.818867
Si Si8 0.965897 0.745166 0.796536
O O1 0.390835 0.671116 0.188361
O O2 0.277607 0.606644 0.291115
O O3 0.712520 0.617915 0.484856
O O4 0.412976 0.558406 0.194275
O O5 0.607857 0.768826 0.331060
O O6 0.725597 0.871357 0.459557
O O7 0.000000 0.808557 0.500000
O O8 0.936669 0.787519 0.676122
O O9 0.743961 0.749786 0.746745
O O10 0.804548 0.762625 0.001382
O O11 0.432315 0.073702 0.204533
O O12 0.221541 0.022834 0.238208
O O13 0.576807 0.972394 0.358476
O O14 0.202875 0.981882 0.019229
O O15 0.010170 0.681439 0.236026
O O16 0.418007 0.451683 0.692664
O O17 0.000000 0.411921 0.500000
#
# Coordination Sequence:
#
# PCOD8048597 Si02
#       8
#     4   4   4   4   4   4   4   4
#     4  10  19  34  60  90 120 152 189 233 285 345
#     4  12  26  41  60  87 121 154 194 250 307 352
#     4  10  21  40  65  89 117 158 203 241 285 349
#     4  10  21  37  59  87 117 151 191 235 286 343
#     4  10  19  34  60  90 120 152 189 233 285 345
#     4  10  22  41  60  79 111 154 204 246 283 340
#     4  10  21  37  59  87 117 151 191 235 286 343
#     4  10  21  40  65  89 117 158 203 241 285 349
#
# _framework density 19.574634
#
# number of rings (size 3 to 8) (size 9 to 14) (size 15 to 20)
#    0.000    1.750    2.500    1.875    0.000    5.000 
#    0.000    2.500    0.000    0.000    0.000    0.000 
#    0.000    0.000    0.000    0.000    0.000    0.000 
#
# Total GULP energy -198447.205256 kJ/mol
# GULP energy per Si atom -12402.950328 kJ/mol
# Density = 1.953008 g / cm^3
# Si number density = 19.574634 Si / 1000 Ang^3
#
#
#
# Elastic Constant Matrix: (Units=GPa)
#
#
# Indices 1 2 3 4 5 6 
#
# 1 59.0689 27.0373 16.7050 0.0000 0.1057 0.0000
# 2 27.0373 65.9143 2.6381 0.0000 -4.6057 0.0000
# 3 16.7050 2.6381 82.1263 0.0000 -4.5336 0.0000
# 4 0.0000 0.0000 0.0000 16.4164 0.0000 -0.5273
# 5 0.1057 -4.6057 -4.5336 0.0000 23.1835 0.0000
# 6 0.0000 0.0000 0.0000 -0.5273 0.0000 32.7330
#
#
#
# Elastic Compliance Matrix: (Units=1/GPa)
#
#
# Indices 1 2 3 4 5 6 
#
# 1 0.022396 -0.009205 -0.004414 0.000000 -0.002794 0.000000
# 2 -0.009205 0.019177 0.001485 0.000000 0.004142 0.000000
# 3 -0.004414 0.001485 0.013186 0.000000 0.002894 0.000000
# 4 0.000000 0.000000 0.000000 0.060946 0.000000 0.000982
# 5 -0.002794 0.004142 0.002894 0.000000 0.044536 0.000000
# 6 0.000000 0.000000 0.000000 0.000982 0.000000 0.030566
#
#
# Mechanical properties :
#
#
# Convention : Reuss Voigt Hill
#
# Bulk Modulus (GPa) = 32.79654 33.31893 33.05774
# Shear Modulus (GPa) = 22.19856 25.18183 23.69020
#
# Velocity S-wave (km/s) = 3.37121 3.59061 3.48264
# Velocity P-wave (km/s) = 5.65194 5.85221 5.75295
#
# Compressibility (1/GPa) = 0.03049102
#
# Stress axis : x y z
#
# Youngs Moduli (GPa) = 44.65043 52.14548 75.83655
#
# Poissons Ratio (x) = 0.48001 0.33475
# Poissons Ratio (y) = 0.41102 -0.11262
# Poissons Ratio (z) = 0.19709 -0.07744
#
# Static dielectric constant tensor:
#      x y z
#    x 3.401780 0.000000 -0.025330 
#    y 0.000000 3.464770 0.000000 
#    z -0.025330 0.000000 3.756600 
# 
# 
# High freq. dielectric constant tensor:
#      x y z
#    x 1.744750 0.000000 -0.002120 
#    y 0.000000 1.755670 0.000000 
#    z -0.002120 0.000000 1.779890 
# 
# From -- ./inp_files/37554.got.cif
#   From: 2010.03.12/outbox.cif.g09.slc.cpg/sg5_19_cif.got.tgz:37554.got - 2010.03.31 09:47:26.
