data_PCOD8048574
_publ_section_title
;
Structure prediction by ZEFSAII (Michael W. Deem and Ramdas Pophale) SiO2 
 PCOD8048574
Probable space group: C 2
;
_chemical_formula_sum "Si O2"
_cell_formula_units_Z 32
_cell_length_a 13.285954
_cell_length_b 16.412242
_cell_length_c 17.606319
_cell_angle_alpha 90.000000
_cell_angle_beta 155.468508
_cell_angle_gamma 90.000000
_cell_volume 1593.967974
_symmetry_space_group_name_H-M "C 2"
_symmetry_group_IT_number 5
_symmetry_cell_setting 'monoclinic'
loop_
_space_group_symop_operation_xyz
x,y,z
-x,y,-z
1/2+x,1/2+y,z
1/2-x,1/2+y,-z
loop_
_atom_site_type_symbol
_atom_site_label
_atom_site_fract_x
_atom_site_fract_y
_atom_site_fract_z
Si Si1 0.430817 0.482860 0.112841
Si Si2 0.207834 0.191998 0.497416
Si Si3 0.577461 0.707533 0.975522
Si Si4 0.502731 0.305410 0.793189
Si Si5 0.247678 0.127754 0.361133
Si Si6 0.763986 0.774375 0.787669
Si Si7 0.933569 0.561993 0.235214
Si Si8 0.625727 0.947180 0.669470
O O1 0.448235 0.402004 0.176231
O O2 0.549715 0.556845 0.241714
O O3 0.591507 0.469552 0.147316
O O4 0.156231 0.502172 0.895012
O O5 0.347650 0.275565 0.614712
O O6 0.270306 0.180355 0.452163
O O7 0.323332 0.112783 0.620363
O O8 0.923147 0.200709 0.322159
O O9 0.735945 0.763510 0.028807
O O10 0.716778 0.626082 0.098392
O O11 0.500000 0.753782 0.000000
O O12 0.339439 0.687473 0.764712
O O13 0.347237 0.274421 0.757884
O O14 0.500000 0.090492 0.500000
O O15 0.621658 0.858785 0.707214
O O16 0.000000 0.762079 0.000000
O O17 0.992745 0.513158 0.354420
O O18 0.500000 0.942013 0.500000
#
# Coordination Sequence:
#
# PCOD8048574 Si02
#       8
#     4   4   4   4   4   4   4   4
#     4  10  19  34  56  81 112 147 189 238 287 333
#     4  11  22  35  54  84 119 152 185 230 288 347
#     4  10  20  36  58  84 116 151 188 230 282 342
#     4  10  21  38  59  84 114 149 187 237 288 335
#     4  11  21  34  55  87 117 146 188 238 289 332
#     4  11  22  37  57  84 116 151 193 236 286 341
#     4  10  20  33  53  83 115 147 185 234 287 335
#     4  11  19  31  55  85 116 145 184 243 294 331
#
# _framework density 20.075686000000001
#
# number of rings (size 3 to 8) (size 9 to 14) (size 15 to 20)
#    0.000    1.500    0.000    9.375    0.000    1.000 
#    0.000    0.000    0.000    6.750    0.000    7.000 
#    0.000    0.000    0.000    0.000    0.000    0.000 
#
# Total GULP energy -198295.092052 kJ/mol
# GULP energy per Si atom -12393.443253 kJ/mol
# Density = 2.002999 g / cm^3
# Si number density = 20.075686 Si / 1000 Ang^3
#
#
#
# Elastic Constant Matrix: (Units=GPa)
#
#
# Indices 1 2 3 4 5 6 
#
# 1 72.4896 50.9257 35.2538 -0.0316 -2.5455 -0.0070
# 2 50.9257 108.7310 61.7981 0.1150 -1.2867 0.0287
# 3 35.2538 61.7981 136.4561 -0.0189 -6.8078 -0.0323
# 4 -0.0316 0.1150 -0.0189 30.2236 -0.0129 -2.7763
# 5 -2.5455 -1.2867 -6.8078 -0.0129 31.9838 -0.0094
# 6 -0.0070 0.0287 -0.0323 -2.7763 -0.0094 35.6306
#
#
#
# Elastic Compliance Matrix: (Units=1/GPa)
#
#
# Indices 1 2 3 4 5 6 
#
# 1 0.020761 -0.009012 -0.001231 0.000057 0.001028 0.000015
# 2 -0.009012 0.016312 -0.005117 -0.000078 -0.001150 -0.000026
# 3 -0.001231 -0.005117 0.010055 0.000027 0.001836 0.000016
# 4 0.000057 -0.000078 0.000027 0.033326 0.000021 0.002597
# 5 0.001028 -0.001150 0.001836 0.000021 0.031692 0.000013
# 6 0.000015 -0.000026 0.000016 0.002597 0.000013 0.028268
#
#
# Mechanical properties :
#
#
# Convention : Reuss Voigt Hill
#
# Bulk Modulus (GPa) = 60.94086 68.18133 64.56110
# Shear Modulus (GPa) = 28.31195 30.88089 29.59642
#
# Velocity S-wave (km/s) = 3.75942 3.92627 3.84375
# Velocity P-wave (km/s) = 7.01896 7.38851 7.20610
#
# Compressibility (1/GPa) = 0.01640935
#
# Stress axis : x y z
#
# Youngs Moduli (GPa) = 48.16730 61.30285 99.45016
#
# Poissons Ratio (x) = 0.55246 0.12243
# Poissons Ratio (y) = 0.43408 0.50886
# Poissons Ratio (z) = 0.05930 0.31367
#
# Static dielectric constant tensor:
#      x y z
#    x 3.469880 -0.000050 0.006580 
#    y -0.000050 3.801990 -0.000070 
#    z 0.006580 -0.000070 3.953150 
# 
# 
# High freq. dielectric constant tensor:
#      x y z
#    x 1.739070 0.000000 -0.010940 
#    y 0.000000 1.773980 -0.000010 
#    z -0.010940 -0.000010 1.805040 
# 
# From -- ./inp_files/53467.got.cif
#   From: 2010.03.12/outbox.cif.g09.slc.cpg/sg5_27_cif.got.tgz:53467.got - 2010.03.31 09:47:26.
