data_PCOD8048431
_publ_section_title
;
Structure prediction by ZEFSAII (Michael W. Deem and Ramdas Pophale) SiO2 
 PCOD8048431
Probable space group: C 2
;
_chemical_formula_sum "Si O2"
_cell_formula_units_Z 30
_cell_length_a 14.651050
_cell_length_b 12.705869
_cell_length_c 11.044835
_cell_angle_alpha 90.000000
_cell_angle_beta 132.777988
_cell_angle_gamma 90.000000
_cell_volume 1509.117293
_symmetry_space_group_name_H-M "C 2"
_symmetry_group_IT_number 5
_symmetry_cell_setting 'monoclinic'
loop_
_space_group_symop_operation_xyz
x,y,z
-x,y,-z
1/2+x,1/2+y,z
1/2-x,1/2+y,-z
loop_
_atom_site_type_symbol
_atom_site_label
_atom_site_fract_x
_atom_site_fract_y
_atom_site_fract_z
Si Si1 0.796097 0.769580 0.586214
Si Si2 0.838147 0.087507 0.436953
Si Si3 0.000000 0.521326 0.000000
Si Si4 0.860316 0.442271 0.651343
Si Si5 0.527075 0.121165 0.385262
Si Si6 0.095397 0.073225 0.767814
Si Si7 0.843738 0.678875 0.018201
Si Si8 0.027562 0.892767 0.892294
O O1 0.749630 0.691749 0.652584
O O2 0.673092 0.824935 0.420659
O O3 0.856838 0.697239 0.537498
O O4 0.895774 0.851797 0.725146
O O5 0.862968 0.035400 0.328672
O O6 0.959721 0.122993 0.623251
O O7 0.772355 0.998786 0.456351
O O8 0.933604 0.444800 0.844428
O O9 0.102181 0.595780 0.029792
O O10 0.941888 0.501144 0.623155
O O11 0.500000 0.126897 0.500000
O O12 0.406515 0.160645 0.204702
O O13 0.088809 0.977617 0.857211
O O14 0.195501 0.160553 0.901764
O O15 0.873427 0.797699 0.003121
O O16 0.000000 0.942780 0.000000
#
# Coordination Sequence:
#
# PCOD8048431 Si02
#       8
#     4   4   2   4   4   4   4   4
#     4  10  21  40  64  89 117 168 202 248 312 369
#     4  10  21  40  62  89 126 154 202 260 301 366
#     4  10  18  38  66  88 122 164 200 254 306 366
#     4  10  19  37  65  87 121 158 208 245 305 368
#     4   9  21  38  58  87 120 159 203 254 300 357
#     4  11  22  39  63  92 124 160 206 259 307 357
#     4  10  20  39  61  89 123 160 206 252 306 362
#     4  11  22  38  66  91 118 163 211 245 309 381
#
# _framework density 19.879169000000001
#
# number of rings (size 3 to 8) (size 9 to 14) (size 15 to 20)
#    0.000    1.867    3.333    1.600    0.000    3.200 
#    7.200    0.000    0.000    0.000    0.000    0.000 
#    0.000    0.000    0.000    0.000    0.000    0.000 
#
# Total GULP energy -185913.696706 kJ/mol
# GULP energy per Si atom -12394.246447 kJ/mol
# Density = 1.983392 g / cm^3
# Si number density = 19.879169 Si / 1000 Ang^3
#
#
#
# Elastic Constant Matrix: (Units=GPa)
#
#
# Indices 1 2 3 4 5 6 
#
# 1 102.5032 35.2442 45.8200 0.0000 -14.0627 0.0000
# 2 35.2442 73.9695 39.1022 0.0000 -8.0680 0.0000
# 3 45.8200 39.1022 85.0692 0.0000 -4.4055 0.0000
# 4 0.0000 0.0000 0.0000 37.3195 0.0000 6.0655
# 5 -14.0627 -8.0680 -4.4055 0.0000 41.1377 0.0000
# 6 0.0000 0.0000 0.0000 6.0655 0.0000 28.4512
#
#
#
# Elastic Compliance Matrix: (Units=1/GPa)
#
#
# Indices 1 2 3 4 5 6 
#
# 1 0.013953 -0.003154 -0.005883 0.000000 0.003521 0.000000
# 2 -0.003154 0.018861 -0.006873 0.000000 0.001885 0.000000
# 3 -0.005883 -0.006873 0.018009 0.000000 -0.001431 0.000000
# 4 0.000000 0.000000 0.000000 0.027757 0.000000 -0.005918
# 5 0.003521 0.001885 -0.001431 0.000000 0.025729 0.000000
# 6 0.000000 0.000000 0.000000 -0.005918 0.000000 0.036409
#
#
# Mechanical properties :
#
#
# Convention : Reuss Voigt Hill
#
# Bulk Modulus (GPa) = 52.62515 55.76385 54.19450
# Shear Modulus (GPa) = 27.95272 30.80673 29.37973
#
# Velocity S-wave (km/s) = 3.75391 3.94089 3.84854
# Velocity P-wave (km/s) = 6.73195 6.98712 6.86072
#
# Compressibility (1/GPa) = 0.01900232
#
# Stress axis : x y z
#
# Youngs Moduli (GPa) = 71.66759 53.02034 55.52756
#
# Poissons Ratio (x) = 0.16723 0.32669
# Poissons Ratio (y) = 0.22605 0.38163
# Poissons Ratio (z) = 0.42165 0.36440
#
# Static dielectric constant tensor:
#      x y z
#    x 3.642560 0.000000 0.186080 
#    y 0.000000 3.417640 0.000000 
#    z 0.186080 0.000000 3.766670 
# 
# 
# High freq. dielectric constant tensor:
#      x y z
#    x 1.772230 0.000000 0.006580 
#    y 0.000000 1.747100 0.000000 
#    z 0.006580 0.000000 1.785210 
# 
# From -- ./inp_files/42685.got.cif
#   From: 2010.03.12/outbox.cif.g09.slc.cpg/sg5_22_cif.got.tgz:42685.got - 2010.03.31 09:47:26.
