data_PCOD8048204
_publ_section_title
;
Structure prediction by ZEFSAII (Michael W. Deem and Ramdas Pophale) SiO2 
 PCOD8048204
Probable space group: C 2
;
_chemical_formula_sum "Si O2"
_cell_formula_units_Z 26
_cell_length_a 17.023261
_cell_length_b 8.145852
_cell_length_c 8.988764
_cell_angle_alpha 90.000000
_cell_angle_beta 82.354194
_cell_angle_gamma 90.000000
_cell_volume 1235.380908
_symmetry_space_group_name_H-M "C 2"
_symmetry_group_IT_number 5
_symmetry_cell_setting 'monoclinic'
loop_
_space_group_symop_operation_xyz
x,y,z
-x,y,-z
1/2+x,1/2+y,z
1/2-x,1/2+y,-z
loop_
_atom_site_type_symbol
_atom_site_label
_atom_site_fract_x
_atom_site_fract_y
_atom_site_fract_z
Si Si1 0.000000 0.701370 0.500000
Si Si2 0.735288 0.878744 0.859753
Si Si3 0.927746 0.385566 0.608803
Si Si4 0.919340 0.371888 0.946614
Si Si5 0.657288 0.189828 0.960816
Si Si6 0.280563 0.951542 0.463407
Si Si7 0.356184 0.297103 0.356995
O O1 0.947355 0.581003 0.618593
O O2 0.942036 0.813138 0.414021
O O3 0.736432 0.849378 0.682996
O O4 0.731627 0.073779 0.894911
O O5 0.656198 0.792570 0.949509
O O6 0.815010 0.807008 0.912335
O O7 0.918907 0.313285 0.775914
O O8 0.846939 0.354047 0.540150
O O9 0.000000 0.298121 0.500000
O O10 0.913678 0.571549 0.964180
O O11 0.000000 0.308050 0.000000
O O12 0.630540 0.296127 0.824199
O O13 0.199294 0.950298 0.580677
O O14 0.310753 0.132988 0.421126
#
# Coordination Sequence:
#
# PCOD8048204 Si02
#       7
#     2   4   4   4   4   4   4
#     4   8  18  30  52  76 104 128 178 214 254 306
#     4   9  20  32  50  79 107 133 178 210 260 307
#     4   9  17  30  51  76 102 133 175 213 257 298
#     4  10  18  31  53  76 105 133 174 219 257 302
#     4   9  20  33  50  78 105 136 171 214 255 312
#     4  10  20  32  53  80 103 139 176 216 256 315
#     4  10  19  35  53  79 106 135 177 218 259 310
#
# _framework density 21.046140999999999
#
# number of rings (size 3 to 8) (size 9 to 14) (size 15 to 20)
#    1.385    1.231    0.000    2.769    4.308    0.000 
#    0.000    0.000    1.692    0.923    0.000    0.000 
#    0.000    0.000    0.000    0.000    0.000    0.000 
#
# Total GULP energy -161056.639538 kJ/mol
# GULP energy per Si atom -12388.972272 kJ/mol
# Density = 2.099824 g / cm^3
# Si number density = 21.046141 Si / 1000 Ang^3
#
#
#
# Elastic Constant Matrix: (Units=GPa)
#
#
# Indices 1 2 3 4 5 6 
#
# 1 83.0642 2.2480 31.5935 0.0000 25.9259 0.0000
# 2 2.2480 11.4269 5.8097 0.0000 10.1269 0.0000
# 3 31.5935 5.8097 140.8642 0.0000 19.9121 0.0000
# 4 0.0000 0.0000 0.0000 20.1530 0.0000 -1.9326
# 5 25.9259 10.1269 19.9121 0.0000 45.2318 0.0000
# 6 0.0000 0.0000 0.0000 -1.9326 0.0000 27.3184
#
#
#
# Elastic Compliance Matrix: (Units=1/GPa)
#
#
# Indices 1 2 3 4 5 6 
#
# 1 0.015730 0.006472 -0.002469 0.000000 -0.009378 0.000000
# 2 0.006472 0.112003 -0.002135 0.000000 -0.027846 0.000000
# 3 -0.002469 -0.002135 0.007969 0.000000 -0.001615 0.000000
# 4 0.000000 0.000000 0.000000 0.049959 0.000000 0.003534
# 5 -0.009378 -0.027846 -0.001615 0.000000 0.034429 0.000000
# 6 0.000000 0.000000 0.000000 0.003534 0.000000 0.036855
#
#
# Mechanical properties :
#
#
# Convention : Reuss Voigt Hill
#
# Bulk Modulus (GPa) = 7.17161 34.96198 21.06680
# Shear Modulus (GPa) = 16.68392 31.58758 24.13575
#
# Velocity S-wave (km/s) = 2.81860 3.87831 3.39012
# Velocity P-wave (km/s) = 3.74268 6.05832 5.03542
#
# Compressibility (1/GPa) = 0.13943867
#
# Stress axis : x y z
#
# Youngs Moduli (GPa) = 63.57285 8.92830 125.48351
#
# Poissons Ratio (x) = -0.05778 0.30985
# Poissons Ratio (y) = -0.41144 0.26787
# Poissons Ratio (z) = 0.15698 0.01906
#
# Static dielectric constant tensor:
#      x y z
#    x 3.620120 0.000000 0.071570 
#    y 0.000000 3.088270 0.000000 
#    z 0.071570 0.000000 3.752070 
# 
# 
# High freq. dielectric constant tensor:
#      x y z
#    x 1.815330 0.000000 0.010610 
#    y 0.000000 1.756440 0.000000 
#    z 0.010610 0.000000 1.835600 
# 
# From -- ./inp_files/26777.got.cif
#   From: 2010.03.12/outbox.cif.g09.slc.cpg/sg5_14_cif.got.tgz:26777.got - 2010.03.31 09:47:26.
