data_PCOD8048737
_publ_section_title
;
Structure prediction by ZEFSAII (Michael W. Deem and Ramdas Pophale) SiO2 
 PCOD8048737
Probable space group: C 2
;
_chemical_formula_sum "Si O2"
_cell_formula_units_Z 28
_cell_length_a 14.640459
_cell_length_b 11.409664
_cell_length_c 8.732310
_cell_angle_alpha 90.000000
_cell_angle_beta 122.576269
_cell_angle_gamma 90.000000
_cell_volume 1229.184421
_symmetry_space_group_name_H-M "C 2"
_symmetry_group_IT_number 5
_symmetry_cell_setting 'monoclinic'
loop_
_space_group_symop_operation_xyz
x,y,z
-x,y,-z
1/2+x,1/2+y,z
1/2-x,1/2+y,-z
loop_
_atom_site_type_symbol
_atom_site_label
_atom_site_fract_x
_atom_site_fract_y
_atom_site_fract_z
Si Si1 0.734762 0.158010 0.200666
Si Si2 0.150247 0.852127 0.950890
Si Si3 0.846665 0.494586 0.113620
Si Si4 0.675098 0.198000 0.692990
Si Si5 0.558973 0.392004 0.405157
Si Si6 0.045121 0.260780 0.705219
Si Si7 0.838713 0.118583 0.604146
O O1 0.849121 0.178563 0.214739
O O2 0.753946 0.157740 0.398013
O O3 0.654607 0.266604 0.100255
O O4 0.671552 0.044977 0.075178
O O5 0.205901 0.793289 0.849512
O O6 0.025751 0.880523 0.809121
O O7 0.225298 0.961881 0.060670
O O8 0.888260 0.593416 0.272996
O O9 0.927371 0.383146 0.183156
O O10 0.603338 0.264484 0.498582
O O11 0.783048 0.144057 0.715643
O O12 0.500000 0.451837 0.500000
O O13 0.648478 0.479948 0.419475
O O14 0.000000 0.298252 0.500000
O O15 0.952823 0.187214 0.709827
#
# Coordination Sequence:
#
# PCOD8048737 Si02
#       7
#     4   4   4   4   4   4   4
#     4   9  18  34  56  81 113 155 195 236 295 362
#     4   9  19  38  60  81 111 159 204 237 289 367
#     4  10  19  37  60  85 117 159 203 250 294 358
#     4  10  23  38  61  93 122 154 205 258 303 351
#     4  10  20  39  63  83 115 165 206 237 295 378
#     4   9  19  34  58  85 116 159 203 238 300 373
#     4  11  21  38  61  90 120 153 198 256 303 351
#
# _framework density 22.779333000000001
#
# number of rings (size 3 to 8) (size 9 to 14) (size 15 to 20)
#    0.000    2.286    0.000    3.857    0.000    6.286 
#    0.000   13.571    0.000   10.286    0.000    0.000 
#    0.000    0.000    0.000    0.000    0.000    0.000 
#
# Total GULP energy -173463.161427 kJ/mol
# GULP energy per Si atom -12390.225816 kJ/mol
# Density = 2.272749 g / cm^3
# Si number density = 22.779333 Si / 1000 Ang^3
#
#
#
# Elastic Constant Matrix: (Units=GPa)
#
#
# Indices 1 2 3 4 5 6 
#
# 1 50.6495 6.0714 4.9196 0.0000 -9.6631 0.0000
# 2 6.0714 94.2984 30.4750 0.0000 1.5065 0.0000
# 3 4.9196 30.4750 93.2260 0.0000 21.3319 0.0000
# 4 0.0000 0.0000 0.0000 38.8850 0.0000 9.9367
# 5 -9.6631 1.5065 21.3319 0.0000 25.3835 0.0000
# 6 0.0000 0.0000 0.0000 9.9367 0.0000 26.1075
#
#
#
# Elastic Compliance Matrix: (Units=1/GPa)
#
#
# Indices 1 2 3 4 5 6 
#
# 1 0.022380 -0.000428 -0.003710 0.000000 0.011663 0.000000
# 2 -0.000428 0.012074 -0.004609 0.000000 0.002994 0.000000
# 3 -0.003710 -0.004609 0.015711 0.000000 -0.014342 0.000000
# 4 0.000000 0.000000 0.000000 0.028488 0.000000 -0.010843
# 5 0.011663 0.002994 -0.014342 0.000000 0.055710 0.000000
# 6 0.000000 0.000000 0.000000 -0.010843 0.000000 0.042430
#
#
# Mechanical properties :
#
#
# Convention : Reuss Voigt Hill
#
# Bulk Modulus (GPa) = 30.60889 35.67844 33.14367
# Shear Modulus (GPa) = 24.36908 31.18905 27.77907
#
# Velocity S-wave (km/s) = 3.27431 3.70426 3.49590
# Velocity P-wave (km/s) = 5.26888 5.83027 5.55667
#
# Compressibility (1/GPa) = 0.03267024
#
# Stress axis : x y z
#
# Youngs Moduli (GPa) = 44.68222 82.82229 63.65034
#
# Poissons Ratio (x) = 0.03548 0.23612
# Poissons Ratio (y) = 0.01914 0.29339
# Poissons Ratio (z) = 0.16575 0.38176
#
# Static dielectric constant tensor:
#      x y z
#    x 3.583490 0.000000 0.182300 
#    y 0.000000 4.174030 0.000000 
#    z 0.182300 0.000000 4.300850 
# 
# 
# High freq. dielectric constant tensor:
#      x y z
#    x 1.849980 0.000000 0.013990 
#    y 0.000000 1.906260 0.000000 
#    z 0.013990 0.000000 1.909010 
# 
# From -- ./inp_files/23787.got.cif
#   From: 2010.03.12/outbox.cif.g09.slc.cpg/sg5_12_cif.got.tgz:23787.got - 2010.03.31 09:47:26.
