data_PCOD8048492
_publ_section_title
;
Structure prediction by ZEFSAII (Michael W. Deem and Ramdas Pophale) SiO2 
 PCOD8048492
Probable space group: C 2
;
_chemical_formula_sum "Si O2"
_cell_formula_units_Z 26
_cell_length_a 17.889703
_cell_length_b 14.078350
_cell_length_c 6.288002
_cell_angle_alpha 90.000000
_cell_angle_beta 64.734619
_cell_angle_gamma 90.000000
_cell_volume 1432.186543
_symmetry_space_group_name_H-M "C 2"
_symmetry_group_IT_number 5
_symmetry_cell_setting 'monoclinic'
loop_
_space_group_symop_operation_xyz
x,y,z
-x,y,-z
1/2+x,1/2+y,z
1/2-x,1/2+y,-z
loop_
_atom_site_type_symbol
_atom_site_label
_atom_site_fract_x
_atom_site_fract_y
_atom_site_fract_z
Si Si1 0.071272 0.743250 0.072409
Si Si2 0.713104 0.533667 0.149557
Si Si3 0.232531 0.900962 0.504734
Si Si4 0.000000 0.612669 0.500000
Si Si5 0.086029 0.952497 0.989330
Si Si6 0.831648 0.547041 0.624876
Si Si7 0.731217 0.192369 0.624144
O O1 0.058577 0.681135 0.294332
O O2 0.065019 0.854781 0.138703
O O3 0.158400 0.715411 0.872583
O O4 0.000000 0.712398 0.000000
O O5 0.723412 0.436081 0.271997
O O6 0.631766 0.525234 0.096154
O O7 0.704590 0.625396 0.318836
O O8 0.795926 0.543402 0.907780
O O9 0.263208 0.792184 0.490829
O O10 0.306757 0.954296 0.527618
O O11 0.145103 0.924382 0.721980
O O12 0.068721 0.545226 0.520749
O O13 0.000000 0.996814 0.000000
O O14 0.795910 0.639606 0.554818
#
# Coordination Sequence:
#
# PCOD8048492 Si02
#       7
#     4   4   4   2   4   4   4
#     4  10  19  30  49  82 117 142 172 226 281 335
#     4  10  20  35  54  79 115 151 183 231 280 323
#     4   9  21  36  53  79 114 147 187 229 270 334
#     4  12  20  30  56  82 116 146 176 226 286 328
#     4   9  20  34  53  84 113 143 185 223 283 341
#     4  10  21  33  53  84 108 149 190 221 279 331
#     4  10  19  35  54  78 111 149 189 225 271 333
#
# _framework density 18.154060000000001
#
# number of rings (size 3 to 8) (size 9 to 14) (size 15 to 20)
#    0.000    2.154    3.077    0.000    2.154    1.846 
#    0.000    0.000    0.000    5.538    0.000    2.154 
#    0.000    0.000    0.000    0.000    0.000    0.000 
#
# Total GULP energy -161081.045934 kJ/mol
# GULP energy per Si atom -12390.849687 kJ/mol
# Density = 1.811274 g / cm^3
# Si number density = 18.154060 Si / 1000 Ang^3
#
#
#
# Elastic Constant Matrix: (Units=GPa)
#
#
# Indices 1 2 3 4 5 6 
#
# 1 116.6613 58.6008 29.6034 0.0000 3.4900 0.0000
# 2 58.6008 113.2900 31.3767 0.0000 4.6479 0.0000
# 3 29.6034 31.3767 69.9282 0.0000 6.6866 0.0000
# 4 0.0000 0.0000 0.0000 35.7339 0.0000 0.6801
# 5 3.4900 4.6479 6.6866 0.0000 22.9811 0.0000
# 6 0.0000 0.0000 0.0000 0.6801 0.0000 23.3837
#
#
#
# Elastic Compliance Matrix: (Units=1/GPa)
#
#
# Indices 1 2 3 4 5 6 
#
# 1 0.011986 -0.005476 -0.002622 0.000000 0.000050 0.000000
# 2 -0.005476 0.012594 -0.003259 0.000000 -0.000767 0.000000
# 3 -0.002622 -0.003259 0.017252 0.000000 -0.003962 0.000000
# 4 0.000000 0.000000 0.000000 0.028000 0.000000 -0.000814
# 5 0.000050 -0.000767 -0.003962 0.000000 0.044814 0.000000
# 6 0.000000 0.000000 0.000000 -0.000814 0.000000 0.042788
#
#
# Mechanical properties :
#
#
# Convention : Reuss Voigt Hill
#
# Bulk Modulus (GPa) = 52.30888 59.89350 56.10119
# Shear Modulus (GPa) = 26.80659 28.43964 27.62311
#
# Velocity S-wave (km/s) = 3.84685 3.96229 3.90499
# Velocity P-wave (km/s) = 6.97190 7.34822 7.16253
#
# Compressibility (1/GPa) = 0.01911721
#
# Stress axis : x y z
#
# Youngs Moduli (GPa) = 83.42835 79.40577 57.96550
#
# Poissons Ratio (x) = 0.43482 0.15199
# Poissons Ratio (y) = 0.45685 0.18892
# Poissons Ratio (z) = 0.21875 0.25880
#
# Static dielectric constant tensor:
#      x y z
#    x 3.333820 0.000000 0.045660 
#    y 0.000000 3.519400 0.000000 
#    z 0.045660 0.000000 3.433320 
# 
# 
# High freq. dielectric constant tensor:
#      x y z
#    x 1.696130 0.000000 0.014300 
#    y 0.000000 1.693760 0.000000 
#    z 0.014300 0.000000 1.699190 
# 
# From -- ./inp_files/6854.got.cif
#   From: 2010.03.12/outbox.cif.g09.slc.cpg/sg5_4_cif.got.tgz:6854.got - 2010.03.31 09:47:26.
