data_PCOD8048884
_publ_section_title
;
Structure prediction by ZEFSAII (Michael W. Deem and Ramdas Pophale) SiO2 
 PCOD8048884
Probable space group: C 2
;
_chemical_formula_sum "Si O2"
_cell_formula_units_Z 32
_cell_length_a 10.253448
_cell_length_b 9.760358
_cell_length_c 13.657641
_cell_angle_alpha 90.000000
_cell_angle_beta 97.637658
_cell_angle_gamma 90.000000
_cell_volume 1354.694271
_symmetry_space_group_name_H-M "C 2"
_symmetry_group_IT_number 5
_symmetry_cell_setting 'monoclinic'
loop_
_space_group_symop_operation_xyz
x,y,z
-x,y,-z
1/2+x,1/2+y,z
1/2-x,1/2+y,-z
loop_
_atom_site_type_symbol
_atom_site_label
_atom_site_fract_x
_atom_site_fract_y
_atom_site_fract_z
Si Si1 0.867936 0.785310 0.918311
Si Si2 0.562123 0.228657 0.657803
Si Si3 0.419197 0.986091 0.894225
Si Si4 0.809623 0.459394 0.348726
Si Si5 0.193913 0.784425 0.871899
Si Si6 0.392154 0.561731 0.822536
Si Si7 0.406945 0.786782 0.197852
Si Si8 0.366233 0.371286 0.514095
O O1 0.912418 0.647037 0.865866
O O2 0.710891 0.799479 0.891705
O O3 0.935219 0.924841 0.885057
O O4 0.897013 0.765923 0.038808
O O5 0.597735 0.285767 0.768709
O O6 0.415194 0.271908 0.609526
O O7 0.669130 0.287868 0.588437
O O8 0.570261 0.064644 0.649780
O O9 0.271147 0.927450 0.888632
O O10 0.491092 0.909275 0.812943
O O11 0.500000 0.955933 0.000000
O O12 0.682416 0.522818 0.283285
O O13 0.852808 0.315742 0.302456
O O14 0.764634 0.443783 0.458028
O O15 0.297653 0.658382 0.879084
O O16 0.525382 0.639224 0.804741
O O17 0.500000 0.461526 0.500000
#
# Coordination Sequence:
#
# PCOD8048884 Si02
#       8
#     4   4   4   4   4   4   4   4
#     4  11  22  40  61  89 127 176 211 258 318 366
#     4   8  20  39  66  94 124 160 213 265 319 380
#     4  11  23  40  59  90 129 173 216 262 309 368
#     4  10  19  41  68  87 128 167 201 266 327 370
#     4  10  19  40  68  88 128 173 216 262 321 373
#     4   9  22  40  60  96 128 167 220 262 303 384
#     4  10  23  43  61  90 133 169 212 264 307 374
#     4   8  20  43  62  94 129 151 205 273 316 382
#
# _framework density 23.621566000000001
#
# number of rings (size 3 to 8) (size 9 to 14) (size 15 to 20)
#    0.750    1.500    1.250    0.750    3.500    3.000 
#    6.750   10.000    0.000    0.000    0.000    0.000 
#    0.000    0.000    0.000    0.000    0.000    0.000 
#
# Total GULP energy -198284.945307 kJ/mol
# GULP energy per Si atom -12392.809082 kJ/mol
# Density = 2.356780 g / cm^3
# Si number density = 23.621566 Si / 1000 Ang^3
#
#
#
# Elastic Constant Matrix: (Units=GPa)
#
#
# Indices 1 2 3 4 5 6 
#
# 1 67.0561 38.6039 18.9747 0.0000 -13.8882 0.0000
# 2 38.6039 134.1499 34.0729 0.0000 -12.6977 0.0000
# 3 18.9747 34.0729 95.6747 0.0000 -18.5995 0.0000
# 4 0.0000 0.0000 0.0000 28.4169 0.0000 -5.4475
# 5 -13.8882 -12.6977 -18.5995 0.0000 37.6052 0.0000
# 6 0.0000 0.0000 0.0000 -5.4475 0.0000 33.8021
#
#
#
# Elastic Compliance Matrix: (Units=1/GPa)
#
#
# Indices 1 2 3 4 5 6 
#
# 1 0.018947 -0.004704 -0.001141 0.000000 0.004845 0.000000
# 2 -0.004704 0.009437 -0.002375 0.000000 0.000275 0.000000
# 3 -0.001141 -0.002375 0.012487 0.000000 0.004953 0.000000
# 4 0.000000 0.000000 0.000000 0.036312 0.000000 0.005852
# 5 0.004845 0.000275 0.004953 0.000000 0.030924 0.000000
# 6 0.000000 0.000000 0.000000 0.005852 0.000000 0.030527
#
#
# Mechanical properties :
#
#
# Convention : Reuss Voigt Hill
#
# Bulk Modulus (GPa) = 40.92850 53.35374 47.14112
# Shear Modulus (GPa) = 30.63408 33.64678 32.14043
#
# Velocity S-wave (km/s) = 3.60511 3.77823 3.69269
# Velocity P-wave (km/s) = 5.89012 6.45517 6.17911
#
# Compressibility (1/GPa) = 0.02443285
#
# Stress axis : x y z
#
# Youngs Moduli (GPa) = 52.77822 105.96413 80.08461
#
# Poissons Ratio (x) = 0.49847 0.09134
# Poissons Ratio (y) = 0.24827 0.19016
# Poissons Ratio (z) = 0.06019 0.25161
#
# Static dielectric constant tensor:
#      x y z
#    x 4.195380 0.000000 -0.022710 
#    y 0.000000 4.277500 0.000000 
#    z -0.022710 0.000000 4.030040 
# 
# 
# High freq. dielectric constant tensor:
#      x y z
#    x 1.938950 0.000000 -0.009720 
#    y 0.000000 1.924200 0.000000 
#    z -0.009720 0.000000 1.923130 
# 
# From -- ./inp_files/52458.got.cif
#   From: 2010.03.12/outbox.cif.g09.slc.cpg/sg5_27_cif.got.tgz:52458.got - 2010.03.31 09:47:26.
