data_PCOD8048430
_publ_section_title
;
Structure prediction by ZEFSAII (Michael W. Deem and Ramdas Pophale) SiO2 
 PCOD8048430
Probable space group: C 2
;
_chemical_formula_sum "Si O2"
_cell_formula_units_Z 32
_cell_length_a 20.571348
_cell_length_b 9.158942
_cell_length_c 26.892889
_cell_angle_alpha 90.000000
_cell_angle_beta 17.610047
_cell_angle_gamma 90.000000
_cell_volume 1532.936129
_symmetry_space_group_name_H-M "C 2"
_symmetry_group_IT_number 5
_symmetry_cell_setting 'monoclinic'
loop_
_space_group_symop_operation_xyz
x,y,z
-x,y,-z
1/2+x,1/2+y,z
1/2-x,1/2+y,-z
loop_
_atom_site_type_symbol
_atom_site_label
_atom_site_fract_x
_atom_site_fract_y
_atom_site_fract_z
Si Si1 0.931668 0.709730 0.100710
Si Si2 0.259607 0.521668 0.675368
Si Si3 0.674959 0.102008 0.143642
Si Si4 0.730070 0.520345 0.819446
Si Si5 0.456268 0.722770 0.184242
Si Si6 0.581107 0.019134 0.491341
Si Si7 0.134081 0.769668 0.694910
Si Si8 0.728716 0.313883 0.967885
O O1 0.778777 0.608680 0.245118
O O2 0.807287 0.854503 0.171931
O O3 0.000000 0.625343 0.000000
O O4 0.147677 0.749812 0.974269
O O5 0.500000 0.458657 0.500000
O O6 0.090050 0.390770 0.795185
O O7 0.236981 0.626883 0.644441
O O8 0.636388 0.046344 0.227510
O O9 0.499129 0.225022 0.257411
O O10 0.636003 0.961029 0.137633
O O11 0.921936 0.154845 0.952758
O O12 0.879491 0.592689 0.667761
O O13 0.500000 0.595376 0.000000
O O14 0.237234 0.647158 0.360020
O O15 0.619569 0.704062 0.112045
O O16 0.500000 0.940288 0.500000
O O17 0.688649 0.893129 0.447418
O O18 0.981704 0.849529 0.846058
#
# Coordination Sequence:
#
# PCOD8048430 Si02
#       8
#     4   4   4   4   4   4   4   4
#     4  10  20  38  67  88 119 167 218 252 313 385
#     4  11  22  38  56  92 125 159 203 264 317 368
#     4  11  20  40  64  93 130 163 213 267 318 379
#     4  11  22  39  65  96 121 169 217 264 317 381
#     4  11  24  39  66  93 129 165 212 268 321 376
#     4  12  23  42  66  94 125 172 223 259 314 394
#     4  10  21  36  66  92 121 164 215 263 304 380
#     4  10  18  38  65  92 121 163 215 255 311 377
#
# _framework density 20.874973000000001
#
# number of rings (size 3 to 8) (size 9 to 14) (size 15 to 20)
#    0.000    1.250    5.000    3.750    0.000    0.000 
#    2.250    3.125    0.000    0.000    0.000    0.000 
#    0.000    0.000    0.000    0.000    0.000    0.000 
#
# Total GULP energy -198278.014923 kJ/mol
# GULP energy per Si atom -12392.375933 kJ/mol
# Density = 2.082746 g / cm^3
# Si number density = 20.874973 Si / 1000 Ang^3
#
#
#
# Elastic Constant Matrix: (Units=GPa)
#
#
# Indices 1 2 3 4 5 6 
#
# 1 121.9520 30.2994 48.1518 -0.0467 7.9704 0.0174
# 2 30.2994 59.8276 24.0746 -0.1731 4.5965 0.0212
# 3 48.1518 24.0746 116.7873 -0.0842 6.0056 0.0557
# 4 -0.0467 -0.1731 -0.0842 28.2564 0.0517 -5.1226
# 5 7.9704 4.5965 6.0056 0.0517 25.8904 0.0115
# 6 0.0174 0.0212 0.0557 -5.1226 0.0115 28.2706
#
#
#
# Elastic Compliance Matrix: (Units=1/GPa)
#
#
# Indices 1 2 3 4 5 6 
#
# 1 0.010658 -0.003849 -0.003509 -0.000013 -0.001784 0.000002
# 2 -0.003849 0.019764 -0.002396 0.000113 -0.001768 0.000014
# 3 -0.003509 -0.002396 0.010552 0.000010 -0.000942 -0.000015
# 4 -0.000013 0.000113 0.000010 0.036593 -0.000095 0.006631
# 5 -0.001784 -0.001768 -0.000942 -0.000095 0.039706 -0.000029
# 6 0.000002 0.000014 -0.000015 0.006631 -0.000029 0.036574
#
#
# Mechanical properties :
#
#
# Convention : Reuss Voigt Hill
#
# Bulk Modulus (GPa) = 46.58590 55.95760 51.27175
# Shear Modulus (GPa) = 27.69897 29.55289 28.62593
#
# Velocity S-wave (km/s) = 3.64661 3.76667 3.70713
# Velocity P-wave (km/s) = 6.33210 6.76619 6.55274
#
# Compressibility (1/GPa) = 0.02146572
#
# Stress axis : x y z
#
# Youngs Moduli (GPa) = 93.82252 50.59615 94.76920
#
# Poissons Ratio (x) = 0.19473 0.33258
# Poissons Ratio (y) = 0.36110 0.22710
# Poissons Ratio (z) = 0.32926 0.12125
#
# Static dielectric constant tensor:
#      x y z
#    x 3.844770 0.000150 -0.014740 
#    y 0.000150 3.494970 0.000490 
#    z -0.014740 0.000490 3.886660 
# 
# 
# High freq. dielectric constant tensor:
#      x y z
#    x 1.818300 0.000000 -0.010090 
#    y 0.000000 1.794380 0.000030 
#    z -0.010090 0.000030 1.812010 
# 
# From -- ./inp_files/71084.got.cif
#   From: 2010.03.12/outbox.cif.g09.slc.cpg/sg5_36_cif.got.tgz:71084.got - 2010.03.31 09:47:26.
