data_PCOD8048264
_publ_section_title
;
Structure prediction by ZEFSAII (Michael W. Deem and Ramdas Pophale) SiO2 
 PCOD8048264
Probable space group: C 2
;
_chemical_formula_sum "Si O2"
_cell_formula_units_Z 28
_cell_length_a 23.399102
_cell_length_b 8.416677
_cell_length_c 15.975164
_cell_angle_alpha 90.000000
_cell_angle_beta 27.551024
_cell_angle_gamma 90.000000
_cell_volume 1455.234290
_symmetry_space_group_name_H-M "C 2"
_symmetry_group_IT_number 5
_symmetry_cell_setting 'monoclinic'
loop_
_space_group_symop_operation_xyz
x,y,z
-x,y,-z
1/2+x,1/2+y,z
1/2-x,1/2+y,-z
loop_
_atom_site_type_symbol
_atom_site_label
_atom_site_fract_x
_atom_site_fract_y
_atom_site_fract_z
Si Si1 0.914903 0.329730 0.536242
Si Si2 0.005988 0.794784 0.223413
Si Si3 0.453621 0.794390 0.880072
Si Si4 0.109296 0.514920 0.183246
Si Si5 0.289104 0.508883 0.101277
Si Si6 0.139738 0.087817 0.530741
Si Si7 0.570250 0.072365 0.824583
O O1 0.801661 0.438257 0.712271
O O2 0.875120 0.170705 0.540099
O O3 0.000000 0.264203 0.500000
O O4 0.988496 0.455094 0.386509
O O5 0.935231 0.686084 0.248830
O O6 0.083675 0.694451 0.189370
O O7 0.917822 0.911877 0.390724
O O8 0.098489 0.889918 0.045712
O O9 0.570109 0.700100 0.688549
O O10 0.374845 0.900563 0.917056
O O11 0.508796 0.902250 0.882432
O O12 0.347604 0.677235 0.053767
O O13 0.229303 0.517584 0.086260
O O14 0.284117 0.060442 0.353713
O O15 0.500000 0.134990 0.000000
#
# Coordination Sequence:
#
# PCOD8048264 Si02
#       7
#     4   4   4   4   4   4   4
#     4   9  19  35  56  82 111 140 174 219 270 319
#     4  10  21  35  56  81 104 142 183 218 267 323
#     4   9  20  35  54  78 106 144 183 217 266 325
#     4   9  18  34  55  79 110 142 176 217 266 322
#     4  10  18  34  55  81 110 140 177 222 266 313
#     4  10  20  38  57  77 107 145 180 220 269 322
#     4  11  22  37  54  78 108 139 182 231 269 312
#
# _framework density 19.240888000000002
#
# number of rings (size 3 to 8) (size 9 to 14) (size 15 to 20)
#    0.000    2.286    0.000    2.571    0.000    2.286 
#    0.000   10.714    0.000    0.000    0.000    0.000 
#    0.000    0.000    0.000    0.000    0.000    0.000 
#
# Total GULP energy -173505.604027 kJ/mol
# GULP energy per Si atom -12393.257431 kJ/mol
# Density = 1.919709 g / cm^3
# Si number density = 19.240888 Si / 1000 Ang^3
#
#
#
# Elastic Constant Matrix: (Units=GPa)
#
#
# Indices 1 2 3 4 5 6 
#
# 1 63.7895 42.2999 30.2161 0.0002 1.3697 0.0000
# 2 42.2999 124.0131 41.5339 0.0007 -4.5596 -0.0005
# 3 30.2161 41.5339 82.1299 0.0003 -13.2571 -0.0003
# 4 0.0002 0.0007 0.0003 23.6870 -0.0001 0.4529
# 5 1.3697 -4.5596 -13.2571 -0.0001 28.2092 0.0001
# 6 0.0000 -0.0005 -0.0003 0.4529 0.0001 21.5799
#
#
#
# Elastic Compliance Matrix: (Units=1/GPa)
#
#
# Indices 1 2 3 4 5 6 
#
# 1 0.022551 -0.005813 -0.006152 0.000000 -0.004926 0.000000
# 2 -0.005813 0.011223 -0.003461 0.000000 0.000470 0.000000
# 3 -0.006152 -0.003461 0.017473 0.000000 0.007951 0.000000
# 4 0.000000 0.000000 0.000000 0.042234 0.000000 -0.000886
# 5 -0.004926 0.000470 0.007951 0.000000 0.039501 0.000000
# 6 0.000000 0.000000 0.000000 -0.000886 0.000000 0.046358
#
#
# Mechanical properties :
#
#
# Convention : Reuss Voigt Hill
#
# Bulk Modulus (GPa) = 49.03226 55.33693 52.18460
# Shear Modulus (GPa) = 23.04251 25.08740 24.06495
#
# Velocity S-wave (km/s) = 3.46436 3.61482 3.54039
# Velocity P-wave (km/s) = 6.44524 6.80037 6.62518
#
# Compressibility (1/GPa) = 0.02039473
#
# Stress axis : x y z
#
# Youngs Moduli (GPa) = 44.34393 89.10463 57.23102
#
# Poissons Ratio (x) = 0.51793 0.35210
# Poissons Ratio (y) = 0.25775 0.19809
# Poissons Ratio (z) = 0.27282 0.30841
#
# Static dielectric constant tensor:
#      x y z
#    x 4.721790 0.000000 0.379000 
#    y 0.000000 3.628690 0.000000 
#    z 0.379000 0.000000 3.646860 
# 
# 
# High freq. dielectric constant tensor:
#      x y z
#    x 1.744610 0.000000 -0.009350 
#    y 0.000000 1.755760 0.000000 
#    z -0.009350 0.000000 1.750220 
# 
# From -- ./inp_files/41551.got.cif
#   From: 2010.03.12/outbox.cif.g09.slc.cpg/sg5_21_cif.got.tgz:41551.got - 2010.03.31 09:47:26.
