data_PCOD8048215
_publ_section_title
;
Structure prediction by ZEFSAII (Michael W. Deem and Ramdas Pophale) SiO2 
 PCOD8048215
Probable space group: C 2
;
_chemical_formula_sum "Si O2"
_cell_formula_units_Z 28
_cell_length_a 23.074966
_cell_length_b 5.306547
_cell_length_c 19.209363
_cell_angle_alpha 90.000000
_cell_angle_beta 149.050700
_cell_angle_gamma 90.000000
_cell_volume 1209.665129
_symmetry_space_group_name_H-M "C 2"
_symmetry_group_IT_number 5
_symmetry_cell_setting 'monoclinic'
loop_
_space_group_symop_operation_xyz
x,y,z
-x,y,-z
1/2+x,1/2+y,z
1/2-x,1/2+y,-z
loop_
_atom_site_type_symbol
_atom_site_label
_atom_site_fract_x
_atom_site_fract_y
_atom_site_fract_z
Si Si1 0.152224 0.515660 0.241158
Si Si2 0.000000 0.881838 0.500000
Si Si3 0.468996 0.758204 0.291695
Si Si4 0.179817 0.277278 0.411790
Si Si5 0.000000 0.826046 0.000000
Si Si6 0.621327 0.246263 0.755478
Si Si7 0.713134 0.655968 0.186637
Si Si8 0.357429 0.774734 0.413528
O O1 0.143426 0.313632 0.293542
O O2 0.179816 0.400997 0.194513
O O3 0.257026 0.703846 0.364714
O O4 0.037858 0.667939 0.107618
O O5 0.977028 0.726576 0.405392
O O6 0.884906 0.049212 0.387698
O O7 0.561966 0.728557 0.327798
O O8 0.391992 0.507081 0.214991
O O9 0.528479 0.804923 0.426628
O O10 0.394005 0.012084 0.206204
O O11 0.239889 0.533124 0.500787
O O12 0.103323 0.980816 0.074156
O O13 0.746529 0.226218 0.849988
O O14 0.822236 0.524658 0.335511
#
# Coordination Sequence:
#
# PCOD8048215 Si02
#       8
#     4   2   4   4   2   4   4   4
#     4  11  23  41  64  97 132 176 229 282 337 399
#     4  10  18  32  52  90 130 172 198 262 330 420
#     4  11  23  37  56  98 133 181 211 255 332 415
#     4  12  25  42  67  99 145 188 223 271 333 417
#     4  10  26  42  66 102 126 178 240 294 348 384
#     4  11  22  35  60  89 133 170 215 269 334 406
#     4  11  21  40  63  95 126 175 224 295 345 386
#     4  10  19  33  53  90 135 168 217 255 336 404
#
# _framework density 23.146902000000001
#
# number of rings (size 3 to 8) (size 9 to 14) (size 15 to 20)
#    0.000    1.143    2.857    4.714    8.000    0.571 
#    0.000    0.000    0.000    0.000    7.429    0.000 
#    0.000    0.000    0.000    0.000    0.000    0.000 
#
# Total GULP energy -173511.928688 kJ/mol
# GULP energy per Si atom -12393.709192 kJ/mol
# Density = 2.309422 g / cm^3
# Si number density = 23.146902 Si / 1000 Ang^3
#
#
#
# Elastic Constant Matrix: (Units=GPa)
#
#
# Indices 1 2 3 4 5 6 
#
# 1 129.8904 46.5175 18.7420 0.0002 30.6043 0.0000
# 2 46.5175 138.0854 18.8587 0.0008 16.4081 0.0000
# 3 18.7420 18.8587 62.8446 0.0003 20.0681 0.0000
# 4 0.0002 0.0008 0.0003 24.2090 0.0000 8.9159
# 5 30.6043 16.4081 20.0681 0.0000 23.9663 0.0000
# 6 0.0000 0.0000 0.0000 8.9159 0.0000 39.6151
#
#
#
# Elastic Compliance Matrix: (Units=1/GPa)
#
#
# Indices 1 2 3 4 5 6 
#
# 1 0.011864 -0.002474 0.002049 0.000000 -0.015172 0.000000
# 2 -0.002474 0.008435 -0.001308 0.000000 -0.001521 0.000000
# 3 0.002049 -0.001308 0.022172 0.000000 -0.020287 0.000000
# 4 0.000000 0.000000 0.000000 0.045040 0.000000 -0.010137
# 5 -0.015172 -0.001521 -0.020287 0.000000 0.079127 0.000000
# 6 0.000000 0.000000 0.000000 -0.010137 0.000000 0.027524
#
#
# Mechanical properties :
#
#
# Convention : Reuss Voigt Hill
#
# Bulk Modulus (GPa) = 25.63757 55.45076 40.54417
# Shear Modulus (GPa) = 23.73847 34.00489 28.87168
#
# Velocity S-wave (km/s) = 3.20591 3.83703 3.53558
# Velocity P-wave (km/s) = 4.98035 6.60594 5.84988
#
# Compressibility (1/GPa) = 0.03900526
#
# Stress axis : x y z
#
# Youngs Moduli (GPa) = 84.29026 118.56059 45.10256
#
# Poissons Ratio (x) = 0.29327 -0.09242
# Poissons Ratio (y) = 0.20850 0.05898
# Poissons Ratio (z) = -0.17271 0.15505
#
# Static dielectric constant tensor:
#      x y z
#    x 4.098490 0.000000 0.300860 
#    y 0.000000 4.397320 0.000000 
#    z 0.300860 0.000000 3.846710 
# 
# 
# High freq. dielectric constant tensor:
#      x y z
#    x 1.909810 0.000000 0.033150 
#    y 0.000000 1.934980 0.000000 
#    z 0.033150 0.000000 1.870320 
# 
# From -- ./inp_files/45433.got.cif
#   From: 2010.03.12/outbox.cif.g09.slc.cpg/sg5_23_cif.got.tgz:45433.got - 2010.03.31 09:47:26.
