data_PCOD8048376
_publ_section_title
;
Structure prediction by ZEFSAII (Michael W. Deem and Ramdas Pophale) SiO2 
 PCOD8048376
Probable space group: C 2
;
_chemical_formula_sum "Si O2"
_cell_formula_units_Z 22
_cell_length_a 19.234375
_cell_length_b 5.184579
_cell_length_c 13.081198
_cell_angle_alpha 90.000000
_cell_angle_beta 136.733811
_cell_angle_gamma 90.000000
_cell_volume 894.079374
_symmetry_space_group_name_H-M "C 2"
_symmetry_group_IT_number 5
_symmetry_cell_setting 'monoclinic'
loop_
_space_group_symop_operation_xyz
x,y,z
-x,y,-z
1/2+x,1/2+y,z
1/2-x,1/2+y,-z
loop_
_atom_site_type_symbol
_atom_site_label
_atom_site_fract_x
_atom_site_fract_y
_atom_site_fract_z
Si Si1 0.140138 0.947640 0.304702
Si Si2 0.000000 0.783014 0.500000
Si Si3 0.831547 0.714977 0.458952
Si Si4 0.634894 0.940109 0.184562
Si Si5 0.362760 0.950926 0.044426
Si Si6 0.124221 0.954100 0.816590
O O1 0.112709 0.880814 0.392160
O O2 0.103236 0.714905 0.194604
O O3 0.264783 0.979075 0.433821
O O4 0.087897 0.209365 0.205520
O O5 0.917411 0.609189 0.472772
O O6 0.941946 0.962606 0.356904
O O7 0.756991 0.905161 0.315733
O O8 0.593531 0.931576 0.024370
O O9 0.404789 0.707597 0.151254
O O10 0.403432 0.208576 0.142278
O O11 0.241472 0.949575 0.911058
#
# Coordination Sequence:
#
# PCOD8048376 Si02
#       6
#     4   2   4   4   4   4
#     4  10  19  36  62  90 124 162 218 242 308 378
#     4  12  24  44  62 106 132 156 208 284 334 332
#     4  10  21  37  62  97 127 166 206 269 307 379
#     4  10  18  36  65  87 109 168 213 257 278 384
#     4  10  20  39  61  84 121 170 215 232 314 392
#     4  10  22  38  57  88 127 164 198 262 309 385
#
# _framework density 24.606318000000002
#
# number of rings (size 3 to 8) (size 9 to 14) (size 15 to 20)
#    1.091    0.727    3.636    1.091    0.000    2.182 
#    3.273    0.000    0.000    6.545    0.000    0.000 
#    0.000    0.000    0.000    0.000    0.000    0.000 
#
# Total GULP energy -136337.660318 kJ/mol
# GULP energy per Si atom -12394.332756 kJ/mol
# Density = 2.455031 g / cm^3
# Si number density = 24.606318 Si / 1000 Ang^3
#
#
#
# Elastic Constant Matrix: (Units=GPa)
#
#
# Indices 1 2 3 4 5 6 
#
# 1 69.5437 9.6745 21.3924 0.0000 -28.0870 0.0000
# 2 9.6745 158.2678 49.4463 0.0000 -17.2715 -0.0001
# 3 21.3924 49.4463 169.3101 0.0000 -23.4852 0.0000
# 4 0.0000 0.0000 0.0000 25.9272 0.0000 -8.7512
# 5 -28.0870 -17.2715 -23.4852 0.0000 37.6244 0.0000
# 6 0.0000 -0.0001 0.0000 -8.7512 0.0000 8.7803
#
#
#
# Elastic Compliance Matrix: (Units=1/GPa)
#
#
# Indices 1 2 3 4 5 6 
#
# 1 0.020680 0.000615 -0.000670 0.000000 0.015302 0.000000
# 2 0.000615 0.007127 -0.001797 0.000000 0.002609 0.000000
# 3 -0.000670 -0.001797 0.006932 0.000000 0.003002 0.000000
# 4 0.000000 0.000000 0.000000 0.058122 0.000000 0.057930
# 5 0.015302 0.002609 0.003002 0.000000 0.041073 0.000000
# 6 0.000000 0.000000 0.000000 0.057930 0.000000 0.171629
#
#
# Mechanical properties :
#
#
# Convention : Reuss Voigt Hill
#
# Bulk Modulus (GPa) = 32.22160 62.01645 47.11902
# Shear Modulus (GPa) = 15.64392 35.57362 25.60877
#
# Velocity S-wave (km/s) = 2.52418 3.80638 3.22955
# Velocity P-wave (km/s) = 4.64958 6.67654 5.75303
#
# Compressibility (1/GPa) = 0.03103508
#
# Stress axis : x y z
#
# Youngs Moduli (GPa) = 48.35564 140.31115 144.25316
#
# Poissons Ratio (x) = -0.08631 0.09665
# Poissons Ratio (y) = -0.02974 0.25926
# Poissons Ratio (z) = 0.03240 0.25217
#
# Static dielectric constant tensor:
#      x y z
#    x 4.265450 0.000000 -0.092030 
#    y 0.000000 4.047700 0.000000 
#    z -0.092030 0.000000 4.357180 
# 
# 
# High freq. dielectric constant tensor:
#      x y z
#    x 1.977500 0.000000 -0.003840 
#    y 0.000000 1.951280 0.000000 
#    z -0.003840 0.000000 1.990290 
# 
# From -- ./inp_files/46829.got.cif
#   From: 2010.03.12/outbox.cif.g09.slc.cpg/sg5_24_cif.got.tgz:46829.got - 2010.03.31 09:47:26.
