data_PCOD8048299
_publ_section_title
;
Structure prediction by ZEFSAII (Michael W. Deem and Ramdas Pophale) SiO2 
 PCOD8048299
Probable space group: C 2
;
_chemical_formula_sum "Si O2"
_cell_formula_units_Z 30
_cell_length_a 15.836923
_cell_length_b 13.829676
_cell_length_c 9.946144
_cell_angle_alpha 90.000000
_cell_angle_beta 133.442279
_cell_angle_gamma 90.000000
_cell_volume 1581.665095
_symmetry_space_group_name_H-M "C 2"
_symmetry_group_IT_number 5
_symmetry_cell_setting 'monoclinic'
loop_
_space_group_symop_operation_xyz
x,y,z
-x,y,-z
1/2+x,1/2+y,z
1/2-x,1/2+y,-z
loop_
_atom_site_type_symbol
_atom_site_label
_atom_site_fract_x
_atom_site_fract_y
_atom_site_fract_z
Si Si1 0.596790 0.743510 0.508947
Si Si2 0.000000 0.680997 0.000000
Si Si3 0.675914 0.506271 0.949240
Si Si4 0.266634 0.079060 0.766802
Si Si5 0.009137 0.152934 0.161327
Si Si6 0.207409 0.998063 0.432510
Si Si7 0.014624 0.868029 0.163509
Si Si8 0.368706 0.962821 0.376257
O O1 0.500000 0.698112 0.500000
O O2 0.707910 0.677277 0.650944
O O3 0.542896 0.741050 0.298507
O O4 0.630666 0.849589 0.592201
O O5 0.898866 0.608497 0.931098
O O6 0.986916 0.751129 0.853926
O O7 0.712689 0.527499 0.837134
O O8 0.613324 0.602662 0.935614
O O9 0.588921 0.412806 0.857354
O O10 0.792017 0.483630 0.160693
O O11 0.256927 0.002543 0.636162
O O12 0.109062 0.074457 0.287673
O O13 0.000000 0.194042 0.000000
O O14 0.312664 0.013894 0.444101
O O15 0.144135 0.893624 0.356499
O O16 0.000000 0.917669 0.000000
O O17 0.500000 0.002115 0.500000
#
# Coordination Sequence:
#
# PCOD8048299 Si02
#       8
#     4   2   4   4   4   4   4   4
#     4  10  20  37  56  87 115 151 189 240 297 340
#     4  10  22  40  58  86 122 162 192 230 308 364
#     4  11  19  36  60  90 111 151 208 240 281 354
#     4  11  23  33  60  90 124 144 195 253 296 337
#     4  10  18  34  62  87 110 144 203 255 275 330
#     4  10  19  35  57  89 113 152 200 242 291 341
#     4   9  17  36  67  81 104 159 214 233 272 361
#     4  11  22  36  58  79 120 161 188 225 299 373
#
# _framework density 18.967352999999999
#
# number of rings (size 3 to 8) (size 9 to 14) (size 15 to 20)
#    0.400    1.333    4.000    2.400    1.867    0.000 
#    0.000    2.667    0.000    1.600    0.000    0.000 
#    0.000    0.000    0.000    0.000    0.000    0.000 
#
# Total GULP energy -185898.099846 kJ/mol
# GULP energy per Si atom -12393.206656 kJ/mol
# Density = 1.892418 g / cm^3
# Si number density = 18.967353 Si / 1000 Ang^3
#
#
#
# Elastic Constant Matrix: (Units=GPa)
#
#
# Indices 1 2 3 4 5 6 
#
# 1 126.4511 25.0017 59.4804 0.0000 -5.1284 0.0000
# 2 25.0017 48.3736 38.2999 0.0000 -3.4216 0.0000
# 3 59.4804 38.2999 113.9630 0.0000 -16.0916 0.0000
# 4 0.0000 0.0000 0.0000 17.3498 0.0000 -0.2041
# 5 -5.1284 -3.4216 -16.0916 0.0000 42.1749 0.0000
# 6 0.0000 0.0000 0.0000 -0.2041 0.0000 19.3738
#
#
#
# Elastic Compliance Matrix: (Units=1/GPa)
#
#
# Indices 1 2 3 4 5 6 
#
# 1 0.010585 -0.001450 -0.005150 0.000000 -0.000795 0.000000
# 2 -0.001450 0.028445 -0.008986 0.000000 -0.001297 0.000000
# 3 -0.005150 -0.008986 0.015105 0.000000 0.004408 0.000000
# 4 0.000000 0.000000 0.000000 0.057645 0.000000 0.000607
# 5 -0.000795 -0.001297 0.004408 0.000000 0.025191 0.000000
# 6 0.000000 0.000000 0.000000 0.000607 0.000000 0.051622
#
#
# Mechanical properties :
#
#
# Convention : Reuss Voigt Hill
#
# Bulk Modulus (GPa) = 43.54705 59.37242 51.45973
# Shear Modulus (GPa) = 21.98600 26.84675 24.41638
#
# Velocity S-wave (km/s) = 3.40832 3.76629 3.59177
# Velocity P-wave (km/s) = 6.20465 7.09109 6.66263
#
# Compressibility (1/GPa) = 0.02296367
#
# Stress axis : x y z
#
# Youngs Moduli (GPa) = 94.47446 35.15599 66.20406
#
# Poissons Ratio (x) = 0.05097 0.34092
# Poissons Ratio (y) = 0.13697 0.59491
# Poissons Ratio (z) = 0.48650 0.31591
#
# Static dielectric constant tensor:
#      x y z
#    x 3.837230 0.000000 0.097090 
#    y 0.000000 3.172190 0.000000 
#    z 0.097090 0.000000 3.578070 
# 
# 
# High freq. dielectric constant tensor:
#      x y z
#    x 1.745580 0.000000 0.008120 
#    y 0.000000 1.705900 0.000000 
#    z 0.008120 0.000000 1.735120 
# 
# From -- ./inp_files/25106.got.cif
#   From: 2010.03.12/outbox.cif.g09.slc.cpg/sg5_13_cif.got.tgz:25106.got - 2010.03.31 09:47:26.
