data_PCOD8048027
_publ_section_title
;
Structure prediction by ZEFSAII (Michael W. Deem and Ramdas Pophale) SiO2 
 PCOD8048027
Probable space group: P 21
;
_chemical_formula_sum "Si O2"
_cell_formula_units_Z 14
_cell_length_a 15.000000
_cell_length_b 9.000000
_cell_length_c 15.000000
_cell_angle_alpha 90.000000
_cell_angle_beta 20.000000
_cell_angle_gamma 90.000000
_cell_volume 692.590790
_symmetry_space_group_name_H-M "P 21"
_symmetry_group_IT_number 4
_symmetry_cell_setting 'monoclinic'
loop_
_space_group_symop_operation_xyz
x,y,z
-x,1/2+y,-z
loop_
_atom_site_type_symbol
_atom_site_label
_atom_site_fract_x
_atom_site_fract_y
_atom_site_fract_z
Si Si1 0.602786 0.033900 0.008079
Si Si2 0.055845 0.465158 0.699903
Si Si3 0.682413 0.240479 0.269856
Si Si4 0.672039 0.248165 0.784607
Si Si5 0.545955 0.285799 0.194183
Si Si6 0.865341 0.739958 0.780436
Si Si7 0.193578 0.419157 0.773497
O O1 0.706904 0.164983 0.845883
O O2 0.829083 0.919128 0.833135
O O3 0.489506 0.128402 0.197645
O O4 0.390182 0.927863 0.156206
O O5 0.294641 0.393945 0.419020
O O6 0.138060 0.463487 0.724612
O O7 0.998121 0.639914 0.732848
O O8 0.800243 0.369048 0.916743
O O9 0.602716 0.246233 0.242360
O O10 0.438118 0.306568 0.554882
O O11 0.739609 0.069455 0.237430
O O12 0.937329 0.338961 0.053700
O O13 0.947371 0.221324 0.479977
O O14 0.422507 0.172898 0.969547
#
# Coordination Sequence:
#
# PCOD8048027 Si02
#       7
#     2   2   2   2   2   2   2
#     4  10  26  39  61  88 121 155 206 246 305 349
#     4  10  22  39  62  86 119 159 198 242 301 353
#     4  10  21  40  60  93 121 161 200 243 300 353
#     4  10  25  39  58  87 118 155 202 249 299 358
#     4  10  23  39  63  85 121 157 199 246 298 355
#     4  10  24  39  59  87 116 155 204 242 305 350
#     4  10  21  39  61  92 122 160 199 244 296 358
#
# _framework density 20.213956
#
# number of rings (size 3 to 8) (size 9 to 14) (size 15 to 20)
#    0.857    1.143    0.000    1.714    8.000    1.143 
#    2.571    0.000    0.000    0.000    0.000    0.000 
#    0.000    0.000    0.000    0.000    0.000    0.000 
#
# Total GULP energy -173433.482904 kJ/mol
# GULP energy per Si atom -12388.105922 kJ/mol
# Density = 2.016795 g / cm^3
# Si number density = 20.213956 Si / 1000 Ang^3
#
#
#
# Elastic Constant Matrix: (Units=GPa)
#
#
# Indices 1 2 3 4 5 6 
#
# 1 36.3512 42.8454 18.1238 0.0000 -8.6113 0.0000
# 2 42.8454 148.5855 40.5184 0.0000 -9.1922 0.0000
# 3 18.1238 40.5184 129.9231 0.0000 -17.0737 0.0000
# 4 0.0000 0.0000 0.0000 38.8543 0.0000 -6.7979
# 5 -8.6113 -9.1922 -17.0737 0.0000 21.2593 0.0000
# 6 0.0000 0.0000 0.0000 -6.7979 0.0000 49.0857
#
#
#
# Elastic Compliance Matrix: (Units=1/GPa)
#
#
# Indices 1 2 3 4 5 6 
#
# 1 0.044978 -0.011955 -0.000929 0.000000 0.012303 0.000000
# 2 -0.011955 0.010576 -0.001863 0.000000 -0.001765 0.000000
# 3 -0.000929 -0.001863 0.009226 0.000000 0.006228 0.000000
# 4 0.000000 0.000000 0.000000 0.026376 0.000000 0.003653
# 5 0.012303 -0.001765 0.006228 0.000000 0.056260 0.000000
# 6 0.000000 0.000000 0.000000 0.003653 0.000000 0.020878
#
#
# Mechanical properties :
#
#
# Convention : Reuss Voigt Hill
#
# Bulk Modulus (GPa) = 28.33958 57.53724 42.93841
# Shear Modulus (GPa) = 23.86055 36.06465 29.96260
#
# Velocity S-wave (km/s) = 3.43942 4.22850 3.85421
# Velocity P-wave (km/s) = 5.46105 7.23645 6.41051
#
# Compressibility (1/GPa) = 0.03528634
#
# Stress axis : x y z
#
# Youngs Moduli (GPa) = 22.23299 94.55198 108.39221
#
# Poissons Ratio (x) = 1.13039 0.10070
# Poissons Ratio (y) = 0.26580 0.20190
# Poissons Ratio (z) = 0.02066 0.17612
#
# Static dielectric constant tensor:
#      x y z
#    x 3.397350 0.000000 -0.146850 
#    y 0.000000 3.907230 0.000000 
#    z -0.146850 0.000000 3.939710 
# 
# 
# High freq. dielectric constant tensor:
#      x y z
#    x 1.768050 0.000000 -0.012050 
#    y 0.000000 1.811660 0.000000 
#    z -0.012050 0.000000 1.805370 
# 
# From -- ./inp_files/3460.got.cif
#   From: 2010.06.25/outbox.ucp.g09.slc.cvg/sg4_2_cif.got.tgz:3460.got - 2010.06.28 13:22:43.
