data_PCOD8048983
_publ_section_title
;
Structure prediction by ZEFSAII (Michael W. Deem and Ramdas Pophale) SiO2 
 PCOD8048983
Probable space group: C 2
;
_chemical_formula_sum "Si O2"
_cell_formula_units_Z 26
_cell_length_a 9.006817
_cell_length_b 9.692257
_cell_length_c 18.256283
_cell_angle_alpha 90.000000
_cell_angle_beta 130.331403
_cell_angle_gamma 90.000000
_cell_volume 1214.905100
_symmetry_space_group_name_H-M "C 2"
_symmetry_group_IT_number 5
_symmetry_cell_setting 'monoclinic'
loop_
_space_group_symop_operation_xyz
x,y,z
-x,y,-z
1/2+x,1/2+y,z
1/2-x,1/2+y,-z
loop_
_atom_site_type_symbol
_atom_site_label
_atom_site_fract_x
_atom_site_fract_y
_atom_site_fract_z
Si Si1 0.857744 0.348860 0.020569
Si Si2 0.250292 0.654332 0.714356
Si Si3 0.000000 0.031376 0.500000
Si Si4 0.980281 0.162355 0.335658
Si Si5 0.069157 0.465359 0.353078
Si Si6 0.648831 0.962198 0.221028
Si Si7 0.542656 0.558469 0.927398
O O1 0.824940 0.196324 0.044321
O O2 0.970893 0.453661 0.109034
O O3 0.657558 0.423251 0.934779
O O4 0.000000 0.316363 0.000000
O O5 0.345305 0.630701 0.665013
O O6 0.239271 0.816066 0.731264
O O7 0.355125 0.572581 0.814846
O O8 0.032782 0.590886 0.635511
O O9 0.990007 0.120328 0.570662
O O10 0.801217 0.942101 0.441848
O O11 0.948258 0.326195 0.329308
O O12 0.797630 0.080656 0.242602
O O13 0.046165 0.510840 0.262098
O O14 0.500000 0.533876 0.000000
#
# Coordination Sequence:
#
# PCOD8048983 Si02
#       7
#     4   4   2   4   4   4   4
#     4  10  20  34  54  81 115 151 187 227 268 317
#     4  10  21  37  58  83 113 147 184 227 274 323
#     4  10  24  40  56  84 114 136 176 234 284 328
#     4  10  22  38  59  83 108 143 185 224 275 333
#     4  10  22  39  60  82 108 144 182 226 278 334
#     4   9  20  38  55  80 117 148 181 228 274 318
#     4  10  21  35  54  84 115 148 188 228 269 316
#
# _framework density 21.400848
#
# number of rings (size 3 to 8) (size 9 to 14) (size 15 to 20)
#    0.000    2.154    0.000    1.846    0.000    9.846 
#    0.000    0.000    0.000    0.923    0.000    0.000 
#    0.000    0.000    0.000    0.000    0.000    0.000 
#
# Total GULP energy -161068.590158 kJ/mol
# GULP energy per Si atom -12389.891551 kJ/mol
# Density = 2.135214 g / cm^3
# Si number density = 21.400848 Si / 1000 Ang^3
#
#
#
# Elastic Constant Matrix: (Units=GPa)
#
#
# Indices 1 2 3 4 5 6 
#
# 1 85.9019 45.1766 19.7973 0.0000 1.0402 0.0000
# 2 45.1766 92.7028 1.5715 0.0000 27.1132 0.0000
# 3 19.7973 1.5715 55.7755 0.0000 -0.8449 0.0000
# 4 0.0000 0.0000 0.0000 26.8938 0.0000 11.6704
# 5 1.0402 27.1132 -0.8449 0.0000 33.5013 0.0000
# 6 0.0000 0.0000 0.0000 11.6704 0.0000 41.7000
#
#
#
# Elastic Compliance Matrix: (Units=1/GPa)
#
#
# Indices 1 2 3 4 5 6 
#
# 1 0.019229 -0.011845 -0.006358 0.000000 0.008829 0.000000
# 2 -0.011845 0.021448 0.003344 0.000000 -0.016906 0.000000
# 3 -0.006358 0.003344 0.020061 0.000000 -0.002003 0.000000
# 4 0.000000 0.000000 0.000000 0.042323 0.000000 -0.011845
# 5 0.008829 -0.016906 -0.002003 0.000000 0.043207 0.000000
# 6 0.000000 0.000000 0.000000 -0.011845 0.000000 0.027296
#
#
# Mechanical properties :
#
#
# Convention : Reuss Voigt Hill
#
# Bulk Modulus (GPa) = 32.23773 40.83011 36.53392
# Shear Modulus (GPa) = 23.40581 31.60800 27.50691
#
# Velocity S-wave (km/s) = 3.31068 3.84728 3.58902
# Velocity P-wave (km/s) = 5.45074 6.23342 5.85518
#
# Compressibility (1/GPa) = 0.03101955
#
# Stress axis : x y z
#
# Youngs Moduli (GPa) = 52.00441 46.62530 49.84764
#
# Poissons Ratio (x) = 0.55230 0.31692
# Poissons Ratio (y) = 0.61602 -0.16670
# Poissons Ratio (z) = 0.33063 -0.15592
#
# Static dielectric constant tensor:
#      x y z
#    x 3.672110 0.000000 -0.045610 
#    y 0.000000 3.828410 0.000000 
#    z -0.045610 0.000000 3.745330 
# 
# 
# High freq. dielectric constant tensor:
#      x y z
#    x 1.839080 0.000000 -0.011890 
#    y 0.000000 1.837800 0.000000 
#    z -0.011890 0.000000 1.830730 
# 
# From -- ./inp_files/59309.got.cif
#   From: 2010.03.12/outbox.cif.g09.slc.cpg/sg5_30_cif.got.tgz:59309.got - 2010.03.31 09:47:26.
