data_PCOD8048104
_publ_section_title
;
Structure prediction by ZEFSAII (Michael W. Deem and Ramdas Pophale) SiO2 
 PCOD8048104
Probable space group: C 2
;
_chemical_formula_sum "Si O2"
_cell_formula_units_Z 30
_cell_length_a 27.837090
_cell_length_b 9.125384
_cell_length_c 10.747410
_cell_angle_alpha 90.000000
_cell_angle_beta 146.647886
_cell_angle_gamma 90.000000
_cell_volume 1500.962890
_symmetry_space_group_name_H-M "C 2"
_symmetry_group_IT_number 5
_symmetry_cell_setting 'monoclinic'
loop_
_space_group_symop_operation_xyz
x,y,z
-x,y,-z
1/2+x,1/2+y,z
1/2-x,1/2+y,-z
loop_
_atom_site_type_symbol
_atom_site_label
_atom_site_fract_x
_atom_site_fract_y
_atom_site_fract_z
Si Si1 0.901978 0.828230 0.811673
Si Si2 0.272176 0.730699 0.679479
Si Si3 0.371828 0.465361 0.980807
Si Si4 0.500000 0.852219 0.500000
Si Si5 0.954876 0.130916 0.613254
Si Si6 0.903967 0.171208 0.761270
Si Si7 0.832122 0.022071 0.159008
Si Si8 0.819156 0.355779 0.037181
O O1 0.830555 0.740052 0.576836
O O2 0.877543 0.819518 0.907141
O O3 0.894292 0.998476 0.762683
O O4 0.000000 0.765909 0.000000
O O5 0.288648 0.566125 0.764090
O O6 0.331761 0.760485 0.685243
O O7 0.296865 0.848066 0.841690
O O8 0.459522 0.558753 0.139581
O O9 0.364226 0.426118 0.109962
O O10 0.485179 0.759578 0.591473
O O11 0.588177 0.937531 0.730159
O O12 0.891666 0.193398 0.585696
O O13 0.905057 0.008564 0.423775
O O14 0.000000 0.232687 0.000000
O O15 0.745177 0.956292 0.025561
O O16 0.820323 0.191408 0.094850
#
# Coordination Sequence:
#
# PCOD8048104 Si02
#       8
#     4   4   4   2   4   4   4   4
#     4  10  19  30  51  76 103 148 184 226 288 335
#     4  10  19  33  52  81 112 145 185 242 291 325
#     4  10  18  35  52  80 114 138 188 250 278 327
#     4  10  18  32  56  80 108 152 184 230 290 340
#     4  11  15  32  56  82 105 143 193 240 273 345
#     4  10  17  30  52  77 105 137 184 233 280 332
#     4  10  21  33  60  85 114 148 194 236 293 338
#     4  10  20  36  57  83 116 151 192 238 288 343
#
# _framework density 19.987169000000002
#
# number of rings (size 3 to 8) (size 9 to 14) (size 15 to 20)
#    0.000    1.867    8.000    0.800    0.000    2.133 
#    0.000    0.000    2.933   12.800    0.000    0.000 
#    0.000    0.000    0.000    0.000    0.000    0.000 
#
# Total GULP energy -185831.869813 kJ/mol
# GULP energy per Si atom -12388.791321 kJ/mol
# Density = 1.994168 g / cm^3
# Si number density = 19.987169 Si / 1000 Ang^3
#
#
#
# Elastic Constant Matrix: (Units=GPa)
#
#
# Indices 1 2 3 4 5 6 
#
# 1 156.2106 16.6897 55.1832 0.0000 -8.1248 0.0000
# 2 16.6897 14.6859 21.6932 0.0000 2.5872 0.0000
# 3 55.1832 21.6932 154.6415 0.0000 9.8107 0.0000
# 4 0.0000 0.0000 0.0000 25.4065 0.0000 16.3196
# 5 -8.1248 2.5872 9.8107 0.0000 39.9008 0.0000
# 6 0.0000 0.0000 0.0000 16.3196 0.0000 36.7434
#
#
#
# Elastic Compliance Matrix: (Units=1/GPa)
#
#
# Indices 1 2 3 4 5 6 
#
# 1 0.007961 -0.006384 -0.002107 0.000000 0.002553 0.000000
# 2 -0.006384 0.091287 -0.010229 0.000000 -0.004704 0.000000
# 3 -0.002107 -0.010229 0.008775 0.000000 -0.001924 0.000000
# 4 0.000000 0.000000 0.000000 0.055072 0.000000 -0.024460
# 5 0.002553 -0.004704 -0.001924 0.000000 0.026360 0.000000
# 6 0.000000 0.000000 0.000000 -0.024460 0.000000 0.038080
#
#
# Mechanical properties :
#
#
# Convention : Reuss Voigt Hill
#
# Bulk Modulus (GPa) = 14.16793 56.96334 35.56564
# Shear Modulus (GPa) = 17.33083 35.87493 26.60288
#
# Velocity S-wave (km/s) = 2.94785 4.24122 3.65224
# Velocity P-wave (km/s) = 4.32323 7.24885 5.96808
#
# Compressibility (1/GPa) = 0.07058194
#
# Stress axis : x y z
#
# Youngs Moduli (GPa) = 125.61401 10.95450 113.95376
#
# Poissons Ratio (x) = 0.06994 0.24012
# Poissons Ratio (y) = 0.80195 1.16565
# Poissons Ratio (z) = 0.26469 0.11205
#
# Static dielectric constant tensor:
#      x y z
#    x 2.708310 0.000000 0.258130 
#    y 0.000000 2.908850 0.000000 
#    z 0.258130 0.000000 3.949670 
# 
# 
# High freq. dielectric constant tensor:
#      x y z
#    x 1.807620 0.000000 -0.010360 
#    y 0.000000 1.694440 0.000000 
#    z -0.010360 0.000000 1.794340 
# 
# From -- ./inp_files/48350.got.cif
#   From: 2010.03.12/outbox.cif.g09.slc.cpg/sg5_25_cif.got.tgz:48350.got - 2010.03.31 09:47:26.
