data_PCOD8048459
_publ_section_title
;
Structure prediction by ZEFSAII (Michael W. Deem and Ramdas Pophale) SiO2 
 PCOD8048459
Probable space group: C 2
;
_chemical_formula_sum "Si O2"
_cell_formula_units_Z 22
_cell_length_a 16.487123
_cell_length_b 8.610466
_cell_length_c 8.503077
_cell_angle_alpha 90.000000
_cell_angle_beta 107.725741
_cell_angle_gamma 90.000000
_cell_volume 1149.804317
_symmetry_space_group_name_H-M "C 2"
_symmetry_group_IT_number 5
_symmetry_cell_setting 'monoclinic'
loop_
_space_group_symop_operation_xyz
x,y,z
-x,y,-z
1/2+x,1/2+y,z
1/2-x,1/2+y,-z
loop_
_atom_site_type_symbol
_atom_site_label
_atom_site_fract_x
_atom_site_fract_y
_atom_site_fract_z
Si Si1 0.369944 0.985000 0.204799
Si Si2 0.500000 0.139992 0.500000
Si Si3 0.279677 0.585427 0.678001
Si Si4 0.594741 0.121384 0.079169
Si Si5 0.846351 0.787295 0.588389
Si Si6 0.592992 0.779066 0.043951
O O1 0.455639 0.026255 0.349659
O O2 0.289550 0.980361 0.271991
O O3 0.381919 0.818546 0.123687
O O4 0.357897 0.119118 0.063072
O O5 0.432306 0.252563 0.544231
O O6 0.235060 0.716807 0.547831
O O7 0.332981 0.472348 0.594718
O O8 0.339520 0.663253 0.842291
O O9 0.648988 0.220880 0.232489
O O10 0.587970 0.942400 0.138077
O O11 0.500000 0.191471 0.000000
O O12 0.500000 0.698763 0.000000
#
# Coordination Sequence:
#
# PCOD8048459 Si02
#       6
#     4   2   4   4   4   4
#     4   9  20  35  65  85 112 156 193 240 281 357
#     4  10  18  40  60  92 112 156 196 232 296 348
#     4  11  24  37  59  87 121 150 195 247 291 339
#     4   9  17  35  64  85 113 152 195 235 286 350
#     4  11  22  38  59  88 117 158 193 242 292 342
#     4   9  19  39  57  83 115 152 190 235 288 346
#
# _framework density 19.133690000000001
#
# number of rings (size 3 to 8) (size 9 to 14) (size 15 to 20)
#    1.091    1.091    1.818    1.091    2.545    2.182 
#    0.000    1.818    0.000    0.000    0.000    0.000 
#    0.000    0.000    0.000    0.000    0.000    0.000 
#
# Total GULP energy -136329.637407 kJ/mol
# GULP energy per Si atom -12393.603401 kJ/mol
# Density = 1.909014 g / cm^3
# Si number density = 19.133690 Si / 1000 Ang^3
#
#
#
# Elastic Constant Matrix: (Units=GPa)
#
#
# Indices 1 2 3 4 5 6 
#
# 1 83.2364 39.1828 45.9031 0.0000 17.0319 0.0000
# 2 39.1828 75.9705 42.4943 0.0000 9.6891 0.0000
# 3 45.9031 42.4943 117.5893 0.0000 7.2325 0.0000
# 4 0.0000 0.0000 0.0000 38.5398 0.0000 -0.4958
# 5 17.0319 9.6891 7.2325 0.0000 27.3419 0.0000
# 6 0.0000 0.0000 0.0000 -0.4958 0.0000 14.6116
#
#
#
# Elastic Compliance Matrix: (Units=1/GPa)
#
#
# Indices 1 2 3 4 5 6 
#
# 1 0.019320 -0.006201 -0.004774 0.000000 -0.008575 0.000000
# 2 -0.006201 0.019011 -0.004343 0.000000 -0.001725 0.000000
# 3 -0.004774 -0.004343 0.011853 0.000000 0.001378 0.000000
# 4 0.000000 0.000000 0.000000 0.025959 0.000000 0.000881
# 5 -0.008575 -0.001725 0.001378 0.000000 0.042162 0.000000
# 6 0.000000 0.000000 0.000000 0.000881 0.000000 0.068469
#
#
# Mechanical properties :
#
#
# Convention : Reuss Voigt Hill
#
# Bulk Modulus (GPa) = 51.15718 59.10630 55.13174
# Shear Modulus (GPa) = 22.32893 26.04637 24.18765
#
# Velocity S-wave (km/s) = 3.41984 3.69356 3.55933
# Velocity P-wave (km/s) = 6.51064 7.01057 6.76523
#
# Compressibility (1/GPa) = 0.01954760
#
# Stress axis : x y z
#
# Youngs Moduli (GPa) = 51.75940 52.60210 84.37004
#
# Poissons Ratio (x) = 0.32618 0.40276
# Poissons Ratio (y) = 0.32095 0.36645
# Poissons Ratio (z) = 0.24709 0.22847
#
# Static dielectric constant tensor:
#      x y z
#    x 3.415770 0.000000 0.019810 
#    y 0.000000 3.065610 0.000000 
#    z 0.019810 0.000000 3.532060 
# 
# 
# High freq. dielectric constant tensor:
#      x y z
#    x 1.745470 0.000000 0.005050 
#    y 0.000000 1.704180 0.000000 
#    z 0.005050 0.000000 1.751970 
# 
# From -- ./inp_files/26556.got.cif
#   From: 2010.03.12/outbox.cif.g09.slc.cpg/sg5_14_cif.got.tgz:26556.got - 2010.03.31 09:47:26.
