data_PCOD8048630
_publ_section_title
;
Structure prediction by ZEFSAII (Michael W. Deem and Ramdas Pophale) SiO2 
 PCOD8048630
Probable space group: C 2
;
_chemical_formula_sum "Si O2"
_cell_formula_units_Z 26
_cell_length_a 15.003451
_cell_length_b 8.459197
_cell_length_c 12.506478
_cell_angle_alpha 90.000000
_cell_angle_beta 48.956445
_cell_angle_gamma 90.000000
_cell_volume 1197.148379
_symmetry_space_group_name_H-M "C 2"
_symmetry_group_IT_number 5
_symmetry_cell_setting 'monoclinic'
loop_
_space_group_symop_operation_xyz
x,y,z
-x,y,-z
1/2+x,1/2+y,z
1/2-x,1/2+y,-z
loop_
_atom_site_type_symbol
_atom_site_label
_atom_site_fract_x
_atom_site_fract_y
_atom_site_fract_z
Si Si1 0.748008 0.041760 0.406854
Si Si2 0.665787 0.827236 0.769654
Si Si3 0.389117 0.887743 0.662651
Si Si4 0.500000 0.593037 0.000000
Si Si5 0.473881 0.038247 0.263899
Si Si6 0.391240 0.521728 0.665891
Si Si7 0.510595 0.399320 0.777682
O O1 0.789552 0.223449 0.366456
O O2 0.642719 0.034414 0.572379
O O3 0.716980 0.980734 0.311272
O O4 0.855568 0.935208 0.365335
O O5 0.556741 0.936878 0.817001
O O6 0.774766 0.927662 0.725944
O O7 0.614778 0.705564 0.897724
O O8 0.500000 0.913431 0.500000
O O9 0.355979 0.704666 0.696534
O O10 0.416615 0.961131 0.757613
O O11 0.519941 0.481638 0.086402
O O12 0.509804 0.212220 0.198030
O O13 0.500000 0.485742 0.500000
O O14 0.423105 0.469146 0.759093
#
# Coordination Sequence:
#
# PCOD8048630 Si02
#       7
#     4   4   4   2   4   4   4
#     4  10  19  35  59  94 129 159 196 255 316 365
#     4  11  23  40  63  87 127 163 207 253 298 372
#     4   9  19  33  56  93 133 155 187 239 312 381
#     4  10  26  48  58  82 120 176 218 248 296 356
#     4  11  20  35  62  95 122 161 202 258 318 359
#     4  11  21  38  66 101 126 155 197 258 321 363
#     4  11  23  40  63  87 127 163 207 254 299 371
#
# _framework density 21.718278000000002
#
# number of rings (size 3 to 8) (size 9 to 14) (size 15 to 20)
#    0.000    1.538    0.000    6.462    0.000    4.308 
#    0.000    9.231    0.000    0.000    0.000    0.000 
#    0.000    0.000    0.000    0.000    0.000    0.000 
#
# Total GULP energy -161205.511492 kJ/mol
# GULP energy per Si atom -12400.423961 kJ/mol
# Density = 2.166885 g / cm^3
# Si number density = 21.718278 Si / 1000 Ang^3
#
#
#
# Elastic Constant Matrix: (Units=GPa)
#
#
# Indices 1 2 3 4 5 6 
#
# 1 106.9530 50.1582 12.3323 0.0000 19.6188 0.0000
# 2 50.1582 141.6545 40.6147 0.0000 9.6556 0.0000
# 3 12.3323 40.6147 67.9286 0.0000 17.0035 0.0000
# 4 0.0000 0.0000 0.0000 21.0062 0.0000 4.6398
# 5 19.6188 9.6556 17.0035 0.0000 28.6926 0.0000
# 6 0.0000 0.0000 0.0000 4.6398 0.0000 43.1348
#
#
#
# Elastic Compliance Matrix: (Units=1/GPa)
#
#
# Indices 1 2 3 4 5 6 
#
# 1 0.012873 -0.004731 0.002696 0.000000 -0.008808 0.000000
# 2 -0.004731 0.010259 -0.006130 0.000000 0.003415 0.000000
# 3 0.002696 -0.006130 0.020950 0.000000 -0.012196 0.000000
# 4 0.000000 0.000000 0.000000 0.048763 0.000000 -0.005245
# 5 -0.008808 0.003415 -0.012196 0.000000 0.046953 0.000000
# 6 0.000000 0.000000 0.000000 -0.005245 0.000000 0.023747
#
#
# Mechanical properties :
#
#
# Convention : Reuss Voigt Hill
#
# Bulk Modulus (GPa) = 36.03198 58.08296 47.05747
# Shear Modulus (GPa) = 26.43726 32.79545 29.61636
#
# Velocity S-wave (km/s) = 3.49274 3.89014 3.69678
# Velocity P-wave (km/s) = 5.73518 6.85415 6.31948
#
# Compressibility (1/GPa) = 0.02775313
#
# Stress axis : x y z
#
# Youngs Moduli (GPa) = 77.67944 97.47118 47.73312
#
# Poissons Ratio (x) = 0.46114 -0.12870
# Poissons Ratio (y) = 0.36750 0.29261
# Poissons Ratio (z) = -0.20945 0.59751
#
# Static dielectric constant tensor:
#      x y z
#    x 4.145860 0.000000 0.098140 
#    y 0.000000 4.159350 0.000000 
#    z 0.098140 0.000000 3.628880 
# 
# 
# High freq. dielectric constant tensor:
#      x y z
#    x 1.860470 0.000000 0.007480 
#    y 0.000000 1.874310 0.000000 
#    z 0.007480 0.000000 1.824460 
# 
# From -- ./inp_files/41618.got.cif
#   From: 2010.03.12/outbox.cif.g09.slc.cpg/sg5_21_cif.got.tgz:41618.got - 2010.03.31 09:47:26.
