data_PCOD8048423
_publ_section_title
;
Structure prediction by ZEFSAII (Michael W. Deem and Ramdas Pophale) SiO2 
 PCOD8048423
Probable space group: C 2
;
_chemical_formula_sum "Si O2"
_cell_formula_units_Z 24
_cell_length_a 13.385539
_cell_length_b 14.945189
_cell_length_c 8.817417
_cell_angle_alpha 90.000000
_cell_angle_beta 43.997900
_cell_angle_gamma 90.000000
_cell_volume 1225.274640
_symmetry_space_group_name_H-M "C 2"
_symmetry_group_IT_number 5
_symmetry_cell_setting 'monoclinic'
loop_
_space_group_symop_operation_xyz
x,y,z
-x,y,-z
1/2+x,1/2+y,z
1/2-x,1/2+y,-z
loop_
_atom_site_type_symbol
_atom_site_label
_atom_site_fract_x
_atom_site_fract_y
_atom_site_fract_z
Si Si1 0.602974 0.134980 0.618640
Si Si2 0.500000 0.259095 0.000000
Si Si3 0.311638 0.152723 0.802317
Si Si4 0.759825 0.820576 0.061169
Si Si5 0.347893 0.567108 0.532718
Si Si6 0.649381 0.509389 0.141585
Si Si7 0.500000 0.731565 0.500000
O O1 0.450294 0.099497 0.721967
O O2 0.681175 0.175189 0.384046
O O3 0.712993 0.060516 0.565002
O O4 0.576230 0.202771 0.784705
O O5 0.375153 0.320804 0.070359
O O6 0.302162 0.249590 0.887364
O O7 0.180083 0.087045 0.984325
O O8 0.602378 0.797617 0.294549
O O9 0.765820 0.919203 0.986514
O O10 0.475041 0.500109 0.337976
O O11 0.290557 0.539935 0.760790
O O12 0.412043 0.668208 0.478473
#
# Coordination Sequence:
#
# PCOD8048423 Si02
#       7
#     4   2   4   4   4   4   2
#     4  10  20  35  65  83 120 159 201 244 302 360
#     4  10  20  36  60  90 116 168 202 234 312 362
#     4  10  21  38  59  90 119 158 203 256 295 343
#     4  11  21  39  62  88 124 157 206 248 300 358
#     4  10  19  40  62  86 117 165 201 234 310 359
#     4  10  22  37  62  88 119 161 201 251 296 359
#     4  10  18  38  64  82 118 164 194 240 300 362
#
# _framework density 19.587444000000001
#
# number of rings (size 3 to 8) (size 9 to 14) (size 15 to 20)
#    0.000    2.000    5.000    1.000    0.000    8.667 
#    0.000    0.000    7.333    0.000    0.000    0.000 
#    0.000    0.000    0.000    0.000    0.000    0.000 
#
# Total GULP energy -148697.878497 kJ/mol
# GULP energy per Si atom -12391.489875 kJ/mol
# Density = 1.954286 g / cm^3
# Si number density = 19.587444 Si / 1000 Ang^3
#
#
#
# Elastic Constant Matrix: (Units=GPa)
#
#
# Indices 1 2 3 4 5 6 
#
# 1 99.4650 18.4266 40.1722 0.0000 10.7746 0.0000
# 2 18.4266 101.0532 48.6189 0.0000 5.6174 0.0000
# 3 40.1722 48.6189 137.2996 0.0000 18.7527 0.0000
# 4 0.0000 0.0000 0.0000 36.6733 0.0000 -1.1843
# 5 10.7746 5.6174 18.7527 0.0000 26.3333 0.0000
# 6 0.0000 0.0000 0.0000 -1.1843 0.0000 12.0495
#
#
#
# Elastic Compliance Matrix: (Units=1/GPa)
#
#
# Indices 1 2 3 4 5 6 
#
# 1 0.011587 -0.000612 -0.002818 0.000000 -0.002604 0.000000
# 2 -0.000612 0.011967 -0.004147 0.000000 0.000651 0.000000
# 3 -0.002818 -0.004147 0.010300 0.000000 -0.005297 0.000000
# 4 0.000000 0.000000 0.000000 0.027355 0.000000 0.002688
# 5 -0.002604 0.000651 -0.005297 0.000000 0.042673 0.000000
# 6 0.000000 0.000000 0.000000 0.002688 0.000000 0.083255
#
#
# Mechanical properties :
#
#
# Convention : Reuss Voigt Hill
#
# Bulk Modulus (GPa) = 53.47923 61.36149 57.42036
# Shear Modulus (GPa) = 23.97798 30.38458 27.18128
#
# Velocity S-wave (km/s) = 3.50258 3.94284 3.72921
# Velocity P-wave (km/s) = 6.61207 7.21962 6.92251
#
# Compressibility (1/GPa) = 0.01869885
#
# Stress axis : x y z
#
# Youngs Moduli (GPa) = 86.30080 83.56609 97.08866
#
# Poissons Ratio (x) = 0.05118 0.27358
# Poissons Ratio (y) = 0.05285 0.40265
# Poissons Ratio (z) = 0.24318 0.34657
#
# Static dielectric constant tensor:
#      x y z
#    x 3.678480 0.000000 -0.043360 
#    y 0.000000 3.129450 0.000000 
#    z -0.043360 0.000000 3.840160 
# 
# 
# High freq. dielectric constant tensor:
#      x y z
#    x 1.756160 0.000000 -0.000310 
#    y 0.000000 1.720410 0.000000 
#    z -0.000310 0.000000 1.786910 
# 
# From -- ./inp_files/24536.got.cif
#   From: 2010.03.12/outbox.cif.g09.slc.cpg/sg5_13_cif.got.tgz:24536.got - 2010.03.31 09:47:26.
