data_PCOD8048650
_publ_section_title
;
Structure prediction by ZEFSAII (Michael W. Deem and Ramdas Pophale) SiO2 
 PCOD8048650
Probable space group: C 2
;
_chemical_formula_sum "Si O2"
_cell_formula_units_Z 26
_cell_length_a 26.555944
_cell_length_b 7.169954
_cell_length_c 10.828720
_cell_angle_alpha 90.000000
_cell_angle_beta 145.997570
_cell_angle_gamma 90.000000
_cell_volume 1153.039526
_symmetry_space_group_name_H-M "C 2"
_symmetry_group_IT_number 5
_symmetry_cell_setting 'monoclinic'
loop_
_space_group_symop_operation_xyz
x,y,z
-x,y,-z
1/2+x,1/2+y,z
1/2-x,1/2+y,-z
loop_
_atom_site_type_symbol
_atom_site_label
_atom_site_fract_x
_atom_site_fract_y
_atom_site_fract_z
Si Si1 0.348599 0.652280 0.376446
Si Si2 0.157808 0.739943 0.691285
Si Si3 0.022852 0.227851 0.860790
Si Si4 0.000000 0.932148 0.000000
Si Si5 0.510534 0.140231 0.217432
Si Si6 0.643706 0.750768 0.880356
Si Si7 0.150305 0.686512 0.945491
O O1 0.341134 0.431834 0.379469
O O2 0.415848 0.710529 0.621681
O O3 0.389130 0.709638 0.325134
O O4 0.249730 0.743821 0.196464
O O5 0.089371 0.601155 0.479090
O O6 0.126518 0.787011 0.767730
O O7 0.258519 0.652400 0.899799
O O8 0.030969 0.445188 0.919214
O O9 0.075292 0.171876 0.842870
O O10 0.058402 0.080559 0.036938
O O11 0.048929 0.784648 0.192209
O O12 0.425735 0.242637 0.110627
O O13 0.650829 0.970006 0.911987
#
# Coordination Sequence:
#
# PCOD8048650 Si02
#       7
#     4   4   4   2   4   4   4
#     4  10  19  35  62  96 126 154 192 246 311 373
#     4  10  19  35  62  96 126 154 192 246 311 373
#     4  11  23  42  64  84 124 160 204 253 302 346
#     4  12  26  44  62  86 112 170 222 254 272 354
#     4  11  23  42  64  84 124 160 204 253 302 346
#     4   9  20  36  60  94 127 155 191 244 314 374
#     4   9  20  36  60  94 127 155 191 244 314 374
#
# _framework density 22.549097
#
# number of rings (size 3 to 8) (size 9 to 14) (size 15 to 20)
#    0.000    1.846    1.538    2.308    2.154    4.923 
#    0.000    1.538    0.000    0.000    0.000    0.000 
#    0.000    0.000    0.000    0.000    0.000    0.000 
#
# Total GULP energy -161048.714074 kJ/mol
# GULP energy per Si atom -12388.362621 kJ/mol
# Density = 2.249777 g / cm^3
# Si number density = 22.549097 Si / 1000 Ang^3
#
#
#
# Elastic Constant Matrix: (Units=GPa)
#
#
# Indices 1 2 3 4 5 6 
#
# 1 86.6879 22.0014 53.0434 0.0000 -7.2574 0.0000
# 2 22.0014 68.5974 7.7283 0.0000 -7.8290 0.0000
# 3 53.0434 7.7283 87.6145 0.0000 2.1879 0.0000
# 4 0.0000 0.0000 0.0000 26.7788 0.0000 -9.3096
# 5 -7.2574 -7.8290 2.1879 0.0000 20.6978 0.0000
# 6 0.0000 0.0000 0.0000 -9.3096 0.0000 37.8642
#
#
#
# Elastic Compliance Matrix: (Units=1/GPa)
#
#
# Indices 1 2 3 4 5 6 
#
# 1 0.020839 -0.004498 -0.012392 0.000000 0.006915 0.000000
# 2 -0.004498 0.016404 0.001164 0.000000 0.004504 0.000000
# 3 -0.012392 0.001164 0.018961 0.000000 -0.005909 0.000000
# 4 0.000000 0.000000 0.000000 0.040833 0.000000 0.010040
# 5 0.006915 0.004504 -0.005909 0.000000 0.053068 0.000000
# 6 0.000000 0.000000 0.000000 0.010040 0.000000 0.028879
#
#
# Mechanical properties :
#
#
# Convention : Reuss Voigt Hill
#
# Bulk Modulus (GPa) = 40.40346 45.38289 42.89317
# Shear Modulus (GPa) = 22.86383 27.74327 25.30355
#
# Velocity S-wave (km/s) = 3.18772 3.51144 3.35349
# Velocity P-wave (km/s) = 5.61299 6.05064 5.83592
#
# Compressibility (1/GPa) = 0.02475036
#
# Stress axis : x y z
#
# Youngs Moduli (GPa) = 47.98716 60.96246 52.73994
#
# Poissons Ratio (x) = 0.27423 0.65356
# Poissons Ratio (y) = 0.21586 -0.06139
# Poissons Ratio (z) = 0.59466 -0.07096
#
# Static dielectric constant tensor:
#      x y z
#    x 4.095010 0.000000 0.118630 
#    y 0.000000 4.068070 0.000000 
#    z 0.118630 0.000000 3.959490 
# 
# 
# High freq. dielectric constant tensor:
#      x y z
#    x 1.863870 0.000000 -0.000180 
#    y 0.000000 1.903830 0.000000 
#    z -0.000180 0.000000 1.863760 
# 
# From -- ./inp_files/47942.got.cif
#   From: 2010.03.12/outbox.cif.g09.slc.cpg/sg5_24_cif.got.tgz:47942.got - 2010.03.31 09:47:26.
