data_PCOD8048342
_publ_section_title
;
Structure prediction by ZEFSAII (Michael W. Deem and Ramdas Pophale) SiO2 
 PCOD8048342
Probable space group: C 2
;
_chemical_formula_sum "Si O2"
_cell_formula_units_Z 30
_cell_length_a 8.807629
_cell_length_b 17.914150
_cell_length_c 11.760730
_cell_angle_alpha 90.000000
_cell_angle_beta 54.093212
_cell_angle_gamma 90.000000
_cell_volume 1503.002121
_symmetry_space_group_name_H-M "C 2"
_symmetry_group_IT_number 5
_symmetry_cell_setting 'monoclinic'
loop_
_space_group_symop_operation_xyz
x,y,z
-x,y,-z
1/2+x,1/2+y,z
1/2-x,1/2+y,-z
loop_
_atom_site_type_symbol
_atom_site_label
_atom_site_fract_x
_atom_site_fract_y
_atom_site_fract_z
Si Si1 0.459232 0.030540 0.769194
Si Si2 0.800854 0.305182 0.075519
Si Si3 0.223433 0.890392 0.893598
Si Si4 0.001868 0.684145 0.134506
Si Si5 0.669208 0.407834 0.573831
Si Si6 0.263735 0.422916 0.709368
Si Si7 0.197142 0.284419 0.346544
Si Si8 0.500000 0.003018 0.500000
O O1 0.418717 0.108285 0.847574
O O2 0.513886 0.048895 0.612686
O O3 0.278011 0.976707 0.847673
O O4 0.622171 0.992608 0.775061
O O5 0.638939 0.248258 0.116890
O O6 0.780556 0.349190 0.201657
O O7 0.813116 0.368789 0.974043
O O8 0.000000 0.262247 0.000000
O O9 0.319500 0.835624 0.758945
O O10 0.000000 0.881354 0.000000
O O11 0.791531 0.704890 0.271302
O O12 0.000000 0.679220 0.000000
O O13 0.470186 0.450741 0.657905
O O14 0.746980 0.394935 0.414780
O O15 0.653785 0.325998 0.636505
O O16 0.814164 0.452547 0.589216
O O17 0.000000 0.272710 0.500000
#
# Coordination Sequence:
#
# PCOD8048342 Si02
#       8
#     4   4   4   4   4   4   4   2
#     4  11  25  43  66  98 134 180 219 282 339 403
#     4  12  23  40  67  99 130 171 220 284 324 401
#     4  12  22  42  74 100 127 179 236 276 332 407
#     4  12  27  48  64  95 146 176 221 283 349 400
#     4  10  18  35  68  96 124 161 223 279 314 384
#     4  10  21  37  62  99 126 166 221 271 325 388
#     4  12  21  41  72  96 127 181 225 270 334 408
#     4  10  20  42  64  94 136 168 224 272 326 402
#
# _framework density 19.960051
#
# number of rings (size 3 to 8) (size 9 to 14) (size 15 to 20)
#    0.000    0.800    7.333    0.800    1.867    0.533 
#    7.200    1.333    0.000    0.000    0.000    0.000 
#    0.000    0.000    0.000    0.000    0.000    0.000 
#
# Total GULP energy -185871.489610 kJ/mol
# GULP energy per Si atom -12391.432641 kJ/mol
# Density = 1.991462 g / cm^3
# Si number density = 19.960051 Si / 1000 Ang^3
#
#
#
# Elastic Constant Matrix: (Units=GPa)
#
#
# Indices 1 2 3 4 5 6 
#
# 1 107.9854 24.3714 38.2586 0.0000 -1.3437 0.0000
# 2 24.3714 92.6709 44.1348 0.0000 9.8223 0.0000
# 3 38.2586 44.1348 101.5167 0.0000 -3.4366 0.0000
# 4 0.0000 0.0000 0.0000 23.0848 0.0000 3.1489
# 5 -1.3437 9.8223 -3.4366 0.0000 30.3668 0.0000
# 6 0.0000 0.0000 0.0000 3.1489 0.0000 32.6025
#
#
#
# Elastic Compliance Matrix: (Units=1/GPa)
#
#
# Indices 1 2 3 4 5 6 
#
# 1 0.010788 -0.001208 -0.003524 0.000000 0.000469 0.000000
# 2 -0.001208 0.014576 -0.006066 0.000000 -0.005455 0.000000
# 3 -0.003524 -0.006066 0.013931 0.000000 0.003383 0.000000
# 4 0.000000 0.000000 0.000000 0.043897 0.000000 -0.004240
# 5 0.000469 -0.005455 0.003383 0.000000 0.035099 0.000000
# 6 0.000000 0.000000 0.000000 -0.004240 0.000000 0.031082
#
#
# Mechanical properties :
#
#
# Convention : Reuss Voigt Hill
#
# Bulk Modulus (GPa) = 56.50842 57.30029 56.90435
# Shear Modulus (GPa) = 28.26963 30.23802 29.25383
#
# Velocity S-wave (km/s) = 3.76747 3.89643 3.83249
# Velocity P-wave (km/s) = 6.87731 7.00091 6.93938
#
# Compressibility (1/GPa) = 0.01769648
#
# Stress axis : x y z
#
# Youngs Moduli (GPa) = 92.69806 68.60671 71.78422
#
# Poissons Ratio (x) = 0.08290 0.25299
# Poissons Ratio (y) = 0.11201 0.43546
# Poissons Ratio (z) = 0.32670 0.41618
#
# Static dielectric constant tensor:
#      x y z
#    x 3.972750 0.000000 -0.023560 
#    y 0.000000 3.334380 0.000000 
#    z -0.023560 0.000000 3.925450 
# 
# 
# High freq. dielectric constant tensor:
#      x y z
#    x 1.796520 0.000000 0.007320 
#    y 0.000000 1.735300 0.000000 
#    z 0.007320 0.000000 1.796810 
# 
# From -- ./inp_files/36980.got.cif
#   From: 2010.03.12/outbox.cif.g09.slc.cpg/sg5_19_cif.got.tgz:36980.got - 2010.03.31 09:47:26.
