data_PCOD8048162
_publ_section_title
;
Structure prediction by ZEFSAII (Michael W. Deem and Ramdas Pophale) SiO2 
 PCOD8048162
Probable space group: C 2
;
_chemical_formula_sum "Si O2"
_cell_formula_units_Z 30
_cell_length_a 24.052815
_cell_length_b 13.634326
_cell_length_c 9.309764
_cell_angle_alpha 90.000000
_cell_angle_beta 150.506297
_cell_angle_gamma 90.000000
_cell_volume 1503.116722
_symmetry_space_group_name_H-M "C 2"
_symmetry_group_IT_number 5
_symmetry_cell_setting 'monoclinic'
loop_
_space_group_symop_operation_xyz
x,y,z
-x,y,-z
1/2+x,1/2+y,z
1/2-x,1/2+y,-z
loop_
_atom_site_type_symbol
_atom_site_label
_atom_site_fract_x
_atom_site_fract_y
_atom_site_fract_z
Si Si1 0.291689 0.378000 0.516541
Si Si2 0.782073 0.208840 0.340833
Si Si3 0.687602 0.495967 0.700030
Si Si4 0.500000 0.661163 0.000000
Si Si5 0.246005 0.915800 0.136863
Si Si6 0.376181 0.969782 0.666259
Si Si7 0.937486 0.987341 0.052479
Si Si8 0.633381 0.178644 0.271507
O O1 0.247609 0.444501 0.286554
O O2 0.195570 0.381916 0.422992
O O3 0.311434 0.266063 0.509979
O O4 0.407516 0.417155 0.850008
O O5 0.899071 0.223947 0.696873
O O6 0.750666 0.297708 0.162491
O O7 0.671193 0.197336 0.192123
O O8 0.795719 0.112709 0.270872
O O9 0.558254 0.461841 0.392537
O O10 0.738220 0.450095 0.957178
O O11 0.560128 0.596684 0.010027
O O12 0.366014 0.954566 0.471806
O O13 0.149812 0.970890 0.013881
O O14 0.317145 0.073442 0.572157
O O15 0.500000 0.962195 0.000000
O O16 0.500000 0.176805 0.000000
#
# Coordination Sequence:
#
# PCOD8048162 Si02
#       8
#     4   4   4   2   4   4   4   4
#     4  11  19  36  66  89 117 157 218 256 302 364
#     4  11  21  38  64  97 126 164 211 261 317 366
#     4  11  22  38  60  92 133 159 201 266 317 373
#     4  10  20  36  70  96 118 160 218 270 296 362
#     4  11  24  37  60  93 129 164 201 258 324 374
#     4  10  22  40  60  85 124 166 207 253 307 374
#     4  10  17  37  62  92 117 157 207 258 311 350
#     4  11  21  36  64  95 120 154 215 258 302 369
#
# _framework density 19.958528000000001
#
# number of rings (size 3 to 8) (size 9 to 14) (size 15 to 20)
#    0.000    1.333    6.667    2.000    0.933    1.067 
#    0.000    0.667    0.000    3.200    0.000    0.000 
#    0.000    0.000    0.000    0.000    0.000    0.000 
#
# Total GULP energy -185842.774868 kJ/mol
# GULP energy per Si atom -12389.518325 kJ/mol
# Density = 1.991310 g / cm^3
# Si number density = 19.958528 Si / 1000 Ang^3
#
#
#
# Elastic Constant Matrix: (Units=GPa)
#
#
# Indices 1 2 3 4 5 6 
#
# 1 74.6151 34.0001 55.4179 0.0000 -12.7407 0.0000
# 2 34.0001 103.5230 41.2491 0.0000 -3.9927 0.0000
# 3 55.4179 41.2491 125.0263 0.0000 -18.0442 0.0000
# 4 0.0000 0.0000 0.0000 26.5523 0.0000 -3.4988
# 5 -12.7407 -3.9927 -18.0442 0.0000 37.8845 0.0000
# 6 0.0000 0.0000 0.0000 -3.4988 0.0000 29.8457
#
#
#
# Elastic Compliance Matrix: (Units=1/GPa)
#
#
# Indices 1 2 3 4 5 6 
#
# 1 0.021473 -0.003821 -0.007810 0.000000 0.003099 0.000000
# 2 -0.003821 0.011815 -0.002373 0.000000 -0.001170 0.000000
# 3 -0.007810 -0.002373 0.012701 0.000000 0.003173 0.000000
# 4 0.000000 0.000000 0.000000 0.038252 0.000000 0.004484
# 5 0.003099 -0.001170 0.003173 0.000000 0.028826 0.000000
# 6 0.000000 0.000000 0.000000 0.004484 0.000000 0.034031
#
#
# Mechanical properties :
#
#
# Convention : Reuss Voigt Hill
#
# Bulk Modulus (GPa) = 55.61574 62.72207 59.16890
# Shear Modulus (GPa) = 27.60887 30.35632 28.98259
#
# Velocity S-wave (km/s) = 3.72333 3.90419 3.81483
# Velocity P-wave (km/s) = 6.81251 7.19848 7.00815
#
# Compressibility (1/GPa) = 0.01798052
#
# Stress axis : x y z
#
# Youngs Moduli (GPa) = 46.57008 84.63714 78.73363
#
# Poissons Ratio (x) = 0.32339 0.61491
# Poissons Ratio (y) = 0.17794 0.18686
# Poissons Ratio (z) = 0.36372 0.20087
#
# Static dielectric constant tensor:
#      x y z
#    x 3.520610 0.000000 0.154190 
#    y 0.000000 3.965810 0.000000 
#    z 0.154190 0.000000 3.689700 
# 
# 
# High freq. dielectric constant tensor:
#      x y z
#    x 1.759090 0.000000 0.015070 
#    y 0.000000 1.794230 0.000000 
#    z 0.015070 0.000000 1.764420 
# 
# From -- ./inp_files/31024.got.cif
#   From: 2010.03.12/outbox.cif.g09.slc.cpg/sg5_16_cif.got.tgz:31024.got - 2010.03.31 09:47:26.
