data_PCOD8048118
_publ_section_title
;
Structure prediction by ZEFSAII (Michael W. Deem and Ramdas Pophale) SiO2 
 PCOD8048118
Probable space group: C 2
;
_chemical_formula_sum "Si O2"
_cell_formula_units_Z 30
_cell_length_a 15.619144
_cell_length_b 20.436820
_cell_length_c 15.498290
_cell_angle_alpha 90.000000
_cell_angle_beta 161.634800
_cell_angle_gamma 90.000000
_cell_volume 1558.709008
_symmetry_space_group_name_H-M "C 2"
_symmetry_group_IT_number 5
_symmetry_cell_setting 'monoclinic'
loop_
_space_group_symop_operation_xyz
x,y,z
-x,y,-z
1/2+x,1/2+y,z
1/2-x,1/2+y,-z
loop_
_atom_site_type_symbol
_atom_site_label
_atom_site_fract_x
_atom_site_fract_y
_atom_site_fract_z
Si Si1 0.271700 0.366330 0.211574
Si Si2 0.299546 0.065368 0.734482
Si Si3 0.210052 0.006346 0.848445
Si Si4 0.000000 0.185712 0.500000
Si Si5 0.529758 0.781394 0.687565
Si Si6 0.531735 0.453888 0.223147
Si Si7 0.927951 0.427527 0.334305
Si Si8 0.024463 0.809656 0.761189
O O1 0.500000 0.381593 0.500000
O O2 0.203573 0.432795 0.094793
O O3 0.384976 0.310673 0.253194
O O4 0.000000 0.340783 0.000000
O O5 0.260726 0.140699 0.724676
O O6 0.500000 0.029407 0.000000
O O7 0.994607 0.037289 0.420783
O O8 0.519305 0.050698 0.869427
O O9 0.052616 0.008385 0.788483
O O10 0.943370 0.227627 0.361030
O O11 0.554173 0.849871 0.661315
O O12 0.265448 0.777153 0.496018
O O13 0.769774 0.767962 0.984031
O O14 0.849171 0.463528 0.511301
O O15 0.468973 0.383935 0.203025
O O16 0.362516 0.457150 0.971453
O O17 0.000000 0.445578 0.500000
#
# Coordination Sequence:
#
# PCOD8048118 Si02
#       8
#     4   4   4   2   4   4   4   4
#     4  11  20  31  55  79 107 143 184 209 268 331
#     4  12  23  36  50  75 107 137 188 222 244 306
#     4  11  21  36  51  73 110 151 175 222 270 304
#     4  12  26  36  56  80 106 152 194 218 256 316
#     4  10  21  35  52  71 109 145 179 216 274 301
#     4   9  19  31  50  73 103 141 180 211 265 328
#     4  10  17  32  50  78 104 139 177 217 259 329
#     4   9  20  34  49  75 105 139 178 223 258 326
#
# _framework density 19.246697999999999
#
# number of rings (size 3 to 8) (size 9 to 14) (size 15 to 20)
#    0.000    1.600    2.000    4.000    1.867    4.267 
#    0.000    0.000    0.000    0.000    0.000    0.000 
#    0.000   37.333    0.000    0.000    0.000    0.000 
#
# Total GULP energy -185821.039873 kJ/mol
# GULP energy per Si atom -12388.069325 kJ/mol
# Density = 1.920289 g / cm^3
# Si number density = 19.246698 Si / 1000 Ang^3
#
#
#
# Elastic Constant Matrix: (Units=GPa)
#
#
# Indices 1 2 3 4 5 6 
#
# 1 69.9352 33.9877 -1.2530 0.0054 -3.8200 0.0052
# 2 33.9877 47.9146 14.9781 0.0074 11.0118 0.0004
# 3 -1.2530 14.9781 94.0201 0.0169 11.8863 0.0069
# 4 0.0054 0.0074 0.0169 11.6156 -0.0014 4.3746
# 5 -3.8200 11.0118 11.8863 -0.0014 26.8734 0.0031
# 6 0.0052 0.0004 0.0069 4.3746 0.0031 25.1719
#
#
#
# Elastic Compliance Matrix: (Units=1/GPa)
#
#
# Indices 1 2 3 4 5 6 
#
# 1 0.025280 -0.021242 0.002295 0.000002 0.011283 -0.000007
# 2 -0.021242 0.041518 -0.004623 -0.000016 -0.017987 0.000010
# 3 0.002295 -0.004623 0.011781 -0.000015 -0.002990 -0.000001
# 4 0.000002 -0.000016 -0.000015 0.092120 0.000020 -0.016009
# 5 0.011283 -0.017987 -0.002990 0.000020 0.047509 -0.000011
# 6 -0.000007 0.000010 -0.000001 -0.016009 -0.000011 0.042509
#
#
# Mechanical properties :
#
#
# Convention : Reuss Voigt Hill
#
# Bulk Modulus (GPa) = 31.81002 34.14394 32.97698
# Shear Modulus (GPa) = 15.70660 23.67600 19.69130
#
# Velocity S-wave (km/s) = 2.85979 3.51113 3.20206
# Velocity P-wave (km/s) = 5.24098 5.84945 5.55356
#
# Compressibility (1/GPa) = 0.03143664
#
# Stress axis : x y z
#
# Youngs Moduli (GPa) = 39.55703 24.08616 84.88131
#
# Poissons Ratio (x) = 0.51165 -0.19477
# Poissons Ratio (y) = 0.84029 0.39242
# Poissons Ratio (z) = -0.09077 0.11135
#
# Static dielectric constant tensor:
#      x y z
#    x 3.921260 0.000000 0.310740 
#    y 0.000000 3.001710 0.000000 
#    z 0.310740 0.000000 3.978600 
# 
# 
# High freq. dielectric constant tensor:
#      x y z
#    x 1.757900 0.000000 0.010340 
#    y 0.000000 1.676950 0.000000 
#    z 0.010340 0.000000 1.771320 
# 
# From -- ./inp_files/54996.got.cif
#   From: 2010.03.12/outbox.cif.g09.slc.cpg/sg5_28_cif.got.tgz:54996.got - 2010.03.31 09:47:26.
