data_PCOD8048777
_publ_section_title
;
Structure prediction by ZEFSAII (Michael W. Deem and Ramdas Pophale) SiO2 
 PCOD8048777
Probable space group: C 2
;
_chemical_formula_sum "Si O2"
_cell_formula_units_Z 32
_cell_length_a 30.580668
_cell_length_b 11.748907
_cell_length_c 9.126138
_cell_angle_alpha 90.000000
_cell_angle_beta 26.780726
_cell_angle_gamma 90.000000
_cell_volume 1477.408963
_symmetry_space_group_name_H-M "C 2"
_symmetry_group_IT_number 5
_symmetry_cell_setting 'monoclinic'
loop_
_space_group_symop_operation_xyz
x,y,z
-x,y,-z
1/2+x,1/2+y,z
1/2-x,1/2+y,-z
loop_
_atom_site_type_symbol
_atom_site_label
_atom_site_fract_x
_atom_site_fract_y
_atom_site_fract_z
Si Si1 0.098154 0.021500 0.286226
Si Si2 0.302199 0.706259 0.190676
Si Si3 0.630330 0.937298 0.904684
Si Si4 0.773266 0.364923 0.686041
Si Si5 0.095061 0.967746 0.618079
Si Si6 0.393665 0.217442 0.383800
Si Si7 0.439548 0.982980 0.329368
Si Si8 0.234610 0.116512 0.391694
O O1 0.078633 0.035985 0.517435
O O2 0.000000 0.986266 0.500000
O O3 0.137621 0.142351 0.113878
O O4 0.173278 0.922261 0.027425
O O5 0.343177 0.834248 0.066707
O O6 0.187013 0.700871 0.501770
O O7 0.321671 0.647727 0.289834
O O8 0.688651 0.918570 0.579188
O O9 0.662827 0.057187 0.878022
O O10 0.513642 0.944675 0.234632
O O11 0.854266 0.389513 0.569052
O O12 0.751743 0.231082 0.742224
O O13 0.177074 0.025221 0.469653
O O14 0.126902 0.838755 0.477495
O O15 0.000000 0.969467 0.000000
O O16 0.390937 0.108427 0.502537
O O17 0.500000 0.225376 0.000000
O O18 0.500000 0.992494 0.000000
#
# Coordination Sequence:
#
# PCOD8048777 Si02
#       8
#     4   4   4   4   4   4   4   4
#     4  12  26  44  66  95 139 181 232 290 350 410
#     4  11  21  40  70  99 136 183 229 284 350 405
#     4  10  20  37  70 103 134 175 230 275 330 419
#     4  10  22  38  65  98 136 180 222 279 341 405
#     4  11  26  42  66 100 132 180 237 288 343 414
#     4  10  19  37  68  99 134 178 224 280 338 411
#     4   9  17  35  62 101 133 173 224 268 336 406
#     4  11  21  39  67 100 136 174 230 280 332 411
#
# _framework density 21.659541000000001
#
# number of rings (size 3 to 8) (size 9 to 14) (size 15 to 20)
#    0.000    1.500    3.750    2.250    0.000    6.500 
#    0.000    0.000    0.000    0.000    0.000    0.000 
#    0.000    0.000    0.000    0.000    0.000    0.000 
#
# Total GULP energy -198373.652643 kJ/mol
# GULP energy per Si atom -12398.353290 kJ/mol
# Density = 2.161024 g / cm^3
# Si number density = 21.659541 Si / 1000 Ang^3
#
#
#
# Elastic Constant Matrix: (Units=GPa)
#
#
# Indices 1 2 3 4 5 6 
#
# 1 125.2464 62.8239 58.2929 0.0000 -31.6393 0.0000
# 2 62.8239 170.5177 51.0882 0.0000 -20.8638 0.0000
# 3 58.2929 51.0882 83.8427 0.0000 -22.6011 0.0000
# 4 0.0000 0.0000 0.0000 20.7467 0.0000 -12.7053
# 5 -31.6393 -20.8638 -22.6011 0.0000 46.6373 0.0000
# 6 0.0000 0.0000 0.0000 -12.7053 0.0000 27.5363
#
#
#
# Elastic Compliance Matrix: (Units=1/GPa)
#
#
# Indices 1 2 3 4 5 6 
#
# 1 0.013493 -0.002395 -0.006606 0.000000 0.004881 0.000000
# 2 -0.002395 0.007664 -0.002897 0.000000 0.000400 0.000000
# 3 -0.006606 -0.002897 0.019242 0.000000 0.003547 0.000000
# 4 0.000000 0.000000 0.000000 0.067184 0.000000 0.030999
# 5 0.004881 0.000400 0.003547 0.000000 0.026651 0.000000
# 6 0.000000 0.000000 0.000000 0.030999 0.000000 0.050619
#
#
# Mechanical properties :
#
#
# Convention : Reuss Voigt Hill
#
# Bulk Modulus (GPa) = 60.23242 80.44634 70.33938
# Shear Modulus (GPa) = 23.34445 32.81085 28.07765
#
# Velocity S-wave (km/s) = 3.28653 3.89632 3.60435
# Velocity P-wave (km/s) = 6.50160 7.58048 7.06168
#
# Compressibility (1/GPa) = 0.01660236
#
# Stress axis : x y z
#
# Youngs Moduli (GPa) = 74.11048 130.48570 51.97055
#
# Poissons Ratio (x) = 0.31249 0.34334
# Poissons Ratio (y) = 0.17748 0.15055
# Poissons Ratio (z) = 0.48961 0.37801
#
# Static dielectric constant tensor:
#      x y z
#    x 4.057130 0.000000 -0.328160 
#    y 0.000000 4.310030 0.000000 
#    z -0.328160 0.000000 3.673700 
# 
# 
# High freq. dielectric constant tensor:
#      x y z
#    x 1.848090 0.000000 -0.026350 
#    y 0.000000 1.866060 0.000000 
#    z -0.026350 0.000000 1.824340 
# 
# From -- ./inp_files/32636.got.cif
#   From: 2010.03.12/outbox.cif.g09.slc.cpg/sg5_17_cif.got.tgz:32636.got - 2010.03.31 09:47:26.
