data_PCOD8048929
_publ_section_title
;
Structure prediction by ZEFSAII (Michael W. Deem and Ramdas Pophale) SiO2 
 PCOD8048929
Probable space group: C 2
;
_chemical_formula_sum "Si O2"
_cell_formula_units_Z 24
_cell_length_a 5.660150
_cell_length_b 26.236838
_cell_length_c 7.537785
_cell_angle_alpha 90.000000
_cell_angle_beta 112.754977
_cell_angle_gamma 90.000000
_cell_volume 1032.269117
_symmetry_space_group_name_H-M "C 2"
_symmetry_group_IT_number 5
_symmetry_cell_setting 'monoclinic'
loop_
_space_group_symop_operation_xyz
x,y,z
-x,y,-z
1/2+x,1/2+y,z
1/2-x,1/2+y,-z
loop_
_atom_site_type_symbol
_atom_site_label
_atom_site_fract_x
_atom_site_fract_y
_atom_site_fract_z
Si Si1 0.511881 0.862640 0.797460
Si Si2 0.000000 0.600191 0.000000
Si Si3 0.500000 0.707946 0.000000
Si Si4 0.010090 0.673004 0.299876
Si Si5 0.500000 0.540018 0.000000
Si Si6 0.768617 0.765733 0.799663
Si Si7 0.500000 0.389971 0.500000
Si Si8 0.729662 0.958253 0.691228
O O1 0.697174 0.824420 0.736203
O O2 0.610503 0.920595 0.806821
O O3 0.234647 0.854565 0.628943
O O4 0.500000 0.847049 0.000000
O O5 0.249554 0.569274 0.002270
O O6 0.863310 0.631934 0.797030
O O7 0.527790 0.742566 0.833247
O O8 0.263488 0.672781 0.878867
O O9 0.157091 0.728225 0.342454
O O10 0.000000 0.653755 0.500000
O O11 0.383413 0.505487 0.811210
O O12 0.000000 0.764341 0.000000
O O13 0.434801 0.425525 0.645567
O O14 0.500000 0.978441 0.500000
#
# Coordination Sequence:
#
# PCOD8048929 Si02
#       8
#     4   2   2   4   2   4   2   4
#     4  11  23  41  70 102 144 201 237 296 367 439
#     4  12  28  52  82 116 147 187 268 328 374 474
#     4  10  19  46  67 100 144 187 246 301 350 450
#     4  11  25  50  75 103 148 198 239 314 390 440
#     4  12  29  50  83 106 145 198 246 323 400 438
#     4  10  22  41  69 102 146 191 248 297 359 447
#     4  10  24  44  66 102 152 180 254 298 352 460
#     4  10  25  47  71 104 147 190 242 307 371 458
#
# _framework density 23.249749999999999
#
# number of rings (size 3 to 8) (size 9 to 14) (size 15 to 20)
#    0.000    1.333    3.333    1.500    9.333    1.333 
#   12.000    1.667    0.000    0.000    0.000    0.000 
#    0.000    0.000    0.000    0.000    0.000    0.000 
#
# Total GULP energy -148682.386334 kJ/mol
# GULP energy per Si atom -12390.198861 kJ/mol
# Density = 2.319683 g / cm^3
# Si number density = 23.249750 Si / 1000 Ang^3
#
#
#
# Elastic Constant Matrix: (Units=GPa)
#
#
# Indices 1 2 3 4 5 6 
#
# 1 102.1741 39.4543 31.4265 0.0000 -7.4359 0.0000
# 2 39.4543 111.7003 59.0216 0.0000 2.9564 0.0000
# 3 31.4265 59.0216 124.7051 0.0000 -20.7448 0.0000
# 4 0.0000 0.0000 0.0000 0.3547 0.0000 8.7122
# 5 -7.4359 2.9564 -20.7448 0.0000 24.5212 0.0000
# 6 0.0000 0.0000 0.0000 8.7122 0.0000 19.7313
#
#
#
# Elastic Compliance Matrix: (Units=1/GPa)
#
#
# Indices 1 2 3 4 5 6 
#
# 1 0.011739 -0.004002 -0.000456 0.000000 0.003657 0.000000
# 2 -0.004002 0.014519 -0.007397 0.000000 -0.009222 0.000000
# 3 -0.000456 -0.007397 0.013686 0.000000 0.012332 0.000000
# 4 0.000000 0.000000 0.000000 -0.286366 0.000000 0.126442
# 5 0.003657 -0.009222 0.012332 0.000000 0.053435 0.000000
# 6 0.000000 0.000000 0.000000 0.126442 0.000000 -0.005148
#
#
# Mechanical properties :
#
#
# Convention : Reuss Voigt Hill
#
# Bulk Modulus (GPa) = 61.60036 66.48716 64.04376
# Shear Modulus (GPa) = -29.58343 22.83326 -3.37509
#
# Velocity S-wave (km/s) = -3.57097 3.13723 -1.20616
# Velocity P-wave (km/s) = 3.09033 6.46389 5.06617
#
# Compressibility (1/GPa) = 0.01623367
#
# Stress axis : x y z
#
# Youngs Moduli (GPa) = 85.18595 68.87571 73.06632
#
# Poissons Ratio (x) = 0.27567 0.03330
# Poissons Ratio (y) = 0.34095 0.54048
# Poissons Ratio (z) = 0.03882 0.50948
#
# Static dielectric constant tensor:
#      x y z
#    x 3.517990 0.000000 0.359750 
#    y 0.000000 4.217220 0.000000 
#    z 0.359750 0.000000 3.775700 
# 
# 
# High freq. dielectric constant tensor:
#      x y z
#    x 1.937000 0.000000 -0.002730 
#    y 0.000000 1.911020 0.000000 
#    z -0.002730 0.000000 1.910610 
# 
# From -- ./inp_files/12926.got.cif
#   From: 2010.03.12/outbox.cif.g09.slc.cpg/sg5_7_cif.got.tgz:12926.got - 2010.03.31 09:47:26.
