data_PCOD8048986
_publ_section_title
;
Structure prediction by ZEFSAII (Michael W. Deem and Ramdas Pophale) SiO2 
 PCOD8048986
Probable space group: C 2
;
_chemical_formula_sum "Si O2"
_cell_formula_units_Z 20
_cell_length_a 11.207594
_cell_length_b 8.453705
_cell_length_c 11.789813
_cell_angle_alpha 90.000000
_cell_angle_beta 123.729610
_cell_angle_gamma 90.000000
_cell_volume 929.000626
_symmetry_space_group_name_H-M "C 2"
_symmetry_group_IT_number 5
_symmetry_cell_setting 'monoclinic'
loop_
_space_group_symop_operation_xyz
x,y,z
-x,y,-z
1/2+x,1/2+y,z
1/2-x,1/2+y,-z
loop_
_atom_site_type_symbol
_atom_site_label
_atom_site_fract_x
_atom_site_fract_y
_atom_site_fract_z
Si Si1 0.274778 0.774630 0.446786
Si Si2 0.500000 0.316795 0.000000
Si Si3 0.731104 0.000538 0.764657
Si Si4 0.255193 0.849631 0.691204
Si Si5 0.521065 0.092512 0.209393
Si Si6 0.500000 0.532506 0.500000
O O1 0.314721 0.899481 0.369049
O O2 0.268511 0.862167 0.562301
O O3 0.120551 0.696738 0.344031
O O4 0.397340 0.641744 0.521729
O O5 0.365710 0.425331 0.898879
O O6 0.549206 0.207030 0.921139
O O7 0.772793 0.177087 0.750727
O O8 0.599459 0.003292 0.782065
O O9 0.381622 0.961857 0.805470
O O10 0.097928 0.924101 0.636158
#
# Coordination Sequence:
#
# PCOD8048986 Si02
#       6
#     4   2   4   4   4   2
#     4  10  21  38  60  93 126 151 188 243 307 370
#     4  10  26  44  58  86 120 160 216 258 292 346
#     4  11  23  41  65  88 119 163 205 250 299 354
#     4  11  22  36  62  94 120 154 198 241 301 368
#     4  10  23  41  61  86 122 160 202 253 302 353
#     4  10  20  34  54  86 126 152 178 230 294 358
#
# _framework density 21.528510000000001
#
# number of rings (size 3 to 8) (size 9 to 14) (size 15 to 20)
#    0.000    1.600    0.000    4.800    0.000    8.000 
#    0.000    4.000    0.000    0.000    0.000    0.000 
#    0.000    0.000    0.000    0.000    0.000    0.000 
#
# Total GULP energy -124013.624800 kJ/mol
# GULP energy per Si atom -12401.362480 kJ/mol
# Density = 2.147951 g / cm^3
# Si number density = 21.528510 Si / 1000 Ang^3
#
#
#
# Elastic Constant Matrix: (Units=GPa)
#
#
# Indices 1 2 3 4 5 6 
#
# 1 107.0541 47.9910 46.0977 0.0000 18.1852 0.0000
# 2 47.9910 149.8917 55.5853 0.0000 15.5774 0.0000
# 3 46.0977 55.5853 95.6679 0.0000 10.5031 0.0000
# 4 0.0000 0.0000 0.0000 38.9856 0.0000 1.3307
# 5 18.1852 15.5774 10.5031 0.0000 20.0808 0.0000
# 6 0.0000 0.0000 0.0000 1.3307 0.0000 41.9988
#
#
#
# Elastic Compliance Matrix: (Units=1/GPa)
#
#
# Indices 1 2 3 4 5 6 
#
# 1 0.013542 -0.001756 -0.004570 0.000000 -0.008511 0.000000
# 2 -0.001756 0.009089 -0.004069 0.000000 -0.003332 0.000000
# 3 -0.004570 -0.004069 0.015084 0.000000 -0.000595 0.000000
# 4 0.000000 0.000000 0.000000 0.025678 0.000000 -0.000814
# 5 -0.008511 -0.003332 -0.000595 0.000000 0.060402 0.000000
# 6 0.000000 0.000000 0.000000 -0.000814 0.000000 0.023836
#
#
# Mechanical properties :
#
#
# Convention : Reuss Voigt Hill
#
# Bulk Modulus (GPa) = 59.08663 72.44021 65.76342
# Shear Modulus (GPa) = 28.72504 33.74237 31.23371
#
# Velocity S-wave (km/s) = 3.65674 3.96325 3.81308
# Velocity P-wave (km/s) = 6.73308 7.39356 7.07103
#
# Compressibility (1/GPa) = 0.01692430
#
# Stress axis : x y z
#
# Youngs Moduli (GPa) = 73.84312 110.02367 66.29367
#
# Poissons Ratio (x) = 0.19325 0.30299
# Poissons Ratio (y) = 0.12970 0.26973
# Poissons Ratio (z) = 0.33749 0.44766
#
# Static dielectric constant tensor:
#      x y z
#    x 3.854420 0.000000 0.212400 
#    y 0.000000 4.144320 0.000000 
#    z 0.212400 0.000000 3.775700 
# 
# 
# High freq. dielectric constant tensor:
#      x y z
#    x 1.844600 0.000000 0.016240 
#    y 0.000000 1.871640 0.000000 
#    z 0.016240 0.000000 1.824980 
# 
# From -- ./inp_files/37893.got.cif
#   From: 2010.03.12/outbox.cif.g09.slc.cpg/sg5_19_cif.got.tgz:37893.got - 2010.03.31 09:47:26.
