data_PCOD8048311
_publ_section_title
;
Structure prediction by ZEFSAII (Michael W. Deem and Ramdas Pophale) SiO2 
 PCOD8048311
Probable space group: C 2
;
_chemical_formula_sum "Si O2"
_cell_formula_units_Z 30
_cell_length_a 16.029211
_cell_length_b 17.572916
_cell_length_c 11.883187
_cell_angle_alpha 90.000000
_cell_angle_beta 154.436090
_cell_angle_gamma 90.000000
_cell_volume 1444.399843
_symmetry_space_group_name_H-M "C 2"
_symmetry_group_IT_number 5
_symmetry_cell_setting 'monoclinic'
loop_
_space_group_symop_operation_xyz
x,y,z
-x,y,-z
1/2+x,1/2+y,z
1/2-x,1/2+y,-z
loop_
_atom_site_type_symbol
_atom_site_label
_atom_site_fract_x
_atom_site_fract_y
_atom_site_fract_z
Si Si1 0.906170 0.991320 0.266281
Si Si2 0.188635 0.539924 0.670964
Si Si3 0.500000 0.418689 0.000000
Si Si4 0.826353 0.898307 0.562369
Si Si5 0.145342 0.138281 0.938462
Si Si6 0.616230 0.749112 0.256488
Si Si7 0.504894 0.008818 0.136693
Si Si8 0.532759 0.145025 0.297926
O O1 0.000000 0.006729 0.500000
O O2 0.005407 0.918174 0.325002
O O3 0.945532 0.067066 0.239715
O O4 0.678565 0.977285 0.013536
O O5 0.331270 0.470304 0.841980
O O6 0.125966 0.573746 0.476716
O O7 0.000000 0.506108 0.500000
O O8 0.285275 0.609418 0.855958
O O9 0.423457 0.370637 0.799184
O O10 0.662101 0.838013 0.324791
O O11 0.700258 0.974114 0.428251
O O12 0.997777 0.208306 0.779488
O O13 0.326376 0.173226 0.091880
O O14 0.832260 0.716861 0.525851
O O15 0.500000 0.735084 0.000000
O O16 0.509641 0.102142 0.149424
O O17 0.500000 0.984984 0.000000
#
# Coordination Sequence:
#
# PCOD8048311 Si02
#       8
#     4   4   2   4   4   4   4   4
#     4  11  23  40  67 101 132 166 220 276 327 383
#     4  10  18  34  64  94 115 146 206 272 315 371
#     4  12  22  40  66  88 128 164 218 268 320 392
#     4  12  26  42  60  97 132 180 218 265 334 392
#     4  10  21  39  64  94 123 158 215 269 321 375
#     4  12  25  41  61  90 132 177 216 264 323 399
#     4  11  22  40  66  99 130 168 217 275 329 387
#     4  10  21  38  63  95 120 160 212 269 322 375
#
# _framework density 20.769873
#
# number of rings (size 3 to 8) (size 9 to 14) (size 15 to 20)
#    0.000    1.067    5.333    2.000    0.000    1.067 
#    1.200    0.000    0.000    0.000    0.000    0.000 
#    0.000    0.000    0.000    0.000    0.000    0.000 
#
# Total GULP energy -185859.939007 kJ/mol
# GULP energy per Si atom -12390.662600 kJ/mol
# Density = 2.072260 g / cm^3
# Si number density = 20.769873 Si / 1000 Ang^3
#
#
#
# Elastic Constant Matrix: (Units=GPa)
#
#
# Indices 1 2 3 4 5 6 
#
# 1 102.9524 40.4843 41.7161 0.0000 8.8639 0.0000
# 2 40.4843 67.1726 22.6998 0.0000 14.1980 0.0000
# 3 41.7161 22.6998 84.6522 0.0000 3.6210 0.0000
# 4 0.0000 0.0000 0.0000 67.5950 0.0000 4.1505
# 5 8.8639 14.1980 3.6210 0.0000 31.9786 0.0000
# 6 0.0000 0.0000 0.0000 4.1505 0.0000 21.0973
#
#
#
# Elastic Compliance Matrix: (Units=1/GPa)
#
#
# Indices 1 2 3 4 5 6 
#
# 1 0.014636 -0.006939 -0.005336 0.000000 -0.000372 0.000000
# 2 -0.006939 0.021280 -0.001974 0.000000 -0.007301 0.000000
# 3 -0.005336 -0.001974 0.014944 0.000000 0.000663 0.000000
# 4 0.000000 0.000000 0.000000 0.014975 0.000000 -0.002946
# 5 -0.000372 -0.007301 0.000663 0.000000 0.034540 0.000000
# 6 0.000000 0.000000 0.000000 -0.002946 0.000000 0.047979
#
#
# Mechanical properties :
#
#
# Convention : Reuss Voigt Hill
#
# Bulk Modulus (GPa) = 44.72198 51.61970 48.17084
# Shear Modulus (GPa) = 27.12884 34.12597 30.62740
#
# Velocity S-wave (km/s) = 3.61801 4.05785 3.84423
# Velocity P-wave (km/s) = 6.24758 6.84558 6.55340
#
# Compressibility (1/GPa) = 0.02236037
#
# Stress axis : x y z
#
# Youngs Moduli (GPa) = 68.32431 46.99345 66.91846
#
# Poissons Ratio (x) = 0.32610 0.35707
# Poissons Ratio (y) = 0.47412 0.13211
# Poissons Ratio (z) = 0.36457 0.09278
#
# Static dielectric constant tensor:
#      x y z
#    x 3.944030 0.000000 0.106560 
#    y 0.000000 3.331870 0.000000 
#    z 0.106560 0.000000 3.908810 
# 
# 
# High freq. dielectric constant tensor:
#      x y z
#    x 1.818820 0.000000 0.007090 
#    y 0.000000 1.773450 0.000000 
#    z 0.007090 0.000000 1.830690 
# 
# From -- ./inp_files/43318.got.cif
#   From: 2010.03.12/outbox.cif.g09.slc.cpg/sg5_22_cif.got.tgz:43318.got - 2010.03.31 09:47:26.
