data_PCOD8048581
_publ_section_title
;
Structure prediction by ZEFSAII (Michael W. Deem and Ramdas Pophale) SiO2 
 PCOD8048581
Probable space group: C 2
;
_chemical_formula_sum "Si O2"
_cell_formula_units_Z 32
_cell_length_a 13.803357
_cell_length_b 7.938941
_cell_length_c 15.330941
_cell_angle_alpha 90.000000
_cell_angle_beta 60.959774
_cell_angle_gamma 90.000000
_cell_volume 1468.812003
_symmetry_space_group_name_H-M "C 2"
_symmetry_group_IT_number 5
_symmetry_cell_setting 'monoclinic'
loop_
_space_group_symop_operation_xyz
x,y,z
-x,y,-z
1/2+x,1/2+y,z
1/2-x,1/2+y,-z
loop_
_atom_site_type_symbol
_atom_site_label
_atom_site_fract_x
_atom_site_fract_y
_atom_site_fract_z
Si Si1 0.390908 0.152310 0.096097
Si Si2 0.551322 0.312023 0.763951
Si Si3 0.585314 0.822731 0.542122
Si Si4 0.739061 0.429872 0.258990
Si Si5 0.305191 0.191824 0.862213
Si Si6 0.290417 0.820878 0.931377
Si Si7 0.546395 0.643996 0.256113
Si Si8 0.716826 0.080782 0.586460
O O1 0.404152 0.311275 0.156200
O O2 0.304910 0.196488 0.059154
O O3 0.355360 0.994763 0.170556
O O4 0.500000 0.093578 0.000000
O O5 0.435096 0.214804 0.820005
O O6 0.539999 0.504163 0.738632
O O7 0.635542 0.220771 0.661612
O O8 0.500000 0.854893 0.500000
O O9 0.514052 0.782317 0.658909
O O10 0.667876 0.667741 0.489422
O O11 0.656687 0.992030 0.530391
O O12 0.718253 0.242995 0.228868
O O13 0.642850 0.558416 0.270838
O O14 0.749394 0.432965 0.359173
O O15 0.271028 0.002507 0.897628
O O16 0.229261 0.318603 0.955366
O O17 0.406779 0.742014 0.849279
#
# Coordination Sequence:
#
# PCOD8048581 Si02
#       8
#     4   4   4   4   4   4   4   4
#     4  10  19  34  57  83 125 170 209 265 323 385
#     4  10  21  39  65  91 129 169 216 272 337 403
#     4  12  25  47  71  97 136 174 225 290 347 408
#     4   9  21  40  62  86 128 173 216 271 334 400
#     4  11  21  38  60  94 131 173 224 266 328 401
#     4  11  22  36  60  92 131 177 219 266 326 400
#     4  10  21  42  66  90 129 175 213 277 346 392
#     4  11  24  46  68 102 129 175 226 278 352 409
#
# _framework density 21.786314999999998
#
# number of rings (size 3 to 8) (size 9 to 14) (size 15 to 20)
#    0.000    1.500    2.500    3.750    0.000    1.000 
#    6.750    0.625    0.000    0.000    0.000    0.000 
#    0.000    0.000    0.000    0.000    0.000    0.000 
#
# Total GULP energy -198360.382125 kJ/mol
# GULP energy per Si atom -12397.523883 kJ/mol
# Density = 2.173673 g / cm^3
# Si number density = 21.786315 Si / 1000 Ang^3
#
#
#
# Elastic Constant Matrix: (Units=GPa)
#
#
# Indices 1 2 3 4 5 6 
#
# 1 84.4181 22.8362 38.2137 0.0000 6.3219 0.0000
# 2 22.8362 72.9082 9.9253 0.0000 -1.2831 0.0001
# 3 38.2137 9.9253 87.4192 0.0000 -11.3842 0.0000
# 4 0.0000 0.0000 0.0000 29.8872 0.0000 -1.6340
# 5 6.3219 -1.2831 -11.3842 0.0000 32.4284 0.0000
# 6 0.0000 0.0001 0.0000 -1.6340 0.0000 34.6505
#
#
#
# Elastic Compliance Matrix: (Units=1/GPa)
#
#
# Indices 1 2 3 4 5 6 
#
# 1 0.017000 -0.004380 -0.007742 0.000000 -0.006205 0.000000
# 2 -0.004380 0.015060 0.000412 0.000000 0.001595 0.000000
# 3 -0.007742 0.000412 0.015693 0.000000 0.007035 0.000000
# 4 0.000000 0.000000 0.000000 0.033546 0.000000 0.001582
# 5 -0.006205 0.001595 0.007035 0.000000 0.034579 0.000000
# 6 0.000000 0.000000 0.000000 0.001582 0.000000 0.028934
#
#
# Mechanical properties :
#
#
# Convention : Reuss Voigt Hill
#
# Bulk Modulus (GPa) = 41.09607 42.96621 42.03114
# Shear Modulus (GPa) = 28.35404 30.97791 29.66598
#
# Velocity S-wave (km/s) = 3.61149 3.77490 3.69410
# Velocity P-wave (km/s) = 6.02451 6.22609 6.12613
#
# Compressibility (1/GPa) = 0.02433323
#
# Stress axis : x y z
#
# Youngs Moduli (GPa) = 58.82376 66.40251 63.72401
#
# Poissons Ratio (x) = 0.29084 0.49335
# Poissons Ratio (y) = 0.25764 -0.02628
# Poissons Ratio (z) = 0.45541 -0.02739
#
# Static dielectric constant tensor:
#      x y z
#    x 4.035250 0.000000 -0.015760 
#    y 0.000000 3.633990 0.000000 
#    z -0.015760 0.000000 4.103160 
# 
# 
# High freq. dielectric constant tensor:
#      x y z
#    x 1.856040 0.000000 -0.007380 
#    y 0.000000 1.839080 0.000000 
#    z -0.007380 0.000000 1.865490 
# 
# From -- ./inp_files/54176.got.cif
#   From: 2010.03.12/outbox.cif.g09.slc.cpg/sg5_28_cif.got.tgz:54176.got - 2010.03.31 09:47:26.
