data_PCOD8048615
_publ_section_title
;
Structure prediction by ZEFSAII (Michael W. Deem and Ramdas Pophale) SiO2 
 PCOD8048615
Probable space group: C 2
;
_chemical_formula_sum "Si O2"
_cell_formula_units_Z 28
_cell_length_a 8.779058
_cell_length_b 13.830042
_cell_length_c 12.404373
_cell_angle_alpha 90.000000
_cell_angle_beta 120.558080
_cell_angle_gamma 90.000000
_cell_volume 1296.901527
_symmetry_space_group_name_H-M "C 2"
_symmetry_group_IT_number 5
_symmetry_cell_setting 'monoclinic'
loop_
_space_group_symop_operation_xyz
x,y,z
-x,y,-z
1/2+x,1/2+y,z
1/2-x,1/2+y,-z
loop_
_atom_site_type_symbol
_atom_site_label
_atom_site_fract_x
_atom_site_fract_y
_atom_site_fract_z
Si Si1 0.070001 0.167100 0.293568
Si Si2 0.339149 0.154755 0.855929
Si Si3 0.663212 0.773822 0.122556
Si Si4 0.500004 0.336494 0.124846
Si Si5 0.120541 0.355228 0.444051
Si Si6 0.062146 0.958348 0.345822
Si Si7 0.668937 0.959139 0.254115
O O1 0.190168 0.204788 0.236945
O O2 0.090748 0.244529 0.397554
O O3 0.866030 0.146415 0.180542
O O4 0.145136 0.066350 0.369172
O O5 0.343250 0.258485 0.796968
O O6 0.395146 0.065636 0.800807
O O7 0.500000 0.163174 0.000000
O O8 0.615997 0.882783 0.142944
O O9 0.825119 0.777252 0.098040
O O10 0.500000 0.729369 0.000000
O O11 0.528363 0.429289 0.209066
O O12 0.500000 0.371217 0.000000
O O13 0.320070 0.378179 0.552661
O O14 0.071780 0.427776 0.328844
O O15 0.000000 0.383588 0.500000
O O16 0.880314 0.958701 0.347343
#
# Coordination Sequence:
#
# PCOD8048615 Si02
#       7
#     4   4   4   4   4   4   4
#     4  10  23  40  59  88 118 155 203 245 294 355
#     4  10  19  37  63  90 120 155 194 241 299 356
#     4  10  19  35  57  84 119 155 193 242 294 352
#     4  10  21  36  57  87 121 156 196 245 298 355
#     4  11  23  39  60  86 119 154 199 253 297 347
#     4  10  22  41  61  84 117 161 201 245 300 351
#     4   9  21  38  59  85 116 156 202 241 292 356
#
# _framework density 21.589918000000001
#
# number of rings (size 3 to 8) (size 9 to 14) (size 15 to 20)
#    0.000    2.000    0.000    3.429    0.000    6.286 
#    0.000    5.714    0.000    0.000    0.000    0.000 
#    0.000    0.000    0.000    0.000    0.000    0.000 
#
# Total GULP energy -173485.114641 kJ/mol
# GULP energy per Si atom -12391.793903 kJ/mol
# Density = 2.154078 g / cm^3
# Si number density = 21.589918 Si / 1000 Ang^3
#
#
#
# Elastic Constant Matrix: (Units=GPa)
#
#
# Indices 1 2 3 4 5 6 
#
# 1 86.5256 21.5763 32.3369 0.0000 -21.4919 0.0000
# 2 21.5763 127.2870 30.6717 0.0000 -6.5249 0.0000
# 3 32.3369 30.6717 70.0394 0.0000 -3.0924 0.0000
# 4 0.0000 0.0000 0.0000 30.2218 0.0000 3.3650
# 5 -21.4919 -6.5249 -3.0924 0.0000 40.4322 0.0000
# 6 0.0000 0.0000 0.0000 3.3650 0.0000 24.3423
#
#
#
# Elastic Compliance Matrix: (Units=1/GPa)
#
#
# Indices 1 2 3 4 5 6 
#
# 1 0.016287 -0.000697 -0.006861 0.000000 0.008020 0.000000
# 2 -0.000697 0.008864 -0.003525 0.000000 0.000791 0.000000
# 3 -0.006861 -0.003525 0.018867 0.000000 -0.002773 0.000000
# 4 0.000000 0.000000 0.000000 0.033606 0.000000 -0.004646
# 5 0.008020 0.000791 -0.002773 0.000000 0.028912 0.000000
# 6 0.000000 0.000000 0.000000 -0.004646 0.000000 0.041723
#
#
# Mechanical properties :
#
#
# Convention : Reuss Voigt Hill
#
# Bulk Modulus (GPa) = 45.76009 50.33576 48.04793
# Shear Modulus (GPa) = 28.13607 32.28373 30.20990
#
# Velocity S-wave (km/s) = 3.61391 3.87113 3.74473
# Velocity P-wave (km/s) = 6.21731 6.58376 6.40316
#
# Compressibility (1/GPa) = 0.02185310
#
# Stress axis : x y z
#
# Youngs Moduli (GPa) = 61.39830 112.81139 53.00376
#
# Poissons Ratio (x) = 0.07858 0.36363
# Poissons Ratio (y) = 0.04277 0.18686
# Poissons Ratio (z) = 0.42123 0.39770
#
# Static dielectric constant tensor:
#      x y z
#    x 3.853440 0.000000 -0.064900 
#    y 0.000000 3.993610 0.000000 
#    z -0.064900 0.000000 3.766600 
# 
# 
# High freq. dielectric constant tensor:
#      x y z
#    x 1.840520 0.000000 -0.010120 
#    y 0.000000 1.850200 0.000000 
#    z -0.010120 0.000000 1.838620 
# 
# From -- ./inp_files/36085.got.cif
#   From: 2010.03.12/outbox.cif.g09.slc.cpg/sg5_19_cif.got.tgz:36085.got - 2010.03.31 09:47:26.
