data_PCOD8048259
_publ_section_title
;
Structure prediction by ZEFSAII (Michael W. Deem and Ramdas Pophale) SiO2 
 PCOD8048259
Probable space group: C 2
;
_chemical_formula_sum "Si O2"
_cell_formula_units_Z 30
_cell_length_a 15.549993
_cell_length_b 10.707897
_cell_length_c 8.942844
_cell_angle_alpha 90.000000
_cell_angle_beta 104.329142
_cell_angle_gamma 90.000000
_cell_volume 1442.728134
_symmetry_space_group_name_H-M "C 2"
_symmetry_group_IT_number 5
_symmetry_cell_setting 'monoclinic'
loop_
_space_group_symop_operation_xyz
x,y,z
-x,y,-z
1/2+x,1/2+y,z
1/2-x,1/2+y,-z
loop_
_atom_site_type_symbol
_atom_site_label
_atom_site_fract_x
_atom_site_fract_y
_atom_site_fract_z
Si Si1 0.215717 0.222880 0.074020
Si Si2 0.588469 0.510075 0.471224
Si Si3 0.556880 0.620916 0.156486
Si Si4 0.814129 0.641357 0.833448
Si Si5 0.500000 0.071701 0.000000
Si Si6 0.333910 0.770597 0.403014
Si Si7 0.256119 0.889277 0.654291
Si Si8 0.565683 0.853886 0.828217
O O1 0.157807 0.128369 0.146217
O O2 0.272455 0.299130 0.221356
O O3 0.274195 0.143563 0.984085
O O4 0.149381 0.317013 0.963923
O O5 0.500000 0.450879 0.500000
O O6 0.561397 0.522783 0.289042
O O7 0.614798 0.639431 0.563160
O O8 0.667948 0.413714 0.522431
O O9 0.514103 0.754100 0.186937
O O10 0.500000 0.559135 0.000000
O O11 0.920231 0.659299 0.901965
O O12 0.763735 0.747902 0.714292
O O13 0.800784 0.510570 0.744462
O O14 0.532584 0.987376 0.873493
O O15 0.324997 0.828579 0.564940
O O16 0.397517 0.858199 0.327230
#
# Coordination Sequence:
#
# PCOD8048259 Si02
#       8
#     4   4   4   4   2   4   4   4
#     4  10  19  39  62  87 125 164 198 255 316 357
#     4  11  22  37  60  91 125 161 204 259 308 368
#     4  10  18  33  62  92 118 148 209 262 308 348
#     4  10  24  40  63  93 122 166 209 258 307 374
#     4  12  20  40  64  90 124 154 226 258 294 366
#     4  10  22  40  63  90 132 160 202 256 327 364
#     4  11  22  42  64  90 129 164 209 257 310 375
#     4  10  18  34  66  94 115 157 210 269 308 349
#
# _framework density 20.793937
#
# number of rings (size 3 to 8) (size 9 to 14) (size 15 to 20)
#    0.000    1.600    6.000    0.000    1.867    1.067 
#    2.400    0.000    0.000    0.000    0.000    0.000 
#    0.000    0.000    0.000    0.000    0.000    0.000 
#
# Total GULP energy -185888.045100 kJ/mol
# GULP energy per Si atom -12392.536340 kJ/mol
# Density = 2.074661 g / cm^3
# Si number density = 20.793937 Si / 1000 Ang^3
#
#
#
# Elastic Constant Matrix: (Units=GPa)
#
#
# Indices 1 2 3 4 5 6 
#
# 1 103.4771 19.3555 33.7413 0.0000 -0.2573 0.0000
# 2 19.3555 28.2346 20.3538 0.0000 -6.1619 0.0000
# 3 33.7413 20.3538 109.1348 0.0000 -7.4637 0.0000
# 4 0.0000 0.0000 0.0000 55.1067 0.0000 1.9944
# 5 -0.2573 -6.1619 -7.4637 0.0000 46.0961 0.0000
# 6 0.0000 0.0000 0.0000 1.9944 0.0000 16.8484
#
#
#
# Elastic Compliance Matrix: (Units=1/GPa)
#
#
# Indices 1 2 3 4 5 6 
#
# 1 0.011684 -0.006480 -0.002486 0.000000 -0.001204 0.000000
# 2 -0.006480 0.045366 -0.006113 0.000000 0.005038 0.000000
# 3 -0.002486 -0.006113 0.011138 0.000000 0.000972 0.000000
# 4 0.000000 0.000000 0.000000 0.018225 0.000000 -0.002157
# 5 -0.001204 0.005038 0.000972 0.000000 0.022518 0.000000
# 6 0.000000 0.000000 0.000000 -0.002157 0.000000 0.059608
#
#
# Mechanical properties :
#
#
# Convention : Reuss Voigt Hill
#
# Bulk Modulus (GPa) = 26.29495 43.08308 34.68901
# Shear Modulus (GPa) = 23.65486 34.76997 29.21241
#
# Velocity S-wave (km/s) = 3.37647 4.09359 3.75220
# Velocity P-wave (km/s) = 5.27955 6.56562 5.95739
#
# Compressibility (1/GPa) = 0.03803012
#
# Stress axis : x y z
#
# Youngs Moduli (GPa) = 85.58929 22.04296 89.78150
#
# Poissons Ratio (x) = 0.14284 0.22320
# Poissons Ratio (y) = 0.55462 0.54882
# Poissons Ratio (z) = 0.21278 0.13474
#
# Static dielectric constant tensor:
#      x y z
#    x 3.728000 0.000000 0.173280 
#    y 0.000000 3.262010 0.000000 
#    z 0.173280 0.000000 3.967490 
# 
# 
# High freq. dielectric constant tensor:
#      x y z
#    x 1.816190 0.000000 -0.000450 
#    y 0.000000 1.758390 0.000000 
#    z -0.000450 0.000000 1.834430 
# 
# From -- ./inp_files/23909.got.cif
#   From: 2010.03.12/outbox.cif.g09.slc.cpg/sg5_12_cif.got.tgz:23909.got - 2010.03.31 09:47:26.
