data_PCOD8048952
_publ_section_title
;
Structure prediction by ZEFSAII (Michael W. Deem and Ramdas Pophale) SiO2 
 PCOD8048952
Probable space group: C 2
;
_chemical_formula_sum "Si O2"
_cell_formula_units_Z 30
_cell_length_a 11.498850
_cell_length_b 30.486984
_cell_length_c 5.221077
_cell_angle_alpha 90.000000
_cell_angle_beta 123.335668
_cell_angle_gamma 90.000000
_cell_volume 1529.175913
_symmetry_space_group_name_H-M "C 2"
_symmetry_group_IT_number 5
_symmetry_cell_setting 'monoclinic'
loop_
_space_group_symop_operation_xyz
x,y,z
-x,y,-z
1/2+x,1/2+y,z
1/2-x,1/2+y,-z
loop_
_atom_site_type_symbol
_atom_site_label
_atom_site_fract_x
_atom_site_fract_y
_atom_site_fract_z
Si Si1 0.166177 0.425360 0.192003
Si Si2 0.658753 0.651203 0.154245
Si Si3 0.653669 0.073791 0.575870
Si Si4 0.163774 0.476386 0.687470
Si Si5 0.000000 0.622931 0.000000
Si Si6 0.832827 0.836916 0.307947
Si Si7 0.340129 0.288603 0.817439
Si Si8 0.281225 0.187588 0.828768
O O1 0.216039 0.444687 0.524528
O O2 0.253503 0.382208 0.248600
O O3 0.212175 0.459348 0.023735
O O4 0.000000 0.416292 0.000000
O O5 0.734564 0.606105 0.163134
O O6 0.721624 0.671735 0.486255
O O7 0.500000 0.639254 0.000000
O O8 0.672028 0.684552 0.930561
O O9 0.500000 0.079578 0.500000
O O10 0.717127 0.025293 0.684811
O O11 0.622473 0.090658 0.250636
O O12 0.000000 0.478611 0.500000
O O13 0.915027 0.657747 0.076648
O O14 0.780028 0.805029 0.473063
O O15 0.000000 0.843871 0.500000
O O16 0.775151 0.815695 0.975710
O O17 0.320651 0.237667 0.840715
O O18 0.500000 0.300512 0.000000
#
# Coordination Sequence:
#
# PCOD8048952 Si02
#       8
#     4   4   4   4   2   4   4   4
#     4  10  20  38  55  81 110 148 182 228 290 345
#     4  11  24  39  55  81 123 162 187 231 288 356
#     4  10  20  35  58  86 112 149 201 242 288 327
#     4   9  20  32  58  83 111 140 187 242 277 330
#     4  10  20  32  60  92 114 146 192 256 280 346
#     4  10  21  37  59  84 112 144 182 239 291 347
#     4  10  20  36  59  87 112 140 189 245 289 330
#     4  11  21  38  60  84 116 152 198 235 291 338
#
# _framework density 19.618410000000001
#
# number of rings (size 3 to 8) (size 9 to 14) (size 15 to 20)
#    0.000    1.867    2.000    2.000    4.667    0.000 
#    0.000    5.333    0.000    0.000    0.000    0.000 
#    0.000    0.000    0.000    0.000    0.000    0.000 
#
# Total GULP energy -185839.494678 kJ/mol
# GULP energy per Si atom -12389.299645 kJ/mol
# Density = 1.957376 g / cm^3
# Si number density = 19.618410 Si / 1000 Ang^3
#
#
#
# Elastic Constant Matrix: (Units=GPa)
#
#
# Indices 1 2 3 4 5 6 
#
# 1 74.8655 34.9094 42.4727 0.0000 -22.8056 0.0000
# 2 34.9094 112.4368 48.2343 0.0000 -20.2557 0.0000
# 3 42.4727 48.2343 67.7066 0.0000 -32.5086 0.0000
# 4 0.0000 0.0000 0.0000 25.7048 0.0000 -4.1441
# 5 -22.8056 -20.2557 -32.5086 0.0000 32.9541 0.0000
# 6 0.0000 0.0000 0.0000 -4.1441 0.0000 25.1681
#
#
#
# Elastic Compliance Matrix: (Units=1/GPa)
#
#
# Indices 1 2 3 4 5 6 
#
# 1 0.021027 -0.001370 -0.010700 0.000000 0.003154 0.000000
# 2 -0.001370 0.012978 -0.009520 0.000000 -0.002363 0.000000
# 3 -0.010700 -0.009520 0.041605 0.000000 0.027786 0.000000
# 4 0.000000 0.000000 0.000000 0.039964 0.000000 0.006580
# 5 0.003154 -0.002363 0.027786 0.000000 0.058486 0.000000
# 6 0.000000 0.000000 0.000000 0.006580 0.000000 0.040816
#
#
# Mechanical properties :
#
#
# Convention : Reuss Voigt Hill
#
# Bulk Modulus (GPa) = 30.83612 56.24907 43.54259
# Shear Modulus (GPa) = 18.59646 25.39156 21.99401
#
# Velocity S-wave (km/s) = 3.08215 3.60150 3.35190
# Velocity P-wave (km/s) = 5.33088 6.78441 6.10109
#
# Compressibility (1/GPa) = 0.03242951
#
# Stress axis : x y z
#
# Youngs Moduli (GPa) = 47.55716 77.05481 24.03533
#
# Poissons Ratio (x) = 0.10558 0.25718
# Poissons Ratio (y) = 0.06516 0.22883
# Poissons Ratio (z) = 0.50886 0.73360
#
# Static dielectric constant tensor:
#      x y z
#    x 3.571370 0.000000 -0.273570 
#    y 0.000000 3.639140 0.000000 
#    z -0.273570 0.000000 3.465600 
# 
# 
# High freq. dielectric constant tensor:
#      x y z
#    x 1.752630 0.000000 -0.029040 
#    y 0.000000 1.771470 0.000000 
#    z -0.029040 0.000000 1.753820 
# 
# From -- ./inp_files/6151.got.cif
#   From: 2010.03.12/outbox.cif.g09.slc.cpg/sg5_4_cif.got.tgz:6151.got - 2010.03.31 09:47:26.
