data_PCOD8048169
_publ_section_title
;
Structure prediction by ZEFSAII (Michael W. Deem and Ramdas Pophale) SiO2 
 PCOD8048169
Probable space group: C 2
;
_chemical_formula_sum "Si O2"
_cell_formula_units_Z 30
_cell_length_a 15.793432
_cell_length_b 8.931974
_cell_length_c 27.650606
_cell_angle_alpha 90.000000
_cell_angle_beta 22.576470
_cell_angle_gamma 90.000000
_cell_volume 1497.493689
_symmetry_space_group_name_H-M "C 2"
_symmetry_group_IT_number 5
_symmetry_cell_setting 'monoclinic'
loop_
_space_group_symop_operation_xyz
x,y,z
-x,y,-z
1/2+x,1/2+y,z
1/2-x,1/2+y,-z
loop_
_atom_site_type_symbol
_atom_site_label
_atom_site_fract_x
_atom_site_fract_y
_atom_site_fract_z
Si Si1 0.537433 0.839430 0.217230
Si Si2 0.623521 0.477950 0.480732
Si Si3 0.743543 0.549952 0.141490
Si Si4 0.581774 0.389006 0.758433
Si Si5 0.713710 0.419938 0.259647
Si Si6 0.000000 0.268620 0.500000
Si Si7 0.405318 0.085770 0.884388
Si Si8 0.451774 0.660569 0.168582
O O1 0.372770 0.915466 0.343531
O O2 0.699938 0.728793 0.160844
O O3 0.417347 0.741949 0.238775
O O4 0.669233 0.971387 0.119043
O O5 0.500000 0.403988 0.500000
O O6 0.507865 0.429196 0.591505
O O7 0.598124 0.659737 0.490673
O O8 0.617271 0.460656 0.166529
O O9 0.654219 0.486932 0.239226
O O10 0.000000 0.516516 0.000000
O O11 0.545369 0.215440 0.786580
O O12 0.609094 0.485476 0.793446
O O13 0.815950 0.390392 0.609536
O O14 0.789396 0.244714 0.216439
O O15 0.929511 0.504521 0.166006
O O16 0.204226 0.165082 0.017645
#
# Coordination Sequence:
#
# PCOD8048169 Si02
#       8
#     4   4   4   4   4   2   4   4
#     4  10  20  39  62  88 121 173 206 261 319 371
#     4  10  17  39  66  86 118 159 212 270 312 365
#     4  11  25  43  59  92 138 167 202 265 328 382
#     4  11  21  37  64  91 125 163 204 261 323 373
#     4  11  21  40  63  88 123 171 208 265 318 374
#     4  10  18  38  66  88 120 154 216 262 310 362
#     4  11  18  37  64  88 118 164 223 257 302 378
#     4  10  20  31  60  95 119 158 219 258 304 378
#
# _framework density 20.033472
#
# number of rings (size 3 to 8) (size 9 to 14) (size 15 to 20)
#    0.400    1.067    5.333    4.000    0.000    2.133 
#    2.400    3.333    0.000    0.000    0.000    0.000 
#    0.000    0.000    0.000    0.000    0.000    0.000 
#
# Total GULP energy -185851.142428 kJ/mol
# GULP energy per Si atom -12390.076162 kJ/mol
# Density = 1.998788 g / cm^3
# Si number density = 20.033472 Si / 1000 Ang^3
#
#
#
# Elastic Constant Matrix: (Units=GPa)
#
#
# Indices 1 2 3 4 5 6 
#
# 1 49.2142 37.1488 10.6249 0.0020 8.9497 0.0001
# 2 37.1488 98.0842 14.5307 -0.0024 -0.2733 0.0018
# 3 10.6249 14.5307 106.2294 -0.0202 6.1503 -0.0031
# 4 0.0020 -0.0024 -0.0202 37.9638 -0.0183 -1.8255
# 5 8.9497 -0.2733 6.1503 -0.0183 26.0426 -0.0045
# 6 0.0001 0.0018 -0.0031 -1.8255 -0.0045 34.8286
#
#
#
# Elastic Compliance Matrix: (Units=1/GPa)
#
#
# Indices 1 2 3 4 5 6 
#
# 1 0.031337 -0.011764 -0.000907 -0.000008 -0.010679 -0.000001
# 2 -0.011764 0.014828 -0.001110 0.000003 0.004461 0.000000
# 3 -0.000907 -0.001110 0.009772 0.000004 -0.002008 0.000001
# 4 -0.000008 0.000003 0.000004 0.026407 0.000021 0.001384
# 5 -0.010679 0.004461 -0.002008 0.000021 0.042589 0.000006
# 6 -0.000001 0.000000 0.000001 0.001384 0.000006 0.028785
#
#
# Mechanical properties :
#
#
# Convention : Reuss Voigt Hill
#
# Bulk Modulus (GPa) = 35.24169 42.01518 38.62844
# Shear Modulus (GPa) = 26.21385 32.51523 29.36454
#
# Velocity S-wave (km/s) = 3.62125 4.03307 3.83270
# Velocity P-wave (km/s) = 5.92572 6.53495 6.23778
#
# Compressibility (1/GPa) = 0.02837548
#
# Stress axis : x y z
#
# Youngs Moduli (GPa) = 31.91106 67.44101 102.32951
#
# Poissons Ratio (x) = 0.79339 0.09280
# Poissons Ratio (y) = 0.37541 0.11357
# Poissons Ratio (z) = 0.02894 0.07485
#
# Static dielectric constant tensor:
#      x y z
#    x 3.324200 0.000010 0.164380 
#    y 0.000010 3.976180 0.000040 
#    z 0.164380 0.000040 3.585410 
# 
# 
# High freq. dielectric constant tensor:
#      x y z
#    x 1.731310 0.000000 0.016420 
#    y 0.000000 1.793160 0.000000 
#    z 0.016420 0.000000 1.791280 
# 
# From -- ./inp_files/72119.got.cif
#   From: 2010.03.12/outbox.cif.g09.slc.cpg/sg5_37_cif.got.tgz:72119.got - 2010.03.31 09:47:26.
