data_PCOD8048255
_publ_section_title
;
Structure prediction by ZEFSAII (Michael W. Deem and Ramdas Pophale) SiO2 
 PCOD8048255
Probable space group: C 2
;
_chemical_formula_sum "Si O2"
_cell_formula_units_Z 32
_cell_length_a 15.578952
_cell_length_b 9.117013
_cell_length_c 22.282084
_cell_angle_alpha 90.000000
_cell_angle_beta 149.968108
_cell_angle_gamma 90.000000
_cell_volume 1583.926617
_symmetry_space_group_name_H-M "C 2"
_symmetry_group_IT_number 5
_symmetry_cell_setting 'monoclinic'
loop_
_space_group_symop_operation_xyz
x,y,z
-x,y,-z
1/2+x,1/2+y,z
1/2-x,1/2+y,-z
loop_
_atom_site_type_symbol
_atom_site_label
_atom_site_fract_x
_atom_site_fract_y
_atom_site_fract_z
Si Si1 0.304337 0.892220 0.465392
Si Si2 0.004781 0.596832 0.870207
Si Si3 0.152976 0.100740 0.855933
Si Si4 0.902107 0.916393 0.774794
Si Si5 0.679758 0.568262 0.741421
Si Si6 0.986911 0.420014 0.239045
Si Si7 0.167902 0.407046 0.733472
Si Si8 0.193607 0.055895 0.511667
O O1 0.244548 0.937591 0.363524
O O2 0.507200 0.913957 0.591510
O O3 0.252121 0.725447 0.450198
O O4 0.214075 0.004747 0.455839
O O5 0.076688 0.493459 0.860709
O O6 0.937138 0.744122 0.799198
O O7 0.848752 0.509757 0.809234
O O8 0.153742 0.636772 0.007163
O O9 0.159108 0.007498 0.797210
O O10 0.036442 0.245786 0.779195
O O11 0.072945 0.001487 0.860085
O O12 0.828420 0.977672 0.794244
O O13 0.713949 0.739386 0.774114
O O14 0.510718 0.536645 0.598363
O O15 0.875064 0.482516 0.228241
O O16 0.188372 0.457173 0.372825
#
# Coordination Sequence:
#
# PCOD8048255 Si02
#       8
#     4   4   4   4   4   4   4   4
#     4  10  18  33  58  88 119 148 188 233 295 349
#     4  11  22  38  60  85 113 157 203 243 285 349
#     4  11  22  39  58  84 121 154 195 245 294 350
#     4  11  20  36  60  87 109 154 200 233 288 348
#     4   9  19  36  60  85 111 151 198 238 289 346
#     4  10  21  39  58  86 124 151 189 247 302 345
#     4   8  19  34  58  84 115 146 189 238 282 350
#     4  10  19  35  59  91 120 151 186 246 297 353
#
# _framework density 20.202956
#
# number of rings (size 3 to 8) (size 9 to 14) (size 15 to 20)
#    0.000    2.000    2.500    2.250    0.000    0.500 
#    0.000    5.625    2.750    0.000    0.000    0.000 
#    0.000    0.000    0.000    0.000    0.000    0.000 
#
# Total GULP energy -198308.855048 kJ/mol
# GULP energy per Si atom -12394.303441 kJ/mol
# Density = 2.015697 g / cm^3
# Si number density = 20.202956 Si / 1000 Ang^3
#
#
#
# Elastic Constant Matrix: (Units=GPa)
#
#
# Indices 1 2 3 4 5 6 
#
# 1 118.7173 32.9788 40.5938 0.0006 13.1998 0.0001
# 2 32.9788 40.2182 10.0886 -0.0011 7.3424 0.0000
# 3 40.5938 10.0886 84.9108 -0.0018 0.8689 0.0000
# 4 0.0006 -0.0011 -0.0018 24.5053 -0.0001 -3.6331
# 5 13.1998 7.3424 0.8689 -0.0001 31.8982 0.0000
# 6 0.0001 0.0000 0.0000 -3.6331 0.0000 27.5695
#
#
#
# Elastic Compliance Matrix: (Units=1/GPa)
#
#
# Indices 1 2 3 4 5 6 
#
# 1 0.012966 -0.008761 -0.005125 -0.000001 -0.003209 0.000000
# 2 -0.008761 0.032674 0.000346 0.000002 -0.003905 0.000000
# 3 -0.005125 0.000346 0.014169 0.000001 0.001655 0.000000
# 4 -0.000001 0.000002 0.000001 0.041621 0.000000 0.005485
# 5 -0.003209 -0.003905 0.001655 0.000000 0.033532 0.000000
# 6 0.000000 0.000000 0.000000 0.005485 0.000000 0.036995
#
#
# Mechanical properties :
#
#
# Convention : Reuss Voigt Hill
#
# Bulk Modulus (GPa) = 30.55282 45.68542 38.11912
# Shear Modulus (GPa) = 23.81557 27.47363 25.64460
#
# Velocity S-wave (km/s) = 3.43711 3.69166 3.56666
# Velocity P-wave (km/s) = 5.55945 6.39010 5.98919
#
# Compressibility (1/GPa) = 0.03273021
#
# Stress axis : x y z
#
# Youngs Moduli (GPa) = 77.12244 30.60508 70.57545
#
# Poissons Ratio (x) = 0.26813 0.36171
# Poissons Ratio (y) = 0.67566 -0.02443
# Poissons Ratio (z) = 0.39527 -0.01059
#
# Static dielectric constant tensor:
#      x y z
#    x 4.000480 0.000000 0.071980 
#    y 0.000000 3.288910 0.000000 
#    z 0.071980 0.000000 3.631820 
# 
# 
# High freq. dielectric constant tensor:
#      x y z
#    x 1.797020 0.000000 -0.002020 
#    y 0.000000 1.744900 0.000000 
#    z -0.002020 0.000000 1.792430 
# 
# From -- ./inp_files/48376.got.cif
#   From: 2010.03.12/outbox.cif.g09.slc.cpg/sg5_25_cif.got.tgz:48376.got - 2010.03.31 09:47:26.
