data_PCOD8048736
_publ_section_title
;
Structure prediction by ZEFSAII (Michael W. Deem and Ramdas Pophale) SiO2 
 PCOD8048736
Probable space group: C 2
;
_chemical_formula_sum "Si O2"
_cell_formula_units_Z 28
_cell_length_a 9.175395
_cell_length_b 11.271654
_cell_length_c 14.628225
_cell_angle_alpha 90.000000
_cell_angle_beta 59.964226
_cell_angle_gamma 90.000000
_cell_volume 1309.718655
_symmetry_space_group_name_H-M "C 2"
_symmetry_group_IT_number 5
_symmetry_cell_setting 'monoclinic'
loop_
_space_group_symop_operation_xyz
x,y,z
-x,y,-z
1/2+x,1/2+y,z
1/2-x,1/2+y,-z
loop_
_atom_site_type_symbol
_atom_site_label
_atom_site_fract_x
_atom_site_fract_y
_atom_site_fract_z
Si Si1 0.511218 0.233280 0.402220
Si Si2 0.700341 0.475793 0.365287
Si Si3 0.355919 0.691218 0.486782
Si Si4 0.054214 0.129491 0.254149
Si Si5 0.582543 0.498487 0.880256
Si Si6 0.549653 0.064510 0.232832
Si Si7 0.409717 0.229498 0.120568
O O1 0.500000 0.156760 0.500000
O O2 0.621824 0.346340 0.396381
O O3 0.315923 0.262353 0.437526
O O4 0.597906 0.154101 0.299414
O O5 0.653734 0.556993 0.467837
O O6 0.635700 0.526182 0.289243
O O7 0.904352 0.468762 0.301387
O O8 0.500000 0.759354 0.500000
O O9 0.407387 0.689588 0.363039
O O10 0.205969 0.218993 0.179723
O O11 0.972242 0.080330 0.187050
O O12 0.780347 0.496026 0.840725
O O13 0.533369 0.363281 0.873481
O O14 0.500000 0.545334 0.000000
O O15 0.486920 0.144697 0.170944
O O16 0.500000 0.188089 0.000000
#
# Coordination Sequence:
#
# PCOD8048736 Si02
#       7
#     4   4   4   4   4   4   4
#     4  11  20  34  58  85 116 152 187 226 277 336
#     4   9  20  37  58  84 117 153 187 226 276 338
#     4   9  19  35  55  83 117 149 186 230 276 333
#     4  10  19  37  60  82 114 150 186 233 284 332
#     4  11  23  38  59  86 112 144 191 240 284 332
#     4  10  22  39  58  84 115 148 189 233 279 335
#     4  10  22  40  59  80 111 150 189 234 286 334
#
# _framework density 21.378639
#
# number of rings (size 3 to 8) (size 9 to 14) (size 15 to 20)
#    0.000    2.000    0.000    4.714    0.000    2.286 
#    0.000    0.000    0.000   16.286    0.000    0.000 
#    0.000    0.000    0.000    0.000    0.000    0.000 
#
# Total GULP energy -173480.729525 kJ/mol
# GULP energy per Si atom -12391.480680 kJ/mol
# Density = 2.132998 g / cm^3
# Si number density = 21.378639 Si / 1000 Ang^3
#
#
#
# Elastic Constant Matrix: (Units=GPa)
#
#
# Indices 1 2 3 4 5 6 
#
# 1 98.7567 30.1776 47.6635 0.0000 -2.8353 0.0000
# 2 30.1776 60.0400 32.5317 0.0000 5.5181 0.0000
# 3 47.6635 32.5317 147.8610 0.0000 -4.3871 0.0000
# 4 0.0000 0.0000 0.0000 13.7696 0.0000 -2.0326
# 5 -2.8353 5.5181 -4.3871 0.0000 41.0685 0.0000
# 6 0.0000 0.0000 0.0000 -2.0326 0.0000 37.0531
#
#
#
# Elastic Compliance Matrix: (Units=1/GPa)
#
#
# Indices 1 2 3 4 5 6 
#
# 1 0.013211 -0.005074 -0.003105 0.000000 0.001262 0.000000
# 2 -0.005074 0.021233 -0.003141 0.000000 -0.003539 0.000000
# 3 -0.003105 -0.003141 0.008488 0.000000 0.001114 0.000000
# 4 0.000000 0.000000 0.000000 0.073217 0.000000 0.004017
# 5 0.001262 -0.003539 0.001114 0.000000 0.025031 0.000000
# 6 0.000000 0.000000 0.000000 0.004017 0.000000 0.027209
#
#
# Mechanical properties :
#
#
# Convention : Reuss Voigt Hill
#
# Bulk Modulus (GPa) = 49.27890 58.60036 53.93963
# Shear Modulus (GPa) = 25.27900 31.46388 28.37144
#
# Velocity S-wave (km/s) = 3.44240 3.84049 3.64688
# Velocity P-wave (km/s) = 6.23704 6.86557 6.55884
#
# Compressibility (1/GPa) = 0.02029266
#
# Stress axis : x y z
#
# Youngs Moduli (GPa) = 75.69383 47.09659 117.81207
#
# Poissons Ratio (x) = 0.23896 0.36579
# Poissons Ratio (y) = 0.38406 0.37004
# Poissons Ratio (z) = 0.23502 0.14793
#
# Static dielectric constant tensor:
#      x y z
#    x 4.084510 0.000000 -0.236850 
#    y 0.000000 3.410660 0.000000 
#    z -0.236850 0.000000 4.167380 
# 
# 
# High freq. dielectric constant tensor:
#      x y z
#    x 1.856220 0.000000 -0.008010 
#    y 0.000000 1.803460 0.000000 
#    z -0.008010 0.000000 1.853120 
# 
# From -- ./inp_files/50418.got.cif
#   From: 2010.03.12/outbox.cif.g09.slc.cpg/sg5_26_cif.got.tgz:50418.got - 2010.03.31 09:47:26.
