data_PCOD8048240
_publ_section_title
;
Structure prediction by ZEFSAII (Michael W. Deem and Ramdas Pophale) SiO2 
 PCOD8048240
Probable space group: C 2
;
_chemical_formula_sum "Si O2"
_cell_formula_units_Z 24
_cell_length_a 17.701870
_cell_length_b 14.829246
_cell_length_c 16.029775
_cell_angle_alpha 90.000000
_cell_angle_beta 163.366720
_cell_angle_gamma 90.000000
_cell_volume 1204.490799
_symmetry_space_group_name_H-M "C 2"
_symmetry_group_IT_number 5
_symmetry_cell_setting 'monoclinic'
loop_
_space_group_symop_operation_xyz
x,y,z
-x,y,-z
1/2+x,1/2+y,z
1/2-x,1/2+y,-z
loop_
_atom_site_type_symbol
_atom_site_label
_atom_site_fract_x
_atom_site_fract_y
_atom_site_fract_z
Si Si1 0.277501 0.229020 0.125261
Si Si2 0.000000 0.470615 0.000000
Si Si3 0.286997 0.242405 0.548934
Si Si4 0.500000 0.356544 0.500000
Si Si5 0.852433 0.530966 0.188628
Si Si6 0.568081 0.051578 0.246216
Si Si7 0.334983 0.435745 0.652939
O O1 0.451243 0.252416 0.229014
O O2 0.351668 0.296179 0.276350
O O3 0.326599 0.126495 0.208065
O O4 0.970028 0.243345 0.781032
O O5 0.268616 0.414813 0.297722
O O6 0.958644 0.531685 0.038561
O O7 0.293459 0.150096 0.608648
O O8 0.287319 0.328884 0.609978
O O9 0.831982 0.550189 0.066069
O O10 0.137423 0.485665 0.509154
O O11 0.633596 0.461874 0.990688
O O12 0.774854 0.974302 0.495673
#
# Coordination Sequence:
#
# PCOD8048240 Si02
#       7
#     4   2   4   2   4   4   4
#     4  11  20  38  53  84 113 152 187 237 284 350
#     4  12  26  36  56  84 134 148 178 242 296 372
#     4  11  21  34  62  78 114 153 203 233 274 343
#     4  12  26  36  58  90 120 156 180 232 322 348
#     4   9  19  34  56  76 111 141 194 235 274 327
#     4   9  22  36  54  83 115 152 189 231 295 330
#     4  10  18  33  54  83 102 142 196 241 272 323
#
# _framework density 19.925433000000002
#
# number of rings (size 3 to 8) (size 9 to 14) (size 15 to 20)
#    1.000    0.667    1.667    4.000    4.667    0.000 
#    0.000    0.000    0.000    2.000    0.000    0.000 
#    0.000    0.000    0.000    0.000    0.000    0.000 
#
# Total GULP energy -148713.909741 kJ/mol
# GULP energy per Si atom -12392.825812 kJ/mol
# Density = 1.988008 g / cm^3
# Si number density = 19.925433 Si / 1000 Ang^3
#
#
#
# Elastic Constant Matrix: (Units=GPa)
#
#
# Indices 1 2 3 4 5 6 
#
# 1 32.8740 13.5786 18.0523 0.0069 -0.8642 0.0046
# 2 13.5786 137.4897 41.6801 -0.2151 2.8291 -0.1137
# 3 18.0523 41.6801 96.9726 -0.2072 19.7612 -0.0929
# 4 0.0069 -0.2151 -0.2072 30.2902 -0.1573 4.4005
# 5 -0.8642 2.8291 19.7612 -0.1573 29.9441 -0.0506
# 6 0.0046 -0.1137 -0.0929 4.4005 -0.0506 19.0893
#
#
#
# Elastic Compliance Matrix: (Units=1/GPa)
#
#
# Indices 1 2 3 4 5 6 
#
# 1 0.035063 -0.001430 -0.007101 -0.000032 0.005833 -0.000029
# 2 -0.001430 0.008509 -0.003719 0.000040 0.001609 0.000028
# 3 -0.007101 -0.003719 0.015254 0.000025 -0.009920 0.000022
# 4 -0.000032 0.000040 0.000025 0.034159 0.000145 -0.007874
# 5 0.005833 0.001609 -0.009920 0.000145 0.039959 0.000032
# 6 -0.000029 0.000028 0.000022 -0.007874 0.000032 0.054201
#
#
# Mechanical properties :
#
#
# Convention : Reuss Voigt Hill
#
# Bulk Modulus (GPa) = 29.13304 45.99535 37.56420
# Shear Modulus (GPa) = 22.41273 28.79975 25.60624
#
# Velocity S-wave (km/s) = 3.35749 3.80593 3.58872
# Velocity P-wave (km/s) = 5.44822 6.51517 6.00543
#
# Compressibility (1/GPa) = 0.03432529
#
# Stress axis : x y z
#
# Youngs Moduli (GPa) = 28.52015 117.52479 65.55576
#
# Poissons Ratio (x) = 0.16808 0.46554
# Poissons Ratio (y) = 0.04079 0.24379
# Poissons Ratio (z) = 0.20253 0.43705
#
# Static dielectric constant tensor:
#      x y z
#    x 3.167860 -0.000080 0.268750 
#    y -0.000080 3.801510 -0.000050 
#    z 0.268750 -0.000050 3.505200 
# 
# 
# High freq. dielectric constant tensor:
#      x y z
#    x 1.729820 -0.000010 0.032470 
#    y -0.000010 1.791110 -0.000020 
#    z 0.032470 -0.000020 1.771750 
# 
# From -- ./inp_files/67439.got.cif
#   From: 2010.03.12/outbox.cif.g09.slc.cpg/sg5_34_cif.got.tgz:67439.got - 2010.03.31 09:47:26.
