data_PCOD8048613
_publ_section_title
;
Structure prediction by ZEFSAII (Michael W. Deem and Ramdas Pophale) SiO2 
 PCOD8048613
Probable space group: C 2
;
_chemical_formula_sum "Si O2"
_cell_formula_units_Z 32
_cell_length_a 21.429730
_cell_length_b 8.393705
_cell_length_c 27.190955
_cell_angle_alpha 90.000000
_cell_angle_beta 161.399862
_cell_angle_gamma 90.000000
_cell_volume 1560.031086
_symmetry_space_group_name_H-M "C 2"
_symmetry_group_IT_number 5
_symmetry_cell_setting 'monoclinic'
loop_
_space_group_symop_operation_xyz
x,y,z
-x,y,-z
1/2+x,1/2+y,z
1/2-x,1/2+y,-z
loop_
_atom_site_type_symbol
_atom_site_label
_atom_site_fract_x
_atom_site_fract_y
_atom_site_fract_z
Si Si1 0.108296 0.329610 0.188078
Si Si2 0.910518 0.581863 0.612270
Si Si3 0.364147 0.037431 0.940350
Si Si4 0.381743 0.525996 0.455979
Si Si5 0.644461 0.805079 0.917156
Si Si6 0.006855 0.648989 0.218551
Si Si7 0.859162 0.798643 0.287309
Si Si8 0.997611 0.222787 0.292888
O O1 0.273686 0.377322 0.350524
O O2 0.214235 0.233296 0.222603
O O3 0.951511 0.231496 0.103940
O O4 0.001461 0.491350 0.088933
O O5 0.994988 0.667863 0.723897
O O6 0.676972 0.602905 0.435351
O O7 0.010062 0.656960 0.637736
O O8 0.950167 0.394384 0.645648
O O9 0.197841 0.164816 0.826828
O O10 0.274293 0.869015 0.855508
O O11 0.500000 0.116246 0.000000
O O12 0.500000 0.614069 0.500000
O O13 0.232096 0.652048 0.368484
O O14 0.514860 0.448191 0.597990
O O15 0.547121 0.719260 0.798249
O O16 0.601767 0.990840 0.880764
O O17 0.879633 0.788307 0.098172
#
# Coordination Sequence:
#
# PCOD8048613 Si02
#       8
#     4   4   4   4   4   4   4   4
#     4   9  18  33  57  80 102 136 179 220 261 313
#     4  11  22  35  54  81 113 145 179 221 267 322
#     4  10  20  36  57  80 108 142 179 221 269 321
#     4   9  17  32  55  79 102 132 175 222 260 308
#     4  10  20  35  54  80 107 137 176 219 266 316
#     4  10  20  34  53  79 107 136 175 218 265 315
#     4  10  19  35  57  80 105 138 181 222 265 317
#     4  11  22  36  55  81 112 144 180 221 269 320
#
# _framework density 20.512409999999999
#
# number of rings (size 3 to 8) (size 9 to 14) (size 15 to 20)
#    0.000    2.000    0.000    6.000    0.000    1.000 
#    0.000    4.375    0.000    0.000    0.000   24.500 
#    0.000    0.000    0.000    0.000    0.000    0.000 
#
# Total GULP energy -198290.278076 kJ/mol
# GULP energy per Si atom -12393.142380 kJ/mol
# Density = 2.046572 g / cm^3
# Si number density = 20.512410 Si / 1000 Ang^3
#
#
#
# Elastic Constant Matrix: (Units=GPa)
#
#
# Indices 1 2 3 4 5 6 
#
# 1 153.0511 43.0146 50.6476 -0.0105 25.8855 -0.0037
# 2 43.0146 38.5095 32.4489 0.0003 13.5697 -0.0023
# 3 50.6476 32.4489 107.5685 0.1548 16.0142 0.0730
# 4 -0.0105 0.0003 0.1548 30.4356 0.0175 5.9199
# 5 25.8855 13.5697 16.0142 0.0175 41.5389 -0.0014
# 6 -0.0037 -0.0023 0.0730 5.9199 -0.0014 20.3714
#
#
#
# Elastic Compliance Matrix: (Units=1/GPa)
#
#
# Indices 1 2 3 4 5 6 
#
# 1 0.010027 -0.008855 -0.001645 0.000013 -0.002722 0.000003
# 2 -0.008855 0.045175 -0.008575 0.000039 -0.005934 0.000023
# 3 -0.001645 -0.008575 0.012824 -0.000059 -0.001118 -0.000030
# 4 0.000013 0.000039 -0.000059 0.034825 -0.000013 -0.010120
# 5 -0.002722 -0.005934 -0.001118 -0.000013 0.028139 0.000009
# 6 0.000003 0.000023 -0.000030 -0.010120 0.000009 0.052029
#
#
# Mechanical properties :
#
#
# Convention : Reuss Voigt Hill
#
# Bulk Modulus (GPa) = 33.47100 61.26126 47.36613
# Shear Modulus (GPa) = 21.63310 30.00371 25.81840
#
# Velocity S-wave (km/s) = 3.25104 3.82869 3.55163
# Velocity P-wave (km/s) = 5.51772 7.03388 6.32142
#
# Compressibility (1/GPa) = 0.02987661
#
# Stress axis : x y z
#
# Youngs Moduli (GPa) = 99.72979 22.13622 77.97903
#
# Poissons Ratio (x) = 0.19602 0.12826
# Poissons Ratio (y) = 0.88313 0.66865
# Poissons Ratio (z) = 0.16403 0.18981
#
# Static dielectric constant tensor:
#      x y z
#    x 4.223570 0.000040 0.154060 
#    y 0.000040 3.137140 -0.000230 
#    z 0.154060 -0.000230 4.095490 
# 
# 
# High freq. dielectric constant tensor:
#      x y z
#    x 1.824290 0.000000 -0.002540 
#    y 0.000000 1.733630 -0.000010 
#    z -0.002540 -0.000010 1.829000 
# 
# From -- ./inp_files/71096.got.cif
#   From: 2010.03.12/outbox.cif.g09.slc.cpg/sg5_36_cif.got.tgz:71096.got - 2010.03.31 09:47:26.
