data_PCOD8048890
_publ_section_title
;
Structure prediction by ZEFSAII (Michael W. Deem and Ramdas Pophale) SiO2 
 PCOD8048890
Probable space group: C 2
;
_chemical_formula_sum "Si O2"
_cell_formula_units_Z 20
_cell_length_a 10.245105
_cell_length_b 16.969802
_cell_length_c 7.355638
_cell_angle_alpha 90.000000
_cell_angle_beta 134.216811
_cell_angle_gamma 90.000000
_cell_volume 916.546685
_symmetry_space_group_name_H-M "C 2"
_symmetry_group_IT_number 5
_symmetry_cell_setting 'monoclinic'
loop_
_space_group_symop_operation_xyz
x,y,z
-x,y,-z
1/2+x,1/2+y,z
1/2-x,1/2+y,-z
loop_
_atom_site_type_symbol
_atom_site_label
_atom_site_fract_x
_atom_site_fract_y
_atom_site_fract_z
Si Si1 0.000000 0.426450 0.000000
Si Si2 0.786670 0.798008 0.268851
Si Si3 0.849130 0.248369 0.239413
Si Si4 0.000000 0.677193 0.000000
Si Si5 0.608166 0.644943 0.273640
Si Si6 0.453262 0.056403 0.666829
O O1 0.175093 0.374324 0.223908
O O2 0.980267 0.478852 0.163127
O O3 0.723351 0.720125 0.311711
O O4 0.000000 0.812044 0.500000
O O5 0.738643 0.795709 0.009157
O O6 0.683754 0.226678 0.216914
O O7 0.000000 0.299479 0.500000
O O8 0.964860 0.171708 0.286991
O O9 0.947760 0.628603 0.131849
O O10 0.737875 0.575885 0.477841
O O11 0.500000 0.607020 0.000000
O O12 0.500000 0.053410 0.500000
#
# Coordination Sequence:
#
# PCOD8048890 Si02
#       6
#     2   4   4   2   4   4
#     4  11  26  48  64  98 144 187 218 281 348 408
#     4  11  23  45  70  95 138 186 225 280 345 406
#     4  11  21  36  69 105 134 165 232 289 333 392
#     4  11  22  38  66 106 132 177 222 293 338 396
#     4  10  19  40  71 100 128 175 232 284 334 397
#     4  11  23  43  66  97 141 177 225 284 340 402
#
# _framework density 21.821037
#
# number of rings (size 3 to 8) (size 9 to 14) (size 15 to 20)
#    0.000    1.200    5.000    4.200    0.000    0.800 
#   10.800    0.000    0.000    0.000    0.000    0.000 
#    0.000    0.000    0.000    0.000    0.000    0.000 
#
# Total GULP energy -123905.831656 kJ/mol
# GULP energy per Si atom -12390.583166 kJ/mol
# Density = 2.177137 g / cm^3
# Si number density = 21.821037 Si / 1000 Ang^3
#
#
#
# Elastic Constant Matrix: (Units=GPa)
#
#
# Indices 1 2 3 4 5 6 
#
# 1 104.7151 14.6453 40.3645 0.0000 4.3154 0.0000
# 2 14.6453 54.6301 27.4608 0.0000 6.4239 0.0000
# 3 40.3645 27.4608 165.5324 0.0000 14.0263 0.0000
# 4 0.0000 0.0000 0.0000 26.5794 0.0000 0.5316
# 5 4.3154 6.4239 14.0263 0.0000 58.3948 0.0000
# 6 0.0000 0.0000 0.0000 0.5316 0.0000 11.0413
#
#
#
# Elastic Compliance Matrix: (Units=1/GPa)
#
#
# Indices 1 2 3 4 5 6 
#
# 1 0.010683 -0.001692 -0.002320 0.000000 -0.000046 0.000000
# 2 -0.001692 0.020356 -0.002843 0.000000 -0.001431 0.000000
# 3 -0.002320 -0.002843 0.007184 0.000000 -0.001241 0.000000
# 4 0.000000 0.000000 0.000000 0.037659 0.000000 -0.001813
# 5 -0.000046 -0.001431 -0.001241 0.000000 0.017584 0.000000
# 6 0.000000 0.000000 0.000000 -0.001813 0.000000 0.090656
#
#
# Mechanical properties :
#
#
# Convention : Reuss Voigt Hill
#
# Bulk Modulus (GPa) = 40.79713 54.42429 47.61071
# Shear Modulus (GPa) = 24.27148 35.36358 29.81753
#
# Velocity S-wave (km/s) = 3.33873 4.03006 3.70057
# Velocity P-wave (km/s) = 5.79652 6.83012 6.33444
#
# Compressibility (1/GPa) = 0.02451153
#
# Stress axis : x y z
#
# Youngs Moduli (GPa) = 93.60942 49.12565 139.20318
#
# Poissons Ratio (x) = 0.08312 0.32300
# Poissons Ratio (y) = 0.15839 0.39576
# Poissons Ratio (z) = 0.21721 0.13967
#
# Static dielectric constant tensor:
#      x y z
#    x 3.909070 0.000000 -0.073210 
#    y 0.000000 3.555060 0.000000 
#    z -0.073210 0.000000 4.708850 
# 
# 
# High freq. dielectric constant tensor:
#      x y z
#    x 1.858810 0.000000 -0.007390 
#    y 0.000000 1.801390 0.000000 
#    z -0.007390 0.000000 1.897380 
# 
# From -- ./inp_files/21409.got.cif
#   From: 2010.03.12/outbox.cif.g09.slc.cpg/sg5_11_cif.got.tgz:21409.got - 2010.03.31 09:47:26.
