data_PCOD8048469
_publ_section_title
;
Structure prediction by ZEFSAII (Michael W. Deem and Ramdas Pophale) SiO2 
 PCOD8048469
Probable space group: C 2
;
_chemical_formula_sum "Si O2"
_cell_formula_units_Z 20
_cell_length_a 11.180121
_cell_length_b 14.421302
_cell_length_c 9.378455
_cell_angle_alpha 90.000000
_cell_angle_beta 39.041960
_cell_angle_gamma 90.000000
_cell_volume 952.459559
_symmetry_space_group_name_H-M "C 2"
_symmetry_group_IT_number 5
_symmetry_cell_setting 'monoclinic'
loop_
_space_group_symop_operation_xyz
x,y,z
-x,y,-z
1/2+x,1/2+y,z
1/2-x,1/2+y,-z
loop_
_atom_site_type_symbol
_atom_site_label
_atom_site_fract_x
_atom_site_fract_y
_atom_site_fract_z
Si Si1 0.728724 0.682050 0.390788
Si Si2 0.431838 0.411835 0.843643
Si Si3 0.937100 0.716526 0.716236
Si Si4 0.706159 0.887370 0.331861
Si Si5 0.157792 0.111008 0.155062
O O1 0.661395 0.787674 0.439846
O O2 0.764368 0.637721 0.202414
O O3 0.564912 0.630700 0.628824
O O4 0.919430 0.672635 0.302874
O O5 0.431164 0.328544 0.729464
O O6 0.647371 0.438968 0.695471
O O7 0.323378 0.500492 0.882263
O O8 0.310851 0.371932 0.086128
O O9 0.000000 0.687447 0.500000
O O10 0.738883 0.667046 0.942778
O O11 0.500000 0.938309 0.500000
#
# Coordination Sequence:
#
# PCOD8048469 Si02
#       5
#     4   4   4   4   4
#     4  10  21  41  69  88 124 178 211 246 315 390
#     4  10  23  36  64 100 127 162 216 266 311 373
#     4  11  24  41  64  94 136 163 207 269 323 363
#     4  10  18  40  66  90 127 173 209 250 317 384
#     4  11  22  41  66  93 126 168 218 254 312 381
#
# _framework density 20.998267999999999
#
# number of rings (size 3 to 8) (size 9 to 14) (size 15 to 20)
#    0.000    1.600    4.000    0.600    2.800    6.400 
#    0.000    0.000    4.400    0.000    0.000    0.000 
#    0.000    0.000    0.000    0.000    0.000    0.000 
#
# Total GULP energy -123969.522494 kJ/mol
# GULP energy per Si atom -12396.952249 kJ/mol
# Density = 2.095047 g / cm^3
# Si number density = 20.998268 Si / 1000 Ang^3
#
#
#
# Elastic Constant Matrix: (Units=GPa)
#
#
# Indices 1 2 3 4 5 6 
#
# 1 76.0928 31.6309 24.7091 0.0035 0.1519 -0.0033
# 2 31.6309 98.8485 30.9625 0.0005 12.1208 -0.0005
# 3 24.7091 30.9625 120.2201 0.0022 11.0356 -0.0027
# 4 0.0035 0.0005 0.0022 15.1814 -0.0015 -6.0507
# 5 0.1519 12.1208 11.0356 -0.0015 30.4853 0.0017
# 6 -0.0033 -0.0005 -0.0027 -6.0507 0.0017 26.7765
#
#
#
# Elastic Compliance Matrix: (Units=1/GPa)
#
#
# Indices 1 2 3 4 5 6 
#
# 1 0.015819 -0.004664 -0.002289 -0.000003 0.002604 0.000001
# 2 -0.004664 0.012745 -0.001925 0.000000 -0.004347 0.000000
# 3 -0.002289 -0.001925 0.009530 -0.000001 -0.002673 0.000001
# 4 -0.000003 0.000000 -0.000001 0.072390 0.000003 0.016358
# 5 0.002604 -0.004347 -0.002673 0.000003 0.035486 -0.000002
# 6 0.000001 0.000000 0.000001 0.016358 -0.000002 0.041043
#
#
# Mechanical properties :
#
#
# Convention : Reuss Voigt Hill
#
# Bulk Modulus (GPa) = 49.17063 52.19628 50.68345
# Shear Modulus (GPa) = 23.63542 28.34590 25.99066
#
# Velocity S-wave (km/s) = 3.35862 3.67811 3.52199
# Velocity P-wave (km/s) = 6.20546 6.55357 6.38189
#
# Compressibility (1/GPa) = 0.02033734
#
# Stress axis : x y z
#
# Youngs Moduli (GPa) = 63.21572 78.46219 104.93582
#
# Poissons Ratio (x) = 0.36597 0.24020
# Poissons Ratio (y) = 0.29486 0.20197
# Poissons Ratio (z) = 0.14470 0.15102
#
# Static dielectric constant tensor:
#      x y z
#    x 3.886630 0.000000 -0.179260 
#    y 0.000000 3.527910 0.000000 
#    z -0.179260 0.000000 3.785130 
# 
# 
# High freq. dielectric constant tensor:
#      x y z
#    x 1.810970 0.000000 -0.008490 
#    y 0.000000 1.809560 0.000000 
#    z -0.008490 0.000000 1.829250 
# 
# From -- ./inp_files/21126.got.cif
#   From: 2010.03.12/outbox.cif.g09.slc.cpg/sg5_11_cif.got.tgz:21126.got - 2010.03.31 09:47:26.
