data_PCOD8048165
_publ_section_title
;
Structure prediction by ZEFSAII (Michael W. Deem and Ramdas Pophale) SiO2 
 PCOD8048165
Probable space group: C 2
;
_chemical_formula_sum "Si O2"
_cell_formula_units_Z 26
_cell_length_a 13.464261
_cell_length_b 14.215692
_cell_length_c 11.511996
_cell_angle_alpha 90.000000
_cell_angle_beta 33.015175
_cell_angle_gamma 90.000000
_cell_volume 1200.568633
_symmetry_space_group_name_H-M "C 2"
_symmetry_group_IT_number 5
_symmetry_cell_setting 'monoclinic'
loop_
_space_group_symop_operation_xyz
x,y,z
-x,y,-z
1/2+x,1/2+y,z
1/2-x,1/2+y,-z
loop_
_atom_site_type_symbol
_atom_site_label
_atom_site_fract_x
_atom_site_fract_y
_atom_site_fract_z
Si Si1 0.163137 0.849210 0.691254
Si Si2 0.000000 0.435639 0.000000
Si Si3 0.299342 0.285930 0.710364
Si Si4 0.718275 0.426447 0.887742
Si Si5 0.397354 0.638307 0.986320
Si Si6 0.070726 0.481716 0.681435
Si Si7 0.754761 0.174739 0.469379
O O1 0.248540 0.881903 0.730711
O O2 0.259486 0.911185 0.497273
O O3 0.205655 0.738009 0.630567
O O4 0.945712 0.867047 0.892948
O O5 0.173970 0.373914 0.860100
O O6 0.031813 0.499413 0.855494
O O7 0.500000 0.326619 0.500000
O O8 0.263424 0.239594 0.622599
O O9 0.275375 0.210636 0.842738
O O10 0.902613 0.429260 0.781851
O O11 0.660532 0.533495 0.930059
O O12 0.529165 0.643613 0.743225
O O13 0.500000 0.677211 0.000000
O O14 0.122571 0.584704 0.583019
#
# Coordination Sequence:
#
# PCOD8048165 Si02
#       7
#     4   2   4   4   4   4   4
#     4  11  22  43  68 106 134 170 228 293 331 399
#     4  12  26  42  62  96 140 170 224 274 330 412
#     4  11  21  38  67  95 124 172 231 275 327 392
#     4  11  23  41  72  96 134 175 232 277 342 405
#     4  10  17  38  64  98 128 171 226 282 319 404
#     4  12  25  44  69  96 140 185 220 278 350 409
#     4  11  22  41  70  95 140 177 219 283 351 396
#
# _framework density 21.656403999999998
#
# number of rings (size 3 to 8) (size 9 to 14) (size 15 to 20)
#    0.000    0.923    6.923    2.308    2.154    1.231 
#    2.769    0.000    3.385    0.000    0.000    0.000 
#    0.000    0.000    0.000    0.000    0.000    0.000 
#
# Total GULP energy -161076.799983 kJ/mol
# GULP energy per Si atom -12390.523076 kJ/mol
# Density = 2.160711 g / cm^3
# Si number density = 21.656404 Si / 1000 Ang^3
#
#
#
# Elastic Constant Matrix: (Units=GPa)
#
#
# Indices 1 2 3 4 5 6 
#
# 1 43.1600 12.6482 32.5989 -0.0117 3.6486 0.0050
# 2 12.6482 86.7116 32.6799 -0.0066 -3.0655 0.0034
# 3 32.5989 32.6799 131.3882 -0.0075 -4.4510 0.0039
# 4 -0.0117 -0.0066 -0.0075 35.4388 0.0068 12.8520
# 5 3.6486 -3.0655 -4.4510 0.0068 28.4494 -0.0028
# 6 0.0050 0.0034 0.0039 12.8520 -0.0028 7.0866
#
#
#
# Elastic Compliance Matrix: (Units=1/GPa)
#
#
# Indices 1 2 3 4 5 6 
#
# 1 0.029437 -0.001827 -0.007021 0.000045 -0.005071 -0.000100
# 2 -0.001827 0.012861 -0.002705 0.000006 0.001197 -0.000014
# 3 -0.007021 -0.002705 0.010100 -0.000005 0.002189 0.000011
# 4 0.000045 0.000006 -0.000005 0.082434 -0.000040 -0.149500
# 5 -0.005071 0.001197 0.002189 -0.000040 0.036272 0.000089
# 6 -0.000100 -0.000014 0.000011 -0.149500 0.000089 0.412239
#
#
# Mechanical properties :
#
#
# Convention : Reuss Voigt Hill
#
# Bulk Modulus (GPa) = 34.13950 46.34598 40.24274
# Shear Modulus (GPa) = 8.11410 26.41714 17.26562
#
# Velocity S-wave (km/s) = 1.93775 3.49640 2.82663
# Velocity P-wave (km/s) = 4.56124 6.14384 5.41071
#
# Compressibility (1/GPa) = 0.02929158
#
# Stress axis : x y z
#
# Youngs Moduli (GPa) = 33.97135 77.75599 99.01032
#
# Poissons Ratio (x) = 0.14206 0.69514
# Poissons Ratio (y) = 0.06206 0.26782
# Poissons Ratio (z) = 0.23851 0.21033
#
# Static dielectric constant tensor:
#      x y z
#    x 3.767160 0.000000 -0.627490 
#    y 0.000000 3.788280 -0.000010 
#    z -0.627490 -0.000010 5.788520 
# 
# 
# High freq. dielectric constant tensor:
#      x y z
#    x 1.805090 0.000000 -0.006340 
#    y 0.000000 1.843610 0.000000 
#    z -0.006340 0.000000 1.881420 
# 
# From -- ./inp_files/43039.got.cif
#   From: 2010.03.12/outbox.cif.g09.slc.cpg/sg5_22_cif.got.tgz:43039.got - 2010.03.31 09:47:26.
