data_PCOD8048295
_publ_section_title
;
Structure prediction by ZEFSAII (Michael W. Deem and Ramdas Pophale) SiO2 
 PCOD8048295
Probable space group: C 2
;
_chemical_formula_sum "Si O2"
_cell_formula_units_Z 28
_cell_length_a 16.736921
_cell_length_b 8.191871
_cell_length_c 14.312119
_cell_angle_alpha 90.000000
_cell_angle_beta 43.027291
_cell_angle_gamma 90.000000
_cell_volume 1338.960195
_symmetry_space_group_name_H-M "C 2"
_symmetry_group_IT_number 5
_symmetry_cell_setting 'monoclinic'
loop_
_space_group_symop_operation_xyz
x,y,z
-x,y,-z
1/2+x,1/2+y,z
1/2-x,1/2+y,-z
loop_
_atom_site_type_symbol
_atom_site_label
_atom_site_fract_x
_atom_site_fract_y
_atom_site_fract_z
Si Si1 0.387351 0.201890 0.549156
Si Si2 0.322158 0.902656 0.725439
Si Si3 0.494498 0.301486 0.276687
Si Si4 0.098908 0.720866 0.845217
Si Si5 0.213242 0.408836 0.802270
Si Si6 0.606798 0.609922 0.234402
Si Si7 0.756081 0.169213 0.072488
O O1 0.500000 0.291008 0.500000
O O2 0.412601 0.197544 0.417116
O O3 0.268864 0.300966 0.671137
O O4 0.381809 0.021663 0.599393
O O5 0.222454 0.803510 0.757562
O O6 0.420181 0.781998 0.689464
O O7 0.260300 0.996070 0.863922
O O8 0.439882 0.270978 0.223819
O O9 0.494353 0.496260 0.304758
O O10 0.628374 0.244995 0.163907
O O11 0.111382 0.523558 0.847009
O O12 0.000000 0.785991 0.000000
O O13 0.312950 0.519195 0.760593
O O14 0.168458 0.287609 0.923009
O O15 0.677091 0.647648 0.080178
#
# Coordination Sequence:
#
# PCOD8048295 Si02
#       7
#     4   4   4   4   4   4   4
#     4  11  20  43  62  86 126 163 216 259 306 364
#     4  10  21  37  61  90 125 163 201 264 311 372
#     4  11  22  38  65  86 123 169 200 261 314 366
#     4  11  23  41  60  92 130 160 201 259 321 370
#     4   9  20  37  60  85 123 168 196 256 308 364
#     4  10  18  34  60  94 116 156 216 256 307 364
#     4  10  18  36  62  89 120 159 211 254 304 369
#
# _framework density 20.911749
#
# number of rings (size 3 to 8) (size 9 to 14) (size 15 to 20)
#    0.000    1.714    4.286    4.286    0.000    1.143 
#    5.143    8.571    0.000    0.000    0.000    0.000 
#    0.000    0.000    0.000    0.000    0.000    0.000 
#
# Total GULP energy -173478.232094 kJ/mol
# GULP energy per Si atom -12391.302292 kJ/mol
# Density = 2.086415 g / cm^3
# Si number density = 20.911749 Si / 1000 Ang^3
#
#
#
# Elastic Constant Matrix: (Units=GPa)
#
#
# Indices 1 2 3 4 5 6 
#
# 1 111.5485 54.1734 35.1242 0.0000 24.3071 0.0001
# 2 54.1734 131.0430 35.9513 -0.0001 17.3870 0.0002
# 3 35.1242 35.9513 132.4173 0.0000 42.9300 0.0000
# 4 0.0000 -0.0001 0.0000 26.9088 0.0000 -4.7699
# 5 24.3071 17.3870 42.9300 0.0000 42.2010 0.0000
# 6 0.0001 0.0002 0.0000 -4.7699 0.0000 32.1507
#
#
#
# Elastic Compliance Matrix: (Units=1/GPa)
#
#
# Indices 1 2 3 4 5 6 
#
# 1 0.012250 -0.004285 -0.000553 0.000000 -0.004728 0.000000
# 2 -0.004285 0.009824 -0.001520 0.000000 -0.000033 0.000000
# 3 -0.000553 -0.001520 0.011646 0.000000 -0.010902 0.000000
# 4 0.000000 0.000000 0.000000 0.038166 0.000000 0.005662
# 5 -0.004728 -0.000033 -0.010902 0.000000 0.037523 0.000000
# 6 0.000000 0.000000 0.000000 0.005662 0.000000 0.031944
#
#
# Mechanical properties :
#
#
# Convention : Reuss Voigt Hill
#
# Bulk Modulus (GPa) = 47.61131 69.50075 58.55603
# Shear Modulus (GPa) = 31.04228 36.90275 33.97251
#
# Velocity S-wave (km/s) = 3.85703 4.20538 4.03496
# Velocity P-wave (km/s) = 6.53090 7.54239 7.05480
#
# Compressibility (1/GPa) = 0.02100341
#
# Stress axis : x y z
#
# Youngs Moduli (GPa) = 81.63130 101.79207 85.86834
#
# Poissons Ratio (x) = 0.43620 0.04751
# Poissons Ratio (y) = 0.34981 0.13050
# Poissons Ratio (z) = 0.04517 0.15470
#
# Static dielectric constant tensor:
#      x y z
#    x 3.418660 0.000000 0.355110 
#    y 0.000000 4.043100 0.000000 
#    z 0.355110 0.000000 3.575780 
# 
# 
# High freq. dielectric constant tensor:
#      x y z
#    x 1.794210 0.000000 0.025320 
#    y 0.000000 1.832830 0.000000 
#    z 0.025320 0.000000 1.808490 
# 
# From -- ./inp_files/55721.got.cif
#   From: 2010.03.12/outbox.cif.g09.slc.cpg/sg5_28_cif.got.tgz:55721.got - 2010.03.31 09:47:26.
