data_PCOD8048102
_publ_section_title
;
Structure prediction by ZEFSAII (Michael W. Deem and Ramdas Pophale) SiO2 
 PCOD8048102
Probable space group: C 2
;
_chemical_formula_sum "Si O2"
_cell_formula_units_Z 28
_cell_length_a 11.234887
_cell_length_b 18.159172
_cell_length_c 14.566687
_cell_angle_alpha 90.000000
_cell_angle_beta 148.990922
_cell_angle_gamma 90.000000
_cell_volume 1531.014747
_symmetry_space_group_name_H-M "C 2"
_symmetry_group_IT_number 5
_symmetry_cell_setting 'monoclinic'
loop_
_space_group_symop_operation_xyz
x,y,z
-x,y,-z
1/2+x,1/2+y,z
1/2-x,1/2+y,-z
loop_
_atom_site_type_symbol
_atom_site_label
_atom_site_fract_x
_atom_site_fract_y
_atom_site_fract_z
Si Si1 0.912651 0.110680 0.539047
Si Si2 0.515470 0.420211 0.187784
Si Si3 0.887685 0.610747 0.170887
Si Si4 0.851908 0.252045 0.274394
Si Si5 0.770321 0.532352 0.904668
Si Si6 0.500000 0.521726 0.000000
Si Si7 0.392598 0.253052 0.069763
Si Si8 0.000000 0.377437 0.500000
O O1 0.644496 0.092522 0.377209
O O2 0.000000 0.078003 0.500000
O O3 0.936612 0.199358 0.558048
O O4 0.078865 0.081310 0.728113
O O5 0.352099 0.454567 0.157119
O O6 0.434582 0.336194 0.128655
O O7 0.785374 0.425418 0.395043
O O8 0.498837 0.467204 0.084515
O O9 0.843654 0.698558 0.123856
O O10 0.844451 0.572948 0.045347
O O11 0.719198 0.576984 0.137068
O O12 0.619183 0.221037 0.168319
O O13 0.910673 0.332119 0.352762
O O14 0.819091 0.255025 0.142699
O O15 0.000000 0.516466 0.000000
#
# Coordination Sequence:
#
# PCOD8048102 Si02
#       8
#     4   4   4   4   4   2   4   2
#     4  12  19  32  60  92 110 142 186 244 293 334
#     4  10  22  37  57  80 119 155 192 235 293 346
#     4  11  22  38  62  85 120 149 196 235 292 348
#     4  10  17  29  57  89 112 133 196 247 287 327
#     4  11  22  38  56  87 116 152 191 239 289 345
#     4  10  24  42  54  86 120 164 184 236 300 358
#     4  10  18  35  58  85 111 155 188 245 285 339
#     4  10  18  32  52  88 114 144 190 242 288 344
#
# _framework density 18.288523000000001
#
# number of rings (size 3 to 8) (size 9 to 14) (size 15 to 20)
#    0.000    1.429    5.000    2.571    2.000    0.000 
#    1.286    0.000    0.000    0.000    0.000    0.000 
#    0.000    0.000    0.000    0.000    0.000    0.000 
#
# Total GULP energy -173536.440815 kJ/mol
# GULP energy per Si atom -12395.460058 kJ/mol
# Density = 1.824690 g / cm^3
# Si number density = 18.288523 Si / 1000 Ang^3
#
#
#
# Elastic Constant Matrix: (Units=GPa)
#
#
# Indices 1 2 3 4 5 6 
#
# 1 66.8570 36.1394 26.0706 -0.1203 24.1712 0.0421
# 2 36.1394 96.7421 21.5472 -0.1319 19.0520 0.0467
# 3 26.0706 21.5472 109.1400 -0.4244 23.1722 0.1510
# 4 -0.1203 -0.1319 -0.4244 -348.3238 -0.0040 127.9444
# 5 24.1712 19.0520 23.1722 -0.0040 27.6731 0.0018
# 6 0.0421 0.0467 0.1510 127.9444 0.0018 -12.8706
#
#
#
# Elastic Compliance Matrix: (Units=1/GPa)
#
#
# Indices 1 2 3 4 5 6 
#
# 1 0.024409 -0.005609 -0.001236 -0.000004 -0.016423 0.000001
# 2 -0.005609 0.013297 -0.000464 -0.000002 -0.003867 0.000000
# 3 -0.001236 -0.000464 0.011253 -0.000012 -0.008023 0.000002
# 4 -0.000004 -0.000002 -0.000012 0.001083 0.000015 0.010764
# 5 -0.016423 -0.003867 -0.008023 0.000015 0.059861 -0.000003
# 6 0.000001 0.000000 0.000002 0.010764 -0.000003 0.029304
#
#
# Mechanical properties :
#
#
# Convention : Reuss Voigt Hill
#
# Bulk Modulus (GPa) = 29.12081 48.91705 39.01893
# Shear Modulus (GPa) = 30.25320 -54.10547 -11.92613
#
# Velocity S-wave (km/s) = 4.07162 -5.44505 -2.55642
# Velocity P-wave (km/s) = 6.16941 3.56735 3.55919
#
# Compressibility (1/GPa) = 0.03433971
#
# Stress axis : x y z
#
# Youngs Moduli (GPa) = 40.96897 75.20587 88.86564
#
# Poissons Ratio (x) = 0.42179 0.10987
# Poissons Ratio (y) = 0.22978 0.04128
# Poissons Ratio (z) = 0.05065 0.03493
#
# Static dielectric constant tensor:
#      x y z
#    x 4.866680 0.000010 0.839980 
#    y 0.000010 3.440040 0.000000 
#    z 0.839980 0.000000 3.889830 
# 
# 
# High freq. dielectric constant tensor:
#      x y z
#    x 1.674220 0.000000 0.002340 
#    y 0.000000 1.707440 0.000000 
#    z 0.002340 0.000000 1.726230 
# 
# From -- ./inp_files/53350.got.cif
#   From: 2010.03.12/outbox.cif.g09.slc.cpg/sg5_27_cif.got.tgz:53350.got - 2010.03.31 09:47:26.
