data_PCOD8048945
_publ_section_title
;
Structure prediction by ZEFSAII (Michael W. Deem and Ramdas Pophale) SiO2 
 PCOD8048945
Probable space group: C 2
;
_chemical_formula_sum "Si O2"
_cell_formula_units_Z 30
_cell_length_a 22.776101
_cell_length_b 6.539694
_cell_length_c 11.389071
_cell_angle_alpha 90.000000
_cell_angle_beta 113.648931
_cell_angle_gamma 90.000000
_cell_volume 1553.925875
_symmetry_space_group_name_H-M "C 2"
_symmetry_group_IT_number 5
_symmetry_cell_setting 'monoclinic'
loop_
_space_group_symop_operation_xyz
x,y,z
-x,y,-z
1/2+x,1/2+y,z
1/2-x,1/2+y,-z
loop_
_atom_site_type_symbol
_atom_site_label
_atom_site_fract_x
_atom_site_fract_y
_atom_site_fract_z
Si Si1 0.975371 0.157530 0.288158
Si Si2 0.603738 0.459621 0.328922
Si Si3 0.090234 0.603302 0.168337
Si Si4 0.821263 0.711605 0.437165
Si Si5 0.314894 0.855280 0.600705
Si Si6 0.905121 0.766406 0.306363
Si Si7 0.500000 0.972335 0.500000
Si Si8 0.053928 0.520995 0.878657
O O1 0.935765 0.287207 0.158516
O O2 0.011154 0.323604 0.398576
O O3 0.928929 0.003137 0.322995
O O4 0.030465 0.029461 0.270317
O O5 0.610321 0.339186 0.209741
O O6 0.616809 0.302405 0.444981
O O7 0.655707 0.633118 0.389077
O O8 0.145354 0.463710 0.265508
O O9 0.022029 0.561644 0.175824
O O10 0.087992 0.554147 0.029546
O O11 0.758085 0.838520 0.417057
O O12 0.815377 0.476165 0.476468
O O13 0.834028 0.745546 0.306958
O O14 0.910684 0.678753 0.180026
O O15 0.941325 0.621454 0.428404
#
# Coordination Sequence:
#
# PCOD8048945 Si02
#       8
#     4   4   4   4   4   4   2   4
#     4  11  20  35  59  92 118 159 192 240 316 357
#     4  11  20  36  61  90 118 157 194 244 302 354
#     4  10  22  40  61  85 123 155 202 253 290 355
#     4  11  23  38  61  87 124 154 201 248 293 367
#     4  11  22  40  61  88 117 161 204 241 297 353
#     4  11  22  36  57  87 125 154 194 248 308 352
#     4  10  20  32  52  88 128 152 182 244 300 370
#     4  10  22  40  58  90 122 153 201 252 297 353
#
# _framework density 19.305941000000001
#
# number of rings (size 3 to 8) (size 9 to 14) (size 15 to 20)
#    0.000    1.333    4.000    2.800    3.733    2.133 
#    0.000    0.000    5.867    0.000    0.000    0.000 
#    0.000    0.000    0.000    0.000    0.000    0.000 
#
# Total GULP energy -185904.068081 kJ/mol
# GULP energy per Si atom -12393.604539 kJ/mol
# Density = 1.926200 g / cm^3
# Si number density = 19.305941 Si / 1000 Ang^3
#
#
#
# Elastic Constant Matrix: (Units=GPa)
#
#
# Indices 1 2 3 4 5 6 
#
# 1 80.5018 37.4381 36.9174 0.0000 -21.3303 0.0000
# 2 37.4381 123.6516 47.1214 0.0000 -13.7393 0.0000
# 3 36.9174 47.1214 105.3538 0.0000 -19.2484 0.0000
# 4 0.0000 0.0000 0.0000 12.3799 0.0000 0.6795
# 5 -21.3303 -13.7393 -19.2484 0.0000 28.4140 0.0000
# 6 0.0000 0.0000 0.0000 0.6795 0.0000 31.7833
#
#
#
# Elastic Compliance Matrix: (Units=1/GPa)
#
#
# Indices 1 2 3 4 5 6 
#
# 1 0.017903 -0.003160 -0.003063 0.000000 0.009837 0.000000
# 2 -0.003160 0.010408 -0.003494 0.000000 0.000293 0.000000
# 3 -0.003063 -0.003494 0.013009 0.000000 0.004824 0.000000
# 4 0.000000 0.000000 0.000000 0.080871 0.000000 -0.001729
# 5 0.009837 0.000293 0.004824 0.000000 0.045988 0.000000
# 6 0.000000 0.000000 0.000000 -0.001729 0.000000 0.031500
#
#
# Mechanical properties :
#
#
# Convention : Reuss Voigt Hill
#
# Bulk Modulus (GPa) = 45.69185 61.38455 53.53820
# Shear Modulus (GPa) = 22.08391 27.05079 24.56735
#
# Velocity S-wave (km/s) = 3.38582 3.74727 3.57112
# Velocity P-wave (km/s) = 6.24529 7.11249 6.69295
#
# Compressibility (1/GPa) = 0.02188574
#
# Stress axis : x y z
#
# Youngs Moduli (GPa) = 55.85742 96.07729 76.86812
#
# Poissons Ratio (x) = 0.30363 0.23542
# Poissons Ratio (y) = 0.17653 0.26860
# Poissons Ratio (z) = 0.17107 0.33572
#
# Static dielectric constant tensor:
#      x y z
#    x 3.434050 0.000000 -0.100110 
#    y 0.000000 3.912740 0.000000 
#    z -0.100110 0.000000 3.355500 
# 
# 
# High freq. dielectric constant tensor:
#      x y z
#    x 1.733420 0.000000 -0.012350 
#    y 0.000000 1.772320 0.000000 
#    z -0.012350 0.000000 1.728590 
# 
# From -- ./inp_files/46977.got.cif
#   From: 2010.03.12/outbox.cif.g09.slc.cpg/sg5_24_cif.got.tgz:46977.got - 2010.03.31 09:47:26.
