data_PCOD8048471
_publ_section_title
;
Structure prediction by ZEFSAII (Michael W. Deem and Ramdas Pophale) SiO2 
 PCOD8048471
Probable space group: C 2
;
_chemical_formula_sum "Si O2"
_cell_formula_units_Z 26
_cell_length_a 8.975944
_cell_length_b 19.576930
_cell_length_c 12.554865
_cell_angle_alpha 90.000000
_cell_angle_beta 34.802807
_cell_angle_gamma 90.000000
_cell_volume 1259.173509
_symmetry_space_group_name_H-M "C 2"
_symmetry_group_IT_number 5
_symmetry_cell_setting 'monoclinic'
loop_
_space_group_symop_operation_xyz
x,y,z
-x,y,-z
1/2+x,1/2+y,z
1/2-x,1/2+y,-z
loop_
_atom_site_type_symbol
_atom_site_label
_atom_site_fract_x
_atom_site_fract_y
_atom_site_fract_z
Si Si1 0.236314 0.281560 0.593489
Si Si2 0.637390 0.180258 0.660005
Si Si3 0.000000 0.872331 0.000000
Si Si4 0.184376 0.561665 0.493419
Si Si5 0.767697 0.757540 0.009628
Si Si6 0.036382 0.412811 0.601820
Si Si7 0.232354 0.132963 0.187140
O O1 0.500000 0.270006 0.500000
O O2 0.192942 0.221839 0.529082
O O3 0.033439 0.279895 0.811696
O O4 0.214672 0.354289 0.548507
O O5 0.547062 0.108714 0.662513
O O6 0.795531 0.159400 0.674091
O O7 0.378442 0.225513 0.835428
O O8 0.946373 0.823125 0.930809
O O9 0.749462 0.918388 0.175374
O O10 0.482897 0.587106 0.300284
O O11 0.000000 0.567858 0.500000
O O12 0.189036 0.483653 0.530458
O O13 0.773865 0.700966 0.096297
O O14 0.000000 0.395455 0.500000
O O15 0.500000 0.090407 0.000000
#
# Coordination Sequence:
#
# PCOD8048471 Si02
#       7
#     4   4   2   4   4   4   4
#     4  11  24  39  62  97 131 163 215 279 326 383
#     4  11  21  38  66  93 125 172 211 267 334 378
#     4  10  18  40  66  96 116 156 230 266 306 394
#     4  11  24  43  62  97 136 173 221 268 323 393
#     4  10  20  36  65  97 121 154 217 274 310 388
#     4  10  24  43  67  86 129 178 220 262 325 389
#     4  10  21  39  65  96 125 167 218 263 322 391
#
# _framework density 20.648465999999999
#
# number of rings (size 3 to 8) (size 9 to 14) (size 15 to 20)
#    0.000    1.538    3.846    1.846    2.154    1.846 
#   13.846    0.000    3.385    0.000    0.000    0.000 
#    0.000    0.000    0.000    0.000    0.000    0.000 
#
# Total GULP energy -161045.248404 kJ/mol
# GULP energy per Si atom -12388.096031 kJ/mol
# Density = 2.060147 g / cm^3
# Si number density = 20.648466 Si / 1000 Ang^3
#
#
#
# Elastic Constant Matrix: (Units=GPa)
#
#
# Indices 1 2 3 4 5 6 
#
# 1 74.8936 33.7552 14.7357 0.0035 -15.8777 0.0056
# 2 33.7552 97.2304 14.2991 -0.0078 -8.1579 0.0091
# 3 14.7357 14.2991 99.2993 -0.0022 -12.5690 -0.0148
# 4 0.0035 -0.0078 -0.0022 9.6819 -0.0056 7.5288
# 5 -15.8777 -8.1579 -12.5690 -0.0056 34.2413 0.0140
# 6 0.0056 0.0091 -0.0148 7.5288 0.0140 24.5348
#
#
#
# Elastic Compliance Matrix: (Units=1/GPa)
#
#
# Indices 1 2 3 4 5 6 
#
# 1 0.017302 -0.005325 -0.000992 -0.000003 0.006390 -0.000005
# 2 -0.005325 0.012284 -0.000966 0.000019 0.000103 -0.000010
# 3 -0.000992 -0.000966 0.010770 0.000000 0.003263 0.000005
# 4 -0.000003 0.000019 0.000000 0.135655 0.000042 -0.041627
# 5 0.006390 0.000103 0.003263 0.000042 0.033390 -0.000032
# 6 -0.000005 -0.000010 0.000005 -0.041627 -0.000032 0.053532
#
#
# Mechanical properties :
#
#
# Convention : Reuss Voigt Hill
#
# Bulk Modulus (GPa) = 38.77267 44.11150 41.44209
# Shear Modulus (GPa) = 17.47670 27.60050 22.53860
#
# Velocity S-wave (km/s) = 2.91244 3.66004 3.30743
# Velocity P-wave (km/s) = 5.48890 6.26663 5.89061
#
# Compressibility (1/GPa) = 0.02579136
#
# Stress axis : x y z
#
# Youngs Moduli (GPa) = 57.79657 81.40629 92.85152
#
# Poissons Ratio (x) = 0.43346 0.09211
# Poissons Ratio (y) = 0.30775 0.08967
# Poissons Ratio (z) = 0.05733 0.07861
#
# Static dielectric constant tensor:
#      x y z
#    x 3.537620 0.000000 -0.238800 
#    y 0.000000 3.720250 0.000050 
#    z -0.238800 0.000050 5.056550 
# 
# 
# High freq. dielectric constant tensor:
#      x y z
#    x 1.790910 0.000000 -0.008430 
#    y 0.000000 1.796660 0.000000 
#    z -0.008430 0.000000 1.827590 
# 
# From -- ./inp_files/37270.got.cif
#   From: 2010.03.12/outbox.cif.g09.slc.cpg/sg5_19_cif.got.tgz:37270.got - 2010.03.31 09:47:26.
