data_PCOD8048253
_publ_section_title
;
Structure prediction by ZEFSAII (Michael W. Deem and Ramdas Pophale) SiO2 
 PCOD8048253
Probable space group: C 2
;
_chemical_formula_sum "Si O2"
_cell_formula_units_Z 28
_cell_length_a 8.972833
_cell_length_b 16.766980
_cell_length_c 9.007826
_cell_angle_alpha 90.000000
_cell_angle_beta 88.992694
_cell_angle_gamma 90.000000
_cell_volume 1354.993773
_symmetry_space_group_name_H-M "C 2"
_symmetry_group_IT_number 5
_symmetry_cell_setting 'monoclinic'
loop_
_space_group_symop_operation_xyz
x,y,z
-x,y,-z
1/2+x,1/2+y,z
1/2-x,1/2+y,-z
loop_
_atom_site_type_symbol
_atom_site_label
_atom_site_fract_x
_atom_site_fract_y
_atom_site_fract_z
Si Si1 0.845887 0.254690 0.459652
Si Si2 0.072654 0.830841 0.342453
Si Si3 0.638651 0.189636 0.701588
Si Si4 0.173497 0.588106 0.979647
Si Si5 0.371451 0.490369 0.778585
Si Si6 0.155425 0.531306 0.527192
Si Si7 0.656488 0.597407 0.727226
O O1 0.747464 0.314403 0.364287
O O2 0.770677 0.236389 0.619242
O O3 0.882296 0.175265 0.366076
O O4 0.000000 0.297548 0.500000
O O5 0.000000 0.857065 0.500000
O O6 0.002297 0.748766 0.281944
O O7 0.057401 0.901340 0.219631
O O8 0.689284 0.160722 0.862980
O O9 0.597404 0.114152 0.600856
O O10 0.266720 0.510507 0.921494
O O11 0.246955 0.619055 0.129523
O O12 0.000000 0.564034 0.000000
O O13 0.269245 0.487880 0.634062
O O14 0.500482 0.556185 0.770394
O O15 0.241688 0.538825 0.371091
O O16 0.000000 0.483384 0.500000
#
# Coordination Sequence:
#
# PCOD8048253 Si02
#       7
#     4   4   4   4   4   4   4
#     4  10  19  34  60  88 115 143 186 240 286 332
#     4  10  20  37  59  86 116 149 186 233 288 344
#     4   9  19  36  58  84 113 147 192 235 281 343
#     4  11  22  38  58  83 115 155 196 236 282 342
#     4  11  23  37  57  86 118 152 193 237 287 339
#     4  10  18  33  58  86 113 149 193 235 277 334
#     4  11  20  35  58  85 116 151 189 236 282 334
#
# _framework density 20.664301999999999
#
# number of rings (size 3 to 8) (size 9 to 14) (size 15 to 20)
#    0.000    1.714    0.000    9.000    0.000    0.571 
#    0.000    7.143    0.000    3.429    0.000    0.000 
#    0.000    0.000    0.000    0.000    0.000    0.000 
#
# Total GULP energy -173556.023023 kJ/mol
# GULP energy per Si atom -12396.858787 kJ/mol
# Density = 2.061727 g / cm^3
# Si number density = 20.664302 Si / 1000 Ang^3
#
#
#
# Elastic Constant Matrix: (Units=GPa)
#
#
# Indices 1 2 3 4 5 6 
#
# 1 134.0220 18.1582 22.5913 0.0000 3.0415 0.0000
# 2 18.1582 77.8455 8.5261 0.0000 -8.4215 0.0000
# 3 22.5913 8.5261 93.0330 0.0000 4.4282 0.0000
# 4 0.0000 0.0000 0.0000 18.2895 0.0000 1.0974
# 5 3.0415 -8.4215 4.4282 0.0000 36.2254 0.0000
# 6 0.0000 0.0000 0.0000 1.0974 0.0000 20.6834
#
#
#
# Elastic Compliance Matrix: (Units=1/GPa)
#
#
# Indices 1 2 3 4 5 6 
#
# 1 0.008015 -0.001773 -0.001742 0.000000 -0.000872 0.000000
# 2 -0.001773 0.013743 -0.000994 0.000000 0.003465 0.000000
# 3 -0.001742 -0.000994 0.011333 0.000000 -0.001470 0.000000
# 4 0.000000 0.000000 0.000000 0.054851 0.000000 -0.002910
# 5 -0.000872 0.003465 -0.001470 0.000000 0.028663 0.000000
# 6 0.000000 0.000000 0.000000 -0.002910 0.000000 0.048502
#
#
# Mechanical properties :
#
#
# Convention : Reuss Voigt Hill
#
# Bulk Modulus (GPa) = 41.54065 44.82797 43.18431
# Shear Modulus (GPa) = 27.44974 32.08132 29.76553
#
# Velocity S-wave (km/s) = 3.64863 3.94445 3.79942
# Velocity P-wave (km/s) = 6.15599 6.51809 6.33963
#
# Compressibility (1/GPa) = 0.02407281
#
# Stress axis : x y z
#
# Youngs Moduli (GPa) = 124.76317 72.76274 88.23765
#
# Poissons Ratio (x) = 0.12902 0.15374
# Poissons Ratio (y) = 0.22122 0.08770
# Poissons Ratio (z) = 0.21738 0.07232
#
# Static dielectric constant tensor:
#      x y z
#    x 3.969210 0.000000 -0.077030 
#    y 0.000000 3.440770 0.000000 
#    z -0.077030 0.000000 3.698380 
# 
# 
# High freq. dielectric constant tensor:
#      x y z
#    x 1.829940 0.000000 -0.003090 
#    y 0.000000 1.777990 0.000000 
#    z -0.003090 0.000000 1.795470 
# 
# From -- ./inp_files/16089.got.cif
#   From: 2010.03.12/outbox.cif.g09.slc.cpg/sg5_9_cif.got.tgz:16089.got - 2010.03.31 09:47:26.
