data_PCOD8048038
_publ_section_title
;
Structure prediction by ZEFSAII (Michael W. Deem and Ramdas Pophale) SiO2 
 PCOD8048038
Probable space group: C 2
;
_chemical_formula_sum "Si O2"
_cell_formula_units_Z 20
_cell_length_a 20.923540
_cell_length_b 7.121033
_cell_length_c 5.247865
_cell_angle_alpha 90.000000
_cell_angle_beta 81.901138
_cell_angle_gamma 90.000000
_cell_volume 774.118803
_symmetry_space_group_name_H-M "C 2"
_symmetry_group_IT_number 5
_symmetry_cell_setting 'monoclinic'
loop_
_space_group_symop_operation_xyz
x,y,z
-x,y,-z
1/2+x,1/2+y,z
1/2-x,1/2+y,-z
loop_
_atom_site_type_symbol
_atom_site_label
_atom_site_fract_x
_atom_site_fract_y
_atom_site_fract_z
Si Si1 0.739729 0.958210 0.693474
Si Si2 0.429415 0.211013 0.970952
Si Si3 0.565709 0.569288 0.335040
Si Si4 0.362861 0.242020 0.512246
Si Si5 0.678723 0.825071 0.239991
O O1 0.787365 0.787019 0.602924
O O2 0.688275 0.973071 0.477170
O O3 0.776621 0.150470 0.712745
O O4 0.700726 0.915666 0.967918
O O5 0.440164 0.434883 0.911882
O O6 0.396053 0.123229 0.730680
O O7 0.500000 0.123442 0.000000
O O8 0.378103 0.161265 0.221556
O O9 0.500000 0.637613 0.500000
O O10 0.602170 0.445125 0.526791
O O11 0.605427 0.756917 0.246231
#
# Coordination Sequence:
#
# PCOD8048038 Si02
#       5
#     4   4   4   4   4
#     4  11  23  40  58  90 122 166 204 251 300 374
#     4  10  15  27  48  79 113 143 181 248 310 330
#     4   9  19  31  54  86 116 148 195 264 298 341
#     4   9  18  29  50  76 117 148 183 238 300 350
#     4  11  24  38  63  88 127 160 206 248 313 362
#
# _framework density 25.835825
#
# number of rings (size 3 to 8) (size 9 to 14) (size 15 to 20)
#    1.200    0.800    2.000    3.000    5.600    0.000 
#    0.000    0.000    0.000    0.000    0.000   61.600 
#    0.000    0.000    0.000    0.000    0.000    0.000 
#
# Total GULP energy -123934.475515 kJ/mol
# GULP energy per Si atom -12393.447552 kJ/mol
# Density = 2.577702 g / cm^3
# Si number density = 25.835825 Si / 1000 Ang^3
#
#
#
# Elastic Constant Matrix: (Units=GPa)
#
#
# Indices 1 2 3 4 5 6 
#
# 1 145.7118 27.7709 95.7303 0.0000 7.6403 0.0000
# 2 27.7709 67.5502 43.4202 0.0000 -13.9915 0.0000
# 3 95.7303 43.4202 237.1861 0.0000 -9.4001 0.0000
# 4 0.0000 0.0000 0.0000 27.5883 0.0000 18.9711
# 5 7.6403 -13.9915 -9.4001 0.0000 58.4661 0.0000
# 6 0.0000 0.0000 0.0000 18.9711 0.0000 13.7696
#
#
#
# Elastic Compliance Matrix: (Units=1/GPa)
#
#
# Indices 1 2 3 4 5 6 
#
# 1 0.009803 -0.002177 -0.003653 0.000000 -0.002389 0.000000
# 2 -0.002177 0.018024 -0.002253 0.000000 0.004236 0.000000
# 3 -0.003653 -0.002253 0.006139 0.000000 0.000925 0.000000
# 4 0.000000 0.000000 0.000000 0.689282 0.000000 -0.949663
# 5 -0.002389 0.004236 0.000925 0.000000 0.018579 0.000000
# 6 0.000000 0.000000 0.000000 -0.949663 0.000000 1.381027
#
#
# Mechanical properties :
#
#
# Convention : Reuss Voigt Hill
#
# Bulk Modulus (GPa) = 56.17642 87.14344 71.65993
# Shear Modulus (GPa) = 2.33105 38.86658 20.59882
#
# Velocity S-wave (km/s) = 0.95090 3.88283 2.82671
# Velocity P-wave (km/s) = 4.79546 7.34198 6.20085
#
# Compressibility (1/GPa) = 0.01780106
#
# Stress axis : x y z
#
# Youngs Moduli (GPa) = 102.01167 55.48035 162.88092
#
# Poissons Ratio (x) = 0.12079 0.59494
# Poissons Ratio (y) = 0.22209 0.36698
# Poissons Ratio (z) = 0.37261 0.12500
#
# Static dielectric constant tensor:
#      x y z
#    x 4.907240 0.000000 0.139290 
#    y 0.000000 5.021170 0.000000 
#    z 0.139290 0.000000 4.585250 
# 
# 
# High freq. dielectric constant tensor:
#      x y z
#    x 2.053010 0.000000 0.003580 
#    y 0.000000 2.043530 0.000000 
#    z 0.003580 0.000000 2.038030 
# 
# From -- ./inp_files/9260.got.cif
#   From: 2010.03.12/outbox.cif.g09.slc.cpg/sg5_5_cif.got.tgz:9260.got - 2010.03.31 09:47:26.
