data_PCOD8048195
_publ_section_title
;
Structure prediction by ZEFSAII (Michael W. Deem and Ramdas Pophale) SiO2 
 PCOD8048195
Probable space group: C 2
;
_chemical_formula_sum "Si O2"
_cell_formula_units_Z 26
_cell_length_a 7.869696
_cell_length_b 21.913299
_cell_length_c 11.019227
_cell_angle_alpha 90.000000
_cell_angle_beta 44.422837
_cell_angle_gamma 90.000000
_cell_volume 1330.095012
_symmetry_space_group_name_H-M "C 2"
_symmetry_group_IT_number 5
_symmetry_cell_setting 'monoclinic'
loop_
_space_group_symop_operation_xyz
x,y,z
-x,y,-z
1/2+x,1/2+y,z
1/2-x,1/2+y,-z
loop_
_atom_site_type_symbol
_atom_site_label
_atom_site_fract_x
_atom_site_fract_y
_atom_site_fract_z
Si Si1 0.111795 0.707870 0.194209
Si Si2 0.307729 0.008843 0.692266
Si Si3 0.500193 0.707870 0.805801
Si Si4 0.020134 0.079877 0.294917
Si Si5 0.109964 0.579876 0.705078
Si Si6 0.299625 0.297675 0.500005
Si Si7 0.000000 0.392190 0.500000
O O1 0.268671 0.689415 0.231333
O O2 0.982262 0.647083 0.214891
O O3 0.920676 0.759566 0.329372
O O4 0.280810 0.734141 0.000005
O O5 0.500000 0.038125 0.500000
O O6 0.044431 0.034420 0.784463
O O7 0.386636 0.034419 0.784459
O O8 0.326156 0.935047 0.673836
O O9 0.412023 0.647085 0.785118
O O10 0.579397 0.759569 0.670647
O O11 0.799870 0.085543 0.499997
O O12 0.257433 0.053346 0.242575
O O13 0.500000 0.316949 0.500000
O O14 0.176198 0.355684 0.500003
#
# Coordination Sequence:
#
# PCOD8048195 Si02
#       7
#     4   4   4   4   4   4   2
#     4  10  20  34  56  85 118 149 181 231 292 343
#     4   8  18  34  53  80 115 141 189 237 271 331
#     4  10  20  34  56  85 118 149 181 231 292 343
#     4  10  18  30  55  85 111 144 177 228 290 335
#     4  10  18  30  55  85 111 144 177 228 290 335
#     4  10  22  37  55  79 115 152 194 235 274 328
#     4  10  22  36  58  84 108 160 208 222 276 340
#
# _framework density 19.547474999999999
#
# number of rings (size 3 to 8) (size 9 to 14) (size 15 to 20)
#    0.462    1.846    3.077    0.000    2.154    1.846 
#    0.000    0.000    0.000    3.692    0.000    4.308 
#    0.000    0.000    0.000    0.000    0.000    0.000 
#
# Total GULP energy -161089.007036 kJ/mol
# GULP energy per Si atom -12391.462080 kJ/mol
# Density = 1.950298 g / cm^3
# Si number density = 19.547475 Si / 1000 Ang^3
#
#
#
# Elastic Constant Matrix: (Units=GPa)
#
#
# Indices 1 2 3 4 5 6 
#
# 1 139.0486 76.6238 39.4526 0.0000 -0.9257 0.0000
# 2 76.6238 127.5683 32.9444 0.0000 -0.5066 0.0000
# 3 39.4526 32.9444 72.1279 0.0000 0.1538 0.0000
# 4 0.0000 0.0000 0.0000 0.6259 0.0000 -0.3575
# 5 -0.9257 -0.5066 0.1538 0.0000 10.0417 0.0000
# 6 0.0000 0.0000 0.0000 -0.3575 0.0000 31.4147
#
#
#
# Elastic Compliance Matrix: (Units=1/GPa)
#
#
# Indices 1 2 3 4 5 6 
#
# 1 0.011508 -0.005989 -0.003561 0.000000 0.000813 0.000000
# 2 -0.005989 0.012007 -0.002208 0.000000 0.000087 0.000000
# 3 -0.003561 -0.002208 0.016822 0.000000 -0.000697 0.000000
# 4 0.000000 0.000000 0.000000 1.608062 0.000000 0.018298
# 5 0.000813 0.000087 -0.000697 0.000000 0.099675 0.000000
# 6 0.000000 0.000000 0.000000 0.018298 0.000000 0.032040
#
#
# Mechanical properties :
#
#
# Convention : Reuss Voigt Hill
#
# Bulk Modulus (GPa) = 59.45235 70.75404 65.10319
# Shear Modulus (GPa) = 2.76359 21.06474 11.91417
#
# Velocity S-wave (km/s) = 1.19032 3.28627 2.47148
# Velocity P-wave (km/s) = 5.68942 7.11857 6.44374
#
# Compressibility (1/GPa) = 0.01682019
#
# Stress axis : x y z
#
# Youngs Moduli (GPa) = 86.89625 83.28362 59.44584
#
# Poissons Ratio (x) = 0.49883 0.21167
# Poissons Ratio (y) = 0.52046 0.13128
# Poissons Ratio (z) = 0.30941 0.18392
#
# Static dielectric constant tensor:
#      x y z
#    x 3.850430 0.000000 -0.005550 
#    y 0.000000 3.195460 0.000000 
#    z -0.005550 0.000000 3.372350 
# 
# 
# High freq. dielectric constant tensor:
#      x y z
#    x 1.778540 0.000000 -0.000470 
#    y 0.000000 1.724810 0.000000 
#    z -0.000470 0.000000 1.737900 
# 
# From -- ./inp_files/37292.got.cif
#   From: 2010.03.12/outbox.cif.g09.slc.cpg/sg5_19_cif.got.tgz:37292.got - 2010.03.31 09:47:26.
