data_PCOD8048410
_publ_section_title
;
Structure prediction by ZEFSAII (Michael W. Deem and Ramdas Pophale) SiO2 
 PCOD8048410
Probable space group: C 2
;
_chemical_formula_sum "Si O2"
_cell_formula_units_Z 30
_cell_length_a 14.288016
_cell_length_b 12.736622
_cell_length_c 11.134256
_cell_angle_alpha 90.000000
_cell_angle_beta 127.937840
_cell_angle_gamma 90.000000
_cell_volume 1598.038496
_symmetry_space_group_name_H-M "C 2"
_symmetry_group_IT_number 5
_symmetry_cell_setting 'monoclinic'
loop_
_space_group_symop_operation_xyz
x,y,z
-x,y,-z
1/2+x,1/2+y,z
1/2-x,1/2+y,-z
loop_
_atom_site_type_symbol
_atom_site_label
_atom_site_fract_x
_atom_site_fract_y
_atom_site_fract_z
Si Si1 0.438521 0.984640 0.070826
Si Si2 0.917842 0.827692 0.276505
Si Si3 0.412607 0.838849 0.659588
Si Si4 0.854289 0.594639 0.217934
Si Si5 0.651145 0.405471 0.528134
Si Si6 0.819176 0.006962 0.089438
Si Si7 0.000000 0.462366 0.500000
Si Si8 0.475189 0.618701 0.616652
O O1 0.496846 0.875267 0.163347
O O2 0.451439 0.069604 0.189598
O O3 0.500000 0.027761 0.000000
O O4 0.299618 0.975348 0.929252
O O5 0.850057 0.718609 0.231982
O O6 0.868349 0.903698 0.343865
O O7 0.060366 0.817910 0.400813
O O8 0.887592 0.894504 0.131569
O O9 0.282042 0.875475 0.592881
O O10 0.416939 0.713476 0.646722
O O11 0.448353 0.889988 0.562452
O O12 0.892663 0.536492 0.369633
O O13 0.723387 0.553045 0.073652
O O14 0.615965 0.520897 0.451606
O O15 0.899809 0.092210 0.220623
O O16 0.500000 0.654707 0.500000
#
# Coordination Sequence:
#
# PCOD8048410 Si02
#       8
#     4   4   4   4   4   4   2   4
#     4   9  20  36  55  92 122 155 211 260 296 376
#     4  10  18  38  60  86 118 164 209 251 317 358
#     4  11  23  37  65  91 125 168 209 260 315 372
#     4   9  21  33  62  82 118 163 198 261 306 364
#     4  10  21  37  62  90 121 159 213 262 293 390
#     4   9  20  35  58  86 116 159 204 252 302 375
#     4  10  20  40  52  92 124 158 212 248 312 366
#     4  11  21  40  62  90 122 170 205 255 322 363
#
# _framework density 18.773012999999999
#
# number of rings (size 3 to 8) (size 9 to 14) (size 15 to 20)
#    0.800    1.333    3.333    1.600    1.867    3.200 
#    0.000    0.000    0.000    1.600    0.000    0.000 
#    0.000    0.000    0.000    0.000    0.000    0.000 
#
# Total GULP energy -185826.477817 kJ/mol
# GULP energy per Si atom -12388.431854 kJ/mol
# Density = 1.873028 g / cm^3
# Si number density = 18.773013 Si / 1000 Ang^3
#
#
#
# Elastic Constant Matrix: (Units=GPa)
#
#
# Indices 1 2 3 4 5 6 
#
# 1 72.8971 18.2863 25.5859 0.0000 16.2264 0.0000
# 2 18.2863 115.4982 49.2284 0.0000 13.5617 0.0000
# 3 25.5859 49.2284 121.0264 0.0000 18.9304 0.0000
# 4 0.0000 0.0000 0.0000 26.4051 0.0000 1.2033
# 5 16.2264 13.5617 18.9304 0.0000 29.8166 0.0000
# 6 0.0000 0.0000 0.0000 1.2033 0.0000 21.2148
#
#
#
# Elastic Compliance Matrix: (Units=1/GPa)
#
#
# Indices 1 2 3 4 5 6 
#
# 1 0.016224 -0.000898 -0.001940 0.000000 -0.007189 0.000000
# 2 -0.000898 0.010666 -0.003848 0.000000 -0.001919 0.000000
# 3 -0.001940 -0.003848 0.010880 0.000000 -0.004101 0.000000
# 4 0.000000 0.000000 0.000000 0.037970 0.000000 -0.002154
# 5 -0.007189 -0.001919 -0.004101 0.000000 0.040928 0.000000
# 6 0.000000 0.000000 0.000000 -0.002154 0.000000 0.047259
#
#
# Mechanical properties :
#
#
# Convention : Reuss Voigt Hill
#
# Bulk Modulus (GPa) = 40.98805 55.06924 48.02864
# Shear Modulus (GPa) = 26.96409 29.90870 28.43640
#
# Velocity S-wave (km/s) = 3.79400 3.99579 3.89620
# Velocity P-wave (km/s) = 6.40886 7.11944 6.77347
#
# Compressibility (1/GPa) = 0.02439736
#
# Stress axis : x y z
#
# Youngs Moduli (GPa) = 61.63532 93.75631 91.91393
#
# Poissons Ratio (x) = 0.08415 0.17835
# Poissons Ratio (y) = 0.05532 0.35373
# Poissons Ratio (z) = 0.11960 0.36082
#
# Static dielectric constant tensor:
#      x y z
#    x 3.142720 0.000000 0.090400 
#    y 0.000000 3.357790 0.000000 
#    z 0.090400 0.000000 3.671530 
# 
# 
# High freq. dielectric constant tensor:
#      x y z
#    x 1.692790 0.000000 0.011330 
#    y 0.000000 1.725040 0.000000 
#    z 0.011330 0.000000 1.745050 
# 
# From -- ./inp_files/42684.got.cif
#   From: 2010.03.12/outbox.cif.g09.slc.cpg/sg5_22_cif.got.tgz:42684.got - 2010.03.31 09:47:26.
