data_PCOD8048926
_publ_section_title
;
Structure prediction by ZEFSAII (Michael W. Deem and Ramdas Pophale) SiO2 
 PCOD8048926
Probable space group: C 2
;
_chemical_formula_sum "Si O2"
_cell_formula_units_Z 30
_cell_length_a 11.953244
_cell_length_b 7.318394
_cell_length_c 15.044372
_cell_angle_alpha 90.000000
_cell_angle_beta 84.747468
_cell_angle_gamma 90.000000
_cell_volume 1310.533546
_symmetry_space_group_name_H-M "C 2"
_symmetry_group_IT_number 5
_symmetry_cell_setting 'monoclinic'
loop_
_space_group_symop_operation_xyz
x,y,z
-x,y,-z
1/2+x,1/2+y,z
1/2-x,1/2+y,-z
loop_
_atom_site_type_symbol
_atom_site_label
_atom_site_fract_x
_atom_site_fract_y
_atom_site_fract_z
Si Si1 0.177771 0.845700 0.860670
Si Si2 0.458771 0.092937 0.655405
Si Si3 0.706616 0.028492 0.618404
Si Si4 0.252979 0.444245 0.423553
Si Si5 0.326014 0.521368 0.785696
Si Si6 0.452448 0.461971 0.300501
Si Si7 0.500000 0.201471 0.000000
Si Si8 0.636833 0.126115 0.150658
O O1 0.264188 0.676268 0.846548
O O2 0.104455 0.853991 0.777033
O O3 0.098257 0.825003 0.951368
O O4 0.243007 0.033438 0.872729
O O5 0.573806 0.987012 0.624659
O O6 0.481771 0.309531 0.645981
O O7 0.416777 0.040560 0.756765
O O8 0.364969 0.037842 0.590570
O O9 0.736969 0.243102 0.617522
O O10 0.765996 0.935532 0.528927
O O11 0.755002 0.948367 0.706298
O O12 0.356903 0.557984 0.369433
O O13 0.449284 0.597146 0.742694
O O14 0.346081 0.344749 0.845946
O O15 0.445545 0.078193 0.925839
#
# Coordination Sequence:
#
# PCOD8048926 Si02
#       8
#     4   4   4   4   4   4   2   4
#     4  12  24  51  68 105 145 175 240 292 355 428
#     4  10  19  45  67  89 137 185 219 292 355 388
#     4  11  24  41  66 100 140 182 242 294 341 421
#     4  11  23  42  64 101 137 185 237 297 344 412
#     4  11  23  49  72 101 140 196 231 286 366 413
#     4  10  22  43  69  95 137 184 226 292 346 416
#     4  12  26  48  72 110 144 170 238 304 348 432
#     4  11  25  45  76 100 138 187 228 294 356 428
#
# _framework density 22.891441
#
# number of rings (size 3 to 8) (size 9 to 14) (size 15 to 20)
#    0.000    1.067    6.667    0.400    5.600    0.533 
#   14.400    1.333    0.000    0.000    0.000    0.000 
#    0.000    0.000    0.000    0.000    0.000    0.000 
#
# Total GULP energy -185992.621461 kJ/mol
# GULP energy per Si atom -12399.508097 kJ/mol
# Density = 2.283934 g / cm^3
# Si number density = 22.891441 Si / 1000 Ang^3
#
#
#
# Elastic Constant Matrix: (Units=GPa)
#
#
# Indices 1 2 3 4 5 6 
#
# 1 157.8478 34.6264 35.1172 0.0000 -23.8374 0.0000
# 2 34.6264 31.2853 11.8828 0.0000 -0.3803 0.0000
# 3 35.1172 11.8828 110.7588 0.0000 -12.7457 0.0000
# 4 0.0000 0.0000 0.0000 20.2346 0.0000 -3.6439
# 5 -23.8374 -0.3803 -12.7457 0.0000 53.5209 0.0000
# 6 0.0000 0.0000 0.0000 -3.6439 0.0000 33.3280
#
#
#
# Elastic Compliance Matrix: (Units=1/GPa)
#
#
# Indices 1 2 3 4 5 6 
#
# 1 0.009376 -0.009764 -0.001494 0.000000 0.003751 0.000000
# 2 -0.009764 0.043511 -0.002095 0.000000 -0.004538 0.000000
# 3 -0.001494 -0.002095 0.009920 0.000000 0.001682 0.000000
# 4 0.000000 0.000000 0.000000 0.050413 0.000000 0.005512
# 5 0.003751 -0.004538 0.001682 0.000000 0.020723 0.000000
# 6 0.000000 0.000000 0.000000 0.005512 0.000000 0.030607
#
#
# Mechanical properties :
#
#
# Convention : Reuss Voigt Hill
#
# Bulk Modulus (GPa) = 27.69854 51.46053 39.57953
# Shear Modulus (GPa) = 24.59537 35.96774 30.28156
#
# Velocity S-wave (km/s) = 3.28141 3.96818 3.64102
# Velocity P-wave (km/s) = 5.14618 6.59729 5.91639
#
# Compressibility (1/GPa) = 0.03610299
#
# Stress axis : x y z
#
# Youngs Moduli (GPa) = 106.65683 22.98253 100.80158
#
# Poissons Ratio (x) = 0.22441 0.15055
# Poissons Ratio (y) = 1.04143 0.21113
# Poissons Ratio (z) = 0.15929 0.04814
#
# Static dielectric constant tensor:
#      x y z
#    x 4.540930 0.000000 -0.255420 
#    y 0.000000 3.648280 0.000000 
#    z -0.255420 0.000000 4.122310 
# 
# 
# High freq. dielectric constant tensor:
#      x y z
#    x 1.926820 0.000000 -0.008750 
#    y 0.000000 1.865300 0.000000 
#    z -0.008750 0.000000 1.903920 
# 
# From -- ./inp_files/52277.got.cif
#   From: 2010.03.12/outbox.cif.g09.slc.cpg/sg5_27_cif.got.tgz:52277.got - 2010.03.31 09:47:26.
