data_PCOD8048503
_publ_section_title
;
Structure prediction by ZEFSAII (Michael W. Deem and Ramdas Pophale) SiO2 
 PCOD8048503
Probable space group: C 2
;
_chemical_formula_sum "Si O2"
_cell_formula_units_Z 30
_cell_length_a 20.589128
_cell_length_b 8.562658
_cell_length_c 29.866289
_cell_angle_alpha 90.000000
_cell_angle_beta 161.792361
_cell_angle_gamma 90.000000
_cell_volume 1645.221694
_symmetry_space_group_name_H-M "C 2"
_symmetry_group_IT_number 5
_symmetry_cell_setting 'monoclinic'
loop_
_space_group_symop_operation_xyz
x,y,z
-x,y,-z
1/2+x,1/2+y,z
1/2-x,1/2+y,-z
loop_
_atom_site_type_symbol
_atom_site_label
_atom_site_fract_x
_atom_site_fract_y
_atom_site_fract_z
Si Si1 0.348725 0.792110 0.839378
Si Si2 0.755987 0.935599 0.143244
Si Si3 0.000000 0.712251 0.000000
Si Si4 0.660455 0.005886 0.915721
Si Si5 0.783513 0.315663 0.340307
Si Si6 0.027936 0.946081 0.097004
Si Si7 0.406914 0.355460 0.152270
Si Si8 0.722053 0.456100 0.666467
O O1 0.194943 0.826362 0.781159
O O2 0.428609 0.616042 0.894105
O O3 0.250610 0.843641 0.727921
O O4 0.547479 0.896874 0.979145
O O5 0.930979 0.907499 0.220174
O O6 0.712022 0.113136 0.129882
O O7 0.058361 0.818806 0.079535
O O8 0.420476 0.943609 0.761812
O O9 0.691086 0.185299 0.921182
O O10 0.767657 0.982270 0.034437
O O11 0.799012 0.916642 0.969107
O O12 0.709232 0.423849 0.251703
O O13 0.641011 0.343849 0.289765
O O14 0.000000 0.376949 0.500000
O O15 0.788922 0.137003 0.326404
O O16 0.500000 0.405604 0.500000
#
# Coordination Sequence:
#
# PCOD8048503 Si02
#       8
#     4   4   2   4   4   4   4   4
#     4  10  19  33  53  81 107 138 180 219 272 314
#     4  10  19  34  54  78 109 139 176 225 267 331
#     4  10  22  32  54  80 106 142 178 220 278 320
#     4  10  19  31  52  83 106 134 180 223 268 306
#     4   9  20  35  55  79 110 144 177 217 270 318
#     4  11  20  33  55  80 108 136 176 236 265 314
#     4  10  19  32  56  80 108 139 175 231 262 315
#     4  10  19  35  56  80 110 148 180 215 261 328
#
# _framework density 18.234622999999999
#
# number of rings (size 3 to 8) (size 9 to 14) (size 15 to 20)
#    0.000    2.133    2.667    2.400    3.733    0.533 
#    0.000    0.000    2.933    0.000    0.000    0.000 
#    0.000    0.000    0.000    0.000    0.000    0.000 
#
# Total GULP energy -185841.256212 kJ/mol
# GULP energy per Si atom -12389.417081 kJ/mol
# Density = 1.819312 g / cm^3
# Si number density = 18.234623 Si / 1000 Ang^3
#
#
#
# Elastic Constant Matrix: (Units=GPa)
#
#
# Indices 1 2 3 4 5 6 
#
# 1 138.0323 60.6392 35.2677 0.0048 -5.6001 -0.0005
# 2 60.6392 74.7646 29.6687 -0.0905 1.3320 -0.0193
# 3 35.2677 29.6687 88.2586 -0.0451 5.3014 -0.0142
# 4 0.0048 -0.0905 -0.0451 18.1015 -0.0281 -6.5203
# 5 -5.6001 1.3320 5.3014 -0.0281 16.3544 0.0087
# 6 -0.0005 -0.0193 -0.0142 -6.5203 0.0087 31.3370
#
#
#
# Elastic Compliance Matrix: (Units=1/GPa)
#
#
# Indices 1 2 3 4 5 6 
#
# 1 0.011932 -0.008946 -0.002091 -0.000051 0.005492 -0.000018
# 2 -0.008946 0.022144 -0.003648 0.000111 -0.003684 0.000036
# 3 -0.002091 -0.003648 0.013684 0.000012 -0.004854 0.000008
# 4 -0.000051 0.000111 0.000012 0.059721 0.000065 0.012426
# 5 0.005492 -0.003684 -0.004854 0.000065 0.064900 -0.000009
# 6 -0.000018 0.000036 0.000008 0.012426 -0.000009 0.034497
#
#
# Mechanical properties :
#
#
# Convention : Reuss Voigt Hill
#
# Bulk Modulus (GPa) = 54.37409 61.35629 57.86519
# Shear Modulus (GPa) = 20.62917 24.85725 22.74321
#
# Velocity S-wave (km/s) = 3.36716 3.69615 3.53548
# Velocity P-wave (km/s) = 6.70827 7.20671 6.96195
#
# Compressibility (1/GPa) = 0.01839111
#
# Stress axis : x y z
#
# Youngs Moduli (GPa) = 83.81144 45.15855 73.08018
#
# Poissons Ratio (x) = 0.40397 0.15278
# Poissons Ratio (y) = 0.74974 0.26659
# Poissons Ratio (z) = 0.17521 0.16474
#
# Static dielectric constant tensor:
#      x y z
#    x 4.151980 -0.000010 0.059890 
#    y -0.000010 3.429900 0.000030 
#    z 0.059890 0.000030 3.099000 
# 
# 
# High freq. dielectric constant tensor:
#      x y z
#    x 1.717510 0.000000 0.001720 
#    y 0.000000 1.708960 -0.000010 
#    z 0.001720 -0.000010 1.667780 
# 
# From -- ./inp_files/46001.got.cif
#   From: 2010.03.12/outbox.cif.g09.slc.cpg/sg5_24_cif.got.tgz:46001.got - 2010.03.31 09:47:26.
