data_PCOD8048988
_publ_section_title
;
Structure prediction by ZEFSAII (Michael W. Deem and Ramdas Pophale) SiO2 
 PCOD8048988
Probable space group: C 2
;
_chemical_formula_sum "Si O2"
_cell_formula_units_Z 30
_cell_length_a 18.313173
_cell_length_b 14.668415
_cell_length_c 11.221219
_cell_angle_alpha 90.000000
_cell_angle_beta 28.574861
_cell_angle_gamma 90.000000
_cell_volume 1441.760720
_symmetry_space_group_name_H-M "C 2"
_symmetry_group_IT_number 5
_symmetry_cell_setting 'monoclinic'
loop_
_space_group_symop_operation_xyz
x,y,z
-x,y,-z
1/2+x,1/2+y,z
1/2-x,1/2+y,-z
loop_
_atom_site_type_symbol
_atom_site_label
_atom_site_fract_x
_atom_site_fract_y
_atom_site_fract_z
Si Si1 0.732367 0.623530 0.993940
Si Si2 0.574595 0.387928 0.768658
Si Si3 0.812575 0.265025 0.528490
Si Si4 0.193823 0.793238 0.956888
Si Si5 0.094442 0.074178 0.629109
Si Si6 0.583810 0.885522 0.203555
Si Si7 0.329524 0.481126 0.717525
Si Si8 0.500000 0.024935 0.500000
O O1 0.793890 0.720499 0.953335
O O2 0.566438 0.620518 0.172338
O O3 0.719121 0.563231 0.129421
O O4 0.850050 0.587489 0.726540
O O5 0.736436 0.335463 0.543823
O O6 0.587344 0.497873 0.742134
O O7 0.500000 0.364290 0.000000
O O8 0.471421 0.344149 0.810446
O O9 0.731253 0.253681 0.773310
O O10 0.807314 0.163796 0.476781
O O11 0.984045 0.300235 0.305139
O O12 0.318764 0.868207 0.814646
O O13 0.177377 0.017712 0.405977
O O14 0.481154 0.969295 0.400863
O O15 0.699920 0.904818 0.926974
O O16 0.500000 0.443519 0.500000
#
# Coordination Sequence:
#
# PCOD8048988 Si02
#       8
#     4   4   4   4   4   4   4   2
#     4  10  20  34  64  99 120 160 203 266 310 366
#     4  10  25  43  63  89 127 173 208 256 317 378
#     4  11  22  40  64  93 120 170 216 254 305 384
#     4  11  19  40  62  92 127 160 215 256 304 375
#     4  11  21  43  65  88 126 167 214 255 318 378
#     4  11  20  36  64  94 125 161 210 263 305 369
#     4   9  19  34  60  93 124 159 203 258 322 361
#     4  10  20  34  54  96 130 152 200 262 316 346
#
# _framework density 20.80789
#
# number of rings (size 3 to 8) (size 9 to 14) (size 15 to 20)
#    0.000    1.600    4.000    2.400    1.867    0.000 
#    8.400    2.000    0.000    0.000    0.000    0.000 
#    0.000    0.000    0.000    0.000    0.000    0.000 
#
# Total GULP energy -185852.770009 kJ/mol
# GULP energy per Si atom -12390.184667 kJ/mol
# Density = 2.076053 g / cm^3
# Si number density = 20.807890 Si / 1000 Ang^3
#
#
#
# Elastic Constant Matrix: (Units=GPa)
#
#
# Indices 1 2 3 4 5 6 
#
# 1 69.6171 40.2332 20.0809 0.0001 -19.9405 0.0000
# 2 40.2332 132.4490 36.8934 0.0004 -11.9908 -0.0001
# 3 20.0809 36.8934 91.2801 0.0007 3.0858 -0.0002
# 4 0.0001 0.0004 0.0007 28.4953 -0.0001 -2.6697
# 5 -19.9405 -11.9908 3.0858 -0.0001 23.6757 0.0000
# 6 0.0000 -0.0001 -0.0002 -2.6697 0.0000 31.6457
#
#
#
# Elastic Compliance Matrix: (Units=1/GPa)
#
#
# Indices 1 2 3 4 5 6 
#
# 1 0.023078 -0.004305 -0.003938 0.000000 0.017770 0.000000
# 2 -0.004305 0.009885 -0.003109 0.000000 0.001786 0.000000
# 3 -0.003938 -0.003109 0.013302 0.000000 -0.006625 0.000000
# 4 0.000000 0.000000 0.000000 0.035373 0.000000 0.002984
# 5 0.017770 0.001786 -0.006625 0.000000 0.058972 0.000000
# 6 0.000000 0.000000 0.000000 0.002984 0.000000 0.031852
#
#
# Mechanical properties :
#
#
# Convention : Reuss Voigt Hill
#
# Bulk Modulus (GPa) = 42.44003 54.19567 48.31785
# Shear Modulus (GPa) = 24.62825 29.83923 27.23374
#
# Velocity S-wave (km/s) = 3.44408 3.79097 3.62168
# Velocity P-wave (km/s) = 6.02130 6.72787 6.38437
#
# Compressibility (1/GPa) = 0.02356266
#
# Stress axis : x y z
#
# Youngs Moduli (GPa) = 43.33175 101.16011 75.17623
#
# Poissons Ratio (x) = 0.43545 0.29603
# Poissons Ratio (y) = 0.18652 0.23371
# Poissons Ratio (z) = 0.17063 0.31449
#
# Static dielectric constant tensor:
#      x y z
#    x 3.495120 0.000000 -0.054670 
#    y 0.000000 3.821670 0.000000 
#    z -0.054670 0.000000 4.055140 
# 
# 
# High freq. dielectric constant tensor:
#      x y z
#    x 1.774520 0.000000 -0.003640 
#    y 0.000000 1.821000 0.000000 
#    z -0.003640 0.000000 1.813120 
# 
# From -- ./inp_files/44887.got.cif
#   From: 2010.03.12/outbox.cif.g09.slc.cpg/sg5_23_cif.got.tgz:44887.got - 2010.03.31 09:47:26.
