data_PCOD8048669
_publ_section_title
;
Structure prediction by ZEFSAII (Michael W. Deem and Ramdas Pophale) SiO2 
 PCOD8048669
Probable space group: C 2
;
_chemical_formula_sum "Si O2"
_cell_formula_units_Z 30
_cell_length_a 26.207631
_cell_length_b 9.135487
_cell_length_c 6.370934
_cell_angle_alpha 90.000000
_cell_angle_beta 72.172014
_cell_angle_gamma 90.000000
_cell_volume 1452.079462
_symmetry_space_group_name_H-M "C 2"
_symmetry_group_IT_number 5
_symmetry_cell_setting 'monoclinic'
loop_
_space_group_symop_operation_xyz
x,y,z
-x,y,-z
1/2+x,1/2+y,z
1/2-x,1/2+y,-z
loop_
_atom_site_type_symbol
_atom_site_label
_atom_site_fract_x
_atom_site_fract_y
_atom_site_fract_z
Si Si1 0.086567 0.770830 0.696253
Si Si2 0.261377 0.621125 0.086589
Si Si3 0.080084 0.552093 0.073219
Si Si4 0.752491 0.436861 0.279480
Si Si5 0.000000 0.661035 0.500000
Si Si6 0.651630 0.067591 0.355936
Si Si7 0.366482 0.854337 0.300367
Si Si8 0.342110 0.527739 0.304951
O O1 0.139097 0.708142 0.515091
O O2 0.103903 0.930419 0.760534
O O3 0.038912 0.768965 0.583285
O O4 0.068743 0.678503 0.919868
O O5 0.250708 0.794045 0.131317
O O6 0.215013 0.539133 0.276629
O O7 0.318565 0.563385 0.102240
O O8 0.255905 0.582667 0.849423
O O9 0.133462 0.589295 0.138035
O O10 0.030771 0.551909 0.299991
O O11 0.089874 0.397576 0.936015
O O12 0.810150 0.433726 0.316116
O O13 0.704224 0.447853 0.505245
O O14 0.618451 0.931043 0.497477
O O15 0.361872 0.685019 0.362036
#
# Coordination Sequence:
#
# PCOD8048669 Si02
#       8
#     4   4   4   4   2   4   4   4
#     4  10  22  40  66  91 119 158 210 268 310 369
#     4  11  23  33  55  83 126 178 214 244 294 357
#     4  10  21  39  65  92 115 154 209 262 313 368
#     4  11  23  35  52  85 128 178 214 243 293 365
#     4  10  22  42  72  92 112 152 216 276 324 360
#     4  10  19  36  58  84 121 164 208 247 298 358
#     4  10  22  36  57  87 130 168 203 248 304 373
#     4  11  24  37  57  90 134 169 207 251 307 366
#
# _framework density 20.660025999999998
#
# number of rings (size 3 to 8) (size 9 to 14) (size 15 to 20)
#    0.000    1.600    4.000    0.400    3.733    0.000 
#    0.000    0.000    0.000   19.200    0.000    0.000 
#    0.000    0.000    0.000    0.000    0.000    0.000 
#
# Total GULP energy -185832.054494 kJ/mol
# GULP energy per Si atom -12388.803633 kJ/mol
# Density = 2.061300 g / cm^3
# Si number density = 20.660026 Si / 1000 Ang^3
#
#
#
# Elastic Constant Matrix: (Units=GPa)
#
#
# Indices 1 2 3 4 5 6 
#
# 1 83.9205 34.3658 25.1808 0.0000 -2.2086 0.0000
# 2 34.3658 96.2736 18.7074 0.0000 8.4261 0.0000
# 3 25.1808 18.7074 73.9239 0.0000 1.9048 0.0000
# 4 0.0000 0.0000 0.0000 22.5395 0.0000 4.7428
# 5 -2.2086 8.4261 1.9048 0.0000 28.5138 0.0000
# 6 0.0000 0.0000 0.0000 4.7428 0.0000 23.2520
#
#
#
# Elastic Compliance Matrix: (Units=1/GPa)
#
#
# Indices 1 2 3 4 5 6 
#
# 1 0.015203 -0.004900 -0.004013 0.000000 0.002894 0.000000
# 2 -0.004900 0.012775 -0.001459 0.000000 -0.004057 0.000000
# 3 -0.004013 -0.001459 0.015287 0.000000 -0.000901 0.000000
# 4 0.000000 0.000000 0.000000 0.046356 0.000000 -0.009455
# 5 0.002894 -0.004057 -0.000901 0.000000 0.036554 0.000000
# 6 0.000000 0.000000 0.000000 -0.009455 0.000000 0.044936
#
#
# Mechanical properties :
#
#
# Convention : Reuss Voigt Hill
#
# Bulk Modulus (GPa) = 44.40548 45.62509 45.01528
# Shear Modulus (GPa) = 25.07993 26.58531 25.83262
#
# Velocity S-wave (km/s) = 3.48794 3.59109 3.53989
# Velocity P-wave (km/s) = 6.14500 6.27107 6.20835
#
# Compressibility (1/GPa) = 0.02251975
#
# Stress axis : x y z
#
# Youngs Moduli (GPa) = 65.77622 78.27847 65.41559
#
# Poissons Ratio (x) = 0.38359 0.26252
# Poissons Ratio (y) = 0.32233 0.09545
# Poissons Ratio (z) = 0.26397 0.11422
#
# Static dielectric constant tensor:
#      x y z
#    x 3.700170 0.000000 0.130140 
#    y 0.000000 3.557460 0.000000 
#    z 0.130140 0.000000 3.793350 
# 
# 
# High freq. dielectric constant tensor:
#      x y z
#    x 1.795860 0.000000 0.011750 
#    y 0.000000 1.783020 0.000000 
#    z 0.011750 0.000000 1.815550 
# 
# From -- ./inp_files/11227.got.cif
#   From: 2010.03.12/outbox.cif.g09.slc.cpg/sg5_6_cif.got.tgz:11227.got - 2010.03.31 09:47:26.
