data_PCOD8048896
_publ_section_title
;
Structure prediction by ZEFSAII (Michael W. Deem and Ramdas Pophale) SiO2 
 PCOD8048896
Probable space group: C 2
;
_chemical_formula_sum "Si O2"
_cell_formula_units_Z 32
_cell_length_a 26.574760
_cell_length_b 10.769528
_cell_length_c 9.500506
_cell_angle_alpha 90.000000
_cell_angle_beta 146.686555
_cell_angle_gamma 90.000000
_cell_volume 1493.338485
_symmetry_space_group_name_H-M "C 2"
_symmetry_group_IT_number 5
_symmetry_cell_setting 'monoclinic'
loop_
_space_group_symop_operation_xyz
x,y,z
-x,y,-z
1/2+x,1/2+y,z
1/2-x,1/2+y,-z
loop_
_atom_site_type_symbol
_atom_site_label
_atom_site_fract_x
_atom_site_fract_y
_atom_site_fract_z
Si Si1 0.897210 0.513440 0.236942
Si Si2 0.907841 0.236884 0.206801
Si Si3 0.212160 0.602839 0.764809
Si Si4 0.399637 0.226513 0.731218
Si Si5 0.081128 0.260448 0.096725
Si Si6 0.237799 0.378790 0.639352
Si Si7 0.305007 0.127947 0.782527
Si Si8 0.858758 0.993790 0.704435
O O1 0.882658 0.366421 0.223328
O O2 0.825040 0.589399 0.163973
O O3 0.000000 0.555265 0.500000
O O4 0.885734 0.557919 0.049619
O O5 0.000000 0.181642 0.500000
O O6 0.818921 0.146863 0.013119
O O7 0.932440 0.269106 0.102384
O O8 0.143863 0.694833 0.521621
O O9 0.195320 0.466391 0.658490
O O10 0.330248 0.168892 0.682948
O O11 0.410561 0.375848 0.759828
O O12 0.500000 0.169971 0.000000
O O13 0.170394 0.337245 0.353738
O O14 0.079535 0.114756 0.132285
O O15 0.000000 0.321043 0.000000
O O16 0.275145 0.252408 0.797501
O O17 0.321415 0.456557 0.770322
O O18 0.223316 0.029341 0.591651
#
# Coordination Sequence:
#
# PCOD8048896 Si02
#       8
#     4   4   4   4   4   4   4   4
#     4  11  26  42  65  93 135 173 229 274 337 406
#     4  11  26  47  67  99 140 181 232 279 335 413
#     4  12  24  44  67  94 136 182 222 279 343 397
#     4  11  22  37  67  96 129 164 221 278 340 394
#     4  11  23  39  70  98 130 167 224 286 337 398
#     4  10  21  37  65  92 124 167 221 262 336 396
#     4  10  20  39  63  86 125 166 212 270 325 395
#     4  10  19  41  63  94 124 166 215 276 330 397
#
# _framework density 21.428498000000001
#
# number of rings (size 3 to 8) (size 9 to 14) (size 15 to 20)
#    0.000    1.250    2.500    4.125    5.250    1.500 
#    0.000    1.875    0.000    0.000    0.000    0.000 
#    0.000    0.000    0.000    0.000    0.000    0.000 
#
# Total GULP energy -198288.535089 kJ/mol
# GULP energy per Si atom -12393.033443 kJ/mol
# Density = 2.137973 g / cm^3
# Si number density = 21.428498 Si / 1000 Ang^3
#
#
#
# Elastic Constant Matrix: (Units=GPa)
#
#
# Indices 1 2 3 4 5 6 
#
# 1 92.5410 19.1294 31.8930 0.0000 6.3567 0.0000
# 2 19.1294 74.0318 30.9754 0.0000 4.1185 0.0000
# 3 31.8930 30.9754 129.4864 0.0000 10.8320 0.0000
# 4 0.0000 0.0000 0.0000 21.3879 0.0000 1.2313
# 5 6.3567 4.1185 10.8320 0.0000 30.2329 0.0000
# 6 0.0000 0.0000 0.0000 1.2313 0.0000 26.6513
#
#
#
# Elastic Compliance Matrix: (Units=1/GPa)
#
#
# Indices 1 2 3 4 5 6 
#
# 1 0.012151 -0.002065 -0.002380 0.000000 -0.001421 0.000000
# 2 -0.002065 0.015379 -0.003125 0.000000 -0.000541 0.000000
# 3 -0.002380 -0.003125 0.009257 0.000000 -0.002390 0.000000
# 4 0.000000 0.000000 0.000000 0.046880 0.000000 -0.002166
# 5 -0.001421 -0.000541 -0.002390 0.000000 0.034305 0.000000
# 6 0.000000 0.000000 0.000000 -0.002166 0.000000 0.037622
#
#
# Mechanical properties :
#
#
# Convention : Reuss Voigt Hill
#
# Bulk Modulus (GPa) = 46.19702 51.11719 48.65710
# Shear Modulus (GPa) = 28.09805 29.92520 29.01163
#
# Velocity S-wave (km/s) = 3.62504 3.74105 3.68350
# Velocity P-wave (km/s) = 6.25514 6.52435 6.39116
#
# Compressibility (1/GPa) = 0.02164642
#
# Stress axis : x y z
#
# Youngs Moduli (GPa) = 82.30007 65.02417 108.03173
#
# Poissons Ratio (x) = 0.13426 0.25711
# Poissons Ratio (y) = 0.16994 0.33760
# Poissons Ratio (z) = 0.19587 0.20320
#
# Static dielectric constant tensor:
#      x y z
#    x 3.592480 0.000000 0.044420 
#    y 0.000000 4.069480 0.000000 
#    z 0.044420 0.000000 3.852590 
# 
# 
# High freq. dielectric constant tensor:
#      x y z
#    x 1.826460 0.000000 0.008100 
#    y 0.000000 1.850770 0.000000 
#    z 0.008100 0.000000 1.838830 
# 
# From -- ./inp_files/32641.got.cif
#   From: 2010.03.12/outbox.cif.g09.slc.cpg/sg5_17_cif.got.tgz:32641.got - 2010.03.31 09:47:26.
