data_PCOD8048090
_publ_section_title
;
Structure prediction by ZEFSAII (Michael W. Deem and Ramdas Pophale) SiO2 
 PCOD8048090
Probable space group: C 2
;
_chemical_formula_sum "Si O2"
_cell_formula_units_Z 30
_cell_length_a 28.814573
_cell_length_b 5.173932
_cell_length_c 19.605164
_cell_angle_alpha 90.000000
_cell_angle_beta 142.616349
_cell_angle_gamma 90.000000
_cell_volume 1774.593000
_symmetry_space_group_name_H-M "C 2"
_symmetry_group_IT_number 5
_symmetry_cell_setting 'monoclinic'
loop_
_space_group_symop_operation_xyz
x,y,z
-x,y,-z
1/2+x,1/2+y,z
1/2-x,1/2+y,-z
loop_
_atom_site_type_symbol
_atom_site_label
_atom_site_fract_x
_atom_site_fract_y
_atom_site_fract_z
Si Si1 0.393045 0.331410 0.524119
Si Si2 0.880196 0.328359 0.328034
Si Si3 0.470963 0.831865 0.574644
Si Si4 0.802553 0.828512 0.277575
Si Si5 0.373549 0.321777 0.775871
Si Si6 0.153119 0.341690 0.176665
Si Si7 0.000000 0.582300 0.000000
Si Si8 0.299260 0.373180 0.550197
O O1 0.445528 0.585506 0.589113
O O2 0.341003 0.327056 0.396508
O O3 0.337591 0.314221 0.523272
O O4 0.449756 0.087670 0.591684
O O5 0.928479 0.328683 0.453221
O O6 0.826836 0.579980 0.262159
O O7 0.937930 0.325891 0.331392
O O8 0.826803 0.077134 0.262282
O O9 0.711145 0.828696 0.181036
O O10 0.343339 0.575610 0.778263
O O11 0.463128 0.264152 0.897740
O O12 0.363925 0.352619 0.684066
O O13 0.323242 0.077803 0.744719
O O14 0.067457 0.400670 0.047724
O O15 0.265985 0.661941 0.512010
#
# Coordination Sequence:
#
# PCOD8048090 Si02
#       8
#     4   4   4   4   4   4   2   4
#     4  10  19  29  44  65  93 136 164 193 234 292
#     4   9  17  27  43  65  89 128 159 203 240 286
#     4   9  17  30  43  60  93 127 169 195 234 290
#     4  10  17  27  44  68  96 123 164 195 246 296
#     4  10  20  35  51  71  99 136 172 208 247 295
#     4  10  19  33  51  72  97 132 164 210 257 295
#     4   8  22  34  56  70  94 142 166 218 260 286
#     4  12  23  34  49  74 107 140 174 204 243 295
#
# _framework density 16.905286
#
# number of rings (size 3 to 8) (size 9 to 14) (size 15 to 20)
#    0.800    1.333    0.000    5.200    0.000    5.333 
#    0.000    0.000    0.000    0.000    0.000    0.000 
#    0.000    4.267    0.000    0.000    0.000    0.000 
#
# Total GULP energy -185941.185821 kJ/mol
# GULP energy per Si atom -12396.079055 kJ/mol
# Density = 1.686681 g / cm^3
# Si number density = 16.905286 Si / 1000 Ang^3
#
#
#
# Elastic Constant Matrix: (Units=GPa)
#
#
# Indices 1 2 3 4 5 6 
#
# 1 105.9347 44.5489 19.0183 0.0001 26.5255 -0.0004
# 2 44.5489 140.2283 14.4339 -0.0005 15.2357 -0.0035
# 3 19.0183 14.4339 51.8477 0.0000 11.9010 -0.0001
# 4 0.0001 -0.0005 0.0000 7.7082 0.0004 4.1028
# 5 26.5255 15.2357 11.9010 0.0004 25.2620 -0.0001
# 6 -0.0004 -0.0035 -0.0001 4.1028 -0.0001 31.6224
#
#
#
# Elastic Compliance Matrix: (Units=1/GPa)
#
#
# Indices 1 2 3 4 5 6 
#
# 1 0.014020 -0.002971 -0.001511 0.000000 -0.012217 0.000000
# 2 -0.002971 0.008328 -0.000888 0.000000 -0.001485 0.000001
# 3 -0.001511 -0.000888 0.021978 0.000000 -0.008232 0.000000
# 4 0.000000 0.000000 0.000000 0.139355 -0.000003 -0.018080
# 5 -0.012217 -0.001485 -0.008232 -0.000003 0.057187 0.000000
# 6 0.000000 0.000001 0.000000 -0.018080 0.000000 0.033969
#
#
# Mechanical properties :
#
#
# Convention : Reuss Voigt Hill
#
# Bulk Modulus (GPa) = 29.77456 50.44589 40.11022
# Shear Modulus (GPa) = 16.84800 27.58584 22.21692
#
# Velocity S-wave (km/s) = 3.16034 4.04392 3.62912
# Velocity P-wave (km/s) = 5.56487 7.19093 6.42951
#
# Compressibility (1/GPa) = 0.03358572
#
# Stress axis : x y z
#
# Youngs Moduli (GPa) = 71.32919 120.08038 45.49951
#
# Poissons Ratio (x) = 0.35675 0.06876
# Poissons Ratio (y) = 0.21191 0.04039
# Poissons Ratio (z) = 0.10779 0.10661
#
# Static dielectric constant tensor:
#      x y z
#    x 3.105030 0.000000 0.216900 
#    y 0.000000 3.425690 0.000000 
#    z 0.216900 0.000000 2.740680 
# 
# 
# High freq. dielectric constant tensor:
#      x y z
#    x 1.643260 0.000000 0.027950 
#    y 0.000000 1.677410 0.000000 
#    z 0.027950 0.000000 1.592620 
# 
# From -- ./inp_files/63495.got.cif
#   From: 2010.03.12/outbox.cif.g09.slc.cpg/sg5_32_cif.got.tgz:63495.got - 2010.03.31 09:47:26.
