data_PCOD8048542
_publ_section_title
;
Structure prediction by ZEFSAII (Michael W. Deem and Ramdas Pophale) SiO2 
 PCOD8048542
Probable space group: C 2
;
_chemical_formula_sum "Si O2"
_cell_formula_units_Z 24
_cell_length_a 17.923284
_cell_length_b 9.008475
_cell_length_c 12.031468
_cell_angle_alpha 90.000000
_cell_angle_beta 41.185702
_cell_angle_gamma 90.000000
_cell_volume 1279.217433
_symmetry_space_group_name_H-M "C 2"
_symmetry_group_IT_number 5
_symmetry_cell_setting 'monoclinic'
loop_
_space_group_symop_operation_xyz
x,y,z
-x,y,-z
1/2+x,1/2+y,z
1/2-x,1/2+y,-z
loop_
_atom_site_type_symbol
_atom_site_label
_atom_site_fract_x
_atom_site_fract_y
_atom_site_fract_z
Si Si1 0.673953 0.088150 0.491546
Si Si2 0.239847 0.095447 0.202452
Si Si3 0.450311 0.395403 0.673487
Si Si4 0.582268 0.095423 0.179064
Si Si5 0.372819 0.903434 0.667112
Si Si6 0.308966 0.430094 0.523756
O O1 0.551976 0.076896 0.688027
O O2 0.718209 0.256093 0.436400
O O3 0.664992 0.030207 0.376328
O O4 0.763282 0.990142 0.458694
O O5 0.212888 0.267731 0.250114
O O6 0.139851 0.025697 0.240054
O O7 0.252476 0.014637 0.306224
O O8 0.358928 0.078964 0.006119
O O9 0.500000 0.337343 0.500000
O O10 0.391048 0.257245 0.799916
O O11 0.555776 0.459636 0.626046
O O12 0.633820 0.970544 0.202161
O O13 0.500000 0.847500 0.500000
#
# Coordination Sequence:
#
# PCOD8048542 Si02
#       6
#     4   4   4   4   4   4
#     4  10  21  37  56  74 102 140 177 210 250 308
#     4  11  20  32  55  82 107 131 167 217 260 301
#     4   9  18  35  54  75 104 139 172 206 253 308
#     4  10  20  34  54  79 107 135 166 213 263 303
#     4  10  19  33  54  80 104 135 175 209 249 306
#     4  10  20  35  55  76 102 138 177 211 251 304
#
# _framework density 18.761469999999999
#
# number of rings (size 3 to 8) (size 9 to 14) (size 15 to 20)
#    0.000    2.000    0.000    7.000    0.000    2.000 
#    0.000    0.000    0.000    9.000    0.000    0.000 
#    0.000    0.000    0.000    0.000    0.000    0.000 
#
# Total GULP energy -148845.096075 kJ/mol
# GULP energy per Si atom -12403.758006 kJ/mol
# Density = 1.871877 g / cm^3
# Si number density = 18.761470 Si / 1000 Ang^3
#
#
#
# Elastic Constant Matrix: (Units=GPa)
#
#
# Indices 1 2 3 4 5 6 
#
# 1 73.3731 19.3456 2.8546 0.0000 1.1073 0.0000
# 2 19.3456 98.4471 21.6648 0.0000 0.2310 0.0000
# 3 2.8546 21.6648 81.9103 0.0000 4.7654 0.0000
# 4 0.0000 0.0000 0.0000 21.5085 0.0000 1.5178
# 5 1.1073 0.2310 4.7654 0.0000 14.5981 0.0000
# 6 0.0000 0.0000 0.0000 1.5178 0.0000 33.4946
#
#
#
# Elastic Compliance Matrix: (Units=1/GPa)
#
#
# Indices 1 2 3 4 5 6 
#
# 1 0.014398 -0.002900 0.000332 0.000000 -0.001155 0.000000
# 2 -0.002900 0.011378 -0.002967 0.000000 0.001008 0.000000
# 3 0.000332 -0.002967 0.013232 0.000000 -0.004298 0.000000
# 4 0.000000 0.000000 0.000000 0.046642 0.000000 -0.002114
# 5 -0.001155 0.001008 -0.004298 0.000000 0.069977 0.000000
# 6 0.000000 0.000000 0.000000 -0.002114 0.000000 0.029951
#
#
# Mechanical properties :
#
#
# Convention : Reuss Voigt Hill
#
# Bulk Modulus (GPa) = 35.79233 37.94008 36.86620
# Shear Modulus (GPa) = 24.27654 27.91126 26.09390
#
# Velocity S-wave (km/s) = 3.60106 3.86124 3.73342
# Velocity P-wave (km/s) = 6.03400 6.33602 6.18686
#
# Compressibility (1/GPa) = 0.02793895
#
# Stress axis : x y z
#
# Youngs Moduli (GPa) = 69.45402 87.88777 75.57609
#
# Poissons Ratio (x) = 0.25485 -0.02512
# Poissons Ratio (y) = 0.20140 0.22424
# Poissons Ratio (z) = -0.02308 0.26077
#
# Static dielectric constant tensor:
#      x y z
#    x 3.402680 0.000000 -0.014840 
#    y 0.000000 3.420900 0.000000 
#    z -0.014840 0.000000 3.261500 
# 
# 
# High freq. dielectric constant tensor:
#      x y z
#    x 1.722710 0.000000 0.002830 
#    y 0.000000 1.738980 0.000000 
#    z 0.002830 0.000000 1.709680 
# 
# From -- ./inp_files/44087.got.cif
#   From: 2010.03.12/outbox.cif.g09.slc.cpg/sg5_23_cif.got.tgz:44087.got - 2010.03.31 09:47:26.
