data_PCOD8048414
_publ_section_title
;
Structure prediction by ZEFSAII (Michael W. Deem and Ramdas Pophale) SiO2 
 PCOD8048414
Probable space group: C 2
;
_chemical_formula_sum "Si O2"
_cell_formula_units_Z 30
_cell_length_a 10.830768
_cell_length_b 10.856433
_cell_length_c 17.105835
_cell_angle_alpha 90.000000
_cell_angle_beta 137.191392
_cell_angle_gamma 90.000000
_cell_volume 1366.825534
_symmetry_space_group_name_H-M "C 2"
_symmetry_group_IT_number 5
_symmetry_cell_setting 'monoclinic'
loop_
_space_group_symop_operation_xyz
x,y,z
-x,y,-z
1/2+x,1/2+y,z
1/2-x,1/2+y,-z
loop_
_atom_site_type_symbol
_atom_site_label
_atom_site_fract_x
_atom_site_fract_y
_atom_site_fract_z
Si Si1 0.768968 0.584250 0.657842
Si Si2 0.915744 0.126806 0.584831
Si Si3 0.650954 0.195063 0.836543
Si Si4 0.009402 0.962259 0.244984
Si Si5 0.828018 0.187446 0.078672
Si Si6 0.253544 0.979995 0.221305
Si Si7 0.922514 0.340250 0.703816
Si Si8 0.000000 0.823032 0.000000
O O1 0.616133 0.647154 0.640680
O O2 0.736266 0.621534 0.552353
O O3 0.764602 0.433900 0.659006
O O4 0.964395 0.629751 0.778077
O O5 0.933738 0.000374 0.641328
O O6 0.851169 0.231958 0.614986
O O7 0.601788 0.336080 0.797586
O O8 0.733008 0.124553 0.798397
O O9 0.805605 0.179426 0.974863
O O10 0.873839 0.056088 0.137987
O O11 0.202573 0.962652 0.288624
O O12 0.982335 0.286208 0.174411
O O13 0.638120 0.232058 0.023292
O O14 0.441881 0.916923 0.288308
O O15 0.086484 0.912290 0.103160
#
# Coordination Sequence:
#
# PCOD8048414 Si02
#       8
#     4   4   4   4   4   4   4   2
#     4  10  23  42  66  90 122 165 220 262 322 371
#     4  10  23  42  64  91 122 170 211 269 317 371
#     4  11  23  38  66  93 123 170 214 256 320 389
#     4  11  23  38  59  93 130 161 213 265 312 387
#     4  10  22  36  62  92 125 169 205 261 325 378
#     4  10  20  38  60  90 125 165 206 260 317 372
#     4   9  21  41  64  90 125 165 209 267 320 378
#     4  10  18  38  62  80 128 168 202 256 316 376
#
# _framework density 21.948667
#
# number of rings (size 3 to 8) (size 9 to 14) (size 15 to 20)
#    0.000    1.867    1.333    1.600    9.333    2.133 
#    0.000    4.000    0.000    0.000    0.000    0.000 
#    0.000    0.000    0.000    0.000    0.000    0.000 
#
# Total GULP energy -185933.863807 kJ/mol
# GULP energy per Si atom -12395.590920 kJ/mol
# Density = 2.189871 g / cm^3
# Si number density = 21.948667 Si / 1000 Ang^3
#
#
#
# Elastic Constant Matrix: (Units=GPa)
#
#
# Indices 1 2 3 4 5 6 
#
# 1 35.0424 2.2668 5.2344 0.0000 -7.5085 0.0000
# 2 2.2668 111.7733 0.4842 0.0000 2.4939 0.0000
# 3 5.2344 0.4842 65.3913 0.0000 -14.1679 0.0000
# 4 0.0000 0.0000 0.0000 22.8497 0.0000 2.8337
# 5 -7.5085 2.4939 -14.1679 0.0000 30.2582 0.0000
# 6 0.0000 0.0000 0.0000 2.8337 0.0000 29.9217
#
#
#
# Elastic Compliance Matrix: (Units=1/GPa)
#
#
# Indices 1 2 3 4 5 6 
#
# 1 0.030251 -0.000770 -0.000863 0.000000 0.007166 0.000000
# 2 -0.000770 0.008986 -0.000230 0.000000 -0.001039 0.000000
# 3 -0.000863 -0.000230 0.017051 0.000000 0.007789 0.000000
# 4 0.000000 0.000000 0.000000 0.044284 0.000000 -0.004194
# 5 0.007166 -0.001039 0.007789 0.000000 0.038560 0.000000
# 6 0.000000 0.000000 0.000000 -0.004194 0.000000 0.033818
#
#
# Mechanical properties :
#
#
# Convention : Reuss Voigt Hill
#
# Bulk Modulus (GPa) = 19.02500 25.35309 22.18905
# Shear Modulus (GPa) = 25.74707 30.22070 27.98388
#
# Velocity S-wave (km/s) = 3.42871 3.71466 3.57455
# Velocity P-wave (km/s) = 4.93574 5.47489 5.21229
#
# Compressibility (1/GPa) = 0.05256241
#
# Stress axis : x y z
#
# Youngs Moduli (GPa) = 33.05674 111.27835 58.64810
#
# Poissons Ratio (x) = 0.08565 0.05062
# Poissons Ratio (y) = 0.02544 0.01350
# Poissons Ratio (z) = 0.02853 0.02561
#
# Static dielectric constant tensor:
#      x y z
#    x 3.927240 0.000000 -0.111930 
#    y 0.000000 4.201900 0.000000 
#    z -0.111930 0.000000 3.936890 
# 
# 
# High freq. dielectric constant tensor:
#      x y z
#    x 1.851070 0.000000 -0.005540 
#    y 0.000000 1.873930 0.000000 
#    z -0.005540 0.000000 1.854750 
# 
# From -- ./inp_files/38857.got.cif
#   From: 2010.03.12/outbox.cif.g09.slc.cpg/sg5_20_cif.got.tgz:38857.got - 2010.03.31 09:47:26.
