data_PCOD8048186
_publ_section_title
;
Structure prediction by ZEFSAII (Michael W. Deem and Ramdas Pophale) SiO2 
 PCOD8048186
Probable space group: C 2
;
_chemical_formula_sum "Si O2"
_cell_formula_units_Z 30
_cell_length_a 11.418467
_cell_length_b 8.884661
_cell_length_c 15.405248
_cell_angle_alpha 90.000000
_cell_angle_beta 96.989066
_cell_angle_gamma 90.000000
_cell_volume 1551.237286
_symmetry_space_group_name_H-M "C 2"
_symmetry_group_IT_number 5
_symmetry_cell_setting 'monoclinic'
loop_
_space_group_symop_operation_xyz
x,y,z
-x,y,-z
1/2+x,1/2+y,z
1/2-x,1/2+y,-z
loop_
_atom_site_type_symbol
_atom_site_label
_atom_site_fract_x
_atom_site_fract_y
_atom_site_fract_z
Si Si1 0.874125 0.611470 0.457886
Si Si2 0.289421 0.813473 0.953415
Si Si3 0.054651 0.056496 0.098706
Si Si4 0.833813 0.900537 0.544688
Si Si5 0.851874 0.737549 0.892094
Si Si6 0.664143 0.535461 0.813436
Si Si7 0.418175 0.397593 0.369980
Si Si8 0.000000 0.522328 0.000000
O O1 0.820284 0.719999 0.529003
O O2 0.785369 0.475073 0.429046
O O3 0.895095 0.716097 0.374218
O O4 0.000000 0.543678 0.500000
O O5 0.348895 0.687014 0.898383
O O6 0.205090 0.909190 0.884645
O O7 0.211764 0.735633 0.019941
O O8 0.388378 0.915153 0.010454
O O9 0.113484 0.901997 0.137864
O O10 0.956356 0.106432 0.159436
O O11 0.000000 0.023566 0.000000
O O12 0.866328 0.972769 0.453357
O O13 0.941092 0.930176 0.621653
O O14 0.762633 0.665832 0.813744
O O15 0.966646 0.629048 0.914443
O O16 0.647180 0.465162 0.718010
#
# Coordination Sequence:
#
# PCOD8048186 Si02
#       8
#     4   4   4   4   4   4   4   2
#     4   8  16  34  58  85 108 144 183 212 271 340
#     4  11  20  33  54  73 102 141 188 231 272 322
#     4  12  20  35  54  77 102 147 190 230 279 324
#     4   8  16  37  62  77 116 146 174 220 278 346
#     4  11  20  34  52  75 102 140 189 230 273 324
#     4  11  22  36  54  78 114 141 187 238 264 329
#     4   8  19  36  56  85 112 147 181 222 287 321
#     4  10  18  30  50  72  92 134 172 220 286 312
#
# _framework density 19.339399
#
# number of rings (size 3 to 8) (size 9 to 14) (size 15 to 20)
#    0.800    1.333    4.000    0.800    0.000    1.067 
#    7.200    0.000    0.000    0.000    0.000    0.000 
#    0.000    0.000    0.000    0.000    0.000    0.000 
#
# Total GULP energy -185871.973671 kJ/mol
# GULP energy per Si atom -12391.464911 kJ/mol
# Density = 1.929538 g / cm^3
# Si number density = 19.339399 Si / 1000 Ang^3
#
#
#
# Elastic Constant Matrix: (Units=GPa)
#
#
# Indices 1 2 3 4 5 6 
#
# 1 91.1813 33.1434 12.4369 0.0000 13.9053 0.0000
# 2 33.1434 70.8850 -3.8476 0.0000 8.1287 0.0000
# 3 12.4369 -3.8476 43.3065 0.0000 10.3571 0.0000
# 4 0.0000 0.0000 0.0000 11.4519 0.0000 -0.7290
# 5 13.9053 8.1287 10.3571 0.0000 18.8526 0.0000
# 6 0.0000 0.0000 0.0000 -0.7290 0.0000 35.9885
#
#
#
# Elastic Compliance Matrix: (Units=1/GPa)
#
#
# Indices 1 2 3 4 5 6 
#
# 1 0.014669 -0.006313 -0.003266 0.000000 -0.006303 0.000000
# 2 -0.006313 0.017974 0.004778 0.000000 -0.005718 0.000000
# 3 -0.003266 0.004778 0.028056 0.000000 -0.015064 0.000000
# 4 0.000000 0.000000 0.000000 0.087434 0.000000 0.001771
# 5 -0.006303 -0.005718 -0.015064 0.000000 0.068433 0.000000
# 6 0.000000 0.000000 0.000000 0.001771 0.000000 0.027823
#
#
# Mechanical properties :
#
#
# Convention : Reuss Voigt Hill
#
# Bulk Modulus (GPa) = 19.57100 32.09313 25.83207
# Shear Modulus (GPa) = 18.44851 24.16794 21.30823
#
# Velocity S-wave (km/s) = 3.09193 3.53891 3.32294
# Velocity P-wave (km/s) = 4.78419 5.77315 5.30178
#
# Compressibility (1/GPa) = 0.05109601
#
# Stress axis : x y z
#
# Youngs Moduli (GPa) = 68.17301 55.63538 35.64245
#
# Poissons Ratio (x) = 0.35123 0.11641
# Poissons Ratio (y) = 0.43038 -0.17028
# Poissons Ratio (z) = 0.22266 -0.26580
#
# Static dielectric constant tensor:
#      x y z
#    x 3.629630 0.000000 0.166520 
#    y 0.000000 3.475700 0.000000 
#    z 0.166520 0.000000 3.036390 
# 
# 
# High freq. dielectric constant tensor:
#      x y z
#    x 1.762010 0.000000 0.018570 
#    y 0.000000 1.747010 0.000000 
#    z 0.018570 0.000000 1.702420 
# 
# From -- ./inp_files/60216.got.cif
#   From: 2010.03.12/outbox.cif.g09.slc.cpg/sg5_31_cif.got.tgz:60216.got - 2010.03.31 09:47:26.
