data_PCOD8048528
_publ_section_title
;
Structure prediction by ZEFSAII (Michael W. Deem and Ramdas Pophale) SiO2 
 PCOD8048528
Probable space group: C 2
;
_chemical_formula_sum "Si O2"
_cell_formula_units_Z 26
_cell_length_a 14.245413
_cell_length_b 18.906465
_cell_length_c 9.573083
_cell_angle_alpha 90.000000
_cell_angle_beta 148.698285
_cell_angle_gamma 90.000000
_cell_volume 1339.553652
_symmetry_space_group_name_H-M "C 2"
_symmetry_group_IT_number 5
_symmetry_cell_setting 'monoclinic'
loop_
_space_group_symop_operation_xyz
x,y,z
-x,y,-z
1/2+x,1/2+y,z
1/2-x,1/2+y,-z
loop_
_atom_site_type_symbol
_atom_site_label
_atom_site_fract_x
_atom_site_fract_y
_atom_site_fract_z
Si Si1 0.702264 0.748820 0.774787
Si Si2 0.736138 0.175191 0.417749
Si Si3 0.298441 0.493914 0.186233
Si Si4 0.817308 0.833768 0.179001
Si Si5 0.645158 0.626917 0.901850
Si Si6 0.000000 0.560165 0.000000
Si Si7 0.196591 0.216586 0.207417
O O1 0.500000 0.781085 0.500000
O O2 0.792503 0.735965 0.737591
O O3 0.694164 0.669476 0.824445
O O4 0.819419 0.799818 0.025696
O O5 0.596300 0.110796 0.234223
O O6 0.688207 0.215016 0.503254
O O7 0.933248 0.139611 0.660943
O O8 0.500000 0.500364 0.500000
O O9 0.258685 0.414500 0.085179
O O10 0.295770 0.545928 0.048940
O O11 0.147527 0.511793 0.109593
O O12 0.679089 0.791367 0.103326
O O13 0.000000 0.824084 0.500000
O O14 0.763729 0.656918 0.182308
O O15 0.000000 0.193173 0.000000
#
# Coordination Sequence:
#
# PCOD8048528 Si02
#       7
#     4   4   4   4   4   2   4
#     4   9  17  36  60  81 111 156 195 237 295 349
#     4  10  19  32  60  89 112 142 199 247 288 342
#     4  11  21  39  57  83 123 157 195 239 295 353
#     4  10  23  36  56  82 118 159 193 238 297 350
#     4   9  16  37  59  78 115 153 186 237 297 338
#     4  12  22  32  62  90 106 150 202 246 282 354
#     4   9  20  35  58  87 116 149 188 249 295 342
#
# _framework density 19.40945
#
# number of rings (size 3 to 8) (size 9 to 14) (size 15 to 20)
#    0.000    2.154    3.077    1.385    3.231    0.000 
#    0.000    1.538    0.000    0.000    0.000    0.000 
#    0.000    0.000    0.000    0.000    0.000    0.000 
#
# Total GULP energy -161044.820333 kJ/mol
# GULP energy per Si atom -12388.063103 kJ/mol
# Density = 1.936527 g / cm^3
# Si number density = 19.409450 Si / 1000 Ang^3
#
#
#
# Elastic Constant Matrix: (Units=GPa)
#
#
# Indices 1 2 3 4 5 6 
#
# 1 95.4551 54.7274 45.2002 0.0000 -21.6676 0.0000
# 2 54.7274 149.0593 47.0844 0.0000 -22.9524 0.0000
# 3 45.2002 47.0844 81.9700 0.0000 -25.1409 0.0000
# 4 0.0000 0.0000 0.0000 23.1378 0.0000 -2.4853
# 5 -21.6676 -22.9524 -25.1409 0.0000 38.0342 0.0000
# 6 0.0000 0.0000 0.0000 -2.4853 0.0000 17.0647
#
#
#
# Elastic Compliance Matrix: (Units=1/GPa)
#
#
# Indices 1 2 3 4 5 6 
#
# 1 0.015970 -0.003547 -0.005813 0.000000 0.003114 0.000000
# 2 -0.003547 0.009148 -0.002791 0.000000 0.001655 0.000000
# 3 -0.005813 -0.002791 0.019411 0.000000 0.007835 0.000000
# 4 0.000000 0.000000 0.000000 0.043906 0.000000 0.006395
# 5 0.003114 0.001655 0.007835 0.000000 0.034244 0.000000
# 6 0.000000 0.000000 0.000000 0.006395 0.000000 0.059532
#
#
# Mechanical properties :
#
#
# Convention : Reuss Voigt Hill
#
# Bulk Modulus (GPa) = 49.44229 68.94539 59.19384
# Shear Modulus (GPa) = 23.44610 27.61215 25.52913
#
# Velocity S-wave (km/s) = 3.47936 3.77585 3.63063
# Velocity P-wave (km/s) = 6.45522 7.38972 6.93822
#
# Compressibility (1/GPa) = 0.02022560
#
# Stress axis : x y z
#
# Youngs Moduli (GPa) = 62.61905 109.31924 51.51653
#
# Poissons Ratio (x) = 0.38781 0.29947
# Poissons Ratio (y) = 0.22214 0.14377
# Poissons Ratio (z) = 0.36401 0.30509
#
# Static dielectric constant tensor:
#      x y z
#    x 3.704710 0.000000 -0.271260 
#    y 0.000000 3.438540 0.000000 
#    z -0.271260 0.000000 3.914430 
# 
# 
# High freq. dielectric constant tensor:
#      x y z
#    x 1.757390 0.000000 -0.004920 
#    y 0.000000 1.729480 0.000000 
#    z -0.004920 0.000000 1.753950 
# 
# From -- ./inp_files/25458.got.cif
#   From: 2010.03.12/outbox.cif.g09.slc.cpg/sg5_13_cif.got.tgz:25458.got - 2010.03.31 09:47:26.
