data_PCOD8048439
_publ_section_title
;
Structure prediction by ZEFSAII (Michael W. Deem and Ramdas Pophale) SiO2 
 PCOD8048439
Probable space group: C 2
;
_chemical_formula_sum "Si O2"
_cell_formula_units_Z 22
_cell_length_a 13.858840
_cell_length_b 13.494843
_cell_length_c 11.808363
_cell_angle_alpha 90.000000
_cell_angle_beta 32.822253
_cell_angle_gamma 90.000000
_cell_volume 1197.047685
_symmetry_space_group_name_H-M "C 2"
_symmetry_group_IT_number 5
_symmetry_cell_setting 'monoclinic'
loop_
_space_group_symop_operation_xyz
x,y,z
-x,y,-z
1/2+x,1/2+y,z
1/2-x,1/2+y,-z
loop_
_atom_site_type_symbol
_atom_site_label
_atom_site_fract_x
_atom_site_fract_y
_atom_site_fract_z
Si Si1 0.500000 0.158720 0.500000
Si Si2 0.186766 0.916396 0.052864
Si Si3 0.979805 0.735007 0.282182
Si Si4 0.499866 0.026096 0.865382
Si Si5 0.203894 0.925199 0.566667
Si Si6 0.794047 0.007296 0.196727
O O1 0.435024 0.221622 0.458022
O O2 0.670306 0.098920 0.286707
O O3 0.993845 0.968741 0.264692
O O4 0.166085 0.797260 0.090875
O O5 0.323944 0.967011 0.002550
O O6 0.238930 0.927801 0.869736
O O7 0.991006 0.634668 0.199613
O O8 0.815632 0.805138 0.402268
O O9 0.666765 0.960303 0.660781
O O10 0.500000 0.037828 0.000000
O O11 0.277116 0.964036 0.614446
O O12 0.000000 0.039749 0.000000
#
# Coordination Sequence:
#
# PCOD8048439 Si02
#       6
#     2   4   4   4   4   4
#     4  12  20  40  64  88 122 156 210 256 290 352
#     4   9  22  41  62  89 125 158 202 250 303 360
#     4  10  24  40  63  91 124 158 205 252 303 355
#     4  12  24  42  63  89 126 164 200 252 310 357
#     4   9  22  41  62  89 125 158 202 250 303 360
#     4  10  18  38  68  84 116 164 202 252 294 356
#
# _framework density 18.378550000000001
#
# number of rings (size 3 to 8) (size 9 to 14) (size 15 to 20)
#    1.091    0.727    3.636    0.000    5.091    0.727 
#    6.545    0.000    0.000    0.000    0.000    0.000 
#    0.000    0.000    0.000    0.000    0.000    0.000 
#
# Total GULP energy -136285.317893 kJ/mol
# GULP energy per Si atom -12389.574354 kJ/mol
# Density = 1.833672 g / cm^3
# Si number density = 18.378550 Si / 1000 Ang^3
#
#
#
# Elastic Constant Matrix: (Units=GPa)
#
#
# Indices 1 2 3 4 5 6 
#
# 1 96.5108 30.1313 43.7054 0.0000 10.9686 0.0002
# 2 30.1313 108.6144 39.5076 0.0015 -2.1772 0.0014
# 3 43.7054 39.5076 93.2621 0.0022 14.3221 0.0021
# 4 0.0000 0.0015 0.0022 -11.4707 -0.0015 -45.9939
# 5 10.9686 -2.1772 14.3221 -0.0015 32.1947 -0.0023
# 6 0.0002 0.0014 0.0021 -45.9939 -0.0023 -20.9409
#
#
#
# Elastic Compliance Matrix: (Units=1/GPa)
#
#
# Indices 1 2 3 4 5 6 
#
# 1 0.013587 -0.001939 -0.005168 0.000000 -0.002461 0.000000
# 2 -0.001939 0.011436 -0.004461 0.000000 0.003418 0.000000
# 3 -0.005168 -0.004461 0.015896 0.000001 -0.005612 0.000001
# 4 0.000000 0.000000 0.000001 0.011167 -0.000001 -0.024527
# 5 -0.002461 0.003418 -0.005612 -0.000001 0.034627 -0.000001
# 6 0.000000 0.000000 0.000001 -0.024527 -0.000001 0.006117
#
#
# Mechanical properties :
#
#
# Convention : Reuss Voigt Hill
#
# Bulk Modulus (GPa) = 56.23184 58.34178 57.28681
# Shear Modulus (GPa) = 41.01956 12.29281 26.65618
#
# Velocity S-wave (km/s) = 4.72945 2.58905 3.81254
# Velocity P-wave (km/s) = 7.77731 6.38365 7.11469
#
# Compressibility (1/GPa) = 0.01778352
#
# Stress axis : x y z
#
# Youngs Moduli (GPa) = 73.60051 87.44448 62.90919
#
# Poissons Ratio (x) = 0.16953 0.32511
# Poissons Ratio (y) = 0.14269 0.28063
# Poissons Ratio (z) = 0.38037 0.39008
#
# Static dielectric constant tensor:
#      x y z
#    x 3.391920 0.000000 0.159130 
#    y 0.000000 3.286560 0.000000 
#    z 0.159130 0.000000 3.717150 
# 
# 
# High freq. dielectric constant tensor:
#      x y z
#    x 1.715520 0.000000 0.008780 
#    y 0.000000 1.699770 0.000000 
#    z 0.008780 0.000000 1.713690 
# 
# From -- ./inp_files/24085.got.cif
#   From: 2010.03.12/outbox.cif.g09.slc.cpg/sg5_13_cif.got.tgz:24085.got - 2010.03.31 09:47:26.
