data_PCOD8048406
_publ_section_title
;
Structure prediction by ZEFSAII (Michael W. Deem and Ramdas Pophale) SiO2 
 PCOD8048406
Probable space group: C 2
;
_chemical_formula_sum "Si O2"
_cell_formula_units_Z 28
_cell_length_a 8.375763
_cell_length_b 13.324924
_cell_length_c 12.491964
_cell_angle_alpha 90.000000
_cell_angle_beta 117.686225
_cell_angle_gamma 90.000000
_cell_volume 1234.556691
_symmetry_space_group_name_H-M "C 2"
_symmetry_group_IT_number 5
_symmetry_cell_setting 'monoclinic'
loop_
_space_group_symop_operation_xyz
x,y,z
-x,y,-z
1/2+x,1/2+y,z
1/2-x,1/2+y,-z
loop_
_atom_site_type_symbol
_atom_site_label
_atom_site_fract_x
_atom_site_fract_y
_atom_site_fract_z
Si Si1 0.867899 0.123450 0.175568
Si Si2 0.702504 0.978400 0.827205
Si Si3 0.877811 0.441723 0.866686
Si Si4 0.000000 0.126358 0.000000
Si Si5 0.043883 0.829299 0.689182
Si Si6 0.000000 0.658561 0.500000
Si Si7 0.110089 0.780065 0.132647
Si Si8 0.303287 0.514718 0.628473
O O1 0.761325 0.200877 0.216599
O O2 0.920672 0.181967 0.080225
O O3 0.041395 0.092122 0.294352
O O4 0.747269 0.024657 0.113817
O O5 0.506460 0.992400 0.818014
O O6 0.794891 0.875351 0.891753
O O7 0.686027 0.977810 0.693254
O O8 0.833704 0.065481 0.902077
O O9 0.751510 0.365687 0.759972
O O10 0.000000 0.391698 0.000000
O O11 0.037238 0.730777 0.613239
O O12 0.007521 0.803823 0.801125
O O13 0.899878 0.915965 0.603910
O O14 0.834217 0.584346 0.482538
O O15 0.000000 0.730134 0.000000
#
# Coordination Sequence:
#
# PCOD8048406 Si02
#       8
#     4   4   4   2   4   2   4   4
#     4  10  22  37  61  97 136 177 231 271 353 417
#     4  10  20  37  64  89 133 179 215 276 352 403
#     4  11  20  38  68 103 138 180 215 282 365 428
#     4  10  18  38  54  90 138 178 212 272 328 430
#     4  10  26  47  69 104 140 178 245 288 348 428
#     4  12  26  50  76  96 138 194 246 298 346 408
#     4  11  22  39  63 101 139 176 217 283 347 438
#     4   9  24  47  66  95 133 179 236 302 340 402
#
# _framework density 22.680208
#
# number of rings (size 3 to 8) (size 9 to 14) (size 15 to 20)
#    0.000    1.714    2.143    2.143    4.000    2.286 
#    6.429    0.000    0.000    0.000    0.000    0.000 
#    0.000    0.000    0.000    0.000    0.000    0.000 
#
# Total GULP energy -173441.889009 kJ/mol
# GULP energy per Si atom -12388.706358 kJ/mol
# Density = 2.262859 g / cm^3
# Si number density = 22.680208 Si / 1000 Ang^3
#
#
#
# Elastic Constant Matrix: (Units=GPa)
#
#
# Indices 1 2 3 4 5 6 
#
# 1 105.0155 20.0205 30.4024 0.0000 17.2790 0.0000
# 2 20.0205 55.7415 23.9806 0.0000 15.6412 0.0000
# 3 30.4024 23.9806 65.8436 0.0000 17.6083 0.0000
# 4 0.0000 0.0000 0.0000 33.3003 0.0000 0.0621
# 5 17.2790 15.6412 17.6083 0.0000 30.7281 0.0000
# 6 0.0000 0.0000 0.0000 0.0621 0.0000 45.4020
#
#
#
# Elastic Compliance Matrix: (Units=1/GPa)
#
#
# Indices 1 2 3 4 5 6 
#
# 1 0.011492 -0.001499 -0.003822 0.000000 -0.003509 0.000000
# 2 -0.001499 0.023061 -0.005661 0.000000 -0.007652 0.000000
# 3 -0.003822 -0.005661 0.020866 0.000000 -0.006927 0.000000
# 4 0.000000 0.000000 0.000000 0.030030 0.000000 -0.000041
# 5 -0.003509 -0.007652 -0.006927 0.000000 0.042381 0.000000
# 6 0.000000 0.000000 0.000000 -0.000041 0.000000 0.022026
#
#
# Mechanical properties :
#
#
# Convention : Reuss Voigt Hill
#
# Bulk Modulus (GPa) = 29.88958 41.71199 35.80078
# Shear Modulus (GPa) = 27.32697 32.03256 29.67977
#
# Velocity S-wave (km/s) = 3.47491 3.76221 3.62141
# Velocity P-wave (km/s) = 5.41362 6.10767 5.77109
#
# Compressibility (1/GPa) = 0.03345648
#
# Stress axis : x y z
#
# Youngs Moduli (GPa) = 87.01716 43.36413 47.92439
#
# Poissons Ratio (x) = 0.06498 0.18317
# Poissons Ratio (y) = 0.13040 0.27128
# Poissons Ratio (z) = 0.33258 0.24546
#
# Static dielectric constant tensor:
#      x y z
#    x 4.488340 0.000000 0.079450 
#    y 0.000000 4.029080 0.000000 
#    z 0.079450 0.000000 3.797310 
# 
# 
# High freq. dielectric constant tensor:
#      x y z
#    x 1.913450 0.000000 0.008980 
#    y 0.000000 1.885930 0.000000 
#    z 0.008980 0.000000 1.865660 
# 
# From -- ./inp_files/36527.got.cif
#   From: 2010.03.12/outbox.cif.g09.slc.cpg/sg5_19_cif.got.tgz:36527.got - 2010.03.31 09:47:26.
