data_PCOD8048449
_publ_section_title
;
Structure prediction by ZEFSAII (Michael W. Deem and Ramdas Pophale) SiO2 
 PCOD8048449
Probable space group: C 2
;
_chemical_formula_sum "Si O2"
_cell_formula_units_Z 32
_cell_length_a 21.258978
_cell_length_b 13.597647
_cell_length_c 15.435547
_cell_angle_alpha 90.000000
_cell_angle_beta 20.164099
_cell_angle_gamma 90.000000
_cell_volume 1538.091433
_symmetry_space_group_name_H-M "C 2"
_symmetry_group_IT_number 5
_symmetry_cell_setting 'monoclinic'
loop_
_space_group_symop_operation_xyz
x,y,z
-x,y,-z
1/2+x,1/2+y,z
1/2-x,1/2+y,-z
loop_
_atom_site_type_symbol
_atom_site_label
_atom_site_fract_x
_atom_site_fract_y
_atom_site_fract_z
Si Si1 0.285145 0.037300 0.653015
Si Si2 0.634416 0.455633 0.247562
Si Si3 0.094335 0.848508 0.136958
Si Si4 0.578456 0.633749 0.072586
Si Si5 0.338091 0.460463 0.359970
Si Si6 0.844144 0.629415 0.888179
Si Si7 0.495243 0.840863 0.791562
Si Si8 0.510643 0.861035 0.396034
O O1 0.449595 0.093070 0.391755
O O2 0.149904 0.990343 0.756115
O O3 0.371459 0.949446 0.597206
O O4 0.169860 0.108577 0.862646
O O5 0.500000 0.477707 0.500000
O O6 0.515276 0.400523 0.326307
O O7 0.727020 0.557985 0.100395
O O8 0.792653 0.379599 0.070200
O O9 0.139019 0.733639 0.085544
O O10 0.965969 0.867611 0.219797
O O11 0.286347 0.905827 0.875989
O O12 0.422225 0.554635 0.302949
O O13 0.479018 0.739188 0.189918
O O14 0.739546 0.644014 0.933478
O O15 0.132688 0.425742 0.648474
O O16 0.537695 0.812872 0.634639
O O17 0.500000 0.795444 0.500000
#
# Coordination Sequence:
#
# PCOD8048449 Si02
#       8
#     4   4   4   4   4   4   4   4
#     4  11  23  38  68 102 136 167 224 289 341 397
#     4  11  23  45  66  96 133 180 232 282 345 409
#     4  11  23  39  68  98 131 184 226 284 340 412
#     4  12  23  40  70 101 133 179 228 282 338 403
#     4  11  23  43  63  97 146 176 210 281 357 407
#     4  12  22  42  68 102 131 178 233 287 334 397
#     4  10  24  42  63 102 142 173 225 288 341 411
#     4  10  18  39  65  94 130 175 223 279 330 393
#
# _framework density 20.805005000000001
#
# number of rings (size 3 to 8) (size 9 to 14) (size 15 to 20)
#    0.000    1.000    7.500    2.250    3.500    1.500 
#    0.000    0.625    0.000    0.000    6.500    0.000 
#    0.000    0.000    0.000    0.000    0.000    0.000 
#
# Total GULP energy -198223.652183 kJ/mol
# GULP energy per Si atom -12388.978261 kJ/mol
# Density = 2.075765 g / cm^3
# Si number density = 20.805005 Si / 1000 Ang^3
#
#
#
# Elastic Constant Matrix: (Units=GPa)
#
#
# Indices 1 2 3 4 5 6 
#
# 1 104.7036 52.3015 51.2756 0.0003 -9.3644 -0.0004
# 2 52.3015 137.6432 54.6468 0.0006 9.2268 -0.0008
# 3 51.2756 54.6468 97.5670 0.0008 12.9879 -0.0022
# 4 0.0003 0.0006 0.0008 28.2615 -0.0010 -1.9452
# 5 -9.3644 9.2268 12.9879 -0.0010 37.4942 0.0009
# 6 -0.0004 -0.0008 -0.0022 -1.9452 0.0009 34.9683
#
#
#
# Elastic Compliance Matrix: (Units=1/GPa)
#
#
# Indices 1 2 3 4 5 6 
#
# 1 0.015425 -0.003529 -0.007085 0.000000 0.007175 -0.000001
# 2 -0.003529 0.010160 -0.003549 0.000000 -0.002152 0.000000
# 3 -0.007085 -0.003549 0.016857 0.000000 -0.006735 0.000001
# 4 0.000000 0.000000 0.000000 0.035520 0.000001 0.001976
# 5 0.007175 -0.002152 -0.006735 0.000001 0.031326 -0.000001
# 6 -0.000001 0.000000 0.000001 0.001976 -0.000001 0.028707
#
#
# Mechanical properties :
#
#
# Convention : Reuss Voigt Hill
#
# Bulk Modulus (GPa) = 70.84517 72.92906 71.88711
# Shear Modulus (GPa) = 29.23530 32.25747 30.74638
#
# Velocity S-wave (km/s) = 3.75267 3.94187 3.84843
# Velocity P-wave (km/s) = 7.27342 7.47312 7.37394
#
# Compressibility (1/GPa) = 0.01411529
#
# Stress axis : x y z
#
# Youngs Moduli (GPa) = 64.82928 98.42982 59.32201
#
# Poissons Ratio (x) = 0.34739 0.42029
# Poissons Ratio (y) = 0.22881 0.21053
# Poissons Ratio (z) = 0.45931 0.34932
#
# Static dielectric constant tensor:
#      x y z
#    x 3.921670 0.000000 -0.201730 
#    y 0.000000 3.834010 0.000000 
#    z -0.201730 0.000000 3.740400 
# 
# 
# High freq. dielectric constant tensor:
#      x y z
#    x 1.813550 0.000000 -0.013350 
#    y 0.000000 1.806640 0.000000 
#    z -0.013350 0.000000 1.805100 
# 
# From -- ./inp_files/57177.got.cif
#   From: 2010.03.12/outbox.cif.g09.slc.cpg/sg5_29_cif.got.tgz:57177.got - 2010.03.31 09:47:26.
