data_PCOD8048285
_publ_section_title
;
Structure prediction by ZEFSAII (Michael W. Deem and Ramdas Pophale) SiO2 
 PCOD8048285
Probable space group: C 2
;
_chemical_formula_sum "Si O2"
_cell_formula_units_Z 32
_cell_length_a 15.719088
_cell_length_b 23.645842
_cell_length_c 8.916461
_cell_angle_alpha 90.000000
_cell_angle_beta 29.181121
_cell_angle_gamma 90.000000
_cell_volume 1615.895993
_symmetry_space_group_name_H-M "C 2"
_symmetry_group_IT_number 5
_symmetry_cell_setting 'monoclinic'
loop_
_space_group_symop_operation_xyz
x,y,z
-x,y,-z
1/2+x,1/2+y,z
1/2-x,1/2+y,-z
loop_
_atom_site_type_symbol
_atom_site_label
_atom_site_fract_x
_atom_site_fract_y
_atom_site_fract_z
Si Si1 0.822995 0.066890 0.862143
Si Si2 0.014876 0.763330 0.145046
Si Si3 0.148280 0.001458 0.886581
Si Si4 0.977108 0.481743 0.712372
Si Si5 0.845257 0.258367 0.129785
Si Si6 0.281154 0.878517 0.125298
Si Si7 0.320022 0.188414 0.865365
Si Si8 0.444990 0.384129 0.820585
O O1 0.000000 0.057192 0.500000
O O2 0.859635 0.049367 0.975729
O O3 0.758545 0.130651 0.951861
O O4 0.672384 0.027481 0.024352
O O5 0.829958 0.758355 0.507027
O O6 0.071923 0.829044 0.048290
O O7 0.152716 0.727930 0.031269
O O8 0.000000 0.738693 0.000000
O O9 0.336470 0.003942 0.514216
O O10 0.000000 0.018211 0.000000
O O11 0.125129 0.938510 0.986028
O O12 0.000000 0.469329 0.500000
O O13 0.929030 0.425592 0.877765
O O14 0.882787 0.321026 0.008876
O O15 0.823959 0.216129 0.022353
O O16 0.000000 0.237727 0.000000
O O17 0.145475 0.895509 0.465043
O O18 0.172635 0.870512 0.141271
O O19 0.500000 0.177330 0.500000
#
# Coordination Sequence:
#
# PCOD8048285 Si02
#       8
#     4   4   4   4   4   4   4   4
#     4  11  23  42  63  85 112 156 203 243 298 362
#     4  10  21  38  61  90 121 158 199 244 294 355
#     4  11  23  38  60  92 121 151 194 247 301 351
#     4  10  20  36  59  86 116 154 195 238 294 354
#     4  10  22  38  58  88 123 160 200 242 294 352
#     4  10  18  34  59  87 121 161 198 237 293 356
#     4  10  21  41  64  83 115 162 202 243 302 353
#     4  10  18  34  60  88 122 161 194 236 297 359
#
# _framework density 19.803253999999999
#
# number of rings (size 3 to 8) (size 9 to 14) (size 15 to 20)
#    0.000    1.750    3.750    2.250    0.000    4.500 
#    0.000    5.000    0.000    0.000    0.000    0.000 
#    0.000    0.000    0.000    0.000    0.000    0.000 
#
# Total GULP energy -198416.036431 kJ/mol
# GULP energy per Si atom -12401.002277 kJ/mol
# Density = 1.975818 g / cm^3
# Si number density = 19.803254 Si / 1000 Ang^3
#
#
#
# Elastic Constant Matrix: (Units=GPa)
#
#
# Indices 1 2 3 4 5 6 
#
# 1 104.6154 33.2414 32.3169 0.0001 -17.9727 -0.0002
# 2 33.2414 108.4728 47.2260 -0.0002 -0.8833 0.0001
# 3 32.3169 47.2260 103.2489 0.0000 -13.1115 -0.0011
# 4 0.0001 -0.0002 0.0000 28.9081 -0.0002 -3.4847
# 5 -17.9727 -0.8833 -13.1115 -0.0002 30.8376 0.0007
# 6 -0.0002 0.0001 -0.0011 -3.4847 0.0007 10.8519
#
#
#
# Elastic Compliance Matrix: (Units=1/GPa)
#
#
# Indices 1 2 3 4 5 6 
#
# 1 0.012073 -0.002934 -0.001643 0.000000 0.006254 0.000000
# 2 -0.002934 0.012344 -0.005180 0.000000 -0.003559 0.000000
# 3 -0.001643 -0.005180 0.013138 0.000000 0.004480 0.000001
# 4 0.000000 0.000000 0.000000 0.035985 0.000000 0.011555
# 5 0.006254 -0.003559 0.004480 0.000000 0.037876 -0.000002
# 6 0.000000 0.000000 0.000001 0.011555 -0.000002 0.095861
#
#
# Mechanical properties :
#
#
# Convention : Reuss Voigt Hill
#
# Bulk Modulus (GPa) = 55.42581 60.21174 57.81878
# Shear Modulus (GPa) = 21.47741 27.68970 24.58355
#
# Velocity S-wave (km/s) = 3.29681 3.74336 3.52716
# Velocity P-wave (km/s) = 6.52234 7.01104 6.77110
#
# Compressibility (1/GPa) = 0.01804214
#
# Stress axis : x y z
#
# Youngs Moduli (GPa) = 82.83069 81.01046 76.11663
#
# Poissons Ratio (x) = 0.23765 0.12505
# Poissons Ratio (y) = 0.24299 0.39427
# Poissons Ratio (z) = 0.13608 0.41962
#
# Static dielectric constant tensor:
#      x y z
#    x 3.969980 0.000000 -0.145140 
#    y 0.000000 3.582120 0.000000 
#    z -0.145140 0.000000 3.681890 
# 
# 
# High freq. dielectric constant tensor:
#      x y z
#    x 1.763840 0.000000 -0.008270 
#    y 0.000000 1.768940 0.000000 
#    z -0.008270 0.000000 1.770630 
# 
# From -- ./inp_files/25565.got.cif
#   From: 2010.03.12/outbox.cif.g09.slc.cpg/sg5_13_cif.got.tgz:25565.got - 2010.03.31 09:47:26.
