data_PCOD8048365
_publ_section_title
;
Structure prediction by ZEFSAII (Michael W. Deem and Ramdas Pophale) SiO2 
 PCOD8048365
Probable space group: C 2
;
_chemical_formula_sum "Si O2"
_cell_formula_units_Z 30
_cell_length_a 14.853295
_cell_length_b 11.123719
_cell_length_c 18.131391
_cell_angle_alpha 90.000000
_cell_angle_beta 30.279141
_cell_angle_gamma 90.000000
_cell_volume 1510.491222
_symmetry_space_group_name_H-M "C 2"
_symmetry_group_IT_number 5
_symmetry_cell_setting 'monoclinic'
loop_
_space_group_symop_operation_xyz
x,y,z
-x,y,-z
1/2+x,1/2+y,z
1/2-x,1/2+y,-z
loop_
_atom_site_type_symbol
_atom_site_label
_atom_site_fract_x
_atom_site_fract_y
_atom_site_fract_z
Si Si1 0.932368 0.920020 0.813692
Si Si2 0.280374 0.595231 0.426677
Si Si3 0.151530 0.682661 0.670613
Si Si4 0.806509 0.268214 0.116240
Si Si5 0.305793 0.036549 0.890903
Si Si6 0.574111 0.943269 0.340482
Si Si7 0.807858 0.658179 0.659429
Si Si8 0.000000 0.235515 0.500000
O O1 0.786704 0.875612 0.859689
O O2 0.065273 0.813600 0.746214
O O3 0.040970 0.017955 0.689121
O O4 0.826798 0.976810 0.957180
O O5 0.230990 0.678101 0.531054
O O6 0.316404 0.671950 0.325677
O O7 0.116419 0.507912 0.524510
O O8 0.320722 0.659364 0.605869
O O9 0.994907 0.582988 0.792133
O O10 0.798708 0.147609 0.072514
O O11 0.723052 0.252521 0.254944
O O12 0.000000 0.311724 0.000000
O O13 0.349265 0.937037 0.797082
O O14 0.551385 0.812146 0.391135
O O15 0.706414 0.021284 0.298936
O O16 0.000000 0.697527 0.500000
#
# Coordination Sequence:
#
# PCOD8048365 Si02
#       8
#     4   4   4   4   4   4   4   2
#     4  11  20  40  63  84 124 162 196 252 301 355
#     4  10  18  36  62  87 114 154 202 245 304 350
#     4  10  23  39  61  93 118 158 207 249 293 370
#     4  10  21  36  55  86 118 152 197 242 288 359
#     4   9  21  39  60  88 124 155 198 248 310 357
#     4   9  16  32  62  89 110 147 197 250 298 346
#     4   9  15  31  58  87 110 135 190 256 288 334
#     4  12  18  38  62  88 122 152 204 256 290 354
#
# _framework density 19.861087000000001
#
# number of rings (size 3 to 8) (size 9 to 14) (size 15 to 20)
#    0.000    2.133    3.333    3.200    0.000    1.067 
#    9.600    1.333    0.000    0.000    0.000    0.000 
#    0.000    0.000    0.000    0.000    0.000    0.000 
#
# Total GULP energy -185831.113407 kJ/mol
# GULP energy per Si atom -12388.740894 kJ/mol
# Density = 1.981588 g / cm^3
# Si number density = 19.861087 Si / 1000 Ang^3
#
#
#
# Elastic Constant Matrix: (Units=GPa)
#
#
# Indices 1 2 3 4 5 6 
#
# 1 123.0310 38.2086 52.5570 0.0010 -9.9987 -0.0002
# 2 38.2086 53.1880 48.1264 -0.0012 9.5652 0.0006
# 3 52.5570 48.1264 121.8542 -0.0003 15.3982 0.0001
# 4 0.0010 -0.0012 -0.0003 30.4793 0.0005 1.5762
# 5 -9.9987 9.5652 15.3982 0.0005 39.5301 0.0000
# 6 -0.0002 0.0006 0.0001 1.5762 0.0000 22.7951
#
#
#
# Elastic Compliance Matrix: (Units=1/GPa)
#
#
# Indices 1 2 3 4 5 6 
#
# 1 0.012145 -0.006813 -0.003307 -0.000001 0.006008 0.000000
# 2 -0.006813 0.033357 -0.009464 0.000002 -0.006108 -0.000001
# 3 -0.003307 -0.009464 0.013870 0.000000 -0.003949 0.000000
# 4 -0.000001 0.000002 0.000000 0.032927 -0.000001 -0.002277
# 5 0.006008 -0.006108 -0.003949 -0.000001 0.029833 0.000000
# 6 0.000000 -0.000001 0.000000 -0.002277 0.000000 0.044027
#
#
# Mechanical properties :
#
#
# Convention : Reuss Voigt Hill
#
# Bulk Modulus (GPa) = 49.49455 63.98414 56.73934
# Shear Modulus (GPa) = 23.57816 29.17299 26.37557
#
# Velocity S-wave (km/s) = 3.44925 3.83672 3.64813
# Velocity P-wave (km/s) = 6.39043 7.20507 6.80994
#
# Compressibility (1/GPa) = 0.02020425
#
# Stress axis : x y z
#
# Youngs Moduli (GPa) = 82.34021 29.97831 72.10013
#
# Poissons Ratio (x) = 0.20424 0.23841
# Poissons Ratio (y) = 0.56098 0.68237
# Poissons Ratio (z) = 0.27227 0.28372
#
# Static dielectric constant tensor:
#      x y z
#    x 3.940160 0.000000 -0.028240 
#    y 0.000000 3.218920 0.000000 
#    z -0.028240 0.000000 3.678570 
# 
# 
# High freq. dielectric constant tensor:
#      x y z
#    x 1.777470 0.000000 0.000890 
#    y 0.000000 1.727960 0.000000 
#    z 0.000890 0.000000 1.783410 
# 
# From -- ./inp_files/23632.got.cif
#   From: 2010.03.12/outbox.cif.g09.slc.cpg/sg5_12_cif.got.tgz:23632.got - 2010.03.31 09:47:26.
