data_PCOD8048980
_publ_section_title
;
Structure prediction by ZEFSAII (Michael W. Deem and Ramdas Pophale) SiO2 
 PCOD8048980
Probable space group: C 2
;
_chemical_formula_sum "Si O2"
_cell_formula_units_Z 30
_cell_length_a 14.155487
_cell_length_b 23.947879
_cell_length_c 14.024256
_cell_angle_alpha 90.000000
_cell_angle_beta 159.704155
_cell_angle_gamma 90.000000
_cell_volume 1649.056297
_symmetry_space_group_name_H-M "C 2"
_symmetry_group_IT_number 5
_symmetry_cell_setting 'monoclinic'
loop_
_space_group_symop_operation_xyz
x,y,z
-x,y,-z
1/2+x,1/2+y,z
1/2-x,1/2+y,-z
loop_
_atom_site_type_symbol
_atom_site_label
_atom_site_fract_x
_atom_site_fract_y
_atom_site_fract_z
Si Si1 0.476619 0.626930 0.824441
Si Si2 0.000000 0.035598 0.000000
Si Si3 0.037146 0.383660 0.844787
Si Si4 0.519415 0.197072 0.630188
Si Si5 0.275292 0.981595 0.716038
Si Si6 0.651870 0.977370 0.825283
Si Si7 0.516280 0.323155 0.400858
Si Si8 0.892034 0.030648 0.626307
O O1 0.495528 0.593609 0.743365
O O2 0.271940 0.676944 0.609958
O O3 0.376545 0.578374 0.804286
O O4 0.758773 0.654001 0.121820
O O5 0.215035 0.993392 0.151511
O O6 0.914443 0.431591 0.793461
O O7 0.817567 0.333428 0.642091
O O8 0.084006 0.411071 0.782551
O O9 0.316653 0.364446 0.156814
O O10 0.500000 0.193198 0.500000
O O11 0.572985 0.260399 0.712531
O O12 0.174386 0.029343 0.548291
O O13 0.000000 0.956572 0.500000
O O14 0.500000 0.007662 0.000000
O O15 0.378170 0.013750 0.570283
O O16 0.860025 0.990331 0.108972
O O17 0.500000 0.331126 0.500000
#
# Coordination Sequence:
#
# PCOD8048980 Si02
#       8
#     4   2   4   4   4   4   4   4
#     4  11  20  33  53  70 110 140 174 210 271 314
#     4  10  20  34  54  78 104 152 170 216 272 318
#     4  11  20  34  49  73 103 145 173 222 259 300
#     4  11  21  34  48  76  99 141 185 217 249 325
#     4  11  20  32  52  74 103 139 180 209 256 318
#     4  10  21  33  51  75 108 137 190 210 257 331
#     4  11  22  33  51  72 105 139 187 220 259 304
#     4  10  21  33  48  77 103 142 175 217 256 322
#
# _framework density 18.192222999999998
#
# number of rings (size 3 to 8) (size 9 to 14) (size 15 to 20)
#    0.000    1.333    1.333    8.000    0.000    3.733 
#    0.000    0.000    0.000    0.000    0.000    0.000 
#   10.000    0.000    0.800    0.000    0.000    0.000 
#
# Total GULP energy -185822.227627 kJ/mol
# GULP energy per Si atom -12388.148508 kJ/mol
# Density = 1.815082 g / cm^3
# Si number density = 18.192223 Si / 1000 Ang^3
#
#
#
# Elastic Constant Matrix: (Units=GPa)
#
#
# Indices 1 2 3 4 5 6 
#
# 1 60.2629 64.6822 24.4732 -0.0153 2.9226 0.0186
# 2 64.6822 133.0334 50.6596 -0.0072 -5.5118 0.0093
# 3 24.4732 50.6596 110.2447 -0.0162 -0.1546 0.0203
# 4 -0.0153 -0.0072 -0.0162 31.4766 0.0000 0.7352
# 5 2.9226 -5.5118 -0.1546 0.0000 29.7026 0.0045
# 6 0.0186 0.0093 0.0203 0.7352 0.0045 21.7814
#
#
#
# Elastic Compliance Matrix: (Units=1/GPa)
#
#
# Indices 1 2 3 4 5 6 
#
# 1 0.036042 -0.017888 0.000209 0.000014 -0.006865 -0.000022
# 2 -0.017888 0.018073 -0.004327 -0.000007 0.005091 0.000011
# 3 0.000209 -0.004327 0.011011 0.000005 -0.000766 -0.000009
# 4 0.000014 -0.000007 0.000005 0.031795 -0.000003 -0.001073
# 5 -0.006865 0.005091 -0.000766 -0.000003 0.035283 -0.000003
# 6 -0.000022 0.000011 -0.000009 -0.001073 -0.000003 0.045947
#
#
# Mechanical properties :
#
#
# Convention : Reuss Voigt Hill
#
# Bulk Modulus (GPa) = 47.35922 64.79676 56.07799
# Shear Modulus (GPa) = 21.81503 27.50718 24.66111
#
# Velocity S-wave (km/s) = 3.46662 3.89270 3.68582
# Velocity P-wave (km/s) = 6.48941 7.47658 7.00042
#
# Compressibility (1/GPa) = 0.02111521
#
# Stress axis : x y z
#
# Youngs Moduli (GPa) = 27.74570 55.33182 90.81502
#
# Poissons Ratio (x) = 0.98977 -0.01901
# Poissons Ratio (y) = 0.49631 0.39293
# Poissons Ratio (z) = -0.00581 0.23941
#
# Static dielectric constant tensor:
#      x y z
#    x 3.570470 -0.000110 0.233500 
#    y -0.000110 3.500110 -0.000240 
#    z 0.233500 -0.000240 4.128640 
# 
# 
# High freq. dielectric constant tensor:
#      x y z
#    x 1.668960 0.000000 0.010210 
#    y 0.000000 1.688760 0.000000 
#    z 0.010210 0.000000 1.729760 
# 
# From -- ./inp_files/55003.got.cif
#   From: 2010.03.12/outbox.cif.g09.slc.cpg/sg5_28_cif.got.tgz:55003.got - 2010.03.31 09:47:26.
