data_PCOD8048166
_publ_section_title
;
Structure prediction by ZEFSAII (Michael W. Deem and Ramdas Pophale) SiO2 
 PCOD8048166
Probable space group: C 2
;
_chemical_formula_sum "Si O2"
_cell_formula_units_Z 24
_cell_length_a 9.110339
_cell_length_b 17.095747
_cell_length_c 8.860224
_cell_angle_alpha 90.000000
_cell_angle_beta 126.639980
_cell_angle_gamma 90.000000
_cell_volume 1107.283720
_symmetry_space_group_name_H-M "C 2"
_symmetry_group_IT_number 5
_symmetry_cell_setting 'monoclinic'
loop_
_space_group_symop_operation_xyz
x,y,z
-x,y,-z
1/2+x,1/2+y,z
1/2-x,1/2+y,-z
loop_
_atom_site_type_symbol
_atom_site_label
_atom_site_fract_x
_atom_site_fract_y
_atom_site_fract_z
Si Si1 0.407537 0.731360 0.795348
Si Si2 0.841852 0.299625 0.294477
Si Si3 0.305429 0.646985 0.447310
Si Si4 0.042928 0.513121 0.195031
Si Si5 0.183043 0.881479 0.707916
Si Si6 0.678681 0.439848 0.043878
O O1 0.570602 0.775493 0.810187
O O2 0.323696 0.664621 0.636637
O O3 0.249883 0.792123 0.747951
O O4 0.500000 0.692760 0.000000
O O5 0.747272 0.225691 0.321083
O O6 0.695895 0.366292 0.169283
O O7 0.000000 0.333497 0.500000
O O8 0.500000 0.616298 0.500000
O O9 0.149969 0.582528 0.341718
O O10 0.158772 0.433561 0.271179
O O11 0.852632 0.497086 0.164738
O O12 0.000000 0.540991 0.000000
O O13 0.000000 0.890405 0.500000
O O14 0.148475 0.911836 0.854828
O O15 0.500000 0.484536 0.000000
#
# Coordination Sequence:
#
# PCOD8048166 Si02
#       6
#     4   4   4   4   4   4
#     4  10  17  38  65 102 133 169 220 279 328 392
#     4   9  19  36  63  98 133 167 220 283 330 394
#     4   9  21  37  68 103 132 182 217 275 341 403
#     4  10  21  43  65  95 138 181 222 274 340 399
#     4  11  22  37  68  98 134 174 227 273 335 401
#     4  11  23  37  66 105 127 176 228 287 329 388
#
# _framework density 21.674661
#
# number of rings (size 3 to 8) (size 9 to 14) (size 15 to 20)
#    0.000    2.333    3.333    1.000    4.667    0.667 
#    0.000    0.000    0.000   54.000    0.000    0.000 
#    0.000    0.000    0.000    0.000    0.000    0.000 
#
# Total GULP energy -148775.029329 kJ/mol
# GULP energy per Si atom -12397.919111 kJ/mol
# Density = 2.162533 g / cm^3
# Si number density = 21.674661 Si / 1000 Ang^3
#
#
#
# Elastic Constant Matrix: (Units=GPa)
#
#
# Indices 1 2 3 4 5 6 
#
# 1 137.2885 50.9519 62.6361 0.0000 13.6238 0.0000
# 2 50.9519 88.8263 71.2967 0.0000 13.6897 0.0000
# 3 62.6361 71.2967 158.4963 0.0000 0.6327 0.0000
# 4 0.0000 0.0000 0.0000 43.0154 0.0000 9.8491
# 5 13.6238 13.6897 0.6327 0.0000 34.7508 0.0000
# 6 0.0000 0.0000 0.0000 9.8491 0.0000 6.7099
#
#
#
# Elastic Compliance Matrix: (Units=1/GPa)
#
#
# Indices 1 2 3 4 5 6 
#
# 1 0.009865 -0.003369 -0.002373 0.000000 -0.002497 0.000000
# 2 -0.003369 0.020537 -0.007880 0.000000 -0.006626 0.000000
# 3 -0.002373 -0.007880 0.010777 0.000000 0.003838 0.000000
# 4 0.000000 0.000000 0.000000 0.035016 0.000000 -0.051399
# 5 -0.002497 -0.006626 0.003838 0.000000 0.032296 0.000000
# 6 0.000000 0.000000 0.000000 -0.051399 0.000000 0.224480
#
#
# Mechanical properties :
#
#
# Convention : Reuss Voigt Hill
#
# Bulk Modulus (GPa) = 71.76940 83.82006 77.79473
# Shear Modulus (GPa) = 13.70393 30.21031 21.95712
#
# Velocity S-wave (km/s) = 2.51720 3.73742 3.18627
# Velocity P-wave (km/s) = 6.45232 7.57498 7.03607
#
# Compressibility (1/GPa) = 0.01393352
#
# Stress axis : x y z
#
# Youngs Moduli (GPa) = 101.37161 48.69338 92.79439
#
# Poissons Ratio (x) = 0.16405 0.22020
# Poissons Ratio (y) = 0.34152 0.73124
# Poissons Ratio (z) = 0.24055 0.38371
#
# Static dielectric constant tensor:
#      x y z
#    x 3.799110 0.000000 -0.046180 
#    y 0.000000 3.593690 0.000000 
#    z -0.046180 0.000000 4.043130 
# 
# 
# High freq. dielectric constant tensor:
#      x y z
#    x 1.843740 0.000000 -0.003470 
#    y 0.000000 1.824530 0.000000 
#    z -0.003470 0.000000 1.864170 
# 
# From -- ./inp_files/16849.got.cif
#   From: 2010.03.12/outbox.cif.g09.slc.cpg/sg5_9_cif.got.tgz:16849.got - 2010.03.31 09:47:26.
