data_PCOD8048445
_publ_section_title
;
Structure prediction by ZEFSAII (Michael W. Deem and Ramdas Pophale) SiO2 
 PCOD8048445
Probable space group: C 2
;
_chemical_formula_sum "Si O2"
_cell_formula_units_Z 30
_cell_length_a 14.599514
_cell_length_b 11.348230
_cell_length_c 25.288048
_cell_angle_alpha 90.000000
_cell_angle_beta 158.082541
_cell_angle_gamma 90.000000
_cell_volume 1563.887453
_symmetry_space_group_name_H-M "C 2"
_symmetry_group_IT_number 5
_symmetry_cell_setting 'monoclinic'
loop_
_space_group_symop_operation_xyz
x,y,z
-x,y,-z
1/2+x,1/2+y,z
1/2-x,1/2+y,-z
loop_
_atom_site_type_symbol
_atom_site_label
_atom_site_fract_x
_atom_site_fract_y
_atom_site_fract_z
Si Si1 0.536950 0.909150 0.081640
Si Si2 0.185606 0.454328 0.755371
Si Si3 0.504322 0.536902 0.315313
Si Si4 0.718875 0.626530 0.908159
Si Si5 0.352695 0.156634 0.572532
Si Si6 0.366723 0.678922 0.809860
Si Si7 0.500000 0.308228 0.000000
Si Si8 0.098052 0.355793 0.493852
O O1 0.485086 0.783753 0.081621
O O2 0.500000 0.888186 0.000000
O O3 0.816349 0.948457 0.244089
O O4 0.350452 0.010297 0.003200
O O5 0.398610 0.550192 0.854508
O O6 0.944290 0.529785 0.644731
O O7 0.111415 0.375230 0.663684
O O8 0.278252 0.383403 0.855842
O O9 0.354003 0.602923 0.190586
O O10 0.601227 0.638019 0.406038
O O11 0.738312 0.472435 0.415592
O O12 0.481222 0.667104 0.813186
O O13 0.907668 0.734222 0.001649
O O14 0.573116 0.207434 0.652788
O O15 0.282206 0.247724 0.580466
O O16 0.000000 0.332290 0.500000
#
# Coordination Sequence:
#
# PCOD8048445 Si02
#       8
#     4   4   4   4   4   4   2   4
#     4  10  21  40  60  84 116 160 197 249 296 354
#     4   9  23  39  60  88 120 165 190 244 311 350
#     4  10  18  39  59  82 119 147 204 242 292 361
#     4  11  23  37  60  89 112 164 203 242 302 351
#     4   9  21  37  60  87 118 155 193 246 303 349
#     4  10  22  38  57  87 119 150 201 243 303 352
#     4  12  22  42  58  86 128 158 200 248 298 370
#     4  11  20  37  64  89 118 154 205 251 292 358
#
# _framework density 19.182966
#
# number of rings (size 3 to 8) (size 9 to 14) (size 15 to 20)
#    0.800    1.067    3.333    1.600    2.800    0.000 
#    0.000    1.333    0.000    0.000    0.000    0.000 
#    0.000    0.000    0.000    0.000    0.000    0.000 
#
# Total GULP energy -185825.937322 kJ/mol
# GULP energy per Si atom -12388.395821 kJ/mol
# Density = 1.913930 g / cm^3
# Si number density = 19.182966 Si / 1000 Ang^3
#
#
#
# Elastic Constant Matrix: (Units=GPa)
#
#
# Indices 1 2 3 4 5 6 
#
# 1 76.0798 41.2888 22.9380 0.0014 15.0684 -0.0034
# 2 41.2888 99.4749 32.7372 0.0060 -2.4071 -0.0032
# 3 22.9380 32.7372 82.6802 0.0248 -3.0294 -0.0038
# 4 0.0014 0.0060 0.0248 23.6499 0.0040 0.3244
# 5 15.0684 -2.4071 -3.0294 0.0040 28.1520 -0.0009
# 6 -0.0034 -0.0032 -0.0038 0.3244 -0.0009 26.9337
#
#
#
# Elastic Compliance Matrix: (Units=1/GPa)
#
#
# Indices 1 2 3 4 5 6 
#
# 1 0.020757 -0.007896 -0.003076 0.000006 -0.012116 0.000001
# 2 -0.007896 0.014570 -0.003391 -0.000001 0.005107 0.000000
# 3 -0.003076 -0.003391 0.014397 -0.000015 0.002906 0.000002
# 4 0.000006 -0.000001 -0.000015 0.042290 -0.000011 -0.000509
# 5 -0.012116 0.005107 0.002906 -0.000011 0.042756 0.000001
# 6 0.000001 0.000000 0.000002 -0.000509 0.000001 0.037134
#
#
# Mechanical properties :
#
#
# Convention : Reuss Voigt Hill
#
# Bulk Modulus (GPa) = 47.62557 50.24031 48.93294
# Shear Modulus (GPa) = 24.08128 26.49852 25.28990
#
# Velocity S-wave (km/s) = 3.54693 3.72069 3.63485
# Velocity P-wave (km/s) = 6.45408 6.68618 6.57116
#
# Compressibility (1/GPa) = 0.02099712
#
# Stress axis : x y z
#
# Youngs Moduli (GPa) = 48.17767 68.63472 69.45733
#
# Poissons Ratio (x) = 0.54196 0.21364
# Poissons Ratio (y) = 0.38042 0.23554
# Poissons Ratio (z) = 0.14819 0.23275
#
# Static dielectric constant tensor:
#      x y z
#    x 3.066900 0.000000 0.096910 
#    y 0.000000 3.726830 -0.000020 
#    z 0.096910 -0.000020 3.547820 
# 
# 
# High freq. dielectric constant tensor:
#      x y z
#    x 1.708370 0.000000 0.009250 
#    y 0.000000 1.757540 0.000000 
#    z 0.009250 0.000000 1.743790 
# 
# From -- ./inp_files/66062.got.cif
#   From: 2010.03.12/outbox.cif.g09.slc.cpg/sg5_34_cif.got.tgz:66062.got - 2010.03.31 09:47:26.
