data_PCOD8048500
_publ_section_title
;
Structure prediction by ZEFSAII (Michael W. Deem and Ramdas Pophale) SiO2 
 PCOD8048500
Probable space group: C 2
;
_chemical_formula_sum "Si O2"
_cell_formula_units_Z 28
_cell_length_a 11.005864
_cell_length_b 13.391637
_cell_length_c 18.920729
_cell_angle_alpha 90.000000
_cell_angle_beta 34.704382
_cell_angle_gamma 90.000000
_cell_volume 1587.702773
_symmetry_space_group_name_H-M "C 2"
_symmetry_group_IT_number 5
_symmetry_cell_setting 'monoclinic'
loop_
_space_group_symop_operation_xyz
x,y,z
-x,y,-z
1/2+x,1/2+y,z
1/2-x,1/2+y,-z
loop_
_atom_site_type_symbol
_atom_site_label
_atom_site_fract_x
_atom_site_fract_y
_atom_site_fract_z
Si Si1 0.032320 0.216680 0.162142
Si Si2 0.947306 0.851159 0.442971
Si Si3 0.569663 0.136360 0.387816
Si Si4 0.452483 0.120456 0.939454
Si Si5 0.984194 0.449894 0.332917
Si Si6 0.687130 0.297527 0.855209
Si Si7 0.114104 0.430595 0.782919
O O1 0.114657 0.243972 0.200728
O O2 0.823071 0.150531 0.268331
O O3 0.990769 0.324338 0.144973
O O4 0.207253 0.148262 0.038421
O O5 0.714801 0.892982 0.535567
O O6 0.000000 0.844706 0.500000
O O7 0.957991 0.736863 0.411724
O O8 0.132478 0.921971 0.321675
O O9 0.500000 0.104560 0.500000
O O10 0.506686 0.054494 0.360660
O O11 0.592109 0.215853 0.845204
O O12 0.511684 0.015234 0.879484
O O13 0.500000 0.116404 0.000000
O O14 0.933468 0.463325 0.274556
O O15 0.209221 0.390998 0.235674
O O16 0.500000 0.332245 0.000000
#
# Coordination Sequence:
#
# PCOD8048500 Si02
#       7
#     4   4   4   4   4   4   4
#     4   8  17  32  49  69  96 129 159 185 233 291
#     4   8  17  33  50  67  94 129 160 186 232 294
#     4  10  19  32  49  70  95 126 159 195 235 280
#     4   9  18  32  52  73  93 126 160 193 233 278
#     4  10  19  31  51  73  92 125 161 196 235 274
#     4   8  16  31  49  70  95 127 159 188 230 288
#     4   9  17  33  51  70  96 126 159 193 231 283
#
# _framework density 17.635542999999998
#
# number of rings (size 3 to 8) (size 9 to 14) (size 15 to 20)
#    0.000    3.429    0.000    2.571    0.000    6.857 
#    0.000    4.286    0.000    0.000    0.000    0.000 
#    0.000    0.000    0.000    0.000    0.000    0.000 
#
# Total GULP energy -173437.808909 kJ/mol
# GULP energy per Si atom -12388.414922 kJ/mol
# Density = 1.759540 g / cm^3
# Si number density = 17.635543 Si / 1000 Ang^3
#
#
#
# Elastic Constant Matrix: (Units=GPa)
#
#
# Indices 1 2 3 4 5 6 
#
# 1 40.0378 37.9871 36.7746 0.0004 -13.5113 0.0002
# 2 37.9871 134.8014 84.6705 -0.0032 -11.1680 0.0004
# 3 36.7746 84.6705 117.0103 -0.0102 -28.9933 0.0003
# 4 0.0004 -0.0032 -0.0102 39.5112 -0.0006 3.8447
# 5 -13.5113 -11.1680 -28.9933 -0.0006 25.5941 0.0002
# 6 0.0002 0.0004 0.0003 3.8447 0.0002 23.9284
#
#
#
# Elastic Compliance Matrix: (Units=1/GPa)
#
#
# Indices 1 2 3 4 5 6 
#
# 1 0.040531 -0.008142 -0.003372 -0.000002 0.014025 0.000000
# 2 -0.008142 0.016276 -0.011850 -0.000002 -0.010620 0.000000
# 3 -0.003372 -0.011850 0.022881 0.000005 0.018969 -0.000001
# 4 -0.000002 -0.000002 0.000005 0.025711 0.000005 -0.004131
# 5 0.014025 -0.010620 0.018969 0.000005 0.063330 -0.000002
# 6 0.000000 0.000000 -0.000001 -0.004131 -0.000002 0.042455
#
#
# Mechanical properties :
#
#
# Convention : Reuss Voigt Hill
#
# Bulk Modulus (GPa) = 30.33924 67.85710 49.09817
# Shear Modulus (GPa) = 18.59433 26.63458 22.61445
#
# Velocity S-wave (km/s) = 3.25062 3.89045 3.58484
# Velocity P-wave (km/s) = 5.59728 7.66432 6.71086
#
# Compressibility (1/GPa) = 0.03296062
#
# Stress axis : x y z
#
# Youngs Moduli (GPa) = 24.67250 61.43920 43.70381
#
# Poissons Ratio (x) = 0.50024 0.14735
# Poissons Ratio (y) = 0.20088 0.51791
# Poissons Ratio (z) = 0.08318 0.72808
#
# Static dielectric constant tensor:
#      x y z
#    x 2.894390 0.000000 -0.356210 
#    y 0.000000 3.425680 0.000010 
#    z -0.356210 0.000010 3.550640 
# 
# 
# High freq. dielectric constant tensor:
#      x y z
#    x 1.637820 0.000000 -0.033360 
#    y 0.000000 1.686650 0.000000 
#    z -0.033360 0.000000 1.686200 
# 
# From -- ./inp_files/65282.got.cif
#   From: 2010.03.12/outbox.cif.g09.slc.cpg/sg5_33_cif.got.tgz:65282.got - 2010.03.31 09:47:26.
