data_PCOD8048915
_publ_section_title
;
Structure prediction by ZEFSAII (Michael W. Deem and Ramdas Pophale) SiO2 
 PCOD8048915
Probable space group: C 2
;
_chemical_formula_sum "Si O2"
_cell_formula_units_Z 28
_cell_length_a 13.681514
_cell_length_b 12.487740
_cell_length_c 8.934814
_cell_angle_alpha 90.000000
_cell_angle_beta 124.238266
_cell_angle_gamma 90.000000
_cell_volume 1261.984682
_symmetry_space_group_name_H-M "C 2"
_symmetry_group_IT_number 5
_symmetry_cell_setting 'monoclinic'
loop_
_space_group_symop_operation_xyz
x,y,z
-x,y,-z
1/2+x,1/2+y,z
1/2-x,1/2+y,-z
loop_
_atom_site_type_symbol
_atom_site_label
_atom_site_fract_x
_atom_site_fract_y
_atom_site_fract_z
Si Si1 0.500000 0.586470 0.500000
Si Si2 0.280555 0.274041 0.912063
Si Si3 0.069415 0.937967 0.801706
Si Si4 0.878870 0.771550 0.672939
Si Si5 0.440958 0.091026 0.103458
Si Si6 0.500000 0.585924 0.000000
Si Si7 0.627335 0.718229 0.352410
Si Si8 0.541024 0.883935 0.699554
O O1 0.588950 0.511802 0.673197
O O2 0.583683 0.656578 0.464276
O O3 0.344661 0.303202 0.812396
O O4 0.140329 0.290092 0.777901
O O5 0.327820 0.350710 0.086027
O O6 0.314167 0.150520 0.974659
O O7 0.943052 0.878167 0.667884
O O8 0.072979 0.013488 0.949517
O O9 0.767367 0.737751 0.476575
O O10 0.968485 0.672447 0.740380
O O11 0.411631 0.989913 0.180609
O O12 0.500000 0.051945 0.000000
O O13 0.404732 0.657645 0.827933
O O14 0.567104 0.835151 0.299583
O O15 0.500000 0.917052 0.500000
#
# Coordination Sequence:
#
# PCOD8048915 Si02
#       8
#     2   4   4   4   4   2   4   4
#     4  10  22  40  62  92 132 166 210 260 332 370
#     4  10  20  42  66  92 126 173 209 265 319 391
#     4  10  20  40  67  94 119 168 218 261 313 384
#     4  10  19  42  68  92 126 166 217 261 315 380
#     4   9  23  42  67  92 125 171 216 260 316 384
#     4  10  22  38  64  90 122 162 222 256 308 376
#     4  11  23  40  61  94 130 169 208 270 315 385
#     4  12  24  41  63  95 135 164 208 265 334 370
#
# _framework density 22.187272
#
# number of rings (size 3 to 8) (size 9 to 14) (size 15 to 20)
#    0.000    1.714    3.571    0.857    1.000    8.000 
#    7.714    0.000    0.000    0.000    0.000    0.000 
#    0.000    0.000    0.000    0.000    0.000    0.000 
#
# Total GULP energy -173602.976949 kJ/mol
# GULP energy per Si atom -12400.212639 kJ/mol
# Density = 2.213677 g / cm^3
# Si number density = 22.187272 Si / 1000 Ang^3
#
#
#
# Elastic Constant Matrix: (Units=GPa)
#
#
# Indices 1 2 3 4 5 6 
#
# 1 61.5700 26.4577 33.4996 0.0000 17.0931 0.0000
# 2 26.4577 104.4197 53.3306 0.0000 -2.5039 0.0000
# 3 33.4996 53.3306 125.0930 0.0000 6.1378 0.0000
# 4 0.0000 0.0000 0.0000 27.9528 0.0000 2.8111
# 5 17.0931 -2.5039 6.1378 0.0000 32.5033 0.0000
# 6 0.0000 0.0000 0.0000 2.8111 0.0000 17.7896
#
#
#
# Elastic Compliance Matrix: (Units=1/GPa)
#
#
# Indices 1 2 3 4 5 6 
#
# 1 0.023508 -0.004254 -0.003895 0.000000 -0.011955 0.000000
# 2 -0.004254 0.013135 -0.004663 0.000000 0.004129 0.000000
# 3 -0.003895 -0.004663 0.011045 0.000000 -0.000396 0.000000
# 4 0.000000 0.000000 0.000000 0.036352 0.000000 -0.005744
# 5 -0.011955 0.004129 -0.000396 0.000000 0.037446 0.000000
# 6 0.000000 0.000000 0.000000 -0.005744 0.000000 0.057120
#
#
# Mechanical properties :
#
#
# Convention : Reuss Voigt Hill
#
# Bulk Modulus (GPa) = 45.32441 57.51761 51.42101
# Shear Modulus (GPa) = 23.63110 27.50212 25.56661
#
# Velocity S-wave (km/s) = 3.26709 3.52454 3.39825
# Velocity P-wave (km/s) = 5.89103 6.52251 6.21480
#
# Compressibility (1/GPa) = 0.02206317
#
# Stress axis : x y z
#
# Youngs Moduli (GPa) = 42.53914 76.13073 90.53999
#
# Poissons Ratio (x) = 0.32382 0.35269
# Poissons Ratio (y) = 0.18094 0.42223
# Poissons Ratio (z) = 0.16571 0.35503
#
# Static dielectric constant tensor:
#      x y z
#    x 3.663970 0.000000 0.088430 
#    y 0.000000 4.032280 0.000000 
#    z 0.088430 0.000000 4.067280 
# 
# 
# High freq. dielectric constant tensor:
#      x y z
#    x 1.844820 0.000000 0.009560 
#    y 0.000000 1.882620 0.000000 
#    z 0.009560 0.000000 1.879020 
# 
# From -- ./inp_files/23740.got.cif
#   From: 2010.03.12/outbox.cif.g09.slc.cpg/sg5_12_cif.got.tgz:23740.got - 2010.03.31 09:47:26.
