data_PCOD8048839
_publ_section_title
;
Structure prediction by ZEFSAII (Michael W. Deem and Ramdas Pophale) SiO2 
 PCOD8048839
Probable space group: C 2
;
_chemical_formula_sum "Si O2"
_cell_formula_units_Z 32
_cell_length_a 19.840966
_cell_length_b 7.603043
_cell_length_c 27.889239
_cell_angle_alpha 90.000000
_cell_angle_beta 158.563228
_cell_angle_gamma 90.000000
_cell_volume 1537.601208
_symmetry_space_group_name_H-M "C 2"
_symmetry_group_IT_number 5
_symmetry_cell_setting 'monoclinic'
loop_
_space_group_symop_operation_xyz
x,y,z
-x,y,-z
1/2+x,1/2+y,z
1/2-x,1/2+y,-z
loop_
_atom_site_type_symbol
_atom_site_label
_atom_site_fract_x
_atom_site_fract_y
_atom_site_fract_z
Si Si1 0.785501 0.679190 0.366300
Si Si2 0.949594 0.962018 0.614507
Si Si3 0.793285 0.508491 0.132001
Si Si4 0.192785 0.508277 0.361156
Si Si5 0.106501 0.334900 0.704656
Si Si6 0.603096 0.504327 0.155708
Si Si7 0.190743 0.279533 0.134143
Si Si8 0.245890 0.404379 0.574747
O O1 0.668290 0.623056 0.242714
O O2 0.705715 0.555881 0.355516
O O3 0.000000 0.641507 0.500000
O O4 0.753492 0.887382 0.356152
O O5 0.899744 0.902970 0.635058
O O6 0.147788 0.880844 0.731547
O O7 0.785897 0.912562 0.469282
O O8 0.982072 0.165550 0.629206
O O9 0.817554 0.380131 0.193027
O O10 0.767434 0.708129 0.133969
O O11 0.971600 0.499306 0.216527
O O12 0.612196 0.450703 0.981405
O O13 0.256744 0.712950 0.399823
O O14 0.269474 0.331729 0.771826
O O15 0.949354 0.464503 0.578613
O O16 0.629385 0.613509 0.124564
O O17 0.000000 0.392926 0.000000
#
# Coordination Sequence:
#
# PCOD8048839 Si02
#       8
#     4   4   4   4   4   4   4   4
#     4  12  25  44  65  86 128 174 219 259 322 386
#     4  11  21  36  65  99 124 152 212 269 332 376
#     4  10  19  39  63  88 128 159 208 262 318 375
#     4  11  24  39  66  96 123 166 213 265 321 382
#     4  10  20  35  63  96 122 161 202 259 333 373
#     4  10  22  41  60  87 128 177 203 252 318 386
#     4   9  19  36  63  89 122 161 199 258 315 371
#     4  11  23  39  65  98 128 157 207 280 321 374
#
# _framework density 20.811639
#
# number of rings (size 3 to 8) (size 9 to 14) (size 15 to 20)
#    0.000    1.500    3.750    2.625    3.500    1.500 
#    4.500    0.000    0.000    0.000    0.000    0.000 
#    0.000    0.000    0.000    0.000    0.000    0.000 
#
# Total GULP energy -198229.363587 kJ/mol
# GULP energy per Si atom -12389.335224 kJ/mol
# Density = 2.076427 g / cm^3
# Si number density = 20.811639 Si / 1000 Ang^3
#
#
#
# Elastic Constant Matrix: (Units=GPa)
#
#
# Indices 1 2 3 4 5 6 
#
# 1 58.8318 19.9229 34.1809 0.0208 -1.0799 0.0002
# 2 19.9229 58.2213 20.1914 0.0484 -4.3407 -0.0032
# 3 34.1809 20.1914 160.8177 0.1108 13.8646 -0.0477
# 4 0.0208 0.0484 0.1108 26.1103 -0.0617 1.3919
# 5 -1.0799 -4.3407 13.8646 -0.0617 29.3107 0.0045
# 6 0.0002 -0.0032 -0.0477 1.3919 0.0045 28.7282
#
#
#
# Elastic Compliance Matrix: (Units=1/GPa)
#
#
# Indices 1 2 3 4 5 6 
#
# 1 0.021284 -0.005778 -0.003953 0.000015 0.001799 -0.000008
# 2 -0.005778 0.019961 -0.001579 -0.000017 0.003490 0.000000
# 3 -0.003953 -0.001579 0.007599 -0.000036 -0.003974 0.000015
# 4 0.000015 -0.000017 -0.000036 0.038399 0.000096 -0.001861
# 5 0.001799 0.003490 -0.003974 0.000096 0.036580 -0.000017
# 6 -0.000008 0.000000 0.000015 -0.001861 -0.000017 0.034899
#
#
# Mechanical properties :
#
#
# Convention : Reuss Voigt Hill
#
# Bulk Modulus (GPa) = 38.13379 47.38456 42.75918
# Shear Modulus (GPa) = 26.30400 30.40155 28.35278
#
# Velocity S-wave (km/s) = 3.55901 3.82618 3.69501
# Velocity P-wave (km/s) = 5.93732 6.50671 6.22853
#
# Compressibility (1/GPa) = 0.02622346
#
# Stress axis : x y z
#
# Youngs Moduli (GPa) = 46.98299 50.09789 131.58920
#
# Poissons Ratio (x) = 0.28948 0.52023
# Poissons Ratio (y) = 0.27148 0.20777
# Poissons Ratio (z) = 0.18574 0.07910
#
# Static dielectric constant tensor:
#      x y z
#    x 3.539440 0.000040 0.145450 
#    y 0.000040 3.584950 -0.000310 
#    z 0.145450 -0.000310 4.295020 
# 
# 
# High freq. dielectric constant tensor:
#      x y z
#    x 1.788700 0.000010 0.011400 
#    y 0.000010 1.791550 -0.000020 
#    z 0.011400 -0.000020 1.834600 
# 
# From -- ./inp_files/72252.got.cif
#   From: 2010.03.12/outbox.cif.g09.slc.cpg/sg5_37_cif.got.tgz:72252.got - 2010.03.31 09:47:26.
