data_PCOD8048304
_publ_section_title
;
Structure prediction by ZEFSAII (Michael W. Deem and Ramdas Pophale) SiO2 
 PCOD8048304
Probable space group: C 2
;
_chemical_formula_sum "Si O2"
_cell_formula_units_Z 26
_cell_length_a 15.395478
_cell_length_b 18.495067
_cell_length_c 10.382724
_cell_angle_alpha 90.000000
_cell_angle_beta 28.638915
_cell_angle_gamma 90.000000
_cell_volume 1416.958119
_symmetry_space_group_name_H-M "C 2"
_symmetry_group_IT_number 5
_symmetry_cell_setting 'monoclinic'
loop_
_space_group_symop_operation_xyz
x,y,z
-x,y,-z
1/2+x,1/2+y,z
1/2-x,1/2+y,-z
loop_
_atom_site_type_symbol
_atom_site_label
_atom_site_fract_x
_atom_site_fract_y
_atom_site_fract_z
Si Si1 0.731077 0.789600 0.143663
Si Si2 0.293287 0.100957 0.314981
Si Si3 0.851408 0.208148 0.289050
Si Si4 0.416661 0.832101 0.402840
Si Si5 0.921810 0.812790 0.461398
Si Si6 0.177252 0.434542 0.686739
Si Si7 0.000000 0.159799 0.500000
O O1 0.612279 0.846419 0.214368
O O2 0.727826 0.808232 0.299831
O O3 0.634235 0.711759 0.242932
O O4 0.935390 0.791898 0.834369
O O5 0.252411 0.147342 0.494919
O O6 0.135087 0.112875 0.413999
O O7 0.276887 0.018376 0.378561
O O8 0.500000 0.119095 0.000000
O O9 0.934082 0.268853 0.275058
O O10 0.720589 0.248469 0.359479
O O11 0.000000 0.172556 0.000000
O O12 0.353607 0.906416 0.418798
O O13 0.843351 0.891854 0.534203
O O14 0.000000 0.814706 0.500000
O O15 0.000000 0.418006 0.000000
#
# Coordination Sequence:
#
# PCOD8048304 Si02
#       7
#     4   4   4   4   4   4   2
#     4  10  18  34  63  88 111 149 200 251 300 346
#     4  11  23  41  63  87 121 165 201 239 304 364
#     4  11  21  36  58  83 120 154 191 253 302 342
#     4   9  18  36  58  82 116 149 193 252 294 342
#     4  11  22  34  60  89 115 152 206 248 297 360
#     4  10  22  38  57  83 119 158 194 246 297 358
#     4  10  20  38  66  88 116 146 206 258 284 358
#
# _framework density 18.349166
#
# number of rings (size 3 to 8) (size 9 to 14) (size 15 to 20)
#    0.000    1.846    3.077    4.615    1.077    1.846 
#    2.769    0.000    3.385    0.000    0.000    0.000 
#    0.000    0.000    0.000    0.000    0.000    0.000 
#
# Total GULP energy -161124.625474 kJ/mol
# GULP energy per Si atom -12394.201960 kJ/mol
# Density = 1.830740 g / cm^3
# Si number density = 18.349166 Si / 1000 Ang^3
#
#
#
# Elastic Constant Matrix: (Units=GPa)
#
#
# Indices 1 2 3 4 5 6 
#
# 1 119.6574 51.3776 31.3047 -0.0097 9.1635 0.0189
# 2 51.3776 120.5848 53.5053 0.0204 1.4011 0.0209
# 3 31.3047 53.5053 125.6311 0.0127 2.6147 0.0148
# 4 -0.0097 0.0204 0.0127 22.7362 -0.0730 -1.3159
# 5 9.1635 1.4011 2.6147 -0.0730 25.5223 -0.0543
# 6 0.0189 0.0209 0.0148 -1.3159 -0.0543 29.0425
#
#
#
# Elastic Compliance Matrix: (Units=1/GPa)
#
#
# Indices 1 2 3 4 5 6 
#
# 1 0.010606 -0.004116 -0.000817 -0.000003 -0.003498 -0.000010
# 2 -0.004116 0.011823 -0.004035 -0.000006 0.001242 -0.000002
# 3 -0.000817 -0.004035 0.009892 -0.000004 -0.000499 -0.000003
# 4 -0.000003 -0.000006 -0.000004 0.044099 0.000132 0.001998
# 5 -0.003498 0.001242 -0.000499 0.000132 0.040421 0.000083
# 6 -0.000010 -0.000002 -0.000003 0.001998 0.000083 0.034523
#
#
# Mechanical properties :
#
#
# Convention : Reuss Voigt Hill
#
# Bulk Modulus (GPa) = 69.51907 70.91650 70.21778
# Shear Modulus (GPa) = 28.71989 30.77259 29.74624
#
# Velocity S-wave (km/s) = 3.96054 4.09963 4.03068
# Velocity P-wave (km/s) = 7.67356 7.81931 7.74677
#
# Compressibility (1/GPa) = 0.01438454
#
# Stress axis : x y z
#
# Youngs Moduli (GPa) = 94.28582 84.58325 101.08680
#
# Poissons Ratio (x) = 0.34812 0.08260
# Poissons Ratio (y) = 0.38805 0.40793
# Poissons Ratio (z) = 0.07705 0.34133
#
# Static dielectric constant tensor:
#      x y z
#    x 3.556790 -0.000230 0.030380 
#    y -0.000230 3.295070 0.000400 
#    z 0.030380 0.000400 3.369170 
# 
# 
# High freq. dielectric constant tensor:
#      x y z
#    x 1.725000 0.000000 -0.001600 
#    y 0.000000 1.687800 0.000000 
#    z -0.001600 0.000000 1.715920 
# 
# From -- ./inp_files/25397.got.cif
#   From: 2010.03.12/outbox.cif.g09.slc.cpg/sg5_13_cif.got.tgz:25397.got - 2010.03.31 09:47:26.
