data_PCOD8048921
_publ_section_title
;
Structure prediction by ZEFSAII (Michael W. Deem and Ramdas Pophale) SiO2 
 PCOD8048921
Probable space group: C 2
;
_chemical_formula_sum "Si O2"
_cell_formula_units_Z 32
_cell_length_a 29.855820
_cell_length_b 11.075282
_cell_length_c 9.450697
_cell_angle_alpha 90.000000
_cell_angle_beta 149.921255
_cell_angle_gamma 90.000000
_cell_volume 1566.209390
_symmetry_space_group_name_H-M "C 2"
_symmetry_group_IT_number 5
_symmetry_cell_setting 'monoclinic'
loop_
_space_group_symop_operation_xyz
x,y,z
-x,y,-z
1/2+x,1/2+y,z
1/2-x,1/2+y,-z
loop_
_atom_site_type_symbol
_atom_site_label
_atom_site_fract_x
_atom_site_fract_y
_atom_site_fract_z
Si Si1 0.763234 0.030360 0.813930
Si Si2 0.056897 0.576413 0.292483
Si Si3 0.772323 0.744735 0.780634
Si Si4 0.155547 0.122099 0.674752
Si Si5 0.011698 0.310413 0.201141
Si Si6 0.357898 0.662182 0.815689
Si Si7 0.032011 0.753706 0.743851
Si Si8 0.000575 0.966554 0.851191
O O1 0.660996 0.072089 0.539960
O O2 0.804513 0.093982 0.790155
O O3 0.771391 0.885122 0.827410
O O4 0.817536 0.083568 0.094325
O O5 0.024872 0.450165 0.267752
O O6 0.038617 0.673037 0.364827
O O7 0.000000 0.613597 0.000000
O O8 0.745386 0.653497 0.833431
O O9 0.706560 0.725222 0.471422
O O10 0.868529 0.700222 0.989123
O O11 0.095908 0.242800 0.501339
O O12 0.099461 0.011297 0.456906
O O13 0.000000 0.286522 0.000000
O O14 0.922382 0.271302 0.043891
O O15 0.428972 0.574433 0.933458
O O16 0.000000 0.775272 0.500000
O O17 0.037645 0.884849 0.828346
O O18 0.000000 0.895995 0.000000
#
# Coordination Sequence:
#
# PCOD8048921 Si02
#       8
#     4   4   4   4   4   4   4   4
#     4  12  25  41  68 105 135 173 229 278 343 390
#     4  11  23  46  67  94 136 184 220 274 340 411
#     4  12  22  45  67  97 137 175 227 279 330 406
#     4  11  22  41  70  97 136 171 220 281 329 407
#     4  10  19  42  74  96 129 179 225 272 340 393
#     4  11  22  41  69 103 125 169 229 280 322 406
#     4  12  26  43  65  98 144 176 216 284 347 396
#     4  11  22  42  69 103 129 178 225 270 342 400
#
# _framework density 20.431495000000002
#
# number of rings (size 3 to 8) (size 9 to 14) (size 15 to 20)
#    0.000    0.750    5.000    4.125    0.000    1.500 
#    2.250    2.500    0.000    0.000    0.000    0.000 
#    0.000    0.000    0.000    0.000    0.000    0.000 
#
# Total GULP energy -198351.293159 kJ/mol
# GULP energy per Si atom -12396.955822 kJ/mol
# Density = 2.038499 g / cm^3
# Si number density = 20.431495 Si / 1000 Ang^3
#
#
#
# Elastic Constant Matrix: (Units=GPa)
#
#
# Indices 1 2 3 4 5 6 
#
# 1 103.1338 34.5536 43.5254 0.0000 5.1854 0.0000
# 2 34.5536 64.2134 36.7017 0.0000 -6.6166 0.0000
# 3 43.5254 36.7017 110.0935 0.0000 -4.6643 0.0000
# 4 0.0000 0.0000 0.0000 25.6721 0.0000 1.0190
# 5 5.1854 -6.6166 -4.6643 0.0000 48.3693 0.0000
# 6 0.0000 0.0000 0.0000 1.0190 0.0000 35.4901
#
#
#
# Elastic Compliance Matrix: (Units=1/GPa)
#
#
# Indices 1 2 3 4 5 6 
#
# 1 0.013071 -0.005280 -0.003512 0.000000 -0.002462 0.000000
# 2 -0.005280 0.021571 -0.004975 0.000000 0.003037 0.000000
# 3 -0.003512 -0.004975 0.012167 0.000000 0.000869 0.000000
# 4 0.000000 0.000000 0.000000 0.038997 0.000000 -0.001120
# 5 -0.002462 0.003037 0.000869 0.000000 0.021438 0.000000
# 6 0.000000 0.000000 0.000000 -0.001120 0.000000 0.028209
#
#
# Mechanical properties :
#
#
# Convention : Reuss Voigt Hill
#
# Bulk Modulus (GPa) = 51.88017 56.33358 54.10688
# Shear Modulus (GPa) = 29.51408 32.75030 31.13219
#
# Velocity S-wave (km/s) = 3.80483 4.00801 3.90774
# Velocity P-wave (km/s) = 6.68952 7.00361 6.84837
#
# Compressibility (1/GPa) = 0.01927519
#
# Stress axis : x y z
#
# Youngs Moduli (GPa) = 76.50509 46.35916 82.19083
#
# Poissons Ratio (x) = 0.24478 0.28863
# Poissons Ratio (y) = 0.40396 0.40888
# Poissons Ratio (z) = 0.26866 0.23063
#
# Static dielectric constant tensor:
#      x y z
#    x 3.941880 0.000000 0.293600 
#    y 0.000000 3.719490 0.000000 
#    z 0.293600 0.000000 3.914520 
# 
# 
# High freq. dielectric constant tensor:
#      x y z
#    x 1.799510 0.000000 0.011580 
#    y 0.000000 1.798520 0.000000 
#    z 0.011580 0.000000 1.810610 
# 
# From -- ./inp_files/32614.got.cif
#   From: 2010.03.12/outbox.cif.g09.slc.cpg/sg5_17_cif.got.tgz:32614.got - 2010.03.31 09:47:26.
