data_PCOD8048206
_publ_section_title
;
Structure prediction by ZEFSAII (Michael W. Deem and Ramdas Pophale) SiO2 
 PCOD8048206
Probable space group: C 2
;
_chemical_formula_sum "Si O2"
_cell_formula_units_Z 28
_cell_length_a 9.339312
_cell_length_b 16.910961
_cell_length_c 13.608203
_cell_angle_alpha 90.000000
_cell_angle_beta 41.670559
_cell_angle_gamma 90.000000
_cell_volume 1428.911764
_symmetry_space_group_name_H-M "C 2"
_symmetry_group_IT_number 5
_symmetry_cell_setting 'monoclinic'
loop_
_space_group_symop_operation_xyz
x,y,z
-x,y,-z
1/2+x,1/2+y,z
1/2-x,1/2+y,-z
loop_
_atom_site_type_symbol
_atom_site_label
_atom_site_fract_x
_atom_site_fract_y
_atom_site_fract_z
Si Si1 0.680999 0.058230 0.478200
Si Si2 0.381498 0.639507 0.787136
Si Si3 0.402794 0.268942 0.155710
Si Si4 0.817260 0.200779 0.027993
Si Si5 0.310563 0.981140 0.035979
Si Si6 0.149286 0.539082 0.194261
Si Si7 0.346528 0.432356 0.256293
O O1 0.500000 0.097377 0.500000
O O2 0.585822 0.050948 0.636154
O O3 0.890146 0.113505 0.374582
O O4 0.731827 0.969256 0.411231
O O5 0.257438 0.694134 0.771539
O O6 0.233314 0.564686 0.887834
O O7 0.419153 0.687306 0.868202
O O8 0.595722 0.249106 0.132022
O O9 0.270276 0.343546 0.268508
O O10 0.500000 0.292045 0.000000
O O11 0.768338 0.120301 0.111053
O O12 0.000000 0.245370 0.000000
O O13 0.500000 0.938339 0.000000
O O14 0.393443 0.990870 0.882668
O O15 0.101509 0.926306 0.144195
O O16 0.307276 0.491931 0.186207
#
# Coordination Sequence:
#
# PCOD8048206 Si02
#       7
#     4   4   4   4   4   4   4
#     4   9  18  33  55  79 104 141 186 221 257 316
#     4   9  18  33  52  76 108 141 176 222 266 313
#     4  10  20  34  53  82 112 138 174 223 273 316
#     4  10  18  31  54  80 106 137 179 223 264 313
#     4  10  18  31  53  80 107 137 178 224 264 309
#     4  10  18  33  55  77 103 141 184 219 258 319
#     4  10  20  35  55  78 107 143 180 216 263 322
#
# _framework density 19.595331000000002
#
# number of rings (size 3 to 8) (size 9 to 14) (size 15 to 20)
#    0.000    2.286    0.000    6.857    0.000    0.571 
#    0.000   10.714    0.000    0.000    0.000    0.000 
#    0.000    0.000    0.000    0.000    0.000    0.000 
#
# Total GULP energy -173558.110642 kJ/mol
# GULP energy per Si atom -12397.007903 kJ/mol
# Density = 1.955073 g / cm^3
# Si number density = 19.595331 Si / 1000 Ang^3
#
#
#
# Elastic Constant Matrix: (Units=GPa)
#
#
# Indices 1 2 3 4 5 6 
#
# 1 106.5868 18.9616 34.8201 0.0037 -19.8625 -0.0001
# 2 18.9616 81.4479 14.1310 0.0017 -8.4817 -0.0005
# 3 34.8201 14.1310 107.5074 0.0024 -11.0988 -0.0013
# 4 0.0037 0.0017 0.0024 17.4618 -0.0019 -1.2072
# 5 -19.8625 -8.4817 -11.0988 -0.0019 27.1111 0.0000
# 6 -0.0001 -0.0005 -0.0013 -1.2072 0.0000 21.4047
#
#
#
# Elastic Compliance Matrix: (Units=1/GPa)
#
#
# Indices 1 2 3 4 5 6 
#
# 1 0.011928 -0.001533 -0.002933 -0.000001 0.007059 0.000000
# 2 -0.001533 0.013069 -0.000955 -0.000001 0.002574 0.000000
# 3 -0.002933 -0.000955 0.010571 0.000000 0.001880 0.000001
# 4 -0.000001 -0.000001 0.000000 0.057492 0.000003 0.003242
# 5 0.007059 0.002574 0.001880 0.000003 0.043632 0.000000
# 6 0.000000 0.000000 0.000001 0.003242 0.000000 0.046901
#
#
# Mechanical properties :
#
#
# Convention : Reuss Voigt Hill
#
# Bulk Modulus (GPa) = 40.44508 47.92972 44.18740
# Shear Modulus (GPa) = 24.66963 28.37083 26.52023
#
# Velocity S-wave (km/s) = 3.55202 3.80917 3.68284
# Velocity P-wave (km/s) = 6.12433 6.62263 6.37835
#
# Compressibility (1/GPa) = 0.02472488
#
# Stress axis : x y z
#
# Youngs Moduli (GPa) = 83.83367 76.51971 94.59516
#
# Poissons Ratio (x) = 0.11731 0.27747
# Poissons Ratio (y) = 0.12852 0.09038
# Poissons Ratio (z) = 0.24590 0.07311
#
# Static dielectric constant tensor:
#      x y z
#    x 3.646490 0.000000 -0.052830 
#    y 0.000000 3.306810 0.000010 
#    z -0.052830 0.000010 3.521950 
# 
# 
# High freq. dielectric constant tensor:
#      x y z
#    x 1.767520 0.000000 -0.009990 
#    y 0.000000 1.735840 0.000000 
#    z -0.009990 0.000000 1.751330 
# 
# From -- ./inp_files/16082.got.cif
#   From: 2010.03.12/outbox.cif.g09.slc.cpg/sg5_9_cif.got.tgz:16082.got - 2010.03.31 09:47:26.
