data_PCOD8048520
_publ_section_title
;
Structure prediction by ZEFSAII (Michael W. Deem and Ramdas Pophale) SiO2 
 PCOD8048520
Probable space group: C 2
;
_chemical_formula_sum "Si O2"
_cell_formula_units_Z 24
_cell_length_a 7.980898
_cell_length_b 29.738981
_cell_length_c 8.755277
_cell_angle_alpha 90.000000
_cell_angle_beta 144.814173
_cell_angle_gamma 90.000000
_cell_volume 1197.412325
_symmetry_space_group_name_H-M "C 2"
_symmetry_group_IT_number 5
_symmetry_cell_setting 'monoclinic'
loop_
_space_group_symop_operation_xyz
x,y,z
-x,y,-z
1/2+x,1/2+y,z
1/2-x,1/2+y,-z
loop_
_atom_site_type_symbol
_atom_site_label
_atom_site_fract_x
_atom_site_fract_y
_atom_site_fract_z
Si Si1 0.364469 0.099240 0.563984
Si Si2 0.661316 0.815809 0.280327
Si Si3 0.837870 0.510276 0.720482
Si Si4 0.835323 0.241330 0.224481
Si Si5 0.165204 0.413571 0.279037
Si Si6 0.859696 0.150598 0.062036
O O1 0.500000 0.103322 0.500000
O O2 0.404433 0.048047 0.645796
O O3 0.034303 0.117087 0.306301
O O4 0.533530 0.131476 0.808282
O O5 0.521787 0.782141 0.296286
O O6 0.619697 0.865565 0.329537
O O7 0.000000 0.805140 0.500000
O O8 0.500000 0.811650 0.000000
O O9 0.500000 0.511400 0.500000
O O10 0.937718 0.461292 0.722866
O O11 0.000000 0.519858 0.000000
O O12 0.844364 0.200503 0.113761
O O13 0.000000 0.226276 0.500000
O O14 0.500000 0.256043 0.000000
O O15 0.500000 0.420420 0.500000
O O16 0.000000 0.407673 0.000000
O O17 0.000000 0.152671 0.000000
#
# Coordination Sequence:
#
# PCOD8048520 Si02
#       6
#     4   4   4   4   4   4
#     4  10  21  36  54  78 107 140 181 223 264 319
#     4  10  20  38  62  81 107 150 191 220 264 333
#     4  10  19  32  54  81 108 138 176 221 268 315
#     4  12  25  38  56  86 117 139 177 237 288 322
#     4   8  16  31  53  80 104 135 181 222 254 312
#     4  10  22  39  56  74 104 148 188 217 260 331
#
# _framework density 20.043220000000002
#
# number of rings (size 3 to 8) (size 9 to 14) (size 15 to 20)
#    0.000    2.000    0.000    3.500    0.000    6.000 
#    0.000    0.833    0.000    3.000    0.000    0.000 
#    0.000    0.000    0.000    0.000    0.000    0.000 
#
# Total GULP energy -148669.342257 kJ/mol
# GULP energy per Si atom -12389.111855 kJ/mol
# Density = 1.999760 g / cm^3
# Si number density = 20.043220 Si / 1000 Ang^3
#
#
#
# Elastic Constant Matrix: (Units=GPa)
#
#
# Indices 1 2 3 4 5 6 
#
# 1 31.0692 36.3957 35.0373 0.0000 10.5377 0.0000
# 2 36.3957 175.9253 43.1218 0.0000 -2.4919 0.0000
# 3 35.0373 43.1218 154.4009 0.0000 14.1153 0.0000
# 4 0.0000 0.0000 0.0000 31.9089 0.0000 -0.4330
# 5 10.5377 -2.4919 14.1153 0.0000 22.8412 0.0000
# 6 0.0000 0.0000 0.0000 -0.4330 0.0000 26.0736
#
#
#
# Elastic Compliance Matrix: (Units=1/GPa)
#
#
# Indices 1 2 3 4 5 6 
#
# 1 0.064513 -0.011472 -0.009115 0.000000 -0.025381 0.000000
# 2 -0.011472 0.008214 -0.000272 0.000000 0.006357 0.000000
# 3 -0.009115 -0.000272 0.008733 0.000000 -0.001221 0.000000
# 4 0.000000 0.000000 0.000000 0.031346 0.000000 0.000521
# 5 -0.025381 0.006357 -0.001221 0.000000 0.056938 0.000000
# 6 0.000000 0.000000 0.000000 0.000521 0.000000 0.038362
#
#
# Mechanical properties :
#
#
# Convention : Reuss Voigt Hill
#
# Bulk Modulus (GPa) = 25.16252 65.61167 45.38709
# Shear Modulus (GPa) = 19.00627 32.62078 25.81353
#
# Velocity S-wave (km/s) = 3.08273 4.03863 3.59262
# Velocity P-wave (km/s) = 5.02517 7.38604 6.31688
#
# Compressibility (1/GPa) = 0.03974165
#
# Stress axis : x y z
#
# Youngs Moduli (GPa) = 15.50081 121.73979 114.51192
#
# Poissons Ratio (x) = 1.39657 1.04381
# Poissons Ratio (y) = 0.17782 0.03115
# Poissons Ratio (z) = 0.14129 0.03312
#
# Static dielectric constant tensor:
#      x y z
#    x 3.098660 0.000000 0.031010 
#    y 0.000000 4.326600 0.000000 
#    z 0.031010 0.000000 3.971620 
# 
# 
# High freq. dielectric constant tensor:
#      x y z
#    x 1.732580 0.000000 0.010370 
#    y 0.000000 1.807780 0.000000 
#    z 0.010370 0.000000 1.812990 
# 
# From -- ./inp_files/3549.got.cif
#   From: 2010.03.12/outbox.cif.g09.slc.cpg/sg5_2_cif.got.tgz:3549.got - 2010.03.31 09:47:26.
