data_PCOD8048958
_publ_section_title
;
Structure prediction by ZEFSAII (Michael W. Deem and Ramdas Pophale) SiO2 
 PCOD8048958
Probable space group: C 2
;
_chemical_formula_sum "Si O2"
_cell_formula_units_Z 20
_cell_length_a 29.292766
_cell_length_b 5.204914
_cell_length_c 10.175782
_cell_angle_alpha 90.000000
_cell_angle_beta 141.838801
_cell_angle_gamma 90.000000
_cell_volume 958.612546
_symmetry_space_group_name_H-M "C 2"
_symmetry_group_IT_number 5
_symmetry_cell_setting 'monoclinic'
loop_
_space_group_symop_operation_xyz
x,y,z
-x,y,-z
1/2+x,1/2+y,z
1/2-x,1/2+y,-z
loop_
_atom_site_type_symbol
_atom_site_label
_atom_site_fract_x
_atom_site_fract_y
_atom_site_fract_z
Si Si1 0.330376 0.336640 0.281910
Si Si2 0.119378 0.880823 0.066763
Si Si3 0.506532 0.168669 0.366786
Si Si4 0.947222 0.389976 0.001651
Si Si5 0.249323 0.838327 0.172758
O O1 0.418316 0.323224 0.488194
O O2 0.302938 0.592616 0.293072
O O3 0.298030 0.092912 0.284669
O O4 0.305466 0.332692 0.074717
O O5 0.101013 0.650758 0.128783
O O6 0.060410 0.867136 0.812991
O O7 0.110295 0.155586 0.115558
O O8 0.201536 0.840830 0.197554
O O9 0.500000 0.062110 0.500000
O O10 0.497625 0.925996 0.247255
O O11 0.000000 0.333786 0.000000
#
# Coordination Sequence:
#
# PCOD8048958 Si02
#       5
#     4   4   4   4   4
#     4  10  20  33  53  83 126 149 188 230 304 343
#     4  10  21  37  60  84 115 152 202 234 288 343
#     4  10  22  37  61  94 118 147 195 254 287 341
#     4  10  22  38  62  88 114 157 196 244 288 348
#     4  10  20  34  53  84 120 160 179 236 294 359
#
# _framework density 20.863486000000002
#
# number of rings (size 3 to 8) (size 9 to 14) (size 15 to 20)
#    1.200    0.800    2.000    1.800    2.800    2.400 
#    0.000    0.000    0.000    4.800    0.000    0.000 
#    0.000    0.000    0.000    0.000    0.000    0.000 
#
# Total GULP energy -123949.427833 kJ/mol
# GULP energy per Si atom -12394.942783 kJ/mol
# Density = 2.081600 g / cm^3
# Si number density = 20.863486 Si / 1000 Ang^3
#
#
#
# Elastic Constant Matrix: (Units=GPa)
#
#
# Indices 1 2 3 4 5 6 
#
# 1 143.1757 51.2532 15.3685 0.0001 21.6442 0.0003
# 2 51.2532 146.7045 3.7116 -0.0005 8.3189 -0.0015
# 3 15.3685 3.7116 32.9998 0.0010 14.9517 0.0027
# 4 0.0001 -0.0005 0.0010 10.9318 0.0006 8.3766
# 5 21.6442 8.3189 14.9517 0.0006 29.3109 0.0018
# 6 0.0003 -0.0015 0.0027 8.3766 0.0018 24.7414
#
#
#
# Elastic Compliance Matrix: (Units=1/GPa)
#
#
# Indices 1 2 3 4 5 6 
#
# 1 0.008905 -0.002789 -0.001577 0.000000 -0.004980 0.000000
# 2 -0.002789 0.007802 0.000639 0.000000 -0.000481 0.000000
# 3 -0.001577 0.000639 0.039695 0.000000 -0.019265 -0.000003
# 4 0.000000 0.000000 0.000000 0.123521 0.000000 -0.041820
# 5 -0.004980 -0.000481 -0.019265 0.000000 0.047758 -0.000001
# 6 0.000000 0.000000 -0.000003 -0.041820 -0.000001 0.054577
#
#
# Mechanical properties :
#
#
# Convention : Reuss Voigt Hill
#
# Bulk Modulus (GPa) = 20.43004 51.50520 35.96762
# Shear Modulus (GPa) = 16.33848 29.83327 23.08588
#
# Velocity S-wave (km/s) = 2.80145 3.78554 3.33005
# Velocity P-wave (km/s) = 4.50308 6.62174 5.66238
#
# Compressibility (1/GPa) = 0.04894754
#
# Stress axis : x y z
#
# Youngs Moduli (GPa) = 112.29891 128.17532 25.19236
#
# Poissons Ratio (x) = 0.35745 0.03974
# Poissons Ratio (y) = 0.31317 -0.01610
# Poissons Ratio (z) = 0.17713 -0.08193
#
# Static dielectric constant tensor:
#      x y z
#    x 3.637540 0.000000 0.181140 
#    y 0.000000 3.667730 0.000000 
#    z 0.181140 0.000000 3.406580 
# 
# 
# High freq. dielectric constant tensor:
#      x y z
#    x 1.816380 0.000000 0.022950 
#    y 0.000000 1.817760 0.000000 
#    z 0.022950 0.000000 1.784550 
# 
# From -- ./inp_files/47653.got.cif
#   From: 2010.03.12/outbox.cif.g09.slc.cpg/sg5_24_cif.got.tgz:47653.got - 2010.03.31 09:47:26.
