data_PCOD8048325
_publ_section_title
;
Structure prediction by ZEFSAII (Michael W. Deem and Ramdas Pophale) SiO2 
 PCOD8048325
Probable space group: C 2
;
_chemical_formula_sum "Si O2"
_cell_formula_units_Z 28
_cell_length_a 18.494983
_cell_length_b 12.392933
_cell_length_c 6.363054
_cell_angle_alpha 90.000000
_cell_angle_beta 85.449720
_cell_angle_gamma 90.000000
_cell_volume 1453.860146
_symmetry_space_group_name_H-M "C 2"
_symmetry_group_IT_number 5
_symmetry_cell_setting 'monoclinic'
loop_
_space_group_symop_operation_xyz
x,y,z
-x,y,-z
1/2+x,1/2+y,z
1/2-x,1/2+y,-z
loop_
_atom_site_type_symbol
_atom_site_label
_atom_site_fract_x
_atom_site_fract_y
_atom_site_fract_z
Si Si1 0.665407 0.358670 0.760384
Si Si2 0.829322 0.561893 0.822327
Si Si3 0.741998 0.418024 0.130465
Si Si4 0.422539 0.164634 0.125302
Si Si5 0.299711 0.559130 0.472562
Si Si6 0.697331 0.794063 0.535035
Si Si7 0.422559 0.975897 0.463428
O O1 0.601360 0.271601 0.737052
O O2 0.646478 0.469763 0.639681
O O3 0.743899 0.317036 0.660345
O O4 0.671804 0.389475 0.005584
O O5 0.766964 0.589341 0.667835
O O6 0.902249 0.539546 0.677813
O O7 0.805825 0.457516 0.962028
O O8 0.855650 0.655779 0.974357
O O9 0.727356 0.515852 0.297000
O O10 0.763472 0.308613 0.247932
O O11 0.425537 0.057857 0.266796
O O12 0.500000 0.185364 0.000000
O O13 0.337785 0.675625 0.491079
O O14 0.633748 0.880672 0.558000
O O15 0.500000 0.924062 0.500000
#
# Coordination Sequence:
#
# PCOD8048325 Si02
#       7
#     4   4   4   4   4   4   4
#     4  10  22  36  59  91 115 155 208 245 301 354
#     4  11  18  37  57  90 119 153 195 247 300 353
#     4  10  18  35  59  88 119 152 198 248 294 352
#     4  12  24  39  63  87 125 162 198 252 303 361
#     4  10  21  36  61  89 121 153 201 254 298 354
#     4  11  20  37  60  86 123 155 196 254 297 356
#     4  12  23  38  59  91 123 155 202 246 308 356
#
# _framework density 19.259073000000001
#
# number of rings (size 3 to 8) (size 9 to 14) (size 15 to 20)
#    0.000    1.143    7.143    2.571    0.000    2.286 
#    0.000    0.000    3.143    0.000    0.000    0.000 
#    0.000    0.000    0.000    0.000    0.000    0.000 
#
# Total GULP energy -173455.173799 kJ/mol
# GULP energy per Si atom -12389.655271 kJ/mol
# Density = 1.921524 g / cm^3
# Si number density = 19.259073 Si / 1000 Ang^3
#
#
#
# Elastic Constant Matrix: (Units=GPa)
#
#
# Indices 1 2 3 4 5 6 
#
# 1 79.0757 42.1501 28.1821 0.0000 -14.0391 0.0000
# 2 42.1501 142.1378 27.2255 0.0000 -14.9912 0.0000
# 3 28.1821 27.2255 90.7802 0.0000 -5.8406 0.0000
# 4 0.0000 0.0000 0.0000 16.6725 0.0000 -5.2548
# 5 -14.0391 -14.9912 -5.8406 0.0000 24.3348 0.0000
# 6 0.0000 0.0000 0.0000 -5.2548 0.0000 23.3753
#
#
#
# Elastic Compliance Matrix: (Units=1/GPa)
#
#
# Indices 1 2 3 4 5 6 
#
# 1 0.017136 -0.003645 -0.003794 0.000000 0.006730 0.000000
# 2 -0.003645 0.008671 -0.001280 0.000000 0.002931 0.000000
# 3 -0.003794 -0.001280 0.012580 0.000000 0.000042 0.000000
# 4 0.000000 0.000000 0.000000 0.064553 0.000000 0.014512
# 5 0.006730 0.002931 0.000042 0.000000 0.046792 0.000000
# 6 0.000000 0.000000 0.000000 0.014512 0.000000 0.046042
#
#
# Mechanical properties :
#
#
# Convention : Reuss Voigt Hill
#
# Bulk Modulus (GPa) = 47.73530 56.34545 52.04037
# Shear Modulus (GPa) = 22.70719 27.17226 24.93973
#
# Velocity S-wave (km/s) = 3.43744 3.76024 3.60246
# Velocity P-wave (km/s) = 6.37137 6.94065 6.66209
#
# Compressibility (1/GPa) = 0.02094886
#
# Stress axis : x y z
#
# Youngs Moduli (GPa) = 58.35699 115.33037 79.49162
#
# Poissons Ratio (x) = 0.42039 0.30155
# Poissons Ratio (y) = 0.21272 0.10177
# Poissons Ratio (z) = 0.22138 0.14765
#
# Static dielectric constant tensor:
#      x y z
#    x 3.186980 0.000000 -0.017240 
#    y 0.000000 3.577240 0.000000 
#    z -0.017240 0.000000 3.849810 
# 
# 
# High freq. dielectric constant tensor:
#      x y z
#    x 1.703100 0.000000 -0.002970 
#    y 0.000000 1.749120 0.000000 
#    z -0.002970 0.000000 1.769960 
# 
# From -- ./inp_files/9460.got.cif
#   From: 2010.03.12/outbox.cif.g09.slc.cpg/sg5_5_cif.got.tgz:9460.got - 2010.03.31 09:47:26.
