data_PCOD8048809
_publ_section_title
;
Structure prediction by ZEFSAII (Michael W. Deem and Ramdas Pophale) SiO2 
 PCOD8048809
Probable space group: C 2
;
_chemical_formula_sum "Si O2"
_cell_formula_units_Z 26
_cell_length_a 9.868629
_cell_length_b 20.300937
_cell_length_c 8.630563
_cell_angle_alpha 90.000000
_cell_angle_beta 44.790600
_cell_angle_gamma 90.000000
_cell_volume 1218.159049
_symmetry_space_group_name_H-M "C 2"
_symmetry_group_IT_number 5
_symmetry_cell_setting 'monoclinic'
loop_
_space_group_symop_operation_xyz
x,y,z
-x,y,-z
1/2+x,1/2+y,z
1/2-x,1/2+y,-z
loop_
_atom_site_type_symbol
_atom_site_label
_atom_site_fract_x
_atom_site_fract_y
_atom_site_fract_z
Si Si1 0.194296 0.932830 0.668313
Si Si2 0.622648 0.695111 0.554496
Si Si3 0.110536 0.413610 0.190026
Si Si4 0.466673 0.290803 0.208156
Si Si5 0.000000 0.491101 0.000000
Si Si6 0.176085 0.050721 0.470933
Si Si7 0.125097 0.278000 0.043117
O O1 0.403532 0.926888 0.425952
O O2 0.219235 0.940335 0.834792
O O3 0.064948 0.868971 0.734053
O O4 0.113949 0.999282 0.655796
O O5 0.500000 0.695894 0.500000
O O6 0.786802 0.750008 0.415657
O O7 0.710130 0.622901 0.517647
O O8 0.478037 0.712402 0.811630
O O9 0.129927 0.334914 0.169568
O O10 0.135345 0.445986 0.000277
O O11 0.500000 0.275235 0.000000
O O12 0.646944 0.265917 0.168412
O O13 0.131599 0.534879 0.781435
O O14 0.000000 0.053911 0.500000
O O15 0.000000 0.303899 0.000000
#
# Coordination Sequence:
#
# PCOD8048809 Si02
#       7
#     4   4   4   4   2   4   4
#     4  10  21  39  63  99 126 171 222 267 330 389
#     4  11  23  46  66  94 137 174 224 269 330 408
#     4  10  19  38  64  93 133 165 211 285 321 382
#     4  12  23  37  73  97 121 176 227 269 325 397
#     4  10  22  40  60  96 128 170 220 266 332 388
#     4  10  25  41  66  94 135 176 212 274 329 395
#     4  12  25  41  65 103 133 170 220 282 337 379
#
# _framework density 21.343682000000001
#
# number of rings (size 3 to 8) (size 9 to 14) (size 15 to 20)
#    0.000    1.231    5.385    0.000    3.231    0.615 
#    0.000   10.000    0.000    0.000    0.000    0.000 
#    0.000    0.000    0.000    0.000    0.000    0.000 
#
# Total GULP energy -161168.602890 kJ/mol
# GULP energy per Si atom -12397.584838 kJ/mol
# Density = 2.129510 g / cm^3
# Si number density = 21.343682 Si / 1000 Ang^3
#
#
#
# Elastic Constant Matrix: (Units=GPa)
#
#
# Indices 1 2 3 4 5 6 
#
# 1 110.6401 34.8330 38.4774 0.0000 -5.4815 0.0000
# 2 34.8330 142.4863 57.1793 0.0000 1.4438 0.0000
# 3 38.4774 57.1793 56.8682 0.0000 -0.6771 0.0000
# 4 0.0000 0.0000 0.0000 31.5092 0.0000 0.5818
# 5 -5.4815 1.4438 -0.6771 0.0000 33.6557 0.0000
# 6 0.0000 0.0000 0.0000 0.5818 0.0000 32.9105
#
#
#
# Elastic Compliance Matrix: (Units=1/GPa)
#
#
# Indices 1 2 3 4 5 6 
#
# 1 0.011946 0.000498 -0.008563 0.000000 0.001752 0.000000
# 2 0.000498 0.011805 -0.012214 0.000000 -0.000671 0.000000
# 3 -0.008563 -0.012214 0.035658 0.000000 -0.000153 0.000000
# 4 0.000000 0.000000 0.000000 0.031747 0.000000 -0.000561
# 5 0.001752 -0.000671 -0.000153 0.000000 0.030024 0.000000
# 6 0.000000 0.000000 0.000000 -0.000561 0.000000 0.030395
#
#
# Mechanical properties :
#
#
# Convention : Reuss Voigt Hill
#
# Bulk Modulus (GPa) = 53.04949 63.44157 58.24553
# Shear Modulus (GPa) = 25.19950 31.58208 28.39079
#
# Velocity S-wave (km/s) = 3.43979 3.85085 3.65111
# Velocity P-wave (km/s) = 6.37849 7.03991 6.71735
#
# Compressibility (1/GPa) = 0.01885032
#
# Stress axis : x y z
#
# Youngs Moduli (GPa) = 83.70856 84.71071 28.04451
#
# Poissons Ratio (x) = -0.04219 0.24014
# Poissons Ratio (y) = -0.04169 0.34255
# Poissons Ratio (z) = 0.71678 1.03469
#
# Static dielectric constant tensor:
#      x y z
#    x 4.449840 0.000000 0.069450 
#    y 0.000000 4.119450 0.000000 
#    z 0.069450 0.000000 3.907130 
# 
# 
# High freq. dielectric constant tensor:
#      x y z
#    x 1.841490 0.000000 -0.012810 
#    y 0.000000 1.826240 0.000000 
#    z -0.012810 0.000000 1.835200 
# 
# From -- ./inp_files/16887.got.cif
#   From: 2010.03.12/outbox.cif.g09.slc.cpg/sg5_9_cif.got.tgz:16887.got - 2010.03.31 09:47:26.
