data_PCOD8048586
_publ_section_title
;
Structure prediction by ZEFSAII (Michael W. Deem and Ramdas Pophale) SiO2 
 PCOD8048586
Probable space group: C 2
;
_chemical_formula_sum "Si O2"
_cell_formula_units_Z 26
_cell_length_a 28.562199
_cell_length_b 4.910930
_cell_length_c 17.972704
_cell_angle_alpha 90.000000
_cell_angle_beta 152.969586
_cell_angle_gamma 90.000000
_cell_volume 1145.691585
_symmetry_space_group_name_H-M "C 2"
_symmetry_group_IT_number 5
_symmetry_cell_setting 'monoclinic'
loop_
_space_group_symop_operation_xyz
x,y,z
-x,y,-z
1/2+x,1/2+y,z
1/2-x,1/2+y,-z
loop_
_atom_site_type_symbol
_atom_site_label
_atom_site_fract_x
_atom_site_fract_y
_atom_site_fract_z
Si Si1 0.916236 0.539420 0.735492
Si Si2 0.000000 0.764850 0.000000
Si Si3 0.719275 0.291871 0.121824
Si Si4 0.217455 0.927163 0.534136
Si Si5 0.908887 0.290296 0.104177
Si Si6 0.725881 0.435272 0.296367
Si Si7 0.310511 0.906705 0.106664
O O1 0.886302 0.831849 0.655537
O O2 0.812313 0.377422 0.610837
O O3 0.976966 0.350563 0.763411
O O4 0.986931 0.580313 0.908177
O O5 0.102266 0.942393 0.132428
O O6 0.758600 0.351095 0.260035
O O7 0.817160 0.338491 0.204378
O O8 0.623289 0.485323 0.963077
O O9 0.676300 0.986780 0.054346
O O10 0.233881 0.735799 0.629569
O O11 0.217680 0.234303 0.565057
O O12 0.909425 0.330342 0.195495
O O13 0.215200 0.724786 0.939801
#
# Coordination Sequence:
#
# PCOD8048586 Si02
#       7
#     4   2   4   4   4   4   4
#     4  11  23  42  58  86 118 159 201 244 291 350
#     4  10  22  34  60  84 110 146 202 252 272 338
#     4  10  19  34  57  88 118 146 190 250 297 349
#     4  11  26  39  56  80 124 163 191 235 298 360
#     4  10  20  33  59  87 114 151 194 248 294 343
#     4  11  23  39  57  86 117 159 192 241 299 348
#     4   8  16  31  51  84 118 142 179 241 309 342
#
# _framework density 22.693718000000001
#
# number of rings (size 3 to 8) (size 9 to 14) (size 15 to 20)
#    0.000    1.846    1.538    2.769    4.308    3.077 
#    0.000    0.000    0.000    0.923    0.000    4.308 
#    0.000    0.000    0.000    0.000    0.000    0.000 
#
# Total GULP energy -161154.043374 kJ/mol
# GULP energy per Si atom -12396.464875 kJ/mol
# Density = 2.264207 g / cm^3
# Si number density = 22.693718 Si / 1000 Ang^3
#
#
#
# Elastic Constant Matrix: (Units=GPa)
#
#
# Indices 1 2 3 4 5 6 
#
# 1 148.5218 -9.7695 18.5423 -0.0003 -14.4384 -0.0006
# 2 -9.7695 58.4703 4.1608 -0.0011 -2.0508 -0.0013
# 3 18.5423 4.1608 64.1713 -0.0001 -13.4131 -0.0003
# 4 -0.0003 -0.0011 -0.0001 24.4039 -0.0001 -1.9854
# 5 -14.4384 -2.0508 -13.4131 -0.0001 25.1829 -0.0001
# 6 -0.0006 -0.0013 -0.0003 -1.9854 -0.0001 28.0254
#
#
#
# Elastic Compliance Matrix: (Units=1/GPa)
#
#
# Indices 1 2 3 4 5 6 
#
# 1 0.007359 0.001459 -0.001479 0.000000 0.003550 0.000000
# 2 0.001459 0.017490 -0.001219 0.000001 0.001612 0.000001
# 3 -0.001479 -0.001219 0.017883 0.000000 0.008578 0.000000
# 4 0.000000 0.000001 0.000000 0.041215 0.000000 0.002920
# 5 0.003550 0.001612 0.008578 0.000000 0.046445 0.000000
# 6 0.000000 0.000001 0.000000 0.002920 0.000000 0.035889
#
#
# Mechanical properties :
#
#
# Convention : Reuss Voigt Hill
#
# Bulk Modulus (GPa) = 24.84202 33.00339 28.92271
# Shear Modulus (GPa) = 27.44628 32.73777 30.09202
#
# Velocity S-wave (km/s) = 3.48145 3.80227 3.64539
# Velocity P-wave (km/s) = 5.20875 5.81815 5.52186
#
# Compressibility (1/GPa) = 0.04025438
#
# Stress axis : x y z
#
# Youngs Moduli (GPa) = 135.89228 57.17621 55.92058
#
# Poissons Ratio (x) = -0.08344 0.08270
# Poissons Ratio (y) = -0.19831 0.06815
# Poissons Ratio (z) = 0.20097 0.06968
#
# Static dielectric constant tensor:
#      x y z
#    x 4.589210 0.000000 -0.112000 
#    y 0.000000 3.992440 0.000000 
#    z -0.112000 0.000000 3.566220 
# 
# 
# High freq. dielectric constant tensor:
#      x y z
#    x 1.914040 0.000000 -0.015090 
#    y 0.000000 1.906580 0.000000 
#    z -0.015090 0.000000 1.835200 
# 
# From -- ./inp_files/61035.got.cif
#   From: 2010.03.12/outbox.cif.g09.slc.cpg/sg5_31_cif.got.tgz:61035.got - 2010.03.31 09:47:26.
