data_PCOD8048927
_publ_section_title
;
Structure prediction by ZEFSAII (Michael W. Deem and Ramdas Pophale) SiO2 
 PCOD8048927
Probable space group: C 2
;
_chemical_formula_sum "Si O2"
_cell_formula_units_Z 28
_cell_length_a 17.133364
_cell_length_b 7.487132
_cell_length_c 24.928447
_cell_angle_alpha 90.000000
_cell_angle_beta 22.950462
_cell_angle_gamma 90.000000
_cell_volume 1246.940410
_symmetry_space_group_name_H-M "C 2"
_symmetry_group_IT_number 5
_symmetry_cell_setting 'monoclinic'
loop_
_space_group_symop_operation_xyz
x,y,z
-x,y,-z
1/2+x,1/2+y,z
1/2-x,1/2+y,-z
loop_
_atom_site_type_symbol
_atom_site_label
_atom_site_fract_x
_atom_site_fract_y
_atom_site_fract_z
Si Si1 0.332938 0.297110 0.502721
Si Si2 0.362495 0.753417 0.003041
Si Si3 0.248786 0.691650 0.192226
Si Si4 0.574297 0.696835 0.571791
Si Si5 0.920984 0.906887 0.902413
Si Si6 0.308102 0.981592 0.588046
Si Si7 0.625541 0.282154 0.869909
O O1 0.528768 0.214976 0.352119
O O2 0.343154 0.509445 0.504038
O O3 0.141966 0.235278 0.589407
O O4 0.309731 0.193281 0.573572
O O5 0.593151 0.806280 0.871453
O O6 0.344551 0.559714 0.989373
O O7 0.241997 0.755965 0.135121
O O8 0.264013 0.877217 0.020392
O O9 0.320743 0.487803 0.151554
O O10 0.334005 0.681112 0.726431
O O11 0.678034 0.854877 0.472542
O O12 0.989731 0.755172 0.901994
O O13 0.111612 0.952339 0.746352
O O14 0.500000 0.926200 0.500000
O O15 0.500000 0.202081 0.000000
#
# Coordination Sequence:
#
# PCOD8048927 Si02
#       7
#     4   4   4   4   4   4   4
#     4  12  25  45  73 104 134 186 240 278 346 417
#     4  10  22  40  66  97 136 178 223 282 344 404
#     4  10  19  45  70  92 134 188 224 278 346 412
#     4  12  25  45  73 104 138 185 233 287 343 416
#     4  11  23  42  66 103 137 177 226 290 348 402
#     4  12  24  47  72 100 146 182 228 297 344 403
#     4  11  21  45  73  95 136 185 227 281 352 416
#
# _framework density 22.454961999999998
#
# number of rings (size 3 to 8) (size 9 to 14) (size 15 to 20)
#    0.000    0.857    7.143    1.714    0.000    2.857 
#    7.714    0.000    0.000    0.000    0.000    0.000 
#    0.000    0.000    0.000    0.000    0.000    0.000 
#
# Total GULP energy -173516.029467 kJ/mol
# GULP energy per Si atom -12394.002105 kJ/mol
# Density = 2.240385 g / cm^3
# Si number density = 22.454962 Si / 1000 Ang^3
#
#
#
# Elastic Constant Matrix: (Units=GPa)
#
#
# Indices 1 2 3 4 5 6 
#
# 1 147.9386 20.5909 49.5505 0.0049 -5.3929 -0.0031
# 2 20.5909 72.6456 20.0484 -0.0116 -0.8844 0.0074
# 3 49.5505 20.0484 80.1510 -0.0351 2.3932 -0.0169
# 4 0.0049 -0.0116 -0.0351 16.6942 -0.0005 -13.8222
# 5 -5.3929 -0.8844 2.3932 -0.0005 31.8963 0.0049
# 6 -0.0031 0.0074 -0.0169 -13.8222 0.0049 36.1629
#
#
#
# Elastic Compliance Matrix: (Units=1/GPa)
#
#
# Indices 1 2 3 4 5 6 
#
# 1 0.008703 -0.001015 -0.005181 -0.000023 0.001832 -0.000010
# 2 -0.001015 0.014920 -0.003119 0.000000 0.000476 -0.000005
# 3 -0.005181 -0.003119 0.016525 0.000060 -0.002202 0.000031
# 4 -0.000023 0.000000 0.000060 0.087634 -0.000012 0.033496
# 5 0.001832 0.000476 -0.002202 -0.000012 0.031840 -0.000010
# 6 -0.000010 -0.000005 0.000031 0.033496 -0.000010 0.040455
#
#
# Mechanical properties :
#
#
# Convention : Reuss Voigt Hill
#
# Bulk Modulus (GPa) = 46.47132 53.45721 49.96426
# Shear Modulus (GPa) = 22.13567 30.98705 26.56136
#
# Velocity S-wave (km/s) = 3.14312 3.71882 3.44302
# Velocity P-wave (km/s) = 5.82345 6.50366 6.17293
#
# Compressibility (1/GPa) = 0.02151865
#
# Stress axis : x y z
#
# Youngs Moduli (GPa) = 114.90336 67.02613 60.51264
#
# Poissons Ratio (x) = 0.06801 0.31353
# Poissons Ratio (y) = 0.11658 0.18873
# Poissons Ratio (z) = 0.59534 0.20904
#
# Static dielectric constant tensor:
#      x y z
#    x 4.566840 -0.000010 -0.062620 
#    y -0.000010 3.981010 0.000020 
#    z -0.062620 0.000020 3.967400 
# 
# 
# High freq. dielectric constant tensor:
#      x y z
#    x 1.904320 0.000000 -0.007130 
#    y 0.000000 1.868220 0.000000 
#    z -0.007130 0.000000 1.885990 
# 
# From -- ./inp_files/65966.got.cif
#   From: 2010.03.12/outbox.cif.g09.slc.cpg/sg5_33_cif.got.tgz:65966.got - 2010.03.31 09:47:26.
