data_PCOD8048611
_publ_section_title
;
Structure prediction by ZEFSAII (Michael W. Deem and Ramdas Pophale) SiO2 
 PCOD8048611
Probable space group: C 2
;
_chemical_formula_sum "Si O2"
_cell_formula_units_Z 32
_cell_length_a 27.472994
_cell_length_b 13.923696
_cell_length_c 8.908552
_cell_angle_alpha 90.000000
_cell_angle_beta 148.686930
_cell_angle_gamma 90.000000
_cell_volume 1771.055088
_symmetry_space_group_name_H-M "C 2"
_symmetry_group_IT_number 5
_symmetry_cell_setting 'monoclinic'
loop_
_space_group_symop_operation_xyz
x,y,z
-x,y,-z
1/2+x,1/2+y,z
1/2-x,1/2+y,-z
loop_
_atom_site_type_symbol
_atom_site_label
_atom_site_fract_x
_atom_site_fract_y
_atom_site_fract_z
Si Si1 0.048525 0.567280 0.786170
Si Si2 0.639616 0.075359 0.554637
Si Si3 0.763986 0.453728 0.694578
Si Si4 0.788615 0.954201 0.781182
Si Si5 0.691938 0.233171 0.178866
Si Si6 0.605820 0.615387 0.792855
Si Si7 0.743880 0.232684 0.654014
Si Si8 0.275228 0.601563 0.173770
O O1 0.000000 0.548237 0.500000
O O2 0.971898 0.559752 0.719846
O O3 0.126622 0.484902 0.018278
O O4 0.094747 0.673752 0.911703
O O5 0.660715 0.174568 0.519630
O O6 0.691352 0.985914 0.607386
O O7 0.680262 0.084361 0.829485
O O8 0.721543 0.477110 0.420561
O O9 0.744143 0.344924 0.689964
O O10 0.706951 0.512768 0.668247
O O11 0.819407 0.844934 0.886749
O O12 0.875080 0.013148 0.078639
O O13 0.736768 0.214351 0.458881
O O14 0.764463 0.196639 0.245271
O O15 0.500000 0.643829 0.500000
O O16 0.637850 0.614391 0.705269
O O17 0.656796 0.695592 0.025489
#
# Coordination Sequence:
#
# PCOD8048611 Si02
#       8
#     4   4   4   4   4   4   4   4
#     4  11  20  34  56  90 110 135 184 233 269 309
#     4  10  19  35  56  85 111 140 182 225 273 320
#     4  10  19  37  57  79 110 144 177 217 273 328
#     4   9  21  37  56  77 110 148 176 214 276 327
#     4  10  19  37  57  79 110 144 177 217 273 328
#     4  10  21  37  53  79 105 140 184 223 258 309
#     4   9  21  37  56  77 110 148 176 214 276 327
#     4   9  18  35  57  77 107 144 172 216 276 318
#
# _framework density 18.068327
#
# number of rings (size 3 to 8) (size 9 to 14) (size 15 to 20)
#    0.000    2.500    2.500    3.000    0.000    7.000 
#    4.500    2.500    0.000    0.000    0.000    0.000 
#    0.000    0.000    0.000    0.000    0.000    0.000 
#
# Total GULP energy -198292.280114 kJ/mol
# GULP energy per Si atom -12393.267507 kJ/mol
# Density = 1.802720 g / cm^3
# Si number density = 18.068327 Si / 1000 Ang^3
#
#
#
# Elastic Constant Matrix: (Units=GPa)
#
#
# Indices 1 2 3 4 5 6 
#
# 1 78.2019 7.9245 23.8748 0.0000 -11.4609 0.0000
# 2 7.9245 51.1793 -13.9729 0.0000 -18.9668 0.0000
# 3 23.8748 -13.9729 43.4573 0.0000 -2.8530 0.0000
# 4 0.0000 0.0000 0.0000 16.5561 0.0000 2.3219
# 5 -11.4609 -18.9668 -2.8530 0.0000 40.3745 0.0000
# 6 0.0000 0.0000 0.0000 2.3219 0.0000 4.8266
#
#
#
# Elastic Compliance Matrix: (Units=1/GPa)
#
#
# Indices 1 2 3 4 5 6 
#
# 1 0.016796 -0.004880 -0.010683 0.000000 0.001720 0.000000
# 2 -0.004880 0.028556 0.012711 0.000000 0.012928 0.000000
# 3 -0.010683 0.012711 0.033315 0.000000 0.005293 0.000000
# 4 0.000000 0.000000 0.000000 0.064770 0.000000 -0.031158
# 5 0.001720 0.012928 0.005293 0.000000 0.031704 0.000000
# 6 0.000000 0.000000 0.000000 -0.031158 0.000000 0.222173
#
#
# Mechanical properties :
#
#
# Convention : Reuss Voigt Hill
#
# Bulk Modulus (GPa) = 13.70556 23.16570 18.43563
# Shear Modulus (GPa) = 11.70034 22.68559 17.19296
#
# Velocity S-wave (km/s) = 2.54748 3.54721 3.08807
# Velocity P-wave (km/s) = 4.03172 5.44297 4.78961
#
# Compressibility (1/GPa) = 0.07296310
#
# Stress axis : x y z
#
# Youngs Moduli (GPa) = 59.53933 35.01868 30.01663
#
# Poissons Ratio (x) = 0.17088 0.32068
# Poissons Ratio (y) = 0.29054 -0.38155
# Poissons Ratio (z) = 0.63608 -0.44513
#
# Static dielectric constant tensor:
#      x y z
#    x 3.508570 0.000000 -0.158760 
#    y 0.000000 3.406540 0.000000 
#    z -0.158760 0.000000 3.226780 
# 
# 
# High freq. dielectric constant tensor:
#      x y z
#    x 1.710640 0.000000 -0.021540 
#    y 0.000000 1.699020 0.000000 
#    z -0.021540 0.000000 1.687140 
# 
# From -- ./inp_files/31965.got.cif
#   From: 2010.03.12/outbox.cif.g09.slc.cpg/sg5_16_cif.got.tgz:31965.got - 2010.03.31 09:47:26.
