data_PCOD8048024
_publ_section_title
;
Structure prediction by ZEFSAII (Michael W. Deem and Ramdas Pophale) SiO2 
 PCOD8048024
Probable space group: P 21
;
_chemical_formula_sum "Si O2"
_cell_formula_units_Z 10
_cell_length_a 9.703209
_cell_length_b 8.341876
_cell_length_c 9.176395
_cell_angle_alpha 90.000000
_cell_angle_beta 30.663036
_cell_angle_gamma 90.000000
_cell_volume 378.801111
_symmetry_space_group_name_H-M "P 21"
_symmetry_group_IT_number 4
_symmetry_cell_setting 'monoclinic'
loop_
_space_group_symop_operation_xyz
x,y,z
-x,1/2+y,-z
loop_
_atom_site_type_symbol
_atom_site_label
_atom_site_fract_x
_atom_site_fract_y
_atom_site_fract_z
Si Si1 0.157241 0.970010 0.368394
Si Si2 0.189043 0.133873 0.925736
Si Si3 0.571869 0.211963 0.077403
Si Si4 0.012470 0.477537 0.161257
Si Si5 0.727010 0.002192 0.544593
O O1 0.863334 0.033533 0.580441
O O2 0.375152 0.111050 0.150097
O O3 0.237049 0.819143 0.197921
O O4 0.139389 0.921189 0.553793
O O5 0.200624 0.065991 0.750715
O O6 0.479185 0.121023 0.739429
O O7 0.122973 0.320592 0.981443
O O8 0.963877 0.026353 0.211836
O O9 0.387677 0.320382 0.352864
O O10 0.745166 0.098324 0.023777
#
# Coordination Sequence:
#
# PCOD8048024 Si02
#       5
#     2   2   2   2   2
#     4  12  30  51  90 126 171 230 292 360 424 517
#     4  12  32  56  85 127 174 231 289 347 442 511
#     4  12  29  51  89 128 170 227 294 356 432 499
#     4  12  32  53  90 124 176 232 283 362 428 523
#     4  12  29  55  86 123 177 224 288 357 422 520
#
# _framework density 26.399077999999999
#
# number of rings (size 3 to 8) (size 9 to 14) (size 15 to 20)
#    0.000    0.000    2.000    3.600   19.600    0.000 
#    0.000    0.000    0.000    0.000    0.000    0.000 
#    0.000    0.000    0.000    0.000    0.000    0.000 
#
# Total GULP energy -124060.482936 kJ/mol
# GULP energy per Si atom -12406.048294 kJ/mol
# Density = 2.633899 g / cm^3
# Si number density = 26.399078 Si / 1000 Ang^3
#
#
#
# Elastic Constant Matrix: (Units=GPa)
#
#
# Indices 1 2 3 4 5 6 
#
# 1 176.5635 81.1507 56.9505 0.0000 -13.6914 0.0000
# 2 81.1507 129.5631 26.2954 0.0000 -11.4378 0.0000
# 3 56.9505 26.2954 123.0868 0.0000 -18.6536 0.0000
# 4 0.0000 0.0000 0.0000 38.5048 0.0000 -7.3776
# 5 -13.6914 -11.4378 -18.6536 0.0000 46.9017 0.0000
# 6 0.0000 0.0000 0.0000 -7.3776 0.0000 46.6112
#
#
#
# Elastic Compliance Matrix: (Units=1/GPa)
#
#
# Indices 1 2 3 4 5 6 
#
# 1 0.008945 -0.004967 -0.003049 0.000000 0.000187 0.000000
# 2 -0.004967 0.010909 0.000161 0.000000 0.001274 0.000000
# 3 -0.003049 0.000161 0.009973 0.000000 0.003116 0.000000
# 4 0.000000 0.000000 0.000000 0.026783 0.000000 0.004239
# 5 0.000187 0.001274 0.003116 0.000000 0.022926 0.000000
# 6 0.000000 0.000000 0.000000 0.004239 0.000000 0.022125
#
#
# Mechanical properties :
#
#
# Convention : Reuss Voigt Hill
#
# Bulk Modulus (GPa) = 70.84159 84.22295 77.53227
# Shear Modulus (GPa) = 40.95796 44.05799 42.50798
#
# Velocity S-wave (km/s) = 3.94317 4.08968 4.01709
# Velocity P-wave (km/s) = 6.90106 7.36706 7.13786
#
# Compressibility (1/GPa) = 0.01411600
#
# Stress axis : x y z
#
# Youngs Moduli (GPa) = 111.79993 91.66609 100.27159
#
# Poissons Ratio (x) = 0.45531 0.30573
# Poissons Ratio (y) = 0.55531 -0.01612
# Poissons Ratio (z) = 0.34088 -0.01473
#
# Static dielectric constant tensor:
#      x y z
#    x 4.975640 0.000000 -0.211700 
#    y 0.000000 4.811530 0.000000 
#    z -0.211700 0.000000 4.736770 
# 
# 
# High freq. dielectric constant tensor:
#      x y z
#    x 2.067690 0.000000 -0.007980 
#    y 0.000000 2.071000 0.000000 
#    z -0.007980 0.000000 2.062970 
# 
# From -- ./inp_files/4505.got.cif
#   From: 2010.03.12/outbox.cif.g09.slc.cpg/sg4_3_cif.got.tgz:4505.got - 2010.03.31 09:31:35.
