data_PCOD8048506
_publ_section_title
;
Structure prediction by ZEFSAII (Michael W. Deem and Ramdas Pophale) SiO2 
 PCOD8048506
Probable space group: C 2
;
_chemical_formula_sum "Si O2"
_cell_formula_units_Z 32
_cell_length_a 18.154931
_cell_length_b 20.482424
_cell_length_c 10.427214
_cell_angle_alpha 90.000000
_cell_angle_beta 25.768023
_cell_angle_gamma 90.000000
_cell_volume 1685.630630
_symmetry_space_group_name_H-M "C 2"
_symmetry_group_IT_number 5
_symmetry_cell_setting 'monoclinic'
loop_
_space_group_symop_operation_xyz
x,y,z
-x,y,-z
1/2+x,1/2+y,z
1/2-x,1/2+y,-z
loop_
_atom_site_type_symbol
_atom_site_label
_atom_site_fract_x
_atom_site_fract_y
_atom_site_fract_z
Si Si1 0.388260 0.252560 0.554753
Si Si2 0.282767 0.866245 0.598838
Si Si3 0.533456 0.368113 0.753797
Si Si4 0.466038 0.987958 0.253814
Si Si5 0.521338 0.134001 0.755957
Si Si6 0.779025 0.988865 0.604302
Si Si7 0.995981 0.247919 0.850802
Si Si8 0.224330 0.134369 0.410498
O O1 0.500000 0.273602 0.500000
O O2 0.398748 0.307048 0.430015
O O3 0.451547 0.182909 0.403526
O O4 0.194409 0.249297 0.901573
O O5 0.146268 0.876051 0.702377
O O6 0.404601 0.807671 0.368452
O O7 0.397275 0.930005 0.452206
O O8 0.166107 0.854866 0.907480
O O9 0.565788 0.437469 0.631866
O O10 0.455641 0.060007 0.333055
O O11 0.348565 0.982407 0.313736
O O12 0.662966 0.976025 0.911137
O O13 0.660973 0.145503 0.645057
O O14 0.336697 0.147256 0.107314
O O15 0.854693 0.061926 0.478745
O O16 0.069390 0.183023 0.670861
O O17 0.000000 0.248547 0.000000
#
# Coordination Sequence:
#
# PCOD8048506 Si02
#       8
#     4   4   4   4   4   4   4   4
#     4  12  25  38  54  78 116 155 183 224 277 332
#     4  10  19  31  56  86 108 140 182 238 281 313
#     4  10  19  34  52  81 115 144 182 229 278 326
#     4   8  15  27  51  82 112 141 172 224 281 327
#     4   9  17  34  55  81 115 144 180 225 280 327
#     4   8  15  28  51  81 115 138 172 224 282 328
#     4  12  21  34  56  82 108 142 189 236 266 320
#     4   9  17  32  57  87 108 140 180 235 280 316
#
# _framework density 18.983993000000002
#
# number of rings (size 3 to 8) (size 9 to 14) (size 15 to 20)
#    0.000    2.250    2.500    3.000    1.750    3.000 
#    2.250    2.500    0.000    9.000    0.000    0.000 
#    0.000    0.000    0.000    0.000    0.000    0.000 
#
# Total GULP energy -198265.387014 kJ/mol
# GULP energy per Si atom -12391.586688 kJ/mol
# Density = 1.894078 g / cm^3
# Si number density = 18.983993 Si / 1000 Ang^3
#
#
#
# Elastic Constant Matrix: (Units=GPa)
#
#
# Indices 1 2 3 4 5 6 
#
# 1 17.8842 6.6774 18.0135 0.0048 -7.1068 -0.0023
# 2 6.6774 149.7320 85.7763 0.0036 6.4116 0.0011
# 3 18.0135 85.7763 147.8835 0.0268 -0.6110 -0.0198
# 4 0.0048 0.0036 0.0268 40.3457 -0.0147 -2.9070
# 5 -7.1068 6.4116 -0.6110 -0.0147 14.7322 0.0093
# 6 -0.0023 0.0011 -0.0198 -2.9070 0.0093 -2.3081
#
#
#
# Elastic Compliance Matrix: (Units=1/GPa)
#
#
# Indices 1 2 3 4 5 6 
#
# 1 0.081106 0.000453 -0.009983 0.000021 0.038514 0.000135
# 2 0.000453 0.010325 -0.006063 0.000004 -0.004527 0.000034
# 3 -0.009983 -0.006063 0.011488 -0.000012 -0.001701 -0.000083
# 4 0.000021 0.000004 -0.000012 0.022724 0.000048 -0.028620
# 5 0.038514 -0.004527 -0.001701 0.000048 0.088357 0.000268
# 6 0.000135 0.000034 -0.000083 -0.028620 0.000268 -0.397210
#
#
# Mechanical properties :
#
#
# Convention : Reuss Voigt Hill
#
# Bulk Modulus (GPa) = 13.94059 59.60380 36.77219
# Shear Modulus (GPa) = -39.02789 24.22280 -7.40255
#
# Velocity S-wave (km/s) = -4.53905 3.57593 -1.97682
# Velocity P-wave (km/s) = 4.48456 6.96525 3.76852
#
# Compressibility (1/GPa) = 0.07173299
#
# Stress axis : x y z
#
# Youngs Moduli (GPa) = 12.32955 96.84787 87.04984
#
# Poissons Ratio (x) = -0.04384 0.86900
# Poissons Ratio (y) = -0.00558 0.52777
# Poissons Ratio (z) = 0.12308 0.58718
#
# Static dielectric constant tensor:
#      x y z
#    x 2.811130 0.000000 0.122720 
#    y 0.000000 3.809160 0.000040 
#    z 0.122720 0.000040 3.931380 
# 
# 
# High freq. dielectric constant tensor:
#      x y z
#    x 1.661930 0.000000 0.008650 
#    y 0.000000 1.756910 0.000000 
#    z 0.008650 0.000000 1.749620 
# 
# From -- ./inp_files/37218.got.cif
#   From: 2010.03.12/outbox.cif.g09.slc.cpg/sg5_19_cif.got.tgz:37218.got - 2010.03.31 09:47:26.
