data_PCOD8048106
_publ_section_title
;
Structure prediction by ZEFSAII (Michael W. Deem and Ramdas Pophale) SiO2 
 PCOD8048106
Probable space group: C 2
;
_chemical_formula_sum "Si O2"
_cell_formula_units_Z 26
_cell_length_a 31.311214
_cell_length_b 5.180605
_cell_length_c 22.271233
_cell_angle_alpha 90.000000
_cell_angle_beta 160.863905
_cell_angle_gamma 90.000000
_cell_volume 1184.270721
_symmetry_space_group_name_H-M "C 2"
_symmetry_group_IT_number 5
_symmetry_cell_setting 'monoclinic'
loop_
_space_group_symop_operation_xyz
x,y,z
-x,y,-z
1/2+x,1/2+y,z
1/2-x,1/2+y,-z
loop_
_atom_site_type_symbol
_atom_site_label
_atom_site_fract_x
_atom_site_fract_y
_atom_site_fract_z
Si Si1 0.778334 0.025190 0.282023
Si Si2 0.848176 0.588555 0.066135
Si Si3 0.205834 0.026546 0.247975
Si Si4 0.000000 0.799523 0.500000
Si Si5 0.504714 0.024860 0.851050
Si Si6 0.323814 0.090371 0.168741
Si Si7 0.932932 0.020582 0.817503
O O1 0.791756 0.285653 0.338947
O O2 0.779649 0.788800 0.330268
O O3 0.648131 0.027759 0.069931
O O4 0.900977 0.993461 0.401344
O O5 0.977340 0.557784 0.196901
O O6 0.891685 0.582644 0.193431
O O7 0.755791 0.350919 0.929677
O O8 0.771472 0.849545 0.947235
O O9 0.186347 0.022449 0.293913
O O10 0.066982 0.019620 0.031466
O O11 0.067195 0.600146 0.635371
O O12 0.418299 0.262023 0.759375
O O13 0.427499 0.765211 0.765648
#
# Coordination Sequence:
#
# PCOD8048106 Si02
#       7
#     4   4   4   2   4   4   4
#     4  10  21  30  50  72 114 146 183 223 273 332
#     4  10  20  39  54  81 112 155 187 244 282 330
#     4   9  18  33  44  75 109 144 171 232 285 328
#     4  12  24  38  56  88 112 166 194 230 274 352
#     4  10  17  30  53  78 103 143 180 231 274 340
#     4  10  23  36  57  76 117 154 198 230 282 334
#     4   9  17  28  52  75 104 138 181 223 290 335
#
# _framework density 21.954442
#
# number of rings (size 3 to 8) (size 9 to 14) (size 15 to 20)
#    0.000    2.154    1.538    1.846    4.308    6.154 
#    0.000    0.000    0.000    0.000    0.000    4.308 
#    0.000    0.000    0.000    0.000    0.000    0.000 
#
# Total GULP energy -161205.684246 kJ/mol
# GULP energy per Si atom -12400.437250 kJ/mol
# Density = 2.190447 g / cm^3
# Si number density = 21.954442 Si / 1000 Ang^3
#
#
#
# Elastic Constant Matrix: (Units=GPa)
#
#
# Indices 1 2 3 4 5 6 
#
# 1 202.3536 73.5817 28.2630 0.0000 10.3574 0.0003
# 2 73.5817 191.3235 17.1826 0.0010 4.4006 0.0003
# 3 28.2630 17.1826 40.6763 0.0000 -7.7588 0.0003
# 4 0.0000 0.0010 0.0000 9.2833 -0.0001 3.6256
# 5 10.3574 4.4006 -7.7588 -0.0001 30.1105 0.0002
# 6 0.0003 0.0003 0.0003 3.6256 0.0002 43.9623
#
#
#
# Elastic Compliance Matrix: (Units=1/GPa)
#
#
# Indices 1 2 3 4 5 6 
#
# 1 0.006413 -0.002023 -0.004171 0.000000 -0.002985 0.000000
# 2 -0.002023 0.006133 -0.001286 -0.000001 -0.000532 0.000000
# 3 -0.004171 -0.001286 0.029800 0.000000 0.009301 0.000000
# 4 0.000000 -0.000001 0.000000 0.111305 0.000000 -0.009180
# 5 -0.002985 -0.000532 0.009301 0.000000 0.036712 0.000000
# 6 0.000000 0.000000 0.000000 -0.009180 0.000000 0.023504
#
#
# Mechanical properties :
#
#
# Convention : Reuss Voigt Hill
#
# Bulk Modulus (GPa) = 36.51603 74.71198 55.61401
# Shear Modulus (GPa) = 21.01245 37.69297 29.35271
#
# Velocity S-wave (km/s) = 3.09705 4.14801 3.66044
# Velocity P-wave (km/s) = 5.42749 7.55286 6.57660
#
# Compressibility (1/GPa) = 0.02738523
#
# Stress axis : x y z
#
# Youngs Moduli (GPa) = 155.93855 163.06367 33.55744
#
# Poissons Ratio (x) = 0.32990 0.13995
# Poissons Ratio (y) = 0.31548 0.04316
# Poissons Ratio (z) = 0.65034 0.20974
#
# Static dielectric constant tensor:
#      x y z
#    x 4.368450 0.000000 -0.026010 
#    y 0.000000 4.067210 0.000000 
#    z -0.026010 0.000000 3.317880 
# 
# 
# High freq. dielectric constant tensor:
#      x y z
#    x 1.885290 0.000000 0.006720 
#    y 0.000000 1.878960 0.000000 
#    z 0.006720 0.000000 1.800260 
# 
# From -- ./inp_files/67693.got.cif
#   From: 2010.03.12/outbox.cif.g09.slc.cpg/sg5_34_cif.got.tgz:67693.got - 2010.03.31 09:47:26.
