data_PCOD8048066
_publ_section_title
;
Structure prediction by ZEFSAII (Michael W. Deem and Ramdas Pophale) SiO2 
 PCOD8048066
Probable space group: C 2
;
_chemical_formula_sum "Si O2"
_cell_formula_units_Z 18
_cell_length_a 7.285178
_cell_length_b 16.917002
_cell_length_c 13.992836
_cell_angle_alpha 90.000000
_cell_angle_beta 142.780679
_cell_angle_gamma 90.000000
_cell_volume 1043.109002
_symmetry_space_group_name_H-M "C 2"
_symmetry_group_IT_number 5
_symmetry_cell_setting 'monoclinic'
loop_
_space_group_symop_operation_xyz
x,y,z
-x,y,-z
1/2+x,1/2+y,z
1/2-x,1/2+y,-z
loop_
_atom_site_type_symbol
_atom_site_label
_atom_site_fract_x
_atom_site_fract_y
_atom_site_fract_z
Si Si1 0.254123 0.634930 0.822325
Si Si2 0.241888 0.246023 0.672939
Si Si3 0.500000 0.897238 0.500000
Si Si4 0.252776 0.030149 0.527852
Si Si5 0.342161 0.672549 0.651749
O O1 0.424217 0.663029 0.796890
O O2 0.069619 0.707383 0.794094
O O3 0.039019 0.562651 0.705249
O O4 0.500000 0.604466 0.000000
O O5 0.252877 0.339898 0.654840
O O6 0.000000 0.203095 0.500000
O O7 0.100191 0.231462 0.719126
O O8 0.338096 0.948154 0.513637
O O9 0.144466 0.089356 0.399343
O O10 0.000000 0.010554 0.500000
O O11 0.000000 0.708190 0.500000
#
# Coordination Sequence:
#
# PCOD8048066 Si02
#       5
#     4   4   2   4   4
#     4  11  21  34  59  85 111 143 185 227 273 325
#     4  10  19  36  56  84 106 141 191 229 259 327
#     4  10  20  32  62  82 110 136 192 228 268 314
#     4  11  18  34  58  84 106 143 187 226 267 321
#     4  10  16  33  59  76 105 143 186 223 258 320
#
# _framework density 17.256107
#
# number of rings (size 3 to 8) (size 9 to 14) (size 15 to 20)
#    0.667    0.889   10.000    0.000    0.000    3.556 
#    0.000    0.000    9.778    0.000    0.000    0.000 
#    0.000    0.000    0.000    0.000    0.000    0.000 
#
# Total GULP energy -111552.200138 kJ/mol
# GULP energy per Si atom -12394.688904 kJ/mol
# Density = 1.721683 g / cm^3
# Si number density = 17.256107 Si / 1000 Ang^3
#
#
#
# Elastic Constant Matrix: (Units=GPa)
#
#
# Indices 1 2 3 4 5 6 
#
# 1 160.5605 61.3920 45.4857 0.0002 -18.1474 0.0000
# 2 61.3920 109.1972 30.7341 0.0001 -0.4051 0.0000
# 3 45.4857 30.7341 87.5289 0.0014 -17.3579 0.0003
# 4 0.0002 0.0001 0.0014 14.1768 0.0005 -4.7766
# 5 -18.1474 -0.4051 -17.3579 0.0005 20.2281 0.0000
# 6 0.0000 0.0000 0.0003 -4.7766 0.0000 30.0639
#
#
#
# Elastic Compliance Matrix: (Units=1/GPa)
#
#
# Indices 1 2 3 4 5 6 
#
# 1 0.009297 -0.004675 -0.001873 0.000000 0.006640 0.000000
# 2 -0.004675 0.012716 -0.003394 0.000001 -0.006852 0.000000
# 3 -0.001873 -0.003394 0.015959 -0.000002 0.011946 0.000000
# 4 0.000000 0.000001 -0.000002 0.074528 -0.000004 0.011841
# 5 0.006640 -0.006852 0.011946 -0.000004 0.065507 -0.000001
# 6 0.000000 0.000000 0.000000 0.011841 -0.000001 0.035144
#
#
# Mechanical properties :
#
#
# Convention : Reuss Voigt Hill
#
# Bulk Modulus (GPa) = 55.28793 70.27893 62.78343
# Shear Modulus (GPa) = 20.91490 27.53874 24.22682
#
# Velocity S-wave (km/s) = 3.48520 3.99919 3.75101
# Velocity P-wave (km/s) = 6.95015 7.88290 7.43117
#
# Compressibility (1/GPa) = 0.01808713
#
# Stress axis : x y z
#
# Youngs Moduli (GPa) = 107.56455 78.64091 62.66020
#
# Poissons Ratio (x) = 0.36764 0.11736
# Poissons Ratio (y) = 0.50286 0.21270
# Poissons Ratio (z) = 0.20146 0.26694
#
# Static dielectric constant tensor:
#      x y z
#    x 3.495590 0.000000 -0.186330 
#    y 0.000000 2.991910 0.000000 
#    z -0.186330 0.000000 2.839420 
# 
# 
# High freq. dielectric constant tensor:
#      x y z
#    x 1.691380 0.000000 -0.016030 
#    y 0.000000 1.643360 0.000000 
#    z -0.016030 0.000000 1.625060 
# 
# From -- ./inp_files/50679.got.cif
#   From: 2010.03.12/outbox.cif.g09.slc.cpg/sg5_26_cif.got.tgz:50679.got - 2010.03.31 09:47:26.
