data_PCOD8048553
_publ_section_title
;
Structure prediction by ZEFSAII (Michael W. Deem and Ramdas Pophale) SiO2 
 PCOD8048553
Probable space group: C 2
;
_chemical_formula_sum "Si O2"
_cell_formula_units_Z 22
_cell_length_a 10.492324
_cell_length_b 16.093706
_cell_length_c 13.888528
_cell_angle_alpha 90.000000
_cell_angle_beta 149.218296
_cell_angle_gamma 90.000000
_cell_volume 1200.210908
_symmetry_space_group_name_H-M "C 2"
_symmetry_group_IT_number 5
_symmetry_cell_setting 'monoclinic'
loop_
_space_group_symop_operation_xyz
x,y,z
-x,y,-z
1/2+x,1/2+y,z
1/2-x,1/2+y,-z
loop_
_atom_site_type_symbol
_atom_site_label
_atom_site_fract_x
_atom_site_fract_y
_atom_site_fract_z
Si Si1 0.116053 0.474120 0.879175
Si Si2 0.129609 0.389629 0.446221
Si Si3 0.222911 0.608313 0.813912
Si Si4 0.174050 0.948190 0.239365
Si Si5 0.034183 0.780523 0.634793
Si Si6 0.000000 0.392609 0.000000
O O1 0.133106 0.571985 0.860338
O O2 0.896847 0.432693 0.675023
O O3 0.061888 0.457058 0.954905
O O4 0.386227 0.434814 0.024680
O O5 0.291191 0.448831 0.622567
O O6 0.283048 0.305606 0.528573
O O7 0.852237 0.374731 0.311465
O O8 0.214823 0.533623 0.731503
O O9 0.051293 0.683223 0.668575
O O10 0.500000 0.645142 0.000000
O O11 0.000000 0.795513 0.500000
O O12 0.267093 0.833881 0.824588
#
# Coordination Sequence:
#
# PCOD8048553 Si02
#       6
#     4   4   4   4   4   2
#     4  10  20  37  59  86 115 153 196 237 279 352
#     4  10  19  33  56  86 111 150 197 231 286 332
#     4   9  20  37  59  85 116 153 196 238 289 333
#     4   9  19  36  60  82 113 154 201 236 266 355
#     4  12  23  35  56  90 124 148 186 249 294 338
#     4  12  22  38  56  90 122 152 190 238 296 340
#
# _framework density 18.330110999999999
#
# number of rings (size 3 to 8) (size 9 to 14) (size 15 to 20)
#    0.000    1.818    4.545    1.636    5.091    0.000 
#    0.000    0.000    0.000   24.000    0.000    0.000 
#    0.000    0.000    0.000    0.000    0.000    0.000 
#
# Total GULP energy -136275.362737 kJ/mol
# GULP energy per Si atom -12388.669340 kJ/mol
# Density = 1.828839 g / cm^3
# Si number density = 18.330111 Si / 1000 Ang^3
#
#
#
# Elastic Constant Matrix: (Units=GPa)
#
#
# Indices 1 2 3 4 5 6 
#
# 1 111.0565 63.4175 41.1093 -0.0132 -9.4368 -0.0068
# 2 63.4175 90.1706 45.8851 -0.0328 -1.6696 -0.0160
# 3 41.1093 45.8851 98.0112 -0.0559 -7.6552 -0.0322
# 4 -0.0132 -0.0328 -0.0559 32.8295 -0.0157 -0.4342
# 5 -9.4368 -1.6696 -7.6552 -0.0157 37.9957 -0.0066
# 6 -0.0068 -0.0160 -0.0322 -0.4342 -0.0066 23.3617
#
#
#
# Elastic Compliance Matrix: (Units=1/GPa)
#
#
# Indices 1 2 3 4 5 6 
#
# 1 0.015645 -0.010148 -0.001567 -0.000005 0.003124 -0.000004
# 2 -0.010148 0.021161 -0.005867 0.000006 -0.002773 0.000003
# 3 -0.001567 -0.005867 0.013773 0.000018 0.002128 0.000015
# 4 -0.000005 0.000006 0.000018 0.030468 0.000015 0.000566
# 5 0.003124 -0.002773 0.002128 0.000015 0.027402 0.000010
# 6 -0.000004 0.000003 0.000015 0.000566 0.000010 0.042816
#
#
# Mechanical properties :
#
#
# Convention : Reuss Voigt Hill
#
# Bulk Modulus (GPa) = 64.87111 66.67360 65.77235
# Shear Modulus (GPa) = 26.10055 28.75913 27.42984
#
# Velocity S-wave (km/s) = 3.77758 3.96530 3.87258
# Velocity P-wave (km/s) = 7.38201 7.57744 7.48036
#
# Compressibility (1/GPa) = 0.01541518
#
# Stress axis : x y z
#
# Youngs Moduli (GPa) = 63.91948 47.25612 72.60449
#
# Poissons Ratio (x) = 0.47954 0.11378
# Poissons Ratio (y) = 0.64863 0.42598
# Poissons Ratio (z) = 0.10017 0.27726
#
# Static dielectric constant tensor:
#      x y z
#    x 3.475250 -0.000020 -0.060140 
#    y -0.000020 3.063190 -0.000010 
#    z -0.060140 -0.000010 3.721280 
# 
# 
# High freq. dielectric constant tensor:
#      x y z
#    x 1.705330 0.000000 -0.009140 
#    y 0.000000 1.667130 0.000000 
#    z -0.009140 0.000000 1.737450 
# 
# From -- ./inp_files/39939.got.cif
#   From: 2010.03.12/outbox.cif.g09.slc.cpg/sg5_20_cif.got.tgz:39939.got - 2010.03.31 09:47:26.
