data_PCOD8048004
_publ_section_title
;
Structure prediction by ZEFSAII (Michael W. Deem and Ramdas Pophale) SiO2 
 PCOD8048004
Probable space group: P 21
;
_chemical_formula_sum "Si O2"
_cell_formula_units_Z 10
_cell_length_a 15.750887
_cell_length_b 5.065863
_cell_length_c 16.570255
_cell_angle_alpha 90.000000
_cell_angle_beta 18.091407
_cell_angle_gamma 90.000000
_cell_volume 410.578899
_symmetry_space_group_name_H-M "P 21"
_symmetry_group_IT_number 4
_symmetry_cell_setting 'monoclinic'
loop_
_space_group_symop_operation_xyz
x,y,z
-x,1/2+y,-z
loop_
_atom_site_type_symbol
_atom_site_label
_atom_site_fract_x
_atom_site_fract_y
_atom_site_fract_z
Si Si1 0.943617 0.206190 0.499963
Si Si2 0.357986 0.039343 0.737174
Si Si3 0.333426 0.206042 0.999947
Si Si4 0.832357 0.372768 0.262805
Si Si5 0.220090 0.706040 0.999963
O O1 0.638129 0.126467 0.750420
O O2 0.921118 0.456349 0.578803
O O3 0.139086 0.285643 0.249456
O O4 0.632424 0.206053 0.499984
O O5 0.330018 0.956061 0.669981
O O6 0.097633 0.206055 0.999989
O O7 0.393647 0.786760 0.763464
O O8 0.359704 0.456678 0.917183
O O9 0.194187 0.955368 0.082717
O O10 0.920620 0.625345 0.236494
#
# Coordination Sequence:
#
# PCOD8048004 Si02
#       5
#     2   2   2   2   2
#     4  12  26  52  80 110 150 194 246 302 384 488
#     4  12  27  47  74 107 153 216 271 324 382 453
#     4  12  28  46  80 116 150 196 246 318 392 452
#     4  12  27  47  74 107 153 216 271 324 382 453
#     4  12  28  50  74 116 160 196 262 326 386 446
#
# _framework density 24.355855999999999
#
# number of rings (size 3 to 8) (size 9 to 14) (size 15 to 20)
#    0.000    0.000    4.000    4.800    2.800    3.200 
#    0.000    0.000    0.000    0.000    0.000    0.000 
#    0.000    0.000    0.000    0.000    0.000    0.000 
#
# Total GULP energy -124059.390144 kJ/mol
# GULP energy per Si atom -12405.939014 kJ/mol
# Density = 2.430042 g / cm^3
# Si number density = 24.355856 Si / 1000 Ang^3
#
#
#
# Elastic Constant Matrix: (Units=GPa)
#
#
# Indices 1 2 3 4 5 6 
#
# 1 142.6888 63.0929 40.1461 0.0000 -12.4977 0.0000
# 2 63.0929 173.8497 46.0295 0.0000 2.1502 0.0000
# 3 40.1461 46.0295 164.3490 0.0000 10.6677 0.0000
# 4 0.0000 0.0000 0.0000 44.7318 0.0000 -1.4872
# 5 -12.4977 2.1502 10.6677 0.0000 119.8769 0.0000
# 6 0.0000 0.0000 0.0000 -1.4872 0.0000 28.4002
#
#
#
# Elastic Compliance Matrix: (Units=1/GPa)
#
#
# Indices 1 2 3 4 5 6 
#
# 1 0.008746 -0.002812 -0.001420 0.000000 0.001089 0.000000
# 2 -0.002812 0.007117 -0.001287 0.000000 -0.000306 0.000000
# 3 -0.001420 -0.001287 0.006839 0.000000 -0.000734 0.000000
# 4 0.000000 0.000000 0.000000 0.022394 0.000000 0.001173
# 5 0.001089 -0.000306 -0.000734 0.000000 0.008526 0.000000
# 6 0.000000 0.000000 0.000000 0.001173 0.000000 0.035272
#
#
# Mechanical properties :
#
#
# Convention : Reuss Voigt Hill
#
# Bulk Modulus (GPa) = 85.71418 86.60272 86.15845
# Shear Modulus (GPa) = 48.16005 60.70970 54.43487
#
# Velocity S-wave (km/s) = 4.45156 4.99802 4.73269
# Velocity P-wave (km/s) = 7.85434 8.30310 8.08184
#
# Compressibility (1/GPa) = 0.01166668
#
# Stress axis : x y z
#
# Youngs Moduli (GPa) = 114.33387 140.50960 146.21303
#
# Poissons Ratio (x) = 0.39508 0.20757
# Poissons Ratio (y) = 0.32148 0.18811
# Poissons Ratio (z) = 0.16232 0.18077
#
# Static dielectric constant tensor:
#      x y z
#    x 4.787100 0.000000 0.050490 
#    y 0.000000 4.663120 0.000000 
#    z 0.050490 0.000000 4.232000 
# 
# 
# High freq. dielectric constant tensor:
#      x y z
#    x 1.980930 0.000000 0.001030 
#    y 0.000000 1.985680 0.000000 
#    z 0.001030 0.000000 1.969580 
# 
# From -- ./inp_files/14018.got.cif
#   From: 2010.03.12/outbox.cif.g09.slc.cpg/sg4_8_cif.got.tgz:14018.got - 2010.03.31 09:31:35.
