data_PCOD8048641
_publ_section_title
;
Structure prediction by ZEFSAII (Michael W. Deem and Ramdas Pophale) SiO2 
 PCOD8048641
Probable space group: C 2
;
_chemical_formula_sum "Si O2"
_cell_formula_units_Z 30
_cell_length_a 13.498539
_cell_length_b 10.321515
_cell_length_c 20.051221
_cell_angle_alpha 90.000000
_cell_angle_beta 145.407239
_cell_angle_gamma 90.000000
_cell_volume 1586.062633
_symmetry_space_group_name_H-M "C 2"
_symmetry_group_IT_number 5
_symmetry_cell_setting 'monoclinic'
loop_
_space_group_symop_operation_xyz
x,y,z
-x,y,-z
1/2+x,1/2+y,z
1/2-x,1/2+y,-z
loop_
_atom_site_type_symbol
_atom_site_label
_atom_site_fract_x
_atom_site_fract_y
_atom_site_fract_z
Si Si1 0.000000 0.820130 0.500000
Si Si2 0.638537 0.248235 0.443657
Si Si3 0.745049 0.510071 0.700942
Si Si4 0.050392 0.390326 0.953029
Si Si5 0.921444 0.965835 0.153851
Si Si6 0.485820 0.175264 0.224081
Si Si7 0.069613 0.039340 0.375062
Si Si8 0.392143 0.605920 0.008030
O O1 0.035882 0.729964 0.456254
O O2 0.168455 0.910392 0.604785
O O3 0.512354 0.189479 0.317873
O O4 0.815116 0.165790 0.546082
O O5 0.668596 0.402903 0.446387
O O6 0.835920 0.624013 0.709976
O O7 0.595910 0.559254 0.668430
O O8 0.888999 0.440713 0.823585
O O9 0.096439 0.247630 0.952620
O O10 0.212525 0.489186 0.040412
O O11 0.000000 0.368382 0.000000
O O12 0.959102 0.814606 0.177093
O O13 0.978291 0.014153 0.112086
O O14 0.013170 0.041164 0.265945
O O15 0.316422 0.082443 0.120467
O O16 0.500000 0.583818 0.000000
#
# Coordination Sequence:
#
# PCOD8048641 Si02
#       8
#     2   4   4   4   4   4   4   4
#     4  10  24  36  64  88 114 150 218 238 282 356
#     4  10  22  41  59  91 116 159 197 252 292 350
#     4  11  20  39  62  89 112 160 197 245 283 369
#     4  10  19  35  61  85 112 150 198 239 291 345
#     4  10  20  38  55  89 118 154 189 248 297 350
#     4  10  21  38  59  81 125 155 191 244 302 350
#     4  10  22  39  66  86 124 148 208 244 300 349
#     4  10  22  35  57  85 119 154 194 240 295 349
#
# _framework density 18.914764999999999
#
# number of rings (size 3 to 8) (size 9 to 14) (size 15 to 20)
#    0.000    1.867    2.667    1.600    7.467    0.000 
#    0.000    8.667    0.000    0.000    0.000    0.000 
#    0.000    0.000    0.000    0.000    0.000    0.000 
#
# Total GULP energy -185918.190486 kJ/mol
# GULP energy per Si atom -12394.546032 kJ/mol
# Density = 1.887171 g / cm^3
# Si number density = 18.914765 Si / 1000 Ang^3
#
#
#
# Elastic Constant Matrix: (Units=GPa)
#
#
# Indices 1 2 3 4 5 6 
#
# 1 131.1803 55.7253 52.3705 0.0000 -14.0815 0.0000
# 2 55.7253 62.8307 61.0101 0.0001 -1.9492 0.0000
# 3 52.3705 61.0101 121.4977 0.0009 -8.5406 0.0000
# 4 0.0000 0.0001 0.0009 34.5618 0.0001 3.1021
# 5 -14.0815 -1.9492 -8.5406 0.0001 37.2346 0.0000
# 6 0.0000 0.0000 0.0000 3.1021 0.0000 27.2979
#
#
#
# Elastic Compliance Matrix: (Units=1/GPa)
#
#
# Indices 1 2 3 4 5 6 
#
# 1 0.012920 -0.012133 0.000836 0.000000 0.004443 0.000000
# 2 -0.012133 0.042599 -0.016595 0.000000 -0.006165 0.000000
# 3 0.000836 -0.016595 0.016430 0.000000 0.003216 0.000000
# 4 0.000000 0.000000 0.000000 0.029232 0.000000 -0.003322
# 5 0.004443 -0.006165 0.003216 0.000000 0.028952 0.000000
# 6 0.000000 0.000000 0.000000 -0.003322 0.000000 0.037010
#
#
# Mechanical properties :
#
#
# Convention : Reuss Voigt Hill
#
# Bulk Modulus (GPa) = 61.86162 72.63562 67.24862
# Shear Modulus (GPa) = 21.89950 29.57906 25.73928
#
# Velocity S-wave (km/s) = 3.40634 3.95879 3.69291
# Velocity P-wave (km/s) = 6.94603 7.70590 7.33581
#
# Compressibility (1/GPa) = 0.01616511
#
# Stress axis : x y z
#
# Youngs Moduli (GPa) = 77.39679 23.47461 60.86571
#
# Poissons Ratio (x) = 0.28481 -0.05086
# Poissons Ratio (y) = 0.93904 1.01006
# Poissons Ratio (z) = -0.06467 0.38956
#
# Static dielectric constant tensor:
#      x y z
#    x 3.577900 0.000000 -0.144670 
#    y 0.000000 3.562980 0.000000 
#    z -0.144670 0.000000 3.685670 
# 
# 
# High freq. dielectric constant tensor:
#      x y z
#    x 1.740990 0.000000 -0.013860 
#    y 0.000000 1.712970 0.000000 
#    z -0.013860 0.000000 1.749000 
# 
# From -- ./inp_files/47445.got.cif
#   From: 2010.03.12/outbox.cif.g09.slc.cpg/sg5_24_cif.got.tgz:47445.got - 2010.03.31 09:47:26.
