data_PCOD8048649
_publ_section_title
;
Structure prediction by ZEFSAII (Michael W. Deem and Ramdas Pophale) SiO2 
 PCOD8048649
Probable space group: C 2
;
_chemical_formula_sum "Si O2"
_cell_formula_units_Z 28
_cell_length_a 32.595555
_cell_length_b 5.184354
_cell_length_c 8.508655
_cell_angle_alpha 90.000000
_cell_angle_beta 113.342599
_cell_angle_gamma 90.000000
_cell_volume 1320.166013
_symmetry_space_group_name_H-M "C 2"
_symmetry_group_IT_number 5
_symmetry_cell_setting 'monoclinic'
loop_
_space_group_symop_operation_xyz
x,y,z
-x,y,-z
1/2+x,1/2+y,z
1/2-x,1/2+y,-z
loop_
_atom_site_type_symbol
_atom_site_label
_atom_site_fract_x
_atom_site_fract_y
_atom_site_fract_z
Si Si1 0.125008 0.033640 0.407992
Si Si2 0.335486 0.474765 0.862488
Si Si3 0.754384 0.546431 0.109064
Si Si4 0.982690 0.514774 0.151716
Si Si5 0.646300 0.034194 0.629675
Si Si6 0.478051 0.514181 0.795239
Si Si7 0.119417 0.475054 0.935216
O O1 0.158451 0.988418 0.314689
O O2 0.130950 0.322111 0.480958
O O3 0.074917 0.004150 0.269115
O O4 0.135664 0.822132 0.555764
O O5 0.283440 0.520595 0.816372
O O6 0.364706 0.691023 0.993300
O O7 0.348201 0.192145 0.945042
O O8 0.801276 0.499380 0.263727
O O9 0.747116 0.333561 0.963516
O O10 0.929564 0.518118 0.070892
O O11 0.003964 0.265724 0.270589
O O12 0.002951 0.765998 0.269407
O O13 0.000000 0.521170 0.000000
O O14 0.618573 0.991523 0.746356
O O15 0.500000 0.521749 0.000000
#
# Coordination Sequence:
#
# PCOD8048649 Si02
#       7
#     4   4   4   4   4   4   4
#     4  12  26  43  67 103 139 174 220 283 348 380
#     4  12  23  42  72  98 129 182 235 266 321 414
#     4  12  23  45  70 100 132 176 230 270 328 402
#     4  10  19  35  62  92 122 160 222 280 306 369
#     4  12  26  44  65 100 146 170 215 291 344 391
#     4  10  20  39  62  90 128 171 216 272 317 390
#     4  12  23  42  70 101 128 184 230 270 332 405
#
# _framework density 21.209454999999998
#
# number of rings (size 3 to 8) (size 9 to 14) (size 15 to 20)
#    0.000    0.571    2.857    7.714    0.000    1.143 
#    0.000    4.286    0.000    0.000    0.000    0.000 
#    0.000    0.000    0.000    0.000    0.000    0.000 
#
# Total GULP energy -173640.748076 kJ/mol
# GULP energy per Si atom -12402.910577 kJ/mol
# Density = 2.116118 g / cm^3
# Si number density = 21.209455 Si / 1000 Ang^3
#
#
#
# Elastic Constant Matrix: (Units=GPa)
#
#
# Indices 1 2 3 4 5 6 
#
# 1 140.4103 15.0125 39.3798 0.0000 29.2919 0.0000
# 2 15.0125 138.5608 10.0617 0.0000 3.3224 0.0000
# 3 39.3798 10.0617 71.5560 0.0000 0.0543 0.0000
# 4 0.0000 0.0000 0.0000 37.3733 0.0000 5.3970
# 5 29.2919 3.3224 0.0543 0.0000 33.5316 0.0000
# 6 0.0000 0.0000 0.0000 5.3970 0.0000 32.4453
#
#
#
# Elastic Compliance Matrix: (Units=1/GPa)
#
#
# Indices 1 2 3 4 5 6 
#
# 1 0.010766 -0.000518 -0.005845 0.000000 -0.009344 0.000000
# 2 -0.000518 0.007334 -0.000746 0.000000 -0.000273 0.000000
# 3 -0.005845 -0.000746 0.017293 0.000000 0.005152 0.000000
# 4 0.000000 0.000000 0.000000 0.027416 0.000000 -0.004560
# 5 -0.009344 -0.000273 0.005152 0.000000 0.038004 0.000000
# 6 0.000000 0.000000 0.000000 -0.004560 0.000000 0.031580
#
#
# Mechanical properties :
#
#
# Convention : Reuss Voigt Hill
#
# Bulk Modulus (GPa) = 47.22601 53.27055 50.24828
# Shear Modulus (GPa) = 32.53774 39.74160 36.13967
#
# Velocity S-wave (km/s) = 3.92103 4.33340 4.13236
# Velocity P-wave (km/s) = 6.54325 7.08581 6.81993
#
# Compressibility (1/GPa) = 0.02117477
#
# Stress axis : x y z
#
# Youngs Moduli (GPa) = 92.88543 136.35338 57.82777
#
# Poissons Ratio (x) = 0.07063 0.33800
# Poissons Ratio (y) = 0.04811 0.04314
# Poissons Ratio (z) = 0.54291 0.10172
#
# Static dielectric constant tensor:
#      x y z
#    x 4.058790 0.000000 0.113890 
#    y 0.000000 2.634020 0.000000 
#    z 0.113890 0.000000 3.567890 
# 
# 
# High freq. dielectric constant tensor:
#      x y z
#    x 1.844420 0.000000 0.010710 
#    y 0.000000 1.867540 0.000000 
#    z 0.010710 0.000000 1.803720 
# 
# From -- ./inp_files/32315.got.cif
#   From: 2010.03.12/outbox.cif.g09.slc.cpg/sg5_17_cif.got.tgz:32315.got - 2010.03.31 09:47:26.
