data_PCOD8048242
_publ_section_title
;
Structure prediction by ZEFSAII (Michael W. Deem and Ramdas Pophale) SiO2 
 PCOD8048242
Probable space group: C 2
;
_chemical_formula_sum "Si O2"
_cell_formula_units_Z 30
_cell_length_a 19.226448
_cell_length_b 8.700595
_cell_length_c 10.729261
_cell_angle_alpha 90.000000
_cell_angle_beta 61.740827
_cell_angle_gamma 90.000000
_cell_volume 1580.893078
_symmetry_space_group_name_H-M "C 2"
_symmetry_group_IT_number 5
_symmetry_cell_setting 'monoclinic'
loop_
_space_group_symop_operation_xyz
x,y,z
-x,y,-z
1/2+x,1/2+y,z
1/2-x,1/2+y,-z
loop_
_atom_site_type_symbol
_atom_site_label
_atom_site_fract_x
_atom_site_fract_y
_atom_site_fract_z
Si Si1 0.010427 0.477050 0.201594
Si Si2 0.864352 0.712605 0.971803
Si Si3 0.204716 0.730686 0.241277
Si Si4 0.078517 0.292246 0.372992
Si Si5 0.421312 0.094166 0.494252
Si Si6 0.208027 0.073162 0.187042
Si Si7 0.145499 0.054528 0.964402
Si Si8 0.500000 0.755795 0.000000
O O1 0.063932 0.593573 0.074386
O O2 0.062542 0.371914 0.252083
O O3 0.943450 0.579288 0.329068
O O4 0.969315 0.361280 0.139828
O O5 0.847816 0.712444 0.838007
O O6 0.881189 0.876852 0.022339
O O7 0.789822 0.660094 0.114115
O O8 0.150794 0.707121 0.410836
O O9 0.231140 0.907381 0.221996
O O10 0.278036 0.610748 0.180122
O O11 0.107698 0.427169 0.438027
O O12 0.145581 0.163472 0.324727
O O13 0.000000 0.217015 0.500000
O O14 0.500000 0.148175 0.500000
O O15 0.166626 0.077437 0.089201
O O16 0.071942 0.153725 0.984783
#
# Coordination Sequence:
#
# PCOD8048242 Si02
#       8
#     4   4   4   4   4   4   4   2
#     4  10  20  35  55  81 107 153 184 221 272 330
#     4  10  19  33  55  83 113 137 183 232 290 325
#     4  10  18  33  55  86 113 139 175 236 290 325
#     4   9  17  32  50  79 111 140 177 223 281 323
#     4   9  17  32  56  81 114 137 174 226 289 328
#     4  10  19  30  55  85 114 139 176 232 289 331
#     4  10  22  33  54  80 113 152 183 229 268 325
#     4  12  22  38  56  74 116 152 198 220 256 330
#
# _framework density 18.976616
#
# number of rings (size 3 to 8) (size 9 to 14) (size 15 to 20)
#    0.000    2.400    4.000    1.600    3.733    1.067 
#    0.000    0.000    0.000    9.600    0.000    0.000 
#    0.000    0.000    0.000    0.000    0.000    0.000 
#
# Total GULP energy -185843.543764 kJ/mol
# GULP energy per Si atom -12389.569584 kJ/mol
# Density = 1.893342 g / cm^3
# Si number density = 18.976616 Si / 1000 Ang^3
#
#
#
# Elastic Constant Matrix: (Units=GPa)
#
#
# Indices 1 2 3 4 5 6 
#
# 1 48.1322 40.8387 42.7338 0.0000 -11.9666 0.0000
# 2 40.8387 106.0296 56.1122 0.0000 -13.5024 0.0000
# 3 42.7338 56.1122 111.6178 0.0000 -27.3787 0.0000
# 4 0.0000 0.0000 0.0000 30.9296 0.0000 -2.1321
# 5 -11.9666 -13.5024 -27.3787 0.0000 22.9251 0.0000
# 6 0.0000 0.0000 0.0000 -2.1321 0.0000 18.7850
#
#
#
# Elastic Compliance Matrix: (Units=1/GPa)
#
#
# Indices 1 2 3 4 5 6 
#
# 1 0.037301 -0.009290 -0.008736 0.000000 0.003566 0.000000
# 2 -0.009290 0.015164 -0.004335 0.000000 -0.001095 0.000000
# 3 -0.008736 -0.004335 0.018016 0.000000 0.014402 0.000000
# 4 0.000000 0.000000 0.000000 0.032586 0.000000 0.003699
# 5 0.003566 -0.001095 0.014402 0.000000 0.062037 0.000000
# 6 0.000000 0.000000 0.000000 0.003699 0.000000 0.053654
#
#
# Mechanical properties :
#
#
# Convention : Reuss Voigt Hill
#
# Bulk Modulus (GPa) = 38.82154 60.57212 49.69683
# Shear Modulus (GPa) = 18.37780 22.93425 20.65603
#
# Velocity S-wave (km/s) = 3.11536 3.48020 3.30282
# Velocity P-wave (km/s) = 5.78296 6.93813 6.38672
#
# Compressibility (1/GPa) = 0.02575890
#
# Stress axis : x y z
#
# Youngs Moduli (GPa) = 26.80889 65.94482 55.50575
#
# Poissons Ratio (x) = 0.61260 0.48492
# Poissons Ratio (y) = 0.24904 0.24064
# Poissons Ratio (z) = 0.23421 0.28590
#
# Static dielectric constant tensor:
#      x y z
#    x 3.122170 0.000000 -0.201620 
#    y 0.000000 3.595300 0.000000 
#    z -0.201620 0.000000 3.575950 
# 
# 
# High freq. dielectric constant tensor:
#      x y z
#    x 1.695060 0.000000 -0.025960 
#    y 0.000000 1.742180 0.000000 
#    z -0.025960 0.000000 1.732880 
# 
# From -- ./inp_files/45854.got.cif
#   From: 2010.03.12/outbox.cif.g09.slc.cpg/sg5_23_cif.got.tgz:45854.got - 2010.03.31 09:47:26.
