data_PCOD8048675
_publ_section_title
;
Structure prediction by ZEFSAII (Michael W. Deem and Ramdas Pophale) SiO2 
 PCOD8048675
Probable space group: C 2
;
_chemical_formula_sum "Si O2"
_cell_formula_units_Z 28
_cell_length_a 30.214803
_cell_length_b 9.062036
_cell_length_c 8.871367
_cell_angle_alpha 90.000000
_cell_angle_beta 145.524992
_cell_angle_gamma 90.000000
_cell_volume 1374.954615
_symmetry_space_group_name_H-M "C 2"
_symmetry_group_IT_number 5
_symmetry_cell_setting 'monoclinic'
loop_
_space_group_symop_operation_xyz
x,y,z
-x,y,-z
1/2+x,1/2+y,z
1/2-x,1/2+y,-z
loop_
_atom_site_type_symbol
_atom_site_label
_atom_site_fract_x
_atom_site_fract_y
_atom_site_fract_z
Si Si1 0.811502 0.322110 0.056519
Si Si2 0.862454 0.185961 0.630104
Si Si3 0.075545 0.687801 0.816852
Si Si4 0.038897 0.934411 0.954411
Si Si5 0.459462 0.702451 0.626552
Si Si6 0.714147 0.152974 0.005710
Si Si7 0.618432 0.869311 0.045330
O O1 0.890497 0.236477 0.318983
O O2 0.735918 0.241288 0.914242
O O3 0.813677 0.320212 0.881705
O O4 0.813319 0.490208 0.122067
O O5 0.932519 0.244232 0.720393
O O6 0.787890 0.141554 0.323467
O O7 0.844932 0.324525 0.690762
O O8 0.889119 0.043135 0.801197
O O9 0.066584 0.803636 0.925625
O O10 0.101625 0.541267 0.978040
O O11 0.000000 0.663598 0.500000
O O12 0.144458 0.737438 0.896235
O O13 0.976365 0.026690 0.678987
O O14 0.000000 0.872484 0.000000
O O15 0.535865 0.788971 0.789263
#
# Coordination Sequence:
#
# PCOD8048675 Si02
#       7
#     4   4   4   4   4   4   4
#     4  10  21  37  59  84 116 154 194 239 285 342
#     4   9  20  38  59  83 114 151 191 235 285 348
#     4  11  24  38  55  85 119 148 190 245 288 336
#     4   9  20  37  60  86 113 147 191 239 286 341
#     4   9  18  37  60  84 113 150 193 232 279 344
#     4  10  23  41  57  84 119 152 194 242 290 343
#     4  10  19  36  59  84 113 150 191 234 285 340
#
# _framework density 20.364308999999999
#
# number of rings (size 3 to 8) (size 9 to 14) (size 15 to 20)
#    0.000    2.286    0.000    3.429    0.000   11.429 
#    0.000    5.714    0.000    0.000    0.000    0.000 
#    0.000    0.000    0.000    0.000    0.000    0.000 
#
# Total GULP energy -173501.602562 kJ/mol
# GULP energy per Si atom -12392.971612 kJ/mol
# Density = 2.031796 g / cm^3
# Si number density = 20.364309 Si / 1000 Ang^3
#
#
#
# Elastic Constant Matrix: (Units=GPa)
#
#
# Indices 1 2 3 4 5 6 
#
# 1 172.2966 80.2419 16.7913 0.0000 3.6945 0.0000
# 2 80.2419 99.1188 23.5861 0.0000 -10.2099 0.0000
# 3 16.7913 23.5861 57.8118 0.0000 2.6057 0.0000
# 4 0.0000 0.0000 0.0000 20.9935 0.0000 -3.0651
# 5 3.6945 -10.2099 2.6057 0.0000 29.1017 0.0000
# 6 0.0000 0.0000 0.0000 -3.0651 0.0000 42.3512
#
#
#
# Elastic Compliance Matrix: (Units=1/GPa)
#
#
# Indices 1 2 3 4 5 6 
#
# 1 0.009818 -0.008598 0.000852 0.000000 -0.004339 0.000000
# 2 -0.008598 0.019279 -0.005745 0.000000 0.008370 0.000000
# 3 0.000852 -0.005745 0.019569 0.000000 -0.003876 0.000000
# 4 0.000000 0.000000 0.000000 0.048142 0.000000 0.003484
# 5 -0.004339 0.008370 -0.003876 0.000000 0.038196 0.000000
# 6 0.000000 0.000000 0.000000 0.003484 0.000000 0.023864
#
#
# Mechanical properties :
#
#
# Convention : Reuss Voigt Hill
#
# Bulk Modulus (GPa) = 46.12005 63.38510 54.75258
# Shear Modulus (GPa) = 25.89602 32.39647 29.14624
#
# Velocity S-wave (km/s) = 3.56987 3.99287 3.78728
# Velocity P-wave (km/s) = 6.29989 7.24227 6.78746
#
# Compressibility (1/GPa) = 0.02168254
#
# Stress axis : x y z
#
# Youngs Moduli (GPa) = 101.85103 51.87059 51.10172
#
# Poissons Ratio (x) = 0.44599 -0.04352
# Poissons Ratio (y) = 0.87572 0.29360
# Poissons Ratio (z) = -0.08675 0.29801
#
# Static dielectric constant tensor:
#      x y z
#    x 4.095470 0.000000 0.046470 
#    y 0.000000 3.600440 0.000000 
#    z 0.046470 0.000000 3.613020 
# 
# 
# High freq. dielectric constant tensor:
#      x y z
#    x 1.817600 0.000000 0.002110 
#    y 0.000000 1.782620 0.000000 
#    z 0.002110 0.000000 1.778550 
# 
# From -- ./inp_files/32512.got.cif
#   From: 2010.03.12/outbox.cif.g09.slc.cpg/sg5_17_cif.got.tgz:32512.got - 2010.03.31 09:47:26.
