data_PCOD8048587
_publ_section_title
;
Structure prediction by ZEFSAII (Michael W. Deem and Ramdas Pophale) SiO2 
 PCOD8048587
Probable space group: C 2
;
_chemical_formula_sum "Si O2"
_cell_formula_units_Z 24
_cell_length_a 8.264526
_cell_length_b 29.441165
_cell_length_c 9.429236
_cell_angle_alpha 90.000000
_cell_angle_beta 32.319507
_cell_angle_gamma 90.000000
_cell_volume 1226.622635
_symmetry_space_group_name_H-M "C 2"
_symmetry_group_IT_number 5
_symmetry_cell_setting 'monoclinic'
loop_
_space_group_symop_operation_xyz
x,y,z
-x,y,-z
1/2+x,1/2+y,z
1/2-x,1/2+y,-z
loop_
_atom_site_type_symbol
_atom_site_label
_atom_site_fract_x
_atom_site_fract_y
_atom_site_fract_z
Si Si1 0.647100 0.375000 0.738080
Si Si2 0.646045 0.571349 0.739485
Si Si3 0.351133 0.473241 0.260022
Si Si4 0.341640 0.302163 0.766880
Si Si5 0.766638 0.701864 0.910604
Si Si6 0.592758 0.656824 0.592544
O O1 0.577334 0.424886 0.716788
O O2 0.527673 0.338420 0.717146
O O3 0.000000 0.367666 0.500000
O O4 0.500000 0.368566 0.000000
O O5 0.540374 0.521571 0.753806
O O6 0.540537 0.608261 0.704487
O O7 0.000000 0.573508 0.500000
O O8 0.500000 0.581105 0.000000
O O9 0.000000 0.477976 0.500000
O O10 0.500000 0.467699 0.000000
O O11 0.500000 0.293981 0.500000
O O12 0.344438 0.254891 0.849199
O O13 0.000000 0.319926 0.000000
O O14 0.060994 0.672960 0.650218
O O15 0.500000 0.688226 0.000000
O O16 0.640593 0.691842 0.161267
O O17 0.500000 0.652292 0.500000
#
# Coordination Sequence:
#
# PCOD8048587 Si02
#       6
#     4   4   4   4   4   4
#     4  10  20  36  59  85 113 144 183 228 274 323
#     4  10  19  34  58  80 106 148 189 218 261 329
#     4   8  16  31  53  81 107 139 184 224 257 316
#     4  11  23  39  58  83 113 145 185 229 274 327
#     4  11  23  41  59  77 108 153 191 220 266 336
#     4  12  24  37  56  86 116 139 179 237 285 319
#
# _framework density 19.565919000000001
#
# number of rings (size 3 to 8) (size 9 to 14) (size 15 to 20)
#    0.000    1.667    0.000    6.500    0.000    2.000 
#    0.000    0.833    0.000    2.000    0.000    0.000 
#    0.000    0.000    0.000    0.000    0.000    0.000 
#
# Total GULP energy -148710.553730 kJ/mol
# GULP energy per Si atom -12392.546144 kJ/mol
# Density = 1.952139 g / cm^3
# Si number density = 19.565919 Si / 1000 Ang^3
#
#
#
# Elastic Constant Matrix: (Units=GPa)
#
#
# Indices 1 2 3 4 5 6 
#
# 1 79.4599 84.7966 43.4379 0.0000 8.8099 0.0000
# 2 84.7966 192.9396 61.5196 0.0000 10.9063 0.0000
# 3 43.4379 61.5196 154.4361 0.0000 0.0048 0.0000
# 4 0.0000 0.0000 0.0000 47.8034 0.0000 12.9696
# 5 8.8099 10.9063 0.0048 0.0000 33.5403 0.0000
# 6 0.0000 0.0000 0.0000 12.9696 0.0000 33.5053
#
#
#
# Elastic Compliance Matrix: (Units=1/GPa)
#
#
# Indices 1 2 3 4 5 6 
#
# 1 0.025255 -0.009899 -0.003160 0.000000 -0.003414 0.000000
# 2 -0.009899 0.009945 -0.001177 0.000000 -0.000633 0.000000
# 3 -0.003160 -0.001177 0.007833 0.000000 0.001212 0.000000
# 4 0.000000 0.000000 0.000000 0.023374 0.000000 -0.009048
# 5 -0.003414 -0.000633 0.001212 0.000000 0.030917 0.000000
# 6 0.000000 0.000000 0.000000 -0.009048 0.000000 0.033348
#
#
# Mechanical properties :
#
#
# Convention : Reuss Voigt Hill
#
# Bulk Modulus (GPa) = 68.68093 89.59377 79.13735
# Shear Modulus (GPa) = 30.48837 38.77525 34.63181
#
# Velocity S-wave (km/s) = 3.95174 4.45654 4.21171
# Velocity P-wave (km/s) = 7.48333 8.50712 8.01160
#
# Compressibility (1/GPa) = 0.01456008
#
# Stress axis : x y z
#
# Youngs Moduli (GPa) = 39.59680 100.55686 127.66683
#
# Poissons Ratio (x) = 0.99539 0.40343
# Poissons Ratio (y) = 0.39196 0.15029
# Poissons Ratio (z) = 0.12513 0.11838
#
# Static dielectric constant tensor:
#      x y z
#    x 3.047690 0.000000 -0.113700 
#    y 0.000000 4.289590 0.000000 
#    z -0.113700 0.000000 3.920440 
# 
# 
# High freq. dielectric constant tensor:
#      x y z
#    x 1.712420 0.000000 -0.008840 
#    y 0.000000 1.788320 0.000000 
#    z -0.008840 0.000000 1.795330 
# 
# From -- ./inp_files/17611.got.cif
#   From: 2010.03.12/outbox.cif.g09.slc.cpg/sg5_9_cif.got.tgz:17611.got - 2010.03.31 09:47:26.
