data_PCOD8048712
_publ_section_title
;
Structure prediction by ZEFSAII (Michael W. Deem and Ramdas Pophale) SiO2 
 PCOD8048712
Probable space group: C 2
;
_chemical_formula_sum "Si O2"
_cell_formula_units_Z 26
_cell_length_a 8.436168
_cell_length_b 15.107142
_cell_length_c 15.829191
_cell_angle_alpha 90.000000
_cell_angle_beta 142.766743
_cell_angle_gamma 90.000000
_cell_volume 1220.634570
_symmetry_space_group_name_H-M "C 2"
_symmetry_group_IT_number 5
_symmetry_cell_setting 'monoclinic'
loop_
_space_group_symop_operation_xyz
x,y,z
-x,y,-z
1/2+x,1/2+y,z
1/2-x,1/2+y,-z
loop_
_atom_site_type_symbol
_atom_site_label
_atom_site_fract_x
_atom_site_fract_y
_atom_site_fract_z
Si Si1 0.799193 0.847230 0.340753
Si Si2 0.000000 0.534034 0.500000
Si Si3 0.249064 0.282947 0.851068
Si Si4 0.898078 0.657607 0.304556
Si Si5 0.834915 0.106731 0.077670
Si Si6 0.855219 0.649150 0.765646
Si Si7 0.930601 0.999232 0.275346
O O1 0.505732 0.845313 0.255507
O O2 0.878638 0.754295 0.335885
O O3 0.000000 0.876131 0.500000
O O4 0.791597 0.916255 0.260177
O O5 0.011268 0.594664 0.423091
O O6 0.738048 0.475391 0.394248
O O7 0.207175 0.193423 0.884704
O O8 0.311308 0.249177 0.782344
O O9 0.500000 0.333378 0.000000
O O10 0.618455 0.618835 0.154237
O O11 0.105272 0.659199 0.316908
O O12 0.819082 0.021691 0.134048
O O13 0.609614 0.099354 0.912744
O O14 0.607847 0.585974 0.681179
#
# Coordination Sequence:
#
# PCOD8048712 Si02
#       7
#     4   2   4   4   4   4   4
#     4  11  23  40  58  88 132 166 199 255 315 367
#     4  10  22  42  56  82 118 172 208 254 286 374
#     4   8  17  38  62  86 118 158 202 258 302 363
#     4  10  20  37  63  90 120 160 208 251 302 364
#     4   8  17  38  63  86 119 152 204 253 298 362
#     4  10  19  36  66  93 112 157 213 251 306 370
#     4  10  22  39  60  83 123 164 198 253 316 356
#
# _framework density 21.300397
#
# number of rings (size 3 to 8) (size 9 to 14) (size 15 to 20)
#    0.000    2.462    0.769    2.769    2.154    0.000 
#    2.769   10.769    0.000    0.000    0.000    0.000 
#    0.000    0.000    0.000    0.000    0.000    0.000 
#
# Total GULP energy -161127.935802 kJ/mol
# GULP energy per Si atom -12394.456600 kJ/mol
# Density = 2.125192 g / cm^3
# Si number density = 21.300397 Si / 1000 Ang^3
#
#
#
# Elastic Constant Matrix: (Units=GPa)
#
#
# Indices 1 2 3 4 5 6 
#
# 1 122.9266 10.8828 30.4113 0.0010 -0.1970 0.0000
# 2 10.8828 44.4468 10.5130 0.0003 1.2515 -0.0001
# 3 30.4113 10.5130 83.0361 0.0055 14.5890 0.0009
# 4 0.0010 0.0003 0.0055 61.9587 0.0029 1.0796
# 5 -0.1970 1.2515 14.5890 0.0029 36.4234 0.0005
# 6 0.0000 -0.0001 0.0009 1.0796 0.0005 36.0532
#
#
#
# Elastic Compliance Matrix: (Units=1/GPa)
#
#
# Indices 1 2 3 4 5 6 
#
# 1 0.009110 -0.001466 -0.003408 0.000000 0.001465 0.000000
# 2 -0.001466 0.023435 -0.002461 0.000000 0.000172 0.000000
# 3 -0.003408 -0.002461 0.014620 -0.000001 -0.005790 0.000000
# 4 0.000000 0.000000 -0.000001 0.016148 -0.000001 -0.000484
# 5 0.001465 0.000172 -0.005790 -0.000001 0.029776 0.000000
# 6 0.000000 0.000000 0.000000 -0.000484 0.000000 0.027751
#
#
# Mechanical properties :
#
#
# Convention : Reuss Voigt Hill
#
# Bulk Modulus (GPa) = 30.77313 39.33598 35.05455
# Shear Modulus (GPa) = 34.16667 40.12724 37.14695
#
# Velocity S-wave (km/s) = 4.00939 4.34507 4.18060
# Velocity P-wave (km/s) = 5.99268 6.60910 6.30842
#
# Compressibility (1/GPa) = 0.03249588
#
# Stress axis : x y z
#
# Youngs Moduli (GPa) = 109.76647 42.67158 68.39953
#
# Poissons Ratio (x) = 0.06254 0.23313
# Poissons Ratio (y) = 0.16089 0.16830
# Poissons Ratio (z) = 0.37412 0.10499
#
# Static dielectric constant tensor:
#      x y z
#    x 2.835450 -0.000010 0.318030 
#    y -0.000010 3.423820 0.000000 
#    z 0.318030 0.000000 3.979740 
# 
# 
# High freq. dielectric constant tensor:
#      x y z
#    x 1.849390 0.000000 0.011890 
#    y 0.000000 1.792520 0.000000 
#    z 0.011890 0.000000 1.831280 
# 
# From -- ./inp_files/51065.got.cif
#   From: 2010.03.12/outbox.cif.g09.slc.cpg/sg5_26_cif.got.tgz:51065.got - 2010.03.31 09:47:26.
