data_PCOD8048097
_publ_section_title
;
Structure prediction by ZEFSAII (Michael W. Deem and Ramdas Pophale) SiO2 
 PCOD8048097
Probable space group: C 2
;
_chemical_formula_sum "Si O2"
_cell_formula_units_Z 26
_cell_length_a 10.634309
_cell_length_b 16.545666
_cell_length_c 14.437616
_cell_angle_alpha 90.000000
_cell_angle_beta 150.441880
_cell_angle_gamma 90.000000
_cell_volume 1253.157258
_symmetry_space_group_name_H-M "C 2"
_symmetry_group_IT_number 5
_symmetry_cell_setting 'monoclinic'
loop_
_space_group_symop_operation_xyz
x,y,z
-x,y,-z
1/2+x,1/2+y,z
1/2-x,1/2+y,-z
loop_
_atom_site_type_symbol
_atom_site_label
_atom_site_fract_x
_atom_site_fract_y
_atom_site_fract_z
Si Si1 0.000000 0.924300 0.000000
Si Si2 0.557854 0.446839 0.380131
Si Si3 0.303285 0.090550 0.799849
Si Si4 0.520665 0.984306 0.790774
Si Si5 0.500000 0.317993 0.500000
Si Si6 0.505900 0.820854 0.892661
Si Si7 0.000000 0.215952 0.500000
Si Si8 0.561229 0.334254 0.216034
O O1 0.198311 0.981767 0.073220
O O2 0.136188 0.864705 0.161281
O O3 0.340840 0.513886 0.250270
O O4 0.501067 0.370884 0.408260
O O5 0.552723 0.415172 0.272332
O O6 0.830133 0.483245 0.581491
O O7 0.099774 0.160462 0.647606
O O8 0.462030 0.066510 0.809127
O O9 0.500000 0.126236 0.000000
O O10 0.472256 0.911398 0.831235
O O11 0.769268 0.269591 0.691863
O O12 0.500000 0.820465 0.000000
O O13 0.783803 0.789518 0.037972
O O14 0.769376 0.271991 0.388343
#
# Coordination Sequence:
#
# PCOD8048097 Si02
#       8
#     2   4   4   4   2   4   2   4
#     4  10  22  36  60  96 128 174 216 264 318 378
#     4  11  18  36  66  97 120 161 225 275 302 367
#     4  12  22  40  68  93 126 170 219 270 320 380
#     4  10  18  34  59  93 123 158 216 272 301 372
#     4  10  17  28  58 102 121 144 210 284 309 346
#     4  10  17  32  57  92 118 155 208 269 308 351
#     4  12  27  44  56 100 139 174 202 266 345 394
#     4  11  23  38  61  91 140 172 211 267 325 386
#
# _framework density 20.747596000000001
#
# number of rings (size 3 to 8) (size 9 to 14) (size 15 to 20)
#    0.000    1.231    6.154    3.231    1.077    0.000 
#    0.000    0.000    1.692    0.000    4.000    0.000 
#    0.000    0.000    0.000    0.000    0.000    0.000 
#
# Total GULP energy -161090.862918 kJ/mol
# GULP energy per Si atom -12391.604840 kJ/mol
# Density = 2.070037 g / cm^3
# Si number density = 20.747596 Si / 1000 Ang^3
#
#
#
# Elastic Constant Matrix: (Units=GPa)
#
#
# Indices 1 2 3 4 5 6 
#
# 1 104.1470 36.9181 52.8252 0.0001 1.9440 -0.0041
# 2 36.9181 59.4839 42.1900 -0.0042 4.8088 -0.0091
# 3 52.8252 42.1900 189.3354 0.0095 13.9706 -0.0246
# 4 0.0001 -0.0042 0.0095 25.6668 0.0011 2.6257
# 5 1.9440 4.8088 13.9706 0.0011 43.9533 -0.0050
# 6 -0.0041 -0.0091 -0.0246 2.6257 -0.0050 9.5066
#
#
#
# Elastic Compliance Matrix: (Units=1/GPa)
#
#
# Indices 1 2 3 4 5 6 
#
# 1 0.013055 -0.006584 -0.002238 0.000000 0.000854 -0.000006
# 2 -0.006584 0.023314 -0.003268 0.000004 -0.001221 0.000009
# 3 -0.002238 -0.003268 0.006759 -0.000004 -0.001692 0.000014
# 4 0.000000 0.000004 -0.000004 0.040094 -0.000001 -0.011074
# 5 0.000854 -0.001221 -0.001692 -0.000001 0.023385 0.000008
# 6 -0.000006 0.000009 0.000014 -0.011074 0.000008 0.108249
#
#
# Mechanical properties :
#
#
# Convention : Reuss Voigt Hill
#
# Bulk Modulus (GPa) = 52.77707 68.53698 60.65702
# Shear Modulus (GPa) = 20.37882 30.56087 25.46985
#
# Velocity S-wave (km/s) = 3.13745 3.84211 3.50752
# Velocity P-wave (km/s) = 6.21431 7.26552 6.76038
#
# Compressibility (1/GPa) = 0.01894762
#
# Stress axis : x y z
#
# Youngs Moduli (GPa) = 76.59843 42.89219 147.94611
#
# Poissons Ratio (x) = 0.28240 0.33115
# Poissons Ratio (y) = 0.50433 0.48351
# Poissons Ratio (z) = 0.17145 0.14018
#
# Static dielectric constant tensor:
#      x y z
#    x 3.810090 0.000000 0.274490 
#    y 0.000000 3.187170 -0.000020 
#    z 0.274490 -0.000020 4.537400 
# 
# 
# High freq. dielectric constant tensor:
#      x y z
#    x 1.803410 0.000000 0.004140 
#    y 0.000000 1.741260 -0.000010 
#    z 0.004140 -0.000010 1.851250 
# 
# From -- ./inp_files/53256.got.cif
#   From: 2010.03.12/outbox.cif.g09.slc.cpg/sg5_27_cif.got.tgz:53256.got - 2010.03.31 09:47:26.
