data_PCOD8048315
_publ_section_title
;
Structure prediction by ZEFSAII (Michael W. Deem and Ramdas Pophale) SiO2 
 PCOD8048315
Probable space group: C 2
;
_chemical_formula_sum "Si O2"
_cell_formula_units_Z 28
_cell_length_a 8.898539
_cell_length_b 32.273383
_cell_length_c 5.228137
_cell_angle_alpha 90.000000
_cell_angle_beta 116.412930
_cell_angle_gamma 90.000000
_cell_volume 1344.713518
_symmetry_space_group_name_H-M "C 2"
_symmetry_group_IT_number 5
_symmetry_cell_setting 'monoclinic'
loop_
_space_group_symop_operation_xyz
x,y,z
-x,y,-z
1/2+x,1/2+y,z
1/2-x,1/2+y,-z
loop_
_atom_site_type_symbol
_atom_site_label
_atom_site_fract_x
_atom_site_fract_y
_atom_site_fract_z
Si Si1 0.603999 0.300780 0.327962
Si Si2 0.200754 0.082978 0.137765
Si Si3 0.608849 0.863970 0.335234
Si Si4 0.309993 0.174063 0.128461
Si Si5 0.812928 0.709325 0.631320
Si Si6 0.803925 0.036488 0.368033
Si Si7 0.392640 0.958334 0.669907
O O1 0.500000 0.289095 0.500000
O O2 0.728673 0.335813 0.521890
O O3 0.694220 0.258258 0.315845
O O4 0.500000 0.316824 0.000000
O O5 0.298460 0.125235 0.158851
O O6 0.266097 0.065923 0.459179
O O7 0.261800 0.051419 0.959375
O O8 0.000000 0.089565 0.000000
O O9 0.500000 0.854318 0.500000
O O10 0.674081 0.911262 0.385845
O O11 0.500000 0.853957 0.000000
O O12 0.219066 0.197539 0.296779
O O13 0.500347 0.190290 0.249566
O O14 0.217224 0.187241 0.795441
O O15 0.000000 0.039615 0.500000
O O16 0.762049 0.989447 0.415729
O O17 0.500000 0.968478 0.500000
O O18 0.500000 0.966224 0.000000
#
# Coordination Sequence:
#
# PCOD8048315 Si02
#       7
#     4   4   4   4   4   4   4
#     4  12  21  39  66  92 123 157 211 257 308 357
#     4  10  21  37  56  81 117 156 197 243 294 359
#     4  10  23  42  63  90 129 166 195 254 314 378
#     4  10  18  35  53  77 112 154 187 235 313 331
#     4  10  19  35  55  78 115 150 184 261 292 334
#     4  10  21  39  59  84 120 155 194 251 298 354
#     4  10  21  41  61  86 123 155 197 244 305 361
#
# _framework density 20.822278000000001
#
# number of rings (size 3 to 8) (size 9 to 14) (size 15 to 20)
#    0.000    1.714    2.857    2.571    0.000    0.571 
#   15.429    4.286    0.000    0.000    0.000    0.000 
#    0.000    0.000    0.000    0.000    0.000    0.000 
#
# Total GULP energy -173513.614056 kJ/mol
# GULP energy per Si atom -12393.829575 kJ/mol
# Density = 2.077489 g / cm^3
# Si number density = 20.822278 Si / 1000 Ang^3
#
#
#
# Elastic Constant Matrix: (Units=GPa)
#
#
# Indices 1 2 3 4 5 6 
#
# 1 44.7879 46.0472 46.6396 0.0000 -32.1550 0.0000
# 2 46.0472 142.2637 43.2937 0.0000 -9.0515 0.0000
# 3 46.6396 43.2937 131.0886 0.0000 -51.5301 0.0000
# 4 0.0000 0.0000 0.0000 41.6605 0.0000 -5.8678
# 5 -32.1550 -9.0515 -51.5301 0.0000 37.7771 0.0000
# 6 0.0000 0.0000 0.0000 -5.8678 0.0000 27.4830
#
#
#
# Elastic Compliance Matrix: (Units=1/GPa)
#
#
# Indices 1 2 3 4 5 6 
#
# 1 0.158130 -0.046963 0.016678 0.000000 0.146094 0.000000
# 2 -0.046963 0.021990 -0.009047 0.000000 -0.047045 0.000000
# 3 0.016678 -0.009047 0.020291 0.000000 0.039706 0.000000
# 4 0.000000 0.000000 0.000000 0.024748 0.000000 0.005284
# 5 0.146094 -0.047045 0.039706 0.000000 0.193713 0.000000
# 6 0.000000 0.000000 0.000000 0.005284 0.000000 0.037514
#
#
# Mechanical properties :
#
#
# Convention : Reuss Voigt Hill
#
# Bulk Modulus (GPa) = 8.21374 65.56680 36.89027
# Shear Modulus (GPa) = 8.68614 33.52808 21.10711
#
# Velocity S-wave (km/s) = 2.04466 4.01709 3.18729
# Velocity P-wave (km/s) = 3.08665 7.28513 5.59466
#
# Compressibility (1/GPa) = 0.12174723
#
# Stress axis : x y z
#
# Youngs Moduli (GPa) = 6.32393 45.47561 49.28388
#
# Poissons Ratio (x) = 2.13567 -0.82198
# Poissons Ratio (y) = 0.29699 0.44587
# Poissons Ratio (z) = -0.10547 0.41141
#
# Static dielectric constant tensor:
#      x y z
#    x 2.625760 0.000000 1.317550 
#    y 0.000000 3.881630 0.000000 
#    z 1.317550 0.000000 0.448680 
# 
# 
# High freq. dielectric constant tensor:
#      x y z
#    x 1.793350 0.000000 -0.040710 
#    y 0.000000 1.821490 0.000000 
#    z -0.040710 0.000000 1.829200 
# 
# From -- ./inp_files/3874.got.cif
#   From: 2010.03.12/outbox.cif.g09.slc.cpg/sg5_2_cif.got.tgz:3874.got - 2010.03.31 09:47:26.
