data_PCOD8048728
_publ_section_title
;
Structure prediction by ZEFSAII (Michael W. Deem and Ramdas Pophale) SiO2 
 PCOD8048728
Probable space group: C 2
;
_chemical_formula_sum "Si O2"
_cell_formula_units_Z 32
_cell_length_a 21.017993
_cell_length_b 9.374370
_cell_length_c 22.196070
_cell_angle_alpha 90.000000
_cell_angle_beta 21.601504
_cell_angle_gamma 90.000000
_cell_volume 1610.026397
_symmetry_space_group_name_H-M "C 2"
_symmetry_group_IT_number 5
_symmetry_cell_setting 'monoclinic'
loop_
_space_group_symop_operation_xyz
x,y,z
-x,y,-z
1/2+x,1/2+y,z
1/2-x,1/2+y,-z
loop_
_atom_site_type_symbol
_atom_site_label
_atom_site_fract_x
_atom_site_fract_y
_atom_site_fract_z
Si Si1 0.216531 0.569420 0.473298
Si Si2 0.672816 0.035235 0.375309
Si Si3 0.059642 0.963485 0.041000
Si Si4 0.141623 0.691904 0.021259
Si Si5 0.742836 0.888407 0.905419
Si Si6 0.811337 0.211758 0.153792
Si Si7 0.068458 0.170407 0.136602
Si Si8 0.929436 0.797390 0.312962
O O1 0.131567 0.565073 0.481724
O O2 0.377899 0.677094 0.330841
O O3 0.090927 0.653200 0.629219
O O4 0.268103 0.408284 0.449983
O O5 0.500000 0.958780 0.500000
O O6 0.853250 0.949039 0.209391
O O7 0.702641 0.182065 0.310507
O O8 0.148973 0.808045 0.961038
O O9 0.087451 0.018270 0.085611
O O10 0.160187 0.059577 0.904774
O O11 0.971129 0.729984 0.210689
O O12 0.148576 0.540057 0.982731
O O13 0.303602 0.699010 0.922283
O O14 0.792084 0.825640 0.796255
O O15 0.912965 0.890299 0.797631
O O16 0.592099 0.789263 0.064873
O O17 0.000000 0.278799 0.000000
#
# Coordination Sequence:
#
# PCOD8048728 Si02
#       8
#     4   4   4   4   4   4   4   4
#     4  11  22  40  57  87 124 156 203 242 303 358
#     4  10  19  37  59  81 114 159 202 242 277 353
#     4   9  18  35  56  83 114 149 199 246 289 348
#     4  11  18  35  57  85 123 146 192 249 304 355
#     4  10  20  34  60  89 115 151 199 248 302 345
#     4   9  19  37  59  83 111 152 209 249 284 346
#     4   9  17  34  55  82 117 156 188 237 295 364
#     4  11  23  38  55  91 122 159 194 243 305 366
#
# _framework density 19.875451999999999
#
# number of rings (size 3 to 8) (size 9 to 14) (size 15 to 20)
#    0.000    2.000    3.750    2.250    1.750    0.000 
#    2.250    1.875    0.000    0.000    0.000    4.375 
#    0.000    0.000    0.000    0.000    0.000    0.000 
#
# Total GULP energy -198232.414321 kJ/mol
# GULP energy per Si atom -12389.525895 kJ/mol
# Density = 1.983021 g / cm^3
# Si number density = 19.875452 Si / 1000 Ang^3
#
#
#
# Elastic Constant Matrix: (Units=GPa)
#
#
# Indices 1 2 3 4 5 6 
#
# 1 101.0249 44.1289 16.6645 0.0007 -5.1799 -0.0003
# 2 44.1289 126.6392 25.1797 -0.0092 -2.0816 0.0007
# 3 16.6645 25.1797 43.7303 -0.0055 -8.6449 0.0004
# 4 0.0007 -0.0092 -0.0055 25.1628 -0.0017 -2.1192
# 5 -5.1799 -2.0816 -8.6449 -0.0017 27.7653 0.0002
# 6 -0.0003 0.0007 0.0004 -2.1192 0.0002 22.8238
#
#
#
# Elastic Compliance Matrix: (Units=1/GPa)
#
#
# Indices 1 2 3 4 5 6 
#
# 1 0.011941 -0.003710 -0.002162 -0.000002 0.001277 0.000000
# 2 -0.003710 0.010096 -0.004674 0.000003 -0.001391 0.000000
# 3 -0.002162 -0.004674 0.027954 0.000005 0.007950 0.000000
# 4 -0.000002 0.000003 0.000005 0.040054 0.000004 0.003719
# 5 0.001277 -0.001391 0.007950 0.000004 0.038625 0.000000
# 6 0.000000 0.000000 0.000000 0.003719 0.000000 0.044159
#
#
# Mechanical properties :
#
#
# Convention : Reuss Voigt Hill
#
# Bulk Modulus (GPa) = 34.60343 49.26006 41.93175
# Shear Modulus (GPa) = 24.56329 27.51179 26.03754
#
# Velocity S-wave (km/s) = 3.51929 3.72453 3.62337
# Velocity P-wave (km/s) = 5.82768 6.58288 6.21676
#
# Compressibility (1/GPa) = 0.02889887
#
# Stress axis : x y z
#
# Youngs Moduli (GPa) = 83.74306 99.05065 35.77279
#
# Poissons Ratio (x) = 0.36750 0.07733
# Poissons Ratio (y) = 0.31071 0.16721
# Poissons Ratio (z) = 0.18104 0.46298
#
# Static dielectric constant tensor:
#      x y z
#    x 3.788460 0.000000 0.017740 
#    y 0.000000 3.500300 0.000010 
#    z 0.017740 0.000010 3.531430 
# 
# 
# High freq. dielectric constant tensor:
#      x y z
#    x 1.781490 0.000000 -0.002710 
#    y 0.000000 1.748500 0.000000 
#    z -0.002710 0.000000 1.757420 
# 
# From -- ./inp_files/32430.got.cif
#   From: 2010.03.12/outbox.cif.g09.slc.cpg/sg5_17_cif.got.tgz:32430.got - 2010.03.31 09:47:26.
