data_PCOD8048670
_publ_section_title
;
Structure prediction by ZEFSAII (Michael W. Deem and Ramdas Pophale) SiO2 
 PCOD8048670
Probable space group: C 2
;
_chemical_formula_sum "Si O2"
_cell_formula_units_Z 32
_cell_length_a 14.057427
_cell_length_b 7.806795
_cell_length_c 26.181025
_cell_angle_alpha 90.000000
_cell_angle_beta 150.096517
_cell_angle_gamma 90.000000
_cell_volume 1432.404405
_symmetry_space_group_name_H-M "C 2"
_symmetry_group_IT_number 5
_symmetry_cell_setting 'monoclinic'
loop_
_space_group_symop_operation_xyz
x,y,z
-x,y,-z
1/2+x,1/2+y,z
1/2-x,1/2+y,-z
loop_
_atom_site_type_symbol
_atom_site_label
_atom_site_fract_x
_atom_site_fract_y
_atom_site_fract_z
Si Si1 0.869799 0.288310 0.057392
Si Si2 0.334277 0.021668 0.753616
Si Si3 0.059363 0.989174 0.851174
Si Si4 0.033915 0.733693 0.758320
Si Si5 0.696844 0.863285 0.731470
Si Si6 0.145744 0.600385 0.425187
Si Si7 0.392775 0.544648 0.903111
Si Si8 0.528936 0.358938 0.453100
O O1 0.008978 0.447322 0.134071
O O2 0.955659 0.134726 0.063454
O O3 0.845064 0.179019 0.099311
O O4 0.674927 0.350594 0.940612
O O5 0.429672 0.101557 0.747792
O O6 0.210007 0.165318 0.724182
O O7 0.185035 0.874289 0.668792
O O8 0.045580 0.926852 0.786052
O O9 0.837627 0.985389 0.764408
O O10 0.255955 0.694375 0.858251
O O11 0.934192 0.726252 0.656513
O O12 0.481836 0.930520 0.625652
O O13 0.766365 0.890629 0.821824
O O14 0.353968 0.534815 0.504105
O O15 0.140460 0.704125 0.476281
O O16 0.500000 0.458121 0.000000
O O17 0.500000 0.323469 0.500000
#
# Coordination Sequence:
#
# PCOD8048670 Si02
#       8
#     4   4   4   4   4   4   4   4
#     4  11  22  37  63  91 137 181 233 279 340 416
#     4  11  22  42  66  94 134 177 228 291 347 420
#     4  10  19  36  60  97 129 185 229 275 343 412
#     4  10  20  39  64  91 135 176 218 280 348 406
#     4   9  21  38  65  91 131 177 222 280 355 414
#     4  11  24  48  71 103 138 178 229 294 359 429
#     4  10  19  36  58  87 132 179 218 279 337 405
#     4  12  25  48  74 103 138 182 234 298 361 428
#
# _framework density 22.340060999999999
#
# number of rings (size 3 to 8) (size 9 to 14) (size 15 to 20)
#    0.000    1.500    2.500    4.500    1.750    0.000 
#    6.750    3.125    0.000    0.000    0.000    0.000 
#    0.000    0.000    0.000    0.000    0.000    0.000 
#
# Total GULP energy -198254.137777 kJ/mol
# GULP energy per Si atom -12390.883611 kJ/mol
# Density = 2.228921 g / cm^3
# Si number density = 22.340061 Si / 1000 Ang^3
#
#
#
# Elastic Constant Matrix: (Units=GPa)
#
#
# Indices 1 2 3 4 5 6 
#
# 1 97.7663 25.3956 27.8702 0.0000 -12.8418 0.0001
# 2 25.3956 78.2786 7.1227 0.0000 -15.3758 0.0002
# 3 27.8702 7.1227 69.9209 -0.0001 -3.1194 0.0000
# 4 0.0000 0.0000 -0.0001 18.6690 0.0000 4.6946
# 5 -12.8418 -15.3758 -3.1194 0.0000 34.4575 0.0000
# 6 0.0001 0.0002 0.0000 4.6946 0.0000 39.6031
#
#
#
# Elastic Compliance Matrix: (Units=1/GPa)
#
#
# Indices 1 2 3 4 5 6 
#
# 1 0.012749 -0.003139 -0.004631 0.000000 0.002931 0.000000
# 2 -0.003139 0.014868 -0.000020 0.000000 0.005463 0.000000
# 3 -0.004631 -0.000020 0.016138 0.000000 -0.000274 0.000000
# 4 0.000000 0.000000 0.000000 0.055210 0.000000 -0.006545
# 5 0.002931 0.005463 -0.000274 0.000000 0.032527 0.000000
# 6 0.000000 0.000000 0.000000 -0.006545 0.000000 0.026026
#
#
# Mechanical properties :
#
#
# Convention : Reuss Voigt Hill
#
# Bulk Modulus (GPa) = 35.49222 40.74919 38.12071
# Shear Modulus (GPa) = 27.39880 30.91774 29.15827
#
# Velocity S-wave (km/s) = 3.50586 3.72420 3.61668
# Velocity P-wave (km/s) = 5.68417 6.06406 5.87719
#
# Compressibility (1/GPa) = 0.02817519
#
# Stress axis : x y z
#
# Youngs Moduli (GPa) = 78.43684 67.25823 61.96685
#
# Poissons Ratio (x) = 0.21112 0.28698
# Poissons Ratio (y) = 0.24621 0.00122
# Poissons Ratio (z) = 0.36326 0.00132
#
# Static dielectric constant tensor:
#      x y z
#    x 4.242720 0.000000 -0.097210 
#    y 0.000000 3.859330 0.000000 
#    z -0.097210 0.000000 4.034550 
# 
# 
# High freq. dielectric constant tensor:
#      x y z
#    x 1.876660 0.000000 0.005850 
#    y 0.000000 1.861720 0.000000 
#    z 0.005850 0.000000 1.885270 
# 
# From -- ./inp_files/70615.got.cif
#   From: 2010.03.12/outbox.cif.g09.slc.cpg/sg5_36_cif.got.tgz:70615.got - 2010.03.31 09:47:26.
