data_PCOD8048860
_publ_section_title
;
Structure prediction by ZEFSAII (Michael W. Deem and Ramdas Pophale) SiO2 
 PCOD8048860
Probable space group: C 2
;
_chemical_formula_sum "Si O2"
_cell_formula_units_Z 24
_cell_length_a 9.469063
_cell_length_b 19.337134
_cell_length_c 8.010395
_cell_angle_alpha 90.000000
_cell_angle_beta 133.682846
_cell_angle_gamma 90.000000
_cell_volume 1060.707951
_symmetry_space_group_name_H-M "C 2"
_symmetry_group_IT_number 5
_symmetry_cell_setting 'monoclinic'
loop_
_space_group_symop_operation_xyz
x,y,z
-x,y,-z
1/2+x,1/2+y,z
1/2-x,1/2+y,-z
loop_
_atom_site_type_symbol
_atom_site_label
_atom_site_fract_x
_atom_site_fract_y
_atom_site_fract_z
Si Si1 0.278611 0.730570 0.803094
Si Si2 0.500000 0.996995 0.000000
Si Si3 0.500000 0.362558 0.000000
Si Si4 0.280597 0.604162 0.372887
Si Si5 0.703241 0.572267 0.238074
Si Si6 0.121525 0.443952 0.754651
Si Si7 0.588673 0.247262 0.306378
O O1 0.252415 0.648980 0.782747
O O2 0.203903 0.761833 0.569834
O O3 0.145463 0.751757 0.850784
O O4 0.500000 0.755859 0.000000
O O5 0.312613 0.048220 0.830039
O O6 0.520026 0.946123 0.855034
O O7 0.334661 0.409422 0.951943
O O8 0.372272 0.313261 0.775650
O O9 0.500000 0.624403 0.500000
O O10 0.290148 0.566073 0.557738
O O11 0.154888 0.675333 0.274711
O O12 0.864526 0.524156 0.286674
O O13 0.500000 0.545999 0.000000
O O14 0.000000 0.408637 0.500000
#
# Coordination Sequence:
#
# PCOD8048860 Si02
#       7
#     4   2   2   4   4   4   4
#     4   9  20  40  72 104 132 180 227 303 361 408
#     4  12  25  44  74 110 139 176 250 290 364 420
#     4  12  29  48  64  94 149 192 238 286 334 422
#     4  11  23  39  73 111 143 178 228 307 364 422
#     4  10  19  39  68 101 144 170 222 292 367 411
#     4  12  26  47  68 100 142 193 234 289 345 425
#     4  10  23  43  64 101 142 182 238 284 349 424
#
# _framework density 22.626397000000001
#
# number of rings (size 3 to 8) (size 9 to 14) (size 15 to 20)
#    0.000    1.333    2.500    2.500    2.333    8.667 
#    7.500    0.000    0.000    0.000    0.000    0.000 
#    0.000    0.000    0.000    0.000    0.000    0.000 
#
# Total GULP energy -148735.077558 kJ/mol
# GULP energy per Si atom -12394.589797 kJ/mol
# Density = 2.257490 g / cm^3
# Si number density = 22.626397 Si / 1000 Ang^3
#
#
#
# Elastic Constant Matrix: (Units=GPa)
#
#
# Indices 1 2 3 4 5 6 
#
# 1 132.8662 34.3778 49.2744 0.0000 1.5341 0.0000
# 2 34.3778 68.5815 35.3692 0.0000 -5.0907 0.0000
# 3 49.2744 35.3692 110.9924 0.0000 9.3024 0.0000
# 4 0.0000 0.0000 0.0000 -15.5263 0.0000 -3.3079
# 5 1.5341 -5.0907 9.3024 0.0000 41.2909 0.0000
# 6 0.0000 0.0000 0.0000 -3.3079 0.0000 20.4087
#
#
#
# Elastic Compliance Matrix: (Units=1/GPa)
#
#
# Indices 1 2 3 4 5 6 
#
# 1 0.009532 -0.003107 -0.003241 0.000000 -0.000007 0.000000
# 2 -0.003107 0.018963 -0.004963 0.000000 0.003571 0.000000
# 3 -0.003241 -0.004963 0.012303 0.000000 -0.003263 0.000000
# 4 0.000000 0.000000 0.000000 -0.062257 0.000000 -0.010091
# 5 -0.000007 0.003571 -0.003263 0.000000 0.025394 0.000000
# 6 0.000000 0.000000 0.000000 -0.010091 0.000000 0.047363
#
#
# Mechanical properties :
#
#
# Convention : Reuss Voigt Hill
#
# Bulk Modulus (GPa) = 55.01510 61.16478 58.08994
# Shear Modulus (GPa) = 62.51499 22.12923 42.32211
#
# Velocity S-wave (km/s) = 5.26205 3.13074 4.32959
# Velocity P-wave (km/s) = 7.82856 6.33718 7.12201
#
# Compressibility (1/GPa) = 0.01817683
#
# Stress axis : x y z
#
# Youngs Moduli (GPa) = 104.90515 52.73336 81.27818
#
# Poissons Ratio (x) = 0.16386 0.26343
# Poissons Ratio (y) = 0.32598 0.40336
# Poissons Ratio (z) = 0.34000 0.26170
#
# Static dielectric constant tensor:
#      x y z
#    x 4.111070 0.000000 -0.163060 
#    y 0.000000 3.816380 0.000000 
#    z -0.163060 0.000000 5.076710 
# 
# 
# High freq. dielectric constant tensor:
#      x y z
#    x 1.892470 0.000000 0.002370 
#    y 0.000000 1.871120 0.000000 
#    z 0.002370 0.000000 1.906280 
# 
# From -- ./inp_files/16884.got.cif
#   From: 2010.03.12/outbox.cif.g09.slc.cpg/sg5_9_cif.got.tgz:16884.got - 2010.03.31 09:47:26.
