data_PCOD8048968
_publ_section_title
;
Structure prediction by ZEFSAII (Michael W. Deem and Ramdas Pophale) SiO2 
 PCOD8048968
Probable space group: C 2
;
_chemical_formula_sum "Si O2"
_cell_formula_units_Z 22
_cell_length_a 11.118340
_cell_length_b 20.255539
_cell_length_c 5.226439
_cell_angle_alpha 90.000000
_cell_angle_beta 65.568070
_cell_angle_gamma 90.000000
_cell_volume 1071.636054
_symmetry_space_group_name_H-M "C 2"
_symmetry_group_IT_number 5
_symmetry_cell_setting 'monoclinic'
loop_
_space_group_symop_operation_xyz
x,y,z
-x,y,-z
1/2+x,1/2+y,z
1/2-x,1/2+y,-z
loop_
_atom_site_type_symbol
_atom_site_label
_atom_site_fract_x
_atom_site_fract_y
_atom_site_fract_z
Si Si1 0.148619 0.193420 0.356093
Si Si2 0.279934 0.772598 0.200682
Si Si3 0.500000 0.227758 0.500000
Si Si4 0.846920 0.423440 0.115871
Si Si5 0.852473 0.486418 0.608122
Si Si6 0.610480 0.113399 0.717490
O O1 0.174953 0.245130 0.563360
O O2 0.250444 0.131707 0.271056
O O3 0.000000 0.165065 0.500000
O O4 0.158411 0.228319 0.074505
O O5 0.121373 0.773661 0.310713
O O6 0.328736 0.845928 0.108804
O O7 0.544301 0.181757 0.694024
O O8 0.778278 0.451374 0.434529
O O9 0.781749 0.464457 0.935065
O O10 0.000000 0.441429 0.000000
O O11 0.857975 0.565595 0.551623
O O12 0.000000 0.457113 0.500000
O O13 0.500000 0.078560 0.000000
#
# Coordination Sequence:
#
# PCOD8048968 Si02
#       6
#     4   4   2   4   4   4
#     4  11  23  37  60  91 123 162 193 253 311 366
#     4  11  22  39  60  88 128 154 209 242 312 366
#     4  10  22  36  62  94 116 170 196 264 300 370
#     4  10  20  34  54  85 115 158 193 243 300 351
#     4  10  20  33  56  85 114 150 201 251 292 345
#     4  11  20  37  60  91 125 152 211 253 310 358
#
# _framework density 20.529357999999998
#
# number of rings (size 3 to 8) (size 9 to 14) (size 15 to 20)
#    0.000    1.455    2.727    4.364    0.000    1.455 
#    0.000    0.000    2.000    0.000    9.455    0.000 
#    0.000    0.000    0.000    0.000    0.000    0.000 
#
# Total GULP energy -136340.002133 kJ/mol
# GULP energy per Si atom -12394.545648 kJ/mol
# Density = 2.048263 g / cm^3
# Si number density = 20.529358 Si / 1000 Ang^3
#
#
#
# Elastic Constant Matrix: (Units=GPa)
#
#
# Indices 1 2 3 4 5 6 
#
# 1 88.0882 16.8577 30.9487 0.0000 -12.3421 0.0000
# 2 16.8577 81.2037 31.3896 0.0000 7.6791 0.0000
# 3 30.9487 31.3896 109.7361 0.0000 15.9778 0.0000
# 4 0.0000 0.0000 0.0000 31.2682 0.0000 9.5276
# 5 -12.3421 7.6791 15.9778 0.0000 33.9361 0.0000
# 6 0.0000 0.0000 0.0000 9.5276 0.0000 23.6122
#
#
#
# Elastic Compliance Matrix: (Units=1/GPa)
#
#
# Indices 1 2 3 4 5 6 
#
# 1 0.014476 -0.001945 -0.004678 0.000000 0.007907 0.000000
# 2 -0.001945 0.014166 -0.003150 0.000000 -0.002430 0.000000
# 3 -0.004678 -0.003150 0.012322 0.000000 -0.006790 0.000000
# 4 0.000000 0.000000 0.000000 0.036465 0.000000 -0.014714
# 5 0.007907 -0.002430 -0.006790 0.000000 0.036089 0.000000
# 6 0.000000 0.000000 0.000000 -0.014714 0.000000 0.048288
#
#
# Mechanical properties :
#
#
# Convention : Reuss Voigt Hill
#
# Bulk Modulus (GPa) = 46.68791 48.60224 47.64507
# Shear Modulus (GPa) = 26.52679 31.08545 28.80612
#
# Velocity S-wave (km/s) = 3.59853 3.89549 3.74995
# Velocity P-wave (km/s) = 6.32909 6.63016 6.48137
#
# Compressibility (1/GPa) = 0.02141882
#
# Stress axis : x y z
#
# Youngs Moduli (GPa) = 69.08144 70.59267 81.15862
#
# Poissons Ratio (x) = 0.13728 0.37962
# Poissons Ratio (y) = 0.13434 0.25564
# Poissons Ratio (z) = 0.32313 0.22235
#
# Static dielectric constant tensor:
#      x y z
#    x 3.797710 0.000000 0.220170 
#    y 0.000000 3.482240 0.000000 
#    z 0.220170 0.000000 4.085660 
# 
# 
# High freq. dielectric constant tensor:
#      x y z
#    x 1.777270 0.000000 0.027770 
#    y 0.000000 1.789570 0.000000 
#    z 0.027770 0.000000 1.812470 
# 
# From -- ./inp_files/5113.got.cif
#   From: 2010.03.12/outbox.cif.g09.slc.cpg/sg5_3_cif.got.tgz:5113.got - 2010.03.31 09:47:26.
