data_PCOD8048305
_publ_section_title
;
Structure prediction by ZEFSAII (Michael W. Deem and Ramdas Pophale) SiO2 
 PCOD8048305
Probable space group: C 2
;
_chemical_formula_sum "Si O2"
_cell_formula_units_Z 30
_cell_length_a 9.876275
_cell_length_b 17.422191
_cell_length_c 8.280883
_cell_angle_alpha 90.000000
_cell_angle_beta 98.182077
_cell_angle_gamma 90.000000
_cell_volume 1410.357358
_symmetry_space_group_name_H-M "C 2"
_symmetry_group_IT_number 5
_symmetry_cell_setting 'monoclinic'
loop_
_space_group_symop_operation_xyz
x,y,z
-x,y,-z
1/2+x,1/2+y,z
1/2-x,1/2+y,-z
loop_
_atom_site_type_symbol
_atom_site_label
_atom_site_fract_x
_atom_site_fract_y
_atom_site_fract_z
Si Si1 0.383291 0.555120 0.710208
Si Si2 0.753334 0.412118 0.711579
Si Si3 0.420983 0.685379 0.150150
Si Si4 0.857376 0.560388 0.556590
Si Si5 0.371371 0.120628 0.894214
Si Si6 0.032415 0.351254 0.817650
Si Si7 0.000000 0.929827 0.500000
Si Si8 0.276283 0.975578 0.047986
O O1 0.498791 0.621453 0.732876
O O2 0.248602 0.589982 0.598204
O O3 0.449188 0.482512 0.636913
O O4 0.340835 0.524210 0.880511
O O5 0.777409 0.494032 0.634723
O O6 0.621795 0.376627 0.594454
O O7 0.888855 0.362695 0.700299
O O8 0.715158 0.421333 0.895403
O O9 0.268146 0.661703 0.081260
O O10 0.412159 0.769010 0.235370
O O11 0.500000 0.699571 0.000000
O O12 0.888064 0.622858 0.701887
O O13 0.000000 0.535067 0.500000
O O14 0.500000 0.164435 0.000000
O O15 0.375347 0.035229 0.973015
O O16 0.140007 0.421871 0.808288
O O17 0.000000 0.353855 0.000000
#
# Coordination Sequence:
#
# PCOD8048305 Si02
#       8
#     4   4   4   4   4   4   2   4
#     4  11  20  34  59  88 122 153 207 249 299 357
#     4   9  18  34  55  86 116 152 196 251 298 361
#     4  11  22  36  62  91 122 160 199 254 312 363
#     4  10  20  33  58  89 120 153 199 256 299 348
#     4  11  21  36  62  91 118 152 207 252 302 362
#     4   9  19  36  60  86 119 152 197 250 309 361
#     4  10  22  32  56  84 122 150 196 258 298 350
#     4  10  18  34  63  89 111 153 208 250 292 356
#
# _framework density 21.271204999999998
#
# number of rings (size 3 to 8) (size 9 to 14) (size 15 to 20)
#    0.000    1.867    1.333    6.000    0.000    0.000 
#    0.000    0.000   35.200    0.000    0.000    0.000 
#    0.000    0.000    0.000    0.000    0.000    0.000 
#
# Total GULP energy -185873.328364 kJ/mol
# GULP energy per Si atom -12391.555224 kJ/mol
# Density = 2.122279 g / cm^3
# Si number density = 21.271205 Si / 1000 Ang^3
#
#
#
# Elastic Constant Matrix: (Units=GPa)
#
#
# Indices 1 2 3 4 5 6 
#
# 1 150.9331 41.6613 43.4848 0.0000 43.2656 0.0000
# 2 41.6613 81.0467 13.1214 0.0000 20.7627 0.0000
# 3 43.4848 13.1214 68.9256 0.0000 11.3616 0.0000
# 4 0.0000 0.0000 0.0000 8.8947 0.0000 1.8138
# 5 43.2656 20.7627 11.3616 0.0000 50.7285 0.0000
# 6 0.0000 0.0000 0.0000 1.8138 0.0000 17.1359
#
#
#
# Elastic Compliance Matrix: (Units=1/GPa)
#
#
# Indices 1 2 3 4 5 6 
#
# 1 0.010937 -0.003006 -0.005185 0.000000 -0.006937 0.000000
# 2 -0.003006 0.014818 -0.000361 0.000000 -0.003421 0.000000
# 3 -0.005185 -0.000361 0.017750 0.000000 0.000594 0.000000
# 4 0.000000 0.000000 0.000000 0.114907 0.000000 -0.012163
# 5 -0.006937 -0.003421 0.000594 0.000000 0.026896 0.000000
# 6 0.000000 0.000000 0.000000 -0.012163 0.000000 0.059645
#
#
# Mechanical properties :
#
#
# Convention : Reuss Voigt Hill
#
# Bulk Modulus (GPa) = 37.87388 55.27113 46.57250
# Shear Modulus (GPa) = 18.45995 28.86102 23.66049
#
# Velocity S-wave (km/s) = 2.94910 3.68749 3.33877
# Velocity P-wave (km/s) = 5.42588 6.64609 6.06674
#
# Compressibility (1/GPa) = 0.02640342
#
# Stress axis : x y z
#
# Youngs Moduli (GPa) = 91.43016 67.48389 56.33767
#
# Poissons Ratio (x) = 0.20284 0.29209
# Poissons Ratio (y) = 0.27482 0.02033
# Poissons Ratio (z) = 0.47403 0.02435
#
# Static dielectric constant tensor:
#      x y z
#    x 4.153520 0.000000 0.317940 
#    y 0.000000 3.659970 0.000000 
#    z 0.317940 0.000000 4.035570 
# 
# 
# High freq. dielectric constant tensor:
#      x y z
#    x 1.845850 0.000000 0.014450 
#    y 0.000000 1.778990 0.000000 
#    z 0.014450 0.000000 1.831490 
# 
# From -- ./inp_files/16803.got.cif
#   From: 2010.03.12/outbox.cif.g09.slc.cpg/sg5_9_cif.got.tgz:16803.got - 2010.03.31 09:47:26.
