data_PCOD8048482
_publ_section_title
;
Structure prediction by ZEFSAII (Michael W. Deem and Ramdas Pophale) SiO2 
 PCOD8048482
Probable space group: C 2
;
_chemical_formula_sum "Si O2"
_cell_formula_units_Z 18
_cell_length_a 13.466713
_cell_length_b 7.144526
_cell_length_c 7.611339
_cell_angle_alpha 90.000000
_cell_angle_beta 107.439803
_cell_angle_gamma 90.000000
_cell_volume 698.649247
_symmetry_space_group_name_H-M "C 2"
_symmetry_group_IT_number 5
_symmetry_cell_setting 'monoclinic'
loop_
_space_group_symop_operation_xyz
x,y,z
-x,y,-z
1/2+x,1/2+y,z
1/2-x,1/2+y,-z
loop_
_atom_site_type_symbol
_atom_site_label
_atom_site_fract_x
_atom_site_fract_y
_atom_site_fract_z
Si Si1 0.338396 0.196990 0.061291
Si Si2 0.234830 0.941020 0.272227
Si Si3 0.027018 0.850043 0.324144
Si Si4 0.500000 0.912192 0.000000
Si Si5 0.577897 0.912939 0.393525
O O1 0.420985 0.360515 0.154488
O O2 0.277278 0.131861 0.205081
O O3 0.260230 0.280701 0.875323
O O4 0.399741 0.026329 0.009868
O O5 0.118279 0.971713 0.283575
O O6 0.305275 0.876664 0.475749
O O7 0.062857 0.633772 0.350679
O O8 0.000000 0.933125 0.500000
O O9 0.453713 0.801746 0.804386
O O10 0.500000 0.839465 0.500000
#
# Coordination Sequence:
#
# PCOD8048482 Si02
#       5
#     4   4   4   2   4
#     4  11  22  40  73 102 143 185 237 290 356 431
#     4  12  22  40  77 107 136 198 239 283 376 420
#     4  10  20  43  69  99 144 186 230 299 355 425
#     4  10  18  42  66  96 144 186 216 302 346 416
#     4  10  19  39  68 102 134 183 236 283 350 425
#
# _framework density 25.764001
#
# number of rings (size 3 to 8) (size 9 to 14) (size 15 to 20)
#    0.000    1.333   11.111    0.000    0.000    1.778 
#    0.000    0.000   14.667    0.000    0.000    0.000 
#    0.000    0.000    0.000    0.000    0.000    0.000 
#
# Total GULP energy -111531.125581 kJ/mol
# GULP energy per Si atom -12392.347287 kJ/mol
# Density = 2.570536 g / cm^3
# Si number density = 25.764001 Si / 1000 Ang^3
#
#
#
# Elastic Constant Matrix: (Units=GPa)
#
#
# Indices 1 2 3 4 5 6 
#
# 1 168.0623 31.0198 75.8565 0.0000 -16.3135 0.0000
# 2 31.0198 20.9666 20.9010 0.0000 13.7929 0.0000
# 3 75.8565 20.9010 262.7190 0.0000 13.8202 0.0000
# 4 0.0000 0.0000 0.0000 18.3746 0.0000 10.7898
# 5 -16.3135 13.7929 13.8202 0.0000 56.1779 0.0000
# 6 0.0000 0.0000 0.0000 10.7898 0.0000 25.5513
#
#
#
# Elastic Compliance Matrix: (Units=1/GPa)
#
#
# Indices 1 2 3 4 5 6 
#
# 1 0.011740 -0.021216 -0.002184 0.000000 0.009155 0.000000
# 2 -0.021216 0.099321 -0.000171 0.000000 -0.030504 0.000000
# 3 -0.002184 -0.000171 0.004540 0.000000 -0.001709 0.000000
# 4 0.000000 0.000000 0.000000 0.072368 0.000000 -0.030560
# 5 0.009155 -0.030504 -0.001709 0.000000 0.028369 0.000000
# 6 0.000000 0.000000 0.000000 -0.030560 0.000000 0.052042
#
#
# Mechanical properties :
#
#
# Convention : Reuss Voigt Hill
#
# Bulk Modulus (GPa) = 14.60690 78.58917 46.59803
# Shear Modulus (GPa) = 14.77793 41.61879 28.19836
#
# Velocity S-wave (km/s) = 2.39757 4.02355 3.31189
# Velocity P-wave (km/s) = 3.65325 7.22184 5.72281
#
# Compressibility (1/GPa) = 0.06846081
#
# Stress axis : x y z
#
# Youngs Moduli (GPa) = 85.17632 10.06832 220.24665
#
# Poissons Ratio (x) = 0.21361 0.48094
# Poissons Ratio (y) = 1.80708 0.03771
# Poissons Ratio (z) = 0.18599 0.00172
#
# Static dielectric constant tensor:
#      x y z
#    x 4.764660 0.000000 -0.080390 
#    y 0.000000 3.842560 0.000000 
#    z -0.080390 0.000000 5.628320 
# 
# 
# High freq. dielectric constant tensor:
#      x y z
#    x 2.035600 0.000000 -0.002320 
#    y 0.000000 1.967580 0.000000 
#    z -0.002320 0.000000 2.058810 
# 
# From -- ./inp_files/22596.got.cif
#   From: 2010.03.12/outbox.cif.g09.slc.cpg/sg5_12_cif.got.tgz:22596.got - 2010.03.31 09:47:26.
