data_PCOD8048183
_publ_section_title
;
Structure prediction by ZEFSAII (Michael W. Deem and Ramdas Pophale) SiO2 
 PCOD8048183
Probable space group: C 2
;
_chemical_formula_sum "Si O2"
_cell_formula_units_Z 28
_cell_length_a 5.354390
_cell_length_b 30.373536
_cell_length_c 6.431739
_cell_angle_alpha 90.000000
_cell_angle_beta 104.042216
_cell_angle_gamma 90.000000
_cell_volume 1014.747472
_symmetry_space_group_name_H-M "C 2"
_symmetry_group_IT_number 5
_symmetry_cell_setting 'monoclinic'
loop_
_space_group_symop_operation_xyz
x,y,z
-x,y,-z
1/2+x,1/2+y,z
1/2-x,1/2+y,-z
loop_
_atom_site_type_symbol
_atom_site_label
_atom_site_fract_x
_atom_site_fract_y
_atom_site_fract_z
Si Si1 0.293912 0.643190 0.135179
Si Si2 0.692085 0.737769 0.750950
Si Si3 0.516838 0.017386 0.237786
Si Si4 0.072910 0.416622 0.747000
Si Si5 0.917365 0.873960 0.245391
Si Si6 0.481657 0.551751 0.754760
Si Si7 0.808539 0.773581 0.228026
O O1 0.292887 0.685349 0.287335
O O2 0.413277 0.600658 0.274509
O O3 0.500000 0.655329 0.000000
O O4 0.000000 0.633563 0.000000
O O5 0.407349 0.757772 0.646923
O O6 0.902803 0.760720 0.641786
O O7 0.754495 0.747984 0.003583
O O8 0.396658 0.968874 0.233272
O O9 0.325777 0.045255 0.353707
O O10 0.500000 0.036044 0.000000
O O11 0.825562 0.021473 0.349635
O O12 0.338889 0.389293 0.850801
O O13 0.000000 0.402075 0.500000
O O14 0.831893 0.404919 0.850241
O O15 0.811901 0.825244 0.182064
O O16 0.000000 0.879547 0.500000
O O17 0.500000 0.538764 0.000000
#
# Coordination Sequence:
#
# PCOD8048183 Si02
#       7
#     4   4   4   4   4   4   4
#     4  11  16  28  46  74 106 136 166 198 248 310
#     4  10  18  30  47  75 108 129 164 204 257 312
#     4  10  19  35  49  77 108 129 170 212 261 313
#     4  10  21  38  57  75  99 139 183 217 256 315
#     4  10  21  37  55  74  98 136 183 219 255 306
#     4   9  18  28  49  73 106 134 160 204 255 306
#     4  10  18  32  47  72 104 129 166 217 250 304
#
# _framework density 27.593071999999999
#
# number of rings (size 3 to 8) (size 9 to 14) (size 15 to 20)
#    0.000    2.000    2.857    3.857    0.000    0.000 
#    7.714    0.000    0.000    0.000    0.000    6.000 
#    0.000    0.000    0.000    0.000    0.000    0.000 
#
# Total GULP energy -173488.115114 kJ/mol
# GULP energy per Si atom -12392.008222 kJ/mol
# Density = 2.753027 g / cm^3
# Si number density = 27.593072 Si / 1000 Ang^3
#
#
#
# Elastic Constant Matrix: (Units=GPa)
#
#
# Indices 1 2 3 4 5 6 
#
# 1 314.4336 97.9958 56.2680 0.0000 6.9607 0.0000
# 2 97.9958 200.9249 -18.5445 0.0000 21.6715 0.0000
# 3 56.2680 -18.5445 52.6103 0.0000 9.5819 0.0000
# 4 0.0000 0.0000 0.0000 -18.9143 0.0000 13.8748
# 5 6.9607 21.6715 9.5819 0.0000 56.9717 0.0000
# 6 0.0000 0.0000 0.0000 13.8748 0.0000 59.8165
#
#
#
# Elastic Compliance Matrix: (Units=1/GPa)
#
#
# Indices 1 2 3 4 5 6 
#
# 1 0.005673 -0.003698 -0.007738 0.000000 0.002015 0.000000
# 2 -0.003698 0.007875 0.007422 0.000000 -0.003792 0.000000
# 3 -0.007738 0.007422 0.031198 0.000000 -0.007125 0.000000
# 4 0.000000 0.000000 0.000000 -0.045182 0.000000 0.010480
# 5 0.002015 -0.003792 -0.007125 0.000000 0.019947 0.000000
# 6 0.000000 0.000000 0.000000 0.010480 0.000000 0.014287
#
#
# Mechanical properties :
#
#
# Convention : Reuss Voigt Hill
#
# Bulk Modulus (GPa) = 27.23583 93.26750 60.25166
# Shear Modulus (GPa) = 92.48000 48.39142 70.43571
#
# Velocity S-wave (km/s) = 5.79555 4.19233 5.05787
# Velocity P-wave (km/s) = 7.39436 7.57024 7.48282
#
# Compressibility (1/GPa) = 0.03671634
#
# Stress axis : x y z
#
# Youngs Moduli (GPa) = 176.26907 126.98668 32.05354
#
# Poissons Ratio (x) = 0.46966 0.24804
# Poissons Ratio (y) = 0.65193 -0.23790
# Poissons Ratio (z) = 1.36402 -0.94250
#
# Static dielectric constant tensor:
#      x y z
#    x 10.967040 0.000000 1.650960 
#    y 0.000000 4.716970 0.000000 
#    z 1.650960 0.000000 5.448350 
# 
# 
# High freq. dielectric constant tensor:
#      x y z
#    x 2.166100 0.000000 0.002400 
#    y 0.000000 2.088320 0.000000 
#    z 0.002400 0.000000 2.144470 
# 
# From -- ./inp_files/13219.got.cif
#   From: 2010.03.12/outbox.cif.g09.slc.cpg/sg5_7_cif.got.tgz:13219.got - 2010.03.31 09:47:26.
