data_PCOD8048100
_publ_section_title
;
Structure prediction by ZEFSAII (Michael W. Deem and Ramdas Pophale) SiO2 
 PCOD8048100
Probable space group: C 2
;
_chemical_formula_sum "Si O2"
_cell_formula_units_Z 32
_cell_length_a 11.409493
_cell_length_b 15.231554
_cell_length_c 10.217363
_cell_angle_alpha 90.000000
_cell_angle_beta 72.963500
_cell_angle_gamma 90.000000
_cell_volume 1697.700272
_symmetry_space_group_name_H-M "C 2"
_symmetry_group_IT_number 5
_symmetry_cell_setting 'monoclinic'
loop_
_space_group_symop_operation_xyz
x,y,z
-x,y,-z
1/2+x,1/2+y,z
1/2-x,1/2+y,-z
loop_
_atom_site_type_symbol
_atom_site_label
_atom_site_fract_x
_atom_site_fract_y
_atom_site_fract_z
Si Si1 0.954903 0.809990 0.867420
Si Si2 0.057822 0.666644 0.346008
Si Si3 0.493677 0.007139 0.796446
Si Si4 0.501731 0.817052 0.157627
Si Si5 0.976570 0.006061 0.855672
Si Si6 0.228701 0.228297 0.023479
Si Si7 0.195626 0.555958 0.927672
Si Si8 0.159146 0.158781 0.782663
O O1 0.987731 0.733955 0.752060
O O2 0.999189 0.905127 0.799526
O O3 0.806054 0.805464 0.927408
O O4 0.000000 0.789405 0.000000
O O5 0.203824 0.656003 0.317956
O O6 0.000000 0.699406 0.500000
O O7 0.005821 0.569907 0.329324
O O8 0.618997 0.020057 0.833257
O O9 0.500515 0.904999 0.755499
O O10 0.367512 0.023886 0.917119
O O11 0.630125 0.771035 0.150749
O O12 0.397005 0.752164 0.244197
O O13 0.500000 0.835737 0.000000
O O14 0.836984 0.028422 0.865883
O O15 0.074928 0.075886 0.762513
O O16 0.000000 0.004570 0.000000
O O17 0.315391 0.162187 0.075987
O O18 0.160751 0.163260 0.940855
#
# Coordination Sequence:
#
# PCOD8048100 Si02
#       8
#     4   4   4   4   4   4   4   4
#     4  10  21  33  58  91 119 141 191 238 288 332
#     4  11  24  43  61  79 112 156 194 239 290 345
#     4  11  21  32  54  83 116 151 189 232 281 337
#     4  10  18  30  51  87 115 149 182 230 283 342
#     4  11  18  32  54  91 120 153 181 238 286 342
#     4  10  17  29  50  81 124 146 178 228 289 333
#     4  11  18  30  54  86 126 142 181 234 291 323
#     4  10  19  34  55  79 115 154 195 223 282 348
#
# _framework density 18.849029000000002
#
# number of rings (size 3 to 8) (size 9 to 14) (size 15 to 20)
#    0.000    1.500    6.250    1.875    3.500    1.000 
#    0.000    1.250    0.000    0.000    0.000    0.000 
#    0.000    0.000    0.000    0.000    0.000    0.000 
#
# Total GULP energy -198213.972687 kJ/mol
# GULP energy per Si atom -12388.373293 kJ/mol
# Density = 1.880613 g / cm^3
# Si number density = 18.849029 Si / 1000 Ang^3
#
#
#
# Elastic Constant Matrix: (Units=GPa)
#
#
# Indices 1 2 3 4 5 6 
#
# 1 91.8774 50.3185 30.9260 0.0000 -14.6766 0.0000
# 2 50.3185 163.1166 32.2820 0.0000 -7.1970 0.0000
# 3 30.9260 32.2820 61.7470 0.0000 -3.6683 0.0000
# 4 0.0000 0.0000 0.0000 8.7461 0.0000 1.3940
# 5 -14.6766 -7.1970 -3.6683 0.0000 12.8331 0.0000
# 6 0.0000 0.0000 0.0000 1.3940 0.0000 31.5393
#
#
#
# Elastic Compliance Matrix: (Units=1/GPa)
#
#
# Indices 1 2 3 4 5 6 
#
# 1 0.017370 -0.003470 -0.005921 0.000000 0.016226 0.000000
# 2 -0.003470 0.007636 -0.002274 0.000000 -0.000337 0.000000
# 3 -0.005921 -0.002274 0.020215 0.000000 -0.002269 0.000000
# 4 0.000000 0.000000 0.000000 0.115147 0.000000 -0.005089
# 5 0.016226 -0.000337 -0.002269 0.000000 0.095643 0.000000
# 6 0.000000 0.000000 0.000000 -0.005089 0.000000 0.031931
#
#
# Mechanical properties :
#
#
# Convention : Reuss Voigt Hill
#
# Bulk Modulus (GPa) = 45.68448 60.42154 53.05301
# Shear Modulus (GPa) = 15.69508 24.17135 19.93321
#
# Velocity S-wave (km/s) = 2.88874 3.58490 3.25548
# Velocity P-wave (km/s) = 5.95114 7.01858 6.50679
#
# Compressibility (1/GPa) = 0.02188927
#
# Stress axis : x y z
#
# Youngs Moduli (GPa) = 57.57104 130.95173 49.46826
#
# Poissons Ratio (x) = 0.45447 0.29292
# Poissons Ratio (y) = 0.19980 0.11250
# Poissons Ratio (z) = 0.34090 0.29781
#
# Static dielectric constant tensor:
#      x y z
#    x 3.682040 0.000000 -0.070930 
#    y 0.000000 3.871200 0.000000 
#    z -0.070930 0.000000 2.727250 
# 
# 
# High freq. dielectric constant tensor:
#      x y z
#    x 1.748190 0.000000 -0.014620 
#    y 0.000000 1.755300 0.000000 
#    z -0.014620 0.000000 1.639820 
# 
# From -- ./inp_files/39868.got.cif
#   From: 2010.03.12/outbox.cif.g09.slc.cpg/sg5_20_cif.got.tgz:39868.got - 2010.03.31 09:47:26.
