data_PCOD8048202
_publ_section_title
;
Structure prediction by ZEFSAII (Michael W. Deem and Ramdas Pophale) SiO2 
 PCOD8048202
Probable space group: C 2
;
_chemical_formula_sum "Si O2"
_cell_formula_units_Z 28
_cell_length_a 19.951670
_cell_length_b 13.673831
_cell_length_c 9.951558
_cell_angle_alpha 90.000000
_cell_angle_beta 32.666093
_cell_angle_gamma 90.000000
_cell_volume 1465.368791
_symmetry_space_group_name_H-M "C 2"
_symmetry_group_IT_number 5
_symmetry_cell_setting 'monoclinic'
loop_
_space_group_symop_operation_xyz
x,y,z
-x,y,-z
1/2+x,1/2+y,z
1/2-x,1/2+y,-z
loop_
_atom_site_type_symbol
_atom_site_label
_atom_site_fract_x
_atom_site_fract_y
_atom_site_fract_z
Si Si1 0.159020 0.141200 0.989784
Si Si2 0.063257 0.049260 0.754202
Si Si3 0.107094 0.445010 0.622331
Si Si4 0.710941 0.141103 0.512823
Si Si5 0.150590 0.359370 0.006901
Si Si6 0.804226 0.856615 0.486162
Si Si7 0.356673 0.995815 0.732604
O O1 0.205703 0.148975 0.759767
O O2 0.131518 0.249131 0.093101
O O3 0.263867 0.087851 0.902415
O O4 0.028023 0.081996 0.212524
O O5 0.195932 0.106860 0.523707
O O6 0.082803 0.932288 0.716143
O O7 0.000000 0.076765 0.000000
O O8 0.104085 0.558947 0.675244
O O9 0.194088 0.381934 0.570408
O O10 0.161346 0.440311 0.379004
O O11 0.971015 0.400064 0.862838
O O12 0.649832 0.248025 0.636186
O O13 0.261546 0.362293 0.712983
O O14 0.181933 0.423538 0.083515
O O15 0.500000 0.031649 0.500000
#
# Coordination Sequence:
#
# PCOD8048202 Si02
#       7
#     4   4   4   4   4   4   4
#     4   9  17  33  53  70  97 136 168 195 244 307
#     4   9  17  31  51  75 102 133 166 200 243 299
#     4   9  17  32  53  73  99 133 167 200 242 301
#     4   8  16  30  51  75 101 134 165 195 244 302
#     4  10  19  33  53  75  97 129 169 208 245 288
#     4  10  18  31  52  79 101 125 166 212 245 280
#     4   9  19  36  53  71  98 134 169 200 243 301
#
# _framework density 19.107817000000001
#
# number of rings (size 3 to 8) (size 9 to 14) (size 15 to 20)
#    0.000    2.857    0.000    2.143    0.000    2.286 
#    0.000   16.429    0.000    0.000    0.000    0.000 
#    0.000    0.000    0.000    0.000    0.000    0.000 
#
# Total GULP energy -173515.581314 kJ/mol
# GULP energy per Si atom -12393.970094 kJ/mol
# Density = 1.906433 g / cm^3
# Si number density = 19.107817 Si / 1000 Ang^3
#
#
#
# Elastic Constant Matrix: (Units=GPa)
#
#
# Indices 1 2 3 4 5 6 
#
# 1 84.4154 48.0400 18.9635 0.0000 -11.6427 0.0000
# 2 48.0400 161.0552 30.1590 0.0000 -26.9736 0.0000
# 3 18.9635 30.1590 35.4959 0.0000 -14.6989 0.0000
# 4 0.0000 0.0000 0.0000 29.8099 0.0000 -2.9632
# 5 -11.6427 -26.9736 -14.6989 0.0000 20.2456 0.0000
# 6 0.0000 0.0000 0.0000 -2.9632 0.0000 24.6412
#
#
#
# Elastic Compliance Matrix: (Units=1/GPa)
#
#
# Indices 1 2 3 4 5 6 
#
# 1 0.014982 -0.003484 -0.004859 0.000000 0.000446 0.000000
# 2 -0.003484 0.009101 -0.002402 0.000000 0.008378 0.000000
# 3 -0.004859 -0.002402 0.043364 0.000000 0.025489 0.000000
# 4 0.000000 0.000000 0.000000 0.033952 0.000000 0.004083
# 5 0.000446 0.008378 0.025489 0.000000 0.079318 0.000000
# 6 0.000000 0.000000 0.000000 0.004083 0.000000 0.041073
#
#
# Mechanical properties :
#
#
# Convention : Reuss Voigt Hill
#
# Bulk Modulus (GPa) = 21.75959 52.81017 37.28488
# Shear Modulus (GPa) = 19.33482 27.19294 23.26388
#
# Velocity S-wave (km/s) = 3.18446 3.77653 3.49306
# Velocity P-wave (km/s) = 4.99335 6.83478 5.98531
#
# Compressibility (1/GPa) = 0.04595675
#
# Stress axis : x y z
#
# Youngs Moduli (GPa) = 66.74614 109.87367 23.06050
#
# Poissons Ratio (x) = 0.38284 0.11205
# Poissons Ratio (y) = 0.23257 0.05539
# Poissons Ratio (z) = 0.32433 0.26392
#
# Static dielectric constant tensor:
#      x y z
#    x 3.439290 0.000000 -0.162630 
#    y 0.000000 3.800950 0.000000 
#    z -0.162630 0.000000 3.218670 
# 
# 
# High freq. dielectric constant tensor:
#      x y z
#    x 1.730130 0.000000 -0.012560 
#    y 0.000000 1.749920 0.000000 
#    z -0.012560 0.000000 1.711840 
# 
# From -- ./inp_files/38871.got.cif
#   From: 2010.03.12/outbox.cif.g09.slc.cpg/sg5_20_cif.got.tgz:38871.got - 2010.03.31 09:47:26.
