data_PCOD8048774
_publ_section_title
;
Structure prediction by ZEFSAII (Michael W. Deem and Ramdas Pophale) SiO2 
 PCOD8048774
Probable space group: C 2
;
_chemical_formula_sum "Si O2"
_cell_formula_units_Z 22
_cell_length_a 16.880967
_cell_length_b 8.438883
_cell_length_c 8.693514
_cell_angle_alpha 90.000000
_cell_angle_beta 69.477580
_cell_angle_gamma 90.000000
_cell_volume 1159.849646
_symmetry_space_group_name_H-M "C 2"
_symmetry_group_IT_number 5
_symmetry_cell_setting 'monoclinic'
loop_
_space_group_symop_operation_xyz
x,y,z
-x,y,-z
1/2+x,1/2+y,z
1/2-x,1/2+y,-z
loop_
_atom_site_type_symbol
_atom_site_label
_atom_site_fract_x
_atom_site_fract_y
_atom_site_fract_z
Si Si1 0.916949 0.244000 0.653423
Si Si2 0.342632 0.991078 0.510499
Si Si3 0.414621 0.617824 0.974441
Si Si4 0.000000 0.678224 0.500000
Si Si5 0.281063 0.754261 0.297128
Si Si6 0.375180 0.408879 0.740480
O O1 0.845318 0.372941 0.656735
O O2 0.000000 0.288721 0.500000
O O3 0.888158 0.065988 0.625371
O O4 0.930974 0.250494 0.829242
O O5 0.434193 0.077453 0.441010
O O6 0.267338 0.118706 0.572978
O O7 0.327058 0.883065 0.372239
O O8 0.350482 0.673879 0.145655
O O9 0.500000 0.572571 0.000000
O O10 0.379926 0.457560 0.916974
O O11 0.051695 0.783136 0.343757
O O12 0.216512 0.839456 0.227301
#
# Coordination Sequence:
#
# PCOD8048774 Si02
#       6
#     4   4   4   2   4   4
#     4  10  19  37  67  88 125 165 209 255 316 369
#     4  11  23  38  66  94 125 171 214 266 308 389
#     4  10  23  38  66  86 127 169 209 257 320 371
#     4  10  20  40  66  94 120 166 220 254 320 372
#     4  11  24  41  62  97 128 167 216 259 327 365
#     4   9  21  39  63  89 126 167 202 268 307 382
#
# _framework density 18.967974999999999
#
# number of rings (size 3 to 8) (size 9 to 14) (size 15 to 20)
#    1.091    0.727    1.818    2.182    2.545    2.909 
#    0.000    1.818    0.000    0.000    0.000    0.000 
#    0.000    0.000    0.000    0.000    0.000    0.000 
#
# Total GULP energy -136310.951004 kJ/mol
# GULP energy per Si atom -12391.904637 kJ/mol
# Density = 1.892480 g / cm^3
# Si number density = 18.967975 Si / 1000 Ang^3
#
#
#
# Elastic Constant Matrix: (Units=GPa)
#
#
# Indices 1 2 3 4 5 6 
#
# 1 130.7700 66.0052 60.3543 0.0000 5.2789 0.0000
# 2 66.0052 121.7315 42.2661 0.0000 5.1906 0.0000
# 3 60.3543 42.2661 95.1052 0.0000 6.6486 0.0000
# 4 0.0000 0.0000 0.0000 25.5509 0.0000 21.9201
# 5 5.2789 5.1906 6.6486 0.0000 33.3284 0.0000
# 6 0.0000 0.0000 0.0000 21.9201 0.0000 32.5885
#
#
#
# Elastic Compliance Matrix: (Units=1/GPa)
#
#
# Indices 1 2 3 4 5 6 
#
# 1 0.012894 -0.004906 -0.005997 0.000000 -0.000082 0.000000
# 2 -0.004906 0.011595 -0.001995 0.000000 -0.000631 0.000000
# 3 -0.005997 -0.001995 0.015333 0.000000 -0.001798 0.000000
# 4 0.000000 0.000000 0.000000 0.092535 0.000000 -0.062242
# 5 -0.000082 -0.000631 -0.001798 0.000000 0.030474 0.000000
# 6 0.000000 0.000000 0.000000 -0.062242 0.000000 0.072552
#
#
# Mechanical properties :
#
#
# Convention : Reuss Voigt Hill
#
# Bulk Modulus (GPa) = 71.29907 76.09533 73.69720
# Shear Modulus (GPa) = 18.80728 30.22561 24.51645
#
# Velocity S-wave (km/s) = 3.15227 3.99621 3.59906
# Velocity P-wave (km/s) = 7.13582 7.84205 7.49725
#
# Compressibility (1/GPa) = 0.01402543
#
# Stress axis : x y z
#
# Youngs Moduli (GPa) = 77.55400 86.24722 65.21980
#
# Poissons Ratio (x) = 0.42312 0.39111
# Poissons Ratio (y) = 0.38047 0.13014
# Poissons Ratio (z) = 0.46508 0.17210
#
# Static dielectric constant tensor:
#      x y z
#    x 3.620950 0.000000 0.082670 
#    y 0.000000 3.676880 0.000000 
#    z 0.082670 0.000000 3.160320 
# 
# 
# High freq. dielectric constant tensor:
#      x y z
#    x 1.747550 0.000000 0.003410 
#    y 0.000000 1.746100 0.000000 
#    z 0.003410 0.000000 1.711840 
# 
# From -- ./inp_files/22651.got.cif
#   From: 2010.03.12/outbox.cif.g09.slc.cpg/sg5_12_cif.got.tgz:22651.got - 2010.03.31 09:47:26.
