data_PCOD8048851
_publ_section_title
;
Structure prediction by ZEFSAII (Michael W. Deem and Ramdas Pophale) SiO2 
 PCOD8048851
Probable space group: C 2
;
_chemical_formula_sum "Si O2"
_cell_formula_units_Z 26
_cell_length_a 14.517821
_cell_length_b 9.492246
_cell_length_c 14.123957
_cell_angle_alpha 90.000000
_cell_angle_beta 139.805544
_cell_angle_gamma 90.000000
_cell_volume 1256.159695
_symmetry_space_group_name_H-M "C 2"
_symmetry_group_IT_number 5
_symmetry_cell_setting 'monoclinic'
loop_
_space_group_symop_operation_xyz
x,y,z
-x,y,-z
1/2+x,1/2+y,z
1/2-x,1/2+y,-z
loop_
_atom_site_type_symbol
_atom_site_label
_atom_site_fract_x
_atom_site_fract_y
_atom_site_fract_z
Si Si1 0.431443 0.149980 0.547691
Si Si2 0.432438 0.903550 0.231427
Si Si3 0.899340 0.152684 0.724086
Si Si4 0.500000 0.755259 0.000000
Si Si5 0.372034 0.297547 0.962205
Si Si6 0.033277 0.885225 0.765831
Si Si7 0.325989 0.989362 0.948270
O O1 0.500000 0.141303 0.500000
O O2 0.266228 0.186608 0.407308
O O3 0.495194 0.282045 0.652206
O O4 0.466037 0.003333 0.626954
O O5 0.515320 0.757113 0.279009
O O6 0.280373 0.878501 0.166761
O O7 0.408893 0.979272 0.112752
O O8 0.965086 0.159162 0.881846
O O9 0.907210 0.991355 0.695225
O O10 0.634696 0.857082 0.087077
O O11 0.358506 0.134900 0.919677
O O12 0.500000 0.367578 0.000000
O O13 0.416303 0.292463 0.106223
O O14 0.158259 0.989212 0.832174
#
# Coordination Sequence:
#
# PCOD8048851 Si02
#       7
#     4   4   4   2   4   4   4
#     4  12  26  44  65  92 137 180 221 271 332 392
#     4  10  23  43  63  96 132 172 220 272 326 389
#     4  11  24  43  68  95 133 177 221 274 331 391
#     4  10  22  38  70 100 126 166 224 274 330 396
#     4  11  22  38  69 100 130 169 220 277 326 386
#     4  11  24  41  64  96 131 172 219 269 334 390
#     4  10  19  39  65  94 131 164 212 275 328 384
#
# _framework density 20.698005999999999
#
# number of rings (size 3 to 8) (size 9 to 14) (size 15 to 20)
#    0.000    1.231    3.846    1.846    3.231    1.231 
#    0.000    0.769    0.000    0.000    0.000    0.000 
#    0.000    0.000    0.000    0.000    0.000    0.000 
#
# Total GULP energy -161192.937226 kJ/mol
# GULP energy per Si atom -12399.456710 kJ/mol
# Density = 2.065090 g / cm^3
# Si number density = 20.698006 Si / 1000 Ang^3
#
#
#
# Elastic Constant Matrix: (Units=GPa)
#
#
# Indices 1 2 3 4 5 6 
#
# 1 106.3634 18.7723 28.5176 0.0000 8.0171 -0.0001
# 2 18.7723 94.7869 26.8832 0.0000 -12.6745 -0.0001
# 3 28.5176 26.8832 84.3257 0.0001 1.3982 -0.0001
# 4 0.0000 0.0000 0.0001 -283.0549 0.0000 546.3988
# 5 8.0171 -12.6745 1.3982 0.0000 36.4839 -0.0001
# 6 -0.0001 -0.0001 -0.0001 546.3988 -0.0001 -953.2466
#
#
#
# Elastic Compliance Matrix: (Units=1/GPa)
#
#
# Indices 1 2 3 4 5 6 
#
# 1 0.010721 -0.001631 -0.003059 0.000000 -0.002805 0.000000
# 2 -0.001631 0.012519 -0.003520 0.000000 0.004842 0.000000
# 3 -0.003059 -0.003520 0.014034 0.000000 -0.001088 0.000000
# 4 0.000000 0.000000 0.000000 0.033179 0.000000 0.019018
# 5 -0.002805 0.004842 -0.001088 0.000000 0.029750 0.000000
# 6 0.000000 0.000000 0.000000 0.019018 0.000000 0.009852
#
#
# Mechanical properties :
#
#
# Convention : Reuss Voigt Hill
#
# Bulk Modulus (GPa) = 47.95299 48.20247 48.07773
# Shear Modulus (GPa) = 37.47421 -225.87665 -94.20122
#
# Velocity S-wave (km/s) = 4.25964 -10.45785 -6.75359
# Velocity P-wave (km/s) = 6.88556 11.06721 6.12667
#
# Compressibility (1/GPa) = 0.02085376
#
# Stress axis : x y z
#
# Youngs Moduli (GPa) = 93.27281 79.88052 71.25766
#
# Poissons Ratio (x) = 0.13026 0.21800
# Poissons Ratio (y) = 0.15210 0.25081
# Poissons Ratio (z) = 0.28536 0.28116
#
# Static dielectric constant tensor:
#      x y z
#    x 7.581020 0.000000 4.481920 
#    y 0.000000 3.605060 0.000000 
#    z 4.481920 0.000000 8.777570 
# 
# 
# High freq. dielectric constant tensor:
#      x y z
#    x 1.819990 0.000000 0.012410 
#    y 0.000000 1.819780 0.000000 
#    z 0.012410 0.000000 1.792140 
# 
# From -- ./inp_files/28897.got.cif
#   From: 2010.03.12/outbox.cif.g09.slc.cpg/sg5_15_cif.got.tgz:28897.got - 2010.03.31 09:47:26.
