data_PCOD8048859
_publ_section_title
;
Structure prediction by ZEFSAII (Michael W. Deem and Ramdas Pophale) SiO2 
 PCOD8048859
Probable space group: C 2
;
_chemical_formula_sum "Si O2"
_cell_formula_units_Z 26
_cell_length_a 24.842934
_cell_length_b 8.488657
_cell_length_c 16.877246
_cell_angle_alpha 90.000000
_cell_angle_beta 19.350167
_cell_angle_gamma 90.000000
_cell_volume 1179.283322
_symmetry_space_group_name_H-M "C 2"
_symmetry_group_IT_number 5
_symmetry_cell_setting 'monoclinic'
loop_
_space_group_symop_operation_xyz
x,y,z
-x,y,-z
1/2+x,1/2+y,z
1/2-x,1/2+y,-z
loop_
_atom_site_type_symbol
_atom_site_label
_atom_site_fract_x
_atom_site_fract_y
_atom_site_fract_z
Si Si1 0.000000 0.228161 0.000000
Si Si2 0.159042 0.574792 0.499282
Si Si3 0.968875 0.370122 0.873904
Si Si4 0.831625 0.165416 0.937671
Si Si5 0.457221 0.336681 0.722206
Si Si6 0.341808 0.537478 0.666190
Si Si7 0.449968 0.848496 0.482651
O O1 0.152302 0.117587 0.768414
O O2 0.980480 0.341404 0.951208
O O3 0.128043 0.457808 0.617082
O O4 0.111902 0.494394 0.481876
O O5 0.040825 0.726919 0.673216
O O6 0.933249 0.209472 0.875511
O O7 0.815454 0.482069 0.067552
O O8 0.901007 0.253674 0.764168
O O9 0.841901 0.975708 0.917177
O O10 0.644488 0.225469 0.198089
O O11 0.616130 0.413217 0.460931
O O12 0.500000 0.550000 0.500000
O O13 0.306809 0.715791 0.684868
O O14 0.500000 0.912341 0.500000
#
# Coordination Sequence:
#
# PCOD8048859 Si02
#       7
#     2   4   4   4   4   4   4
#     4  12  28  50  70  94 136 194 252 296 342 384
#     4  11  26  46  69  97 137 183 244 293 343 414
#     4  11  24  48  67  98 137 182 239 290 347 413
#     4  10  21  37  67 102 140 175 224 273 360 433
#     4  11  21  38  66 100 137 179 213 287 357 427
#     4  10  19  39  68 100 139 176 206 282 360 425
#     4   9  21  38  65 104 140 169 218 277 357 438
#
# _framework density 22.04729
#
# number of rings (size 3 to 8) (size 9 to 14) (size 15 to 20)
#    0.000    1.538    3.077    1.846    4.308    4.308 
#    5.538    0.000    0.000    0.000    0.000    0.000 
#    0.000    0.000    0.000    0.000    0.000    0.000 
#
# Total GULP energy -161121.261773 kJ/mol
# GULP energy per Si atom -12393.943213 kJ/mol
# Density = 2.199711 g / cm^3
# Si number density = 22.047290 Si / 1000 Ang^3
#
#
#
# Elastic Constant Matrix: (Units=GPa)
#
#
# Indices 1 2 3 4 5 6 
#
# 1 110.0020 34.0864 41.2447 0.0000 14.0410 0.0000
# 2 34.0864 113.0313 53.0178 0.0001 -11.2920 0.0000
# 3 41.2447 53.0178 101.5058 0.0000 -5.8961 0.0000
# 4 0.0000 0.0001 0.0000 31.3986 0.0000 4.4749
# 5 14.0410 -11.2920 -5.8961 0.0000 30.7183 0.0000
# 6 0.0000 0.0000 0.0000 4.4749 0.0000 15.1093
#
#
#
# Elastic Compliance Matrix: (Units=1/GPa)
#
#
# Indices 1 2 3 4 5 6 
#
# 1 0.012364 -0.002527 -0.004132 0.000000 -0.007374 0.000000
# 2 -0.002527 0.012547 -0.005250 0.000000 0.004760 0.000000
# 3 -0.004132 -0.005250 0.014432 0.000000 0.002729 0.000000
# 4 0.000000 0.000000 0.000000 0.033252 0.000000 -0.009848
# 5 -0.007374 0.004760 0.002729 0.000000 0.038198 0.000000
# 6 0.000000 0.000000 0.000000 -0.009848 0.000000 0.069101
#
#
# Mechanical properties :
#
#
# Convention : Reuss Voigt Hill
#
# Bulk Modulus (GPa) = 64.41735 64.58190 64.49962
# Shear Modulus (GPa) = 23.93620 28.52460 26.23040
#
# Velocity S-wave (km/s) = 3.29853 3.60083 3.45299
# Velocity P-wave (km/s) = 6.61728 6.82964 6.72430
#
# Compressibility (1/GPa) = 0.01552377
#
# Stress axis : x y z
#
# Youngs Moduli (GPa) = 80.87709 79.69790 69.29217
#
# Poissons Ratio (x) = 0.20140 0.28635
# Poissons Ratio (y) = 0.20438 0.36381
# Poissons Ratio (z) = 0.33422 0.41845
#
# Static dielectric constant tensor:
#      x y z
#    x 3.712150 0.000000 0.212850 
#    y 0.000000 4.316320 0.000000 
#    z 0.212850 0.000000 4.031000 
# 
# 
# High freq. dielectric constant tensor:
#      x y z
#    x 1.835630 0.000000 0.014720 
#    y 0.000000 1.881680 0.000000 
#    z 0.014720 0.000000 1.864120 
# 
# From -- ./inp_files/63573.got.cif
#   From: 2010.03.12/outbox.cif.g09.slc.cpg/sg5_32_cif.got.tgz:63573.got - 2010.03.31 09:47:26.
