data_PCOD8048417
_publ_section_title
;
Structure prediction by ZEFSAII (Michael W. Deem and Ramdas Pophale) SiO2 
 PCOD8048417
Probable space group: C 2
;
_chemical_formula_sum "Si O2"
_cell_formula_units_Z 30
_cell_length_a 11.437421
_cell_length_b 8.200192
_cell_length_c 13.816851
_cell_angle_alpha 90.000000
_cell_angle_beta 50.930396
_cell_angle_gamma 90.000000
_cell_volume 1006.088148
_symmetry_space_group_name_H-M "C 2"
_symmetry_group_IT_number 5
_symmetry_cell_setting 'monoclinic'
loop_
_space_group_symop_operation_xyz
x,y,z
-x,y,-z
1/2+x,1/2+y,z
1/2-x,1/2+y,-z
loop_
_atom_site_type_symbol
_atom_site_label
_atom_site_fract_x
_atom_site_fract_y
_atom_site_fract_z
Si Si1 0.153862 0.409620 0.970089
Si Si2 0.292613 0.693634 0.784664
Si Si3 0.488964 0.975062 0.239063
Si Si4 0.000000 0.009762 0.000000
Si Si5 0.530801 0.319071 0.171946
Si Si6 0.731455 0.055353 0.247606
Si Si7 0.661754 0.480653 0.423411
Si Si8 0.116539 0.114159 0.648274
O O1 0.196906 0.595906 0.914366
O O2 0.299458 0.294700 0.870280
O O3 0.118027 0.397325 0.103442
O O4 0.000000 0.353044 0.000000
O O5 0.213796 0.859562 0.787407
O O6 0.344814 0.580792 0.670765
O O7 0.468447 0.741073 0.734535
O O8 0.560687 0.055032 0.299578
O O9 0.323558 0.880793 0.341581
O O10 0.442410 0.145057 0.206516
O O11 0.133750 0.129047 0.889448
O O12 0.929925 0.902991 0.950312
O O13 0.446168 0.436966 0.290668
O O14 0.744126 0.136789 0.347226
O O15 0.500000 0.383169 0.500000
O O16 0.675235 0.603592 0.508032
#
# Coordination Sequence:
#
# PCOD8048417 Si02
#       8
#     4   4   4   2   4   4   4   4
#     4  11  22  39  68 100 134 171 226 273 341 431
#     4  10  21  42  71  98 129 179 230 280 346 413
#     4  12  24  41  67 101 137 176 226 277 355 414
#     4  10  18  38  62  92 128 174 216 264 338 402
#     4  10  22  41  65  96 135 175 218 282 341 409
#     4  11  23  41  66 102 135 177 225 286 346 423
#     4  10  21  43  69  93 127 173 233 285 326 400
#     4   9  22  42  65  94 132 174 233 284 332 394
#
# _framework density 29.818460000000002
#
# number of rings (size 3 to 8) (size 9 to 14) (size 15 to 20)
#    0.000    1.600    2.667    2.400    1.867    0.533 
#   15.600    0.000    8.800    0.000    0.000    0.000 
#    0.000    0.000    0.000    0.000    0.000    0.000 
#
# Total GULP energy -185826.535168 kJ/mol
# GULP energy per Si atom -12388.435678 kJ/mol
# Density = 2.975059 g / cm^3
# Si number density = 29.818460 Si / 1000 Ang^3
#
#
#
# Elastic Constant Matrix: (Units=GPa)
#
#
# Indices 1 2 3 4 5 6 
#
# 1 185.9453 11.4563 68.2238 0.0000 -26.2054 0.0000
# 2 11.4563 86.7100 17.7826 0.0000 -13.7690 0.0000
# 3 68.2238 17.7826 133.7150 0.0000 -13.8444 0.0000
# 4 0.0000 0.0000 0.0000 22.1329 0.0000 -15.7447
# 5 -26.2054 -13.7690 -13.8444 0.0000 62.4702 0.0000
# 6 0.0000 0.0000 0.0000 -15.7447 0.0000 46.6662
#
#
#
# Elastic Compliance Matrix: (Units=1/GPa)
#
#
# Indices 1 2 3 4 5 6 
#
# 1 0.006891 0.000114 -0.003305 0.000000 0.002183 0.000000
# 2 0.000114 0.012195 -0.001430 0.000000 0.002419 0.000000
# 3 -0.003305 -0.001430 0.009394 0.000000 0.000380 0.000000
# 4 0.000000 0.000000 0.000000 0.059450 0.000000 0.020058
# 5 0.002183 0.002419 0.000380 0.000000 0.017541 0.000000
# 6 0.000000 0.000000 0.000000 0.020058 0.000000 0.028196
#
#
# Mechanical properties :
#
#
# Convention : Reuss Voigt Hill
#
# Bulk Modulus (GPa) = 51.97680 66.81063 59.39372
# Shear Modulus (GPa) = 33.48458 46.84770 40.16614
#
# Velocity S-wave (km/s) = 3.35468 3.96801 3.67416
# Velocity P-wave (km/s) = 5.69860 6.59150 6.16125
#
# Compressibility (1/GPa) = 0.01923935
#
# Stress axis : x y z
#
# Youngs Moduli (GPa) = 145.11089 82.00149 106.44596
#
# Poissons Ratio (x) = -0.00935 0.35182
# Poissons Ratio (y) = -0.01655 0.15217
# Poissons Ratio (z) = 0.47961 0.11722
#
# Static dielectric constant tensor:
#      x y z
#    x 6.719260 0.000000 -0.051030 
#    y 0.000000 5.681120 0.000000 
#    z -0.051030 0.000000 5.415120 
# 
# 
# High freq. dielectric constant tensor:
#      x y z
#    x 2.273810 0.000000 -0.017290 
#    y 0.000000 2.235130 0.000000 
#    z -0.017290 0.000000 2.197460 
# 
# From -- ./inp_files/52884.got.cif
#   From: 2010.03.12/outbox.cif.g09.slc.cpg/sg5_27_cif.got.tgz:52884.got - 2010.03.31 09:47:26.
