data_PCOD8048122
_publ_section_title
;
Structure prediction by ZEFSAII (Michael W. Deem and Ramdas Pophale) SiO2 
 PCOD8048122
Probable space group: C 2
;
_chemical_formula_sum "Si O2"
_cell_formula_units_Z 32
_cell_length_a 20.677732
_cell_length_b 14.772356
_cell_length_c 14.623210
_cell_angle_alpha 90.000000
_cell_angle_beta 159.921249
_cell_angle_gamma 90.000000
_cell_volume 1533.499368
_symmetry_space_group_name_H-M "C 2"
_symmetry_group_IT_number 5
_symmetry_cell_setting 'monoclinic'
loop_
_space_group_symop_operation_xyz
x,y,z
-x,y,-z
1/2+x,1/2+y,z
1/2-x,1/2+y,-z
loop_
_atom_site_type_symbol
_atom_site_label
_atom_site_fract_x
_atom_site_fract_y
_atom_site_fract_z
Si Si1 0.829817 0.076760 0.504352
Si Si2 0.889567 0.270213 0.568247
Si Si3 0.221139 0.032903 0.109618
Si Si4 0.804010 0.039227 0.258553
Si Si5 0.216641 0.341611 0.759241
Si Si6 0.052095 0.583016 0.432911
Si Si7 0.738204 0.204856 0.037584
Si Si8 0.419284 0.960889 0.696719
O O1 0.786733 0.181643 0.476316
O O2 0.790720 0.071502 0.345004
O O3 0.706030 0.999582 0.387321
O O4 0.047545 0.064377 0.819161
O O5 0.764320 0.299034 0.315395
O O6 0.888798 0.354070 0.638398
O O7 0.100229 0.239690 0.817222
O O8 0.393705 0.018948 0.268626
O O9 0.282836 0.103264 0.273017
O O10 0.181559 0.938362 0.107316
O O11 0.812260 0.124153 0.200327
O O12 0.000000 0.986140 0.500000
O O13 0.636806 0.971693 0.011950
O O14 0.328637 0.283998 0.983572
O O15 0.000000 0.346742 0.500000
O O16 0.137211 0.523889 0.463843
O O17 0.950140 0.675908 0.267592
#
# Coordination Sequence:
#
# PCOD8048122 Si02
#       8
#     4   4   4   4   4   4   4   4
#     4  12  24  42  66  94 138 177 218 267 335 406
#     4  11  20  41  65  95 132 173 220 270 326 393
#     4  11  20  37  65  93 128 170 221 278 324 386
#     4  11  20  42  72  98 124 170 222 282 333 381
#     4  10  17  32  62  96 122 155 220 286 318 367
#     4  10  19  38  61  95 128 168 216 271 333 380
#     4  10  18  34  69 101 120 158 222 284 327 369
#     4  11  25  41  64  97 139 175 213 276 337 398
#
# _framework density 20.867305000000002
#
# number of rings (size 3 to 8) (size 9 to 14) (size 15 to 20)
#    0.000    1.250    6.250    2.250    0.000    0.500 
#    4.500    2.500    2.750    0.000    0.000    0.000 
#    0.000    0.000    0.000    0.000    0.000    0.000 
#
# Total GULP energy -198280.791264 kJ/mol
# GULP energy per Si atom -12392.549454 kJ/mol
# Density = 2.081981 g / cm^3
# Si number density = 20.867305 Si / 1000 Ang^3
#
#
#
# Elastic Constant Matrix: (Units=GPa)
#
#
# Indices 1 2 3 4 5 6 
#
# 1 78.3474 41.8056 21.1559 0.0000 -6.8936 0.0000
# 2 41.8056 131.5593 24.4209 0.0000 -11.0459 0.0000
# 3 21.1559 24.4209 50.8531 0.0000 -19.5595 0.0000
# 4 0.0000 0.0000 0.0000 27.1547 0.0000 -4.4265
# 5 -6.8936 -11.0459 -19.5595 0.0000 30.2476 0.0000
# 6 0.0000 0.0000 0.0000 -4.4265 0.0000 36.8975
#
#
#
# Elastic Compliance Matrix: (Units=1/GPa)
#
#
# Indices 1 2 3 4 5 6 
#
# 1 0.016376 -0.004341 -0.005194 0.000000 -0.001212 0.000000
# 2 -0.004341 0.009504 -0.002401 0.000000 0.000929 0.000000
# 3 -0.005194 -0.002401 0.029531 0.000000 0.017035 0.000000
# 4 0.000000 0.000000 0.000000 0.037561 0.000000 0.004506
# 5 -0.001212 0.000929 0.017035 0.000000 0.044139 0.000000
# 6 0.000000 0.000000 0.000000 0.004506 0.000000 0.027643
#
#
# Mechanical properties :
#
#
# Convention : Reuss Voigt Hill
#
# Bulk Modulus (GPa) = 31.70744 48.39161 40.04953
# Shear Modulus (GPa) = 25.10809 30.41845 27.76327
#
# Velocity S-wave (km/s) = 3.47252 3.82214 3.65151
# Velocity P-wave (km/s) = 5.59514 6.53596 6.08377
#
# Compressibility (1/GPa) = 0.03153834
#
# Stress axis : x y z
#
# Youngs Moduli (GPa) = 61.06446 105.21478 33.86328
#
# Poissons Ratio (x) = 0.45678 0.17589
# Poissons Ratio (y) = 0.26511 0.08130
# Poissons Ratio (z) = 0.31717 0.25260
#
# Static dielectric constant tensor:
#      x y z
#    x 3.789840 0.000000 -0.301520 
#    y 0.000000 3.841380 0.000000 
#    z -0.301520 0.000000 3.782110 
# 
# 
# High freq. dielectric constant tensor:
#      x y z
#    x 1.810730 0.000000 -0.022180 
#    y 0.000000 1.802260 0.000000 
#    z -0.022180 0.000000 1.805180 
# 
# From -- ./inp_files/20651.got.cif
#   From: 2010.03.12/outbox.cif.g09.slc.cpg/sg5_11_cif.got.tgz:20651.got - 2010.03.31 09:47:26.
