data_PCOD8048667
_publ_section_title
;
Structure prediction by ZEFSAII (Michael W. Deem and Ramdas Pophale) SiO2 
 PCOD8048667
Probable space group: C 2
;
_chemical_formula_sum "Si O2"
_cell_formula_units_Z 32
_cell_length_a 17.045410
_cell_length_b 15.037551
_cell_length_c 11.415109
_cell_angle_alpha 90.000000
_cell_angle_beta 30.467171
_cell_angle_gamma 90.000000
_cell_volume 1483.579351
_symmetry_space_group_name_H-M "C 2"
_symmetry_group_IT_number 5
_symmetry_cell_setting 'monoclinic'
loop_
_space_group_symop_operation_xyz
x,y,z
-x,y,-z
1/2+x,1/2+y,z
1/2-x,1/2+y,-z
loop_
_atom_site_type_symbol
_atom_site_label
_atom_site_fract_x
_atom_site_fract_y
_atom_site_fract_z
Si Si1 0.259197 0.990690 0.643256
Si Si2 0.666576 0.624113 0.944133
Si Si3 0.424863 0.343334 0.775352
Si Si4 0.332402 0.855304 0.729654
Si Si5 0.653348 0.994074 0.866255
Si Si6 0.915445 0.019562 0.364821
Si Si7 0.772840 0.807983 0.726310
Si Si8 0.895858 0.527679 0.803436
O O1 0.277146 0.891151 0.673924
O O2 0.188486 0.980639 0.606534
O O3 0.420976 0.044255 0.431773
O O4 0.149391 0.048887 0.867032
O O5 0.673881 0.719301 0.872536
O O6 0.813718 0.610030 0.841537
O O7 0.505260 0.611862 0.222013
O O8 0.455127 0.446267 0.769644
O O9 0.342201 0.341938 0.758120
O O10 0.590516 0.292669 0.547069
O O11 0.308233 0.300579 0.025199
O O12 0.500000 0.804336 0.500000
O O13 0.362456 0.937886 0.776972
O O14 0.803258 0.041044 0.617151
O O15 0.661099 0.887844 0.830388
O O16 0.500000 0.030514 0.000000
O O17 0.661566 0.020441 0.990534
#
# Coordination Sequence:
#
# PCOD8048667 Si02
#       8
#     4   4   4   4   4   4   4   4
#     4  10  20  33  59  91 120 152 205 256 305 355
#     4  11  22  37  61  94 121 160 204 262 310 363
#     4  10  19  36  57  89 120 158 206 253 303 364
#     4   9  17  32  58  86 118 155 203 259 292 348
#     4  11  21  38  61  91 122 163 204 262 312 368
#     4  11  21  36  61  94 122 160 209 261 306 366
#     4  10  23  36  60  88 129 157 205 258 315 366
#     4  10  19  36  58  87 120 159 215 246 300 367
#
# _framework density 21.569455000000001
#
# number of rings (size 3 to 8) (size 9 to 14) (size 15 to 20)
#    0.000    1.750    5.000    1.500    3.500    1.500 
#    0.000    0.000    2.750    0.000    6.500    0.000 
#    0.000    0.000    0.000    0.000    0.000    0.000 
#
# Total GULP energy -198298.518577 kJ/mol
# GULP energy per Si atom -12393.657411 kJ/mol
# Density = 2.152036 g / cm^3
# Si number density = 21.569455 Si / 1000 Ang^3
#
#
#
# Elastic Constant Matrix: (Units=GPa)
#
#
# Indices 1 2 3 4 5 6 
#
# 1 65.3018 -8.7221 9.8605 0.0000 9.1938 0.0001
# 2 -8.7221 47.3873 24.0985 0.0000 2.7999 0.0000
# 3 9.8605 24.0985 161.0458 0.0001 13.6158 -0.0001
# 4 0.0000 0.0000 0.0001 30.5142 0.0000 3.8187
# 5 9.1938 2.7999 13.6158 0.0000 30.2467 0.0000
# 6 0.0001 0.0000 -0.0001 3.8187 0.0000 11.3889
#
#
#
# Elastic Compliance Matrix: (Units=1/GPa)
#
#
# Indices 1 2 3 4 5 6 
#
# 1 0.016718 0.003979 -0.001204 0.000000 -0.004908 0.000000
# 2 0.003979 0.023799 -0.003655 0.000000 -0.001767 0.000000
# 3 -0.001204 -0.003655 0.007038 0.000000 -0.002464 0.000000
# 4 0.000000 0.000000 0.000000 0.034207 0.000000 -0.011470
# 5 -0.004908 -0.001767 -0.002464 0.000000 0.035826 0.000000
# 6 0.000000 0.000000 0.000000 -0.011470 0.000000 0.091650
#
#
# Mechanical properties :
#
#
# Convention : Reuss Voigt Hill
#
# Bulk Modulus (GPa) = 21.83663 36.02318 28.92990
# Shear Modulus (GPa) = 22.09815 30.99651 26.54733
#
# Velocity S-wave (km/s) = 3.20427 3.79496 3.51206
# Velocity P-wave (km/s) = 4.88218 5.99497 5.46696
#
# Compressibility (1/GPa) = 0.04579462
#
# Stress axis : x y z
#
# Youngs Moduli (GPa) = 59.81630 42.01945 142.07671
#
# Poissons Ratio (x) = -0.16721 0.17108
# Poissons Ratio (y) = -0.23804 0.51935
# Poissons Ratio (z) = 0.07203 0.15360
#
# Static dielectric constant tensor:
#      x y z
#    x 3.807970 0.000000 0.118080 
#    y 0.000000 3.250350 0.000000 
#    z 0.118080 0.000000 4.635260 
# 
# 
# High freq. dielectric constant tensor:
#      x y z
#    x 1.841870 0.000000 0.000930 
#    y 0.000000 1.775600 0.000000 
#    z 0.000930 0.000000 1.878120 
# 
# From -- ./inp_files/45091.got.cif
#   From: 2010.03.12/outbox.cif.g09.slc.cpg/sg5_23_cif.got.tgz:45091.got - 2010.03.31 09:47:26.
