data_PCOD8048486
_publ_section_title
;
Structure prediction by ZEFSAII (Michael W. Deem and Ramdas Pophale) SiO2 
 PCOD8048486
Probable space group: C 2
;
_chemical_formula_sum "Si O2"
_cell_formula_units_Z 28
_cell_length_a 11.850776
_cell_length_b 14.149642
_cell_length_c 8.675525
_cell_angle_alpha 90.000000
_cell_angle_beta 53.862013
_cell_angle_gamma 90.000000
_cell_volume 1174.853776
_symmetry_space_group_name_H-M "C 2"
_symmetry_group_IT_number 5
_symmetry_cell_setting 'monoclinic'
loop_
_space_group_symop_operation_xyz
x,y,z
-x,y,-z
1/2+x,1/2+y,z
1/2-x,1/2+y,-z
loop_
_atom_site_type_symbol
_atom_site_label
_atom_site_fract_x
_atom_site_fract_y
_atom_site_fract_z
Si Si1 0.735622 0.259810 0.238036
Si Si2 0.996402 0.688200 0.250718
Si Si3 0.369401 0.020744 0.012923
Si Si4 0.704503 0.859931 0.126294
Si Si5 0.842816 0.952170 0.578934
Si Si6 0.500000 0.742359 0.500000
Si Si7 0.306694 0.625263 0.428653
Si Si8 0.500000 0.334267 0.000000
O O1 0.579486 0.220461 0.335801
O O2 0.729013 0.347879 0.366051
O O3 0.826456 0.174834 0.244207
O O4 0.797282 0.293843 0.025590
O O5 0.857155 0.632018 0.401082
O O6 0.948570 0.777051 0.189992
O O7 0.102852 0.628470 0.057166
O O8 0.359357 0.960948 0.864310
O O9 0.500000 0.977719 0.000000
O O10 0.230780 0.016336 0.229583
O O11 0.610583 0.809419 0.327294
O O12 0.859915 0.888558 0.060496
O O13 0.000000 0.935189 0.500000
O O14 0.834971 0.011220 0.422716
O O15 0.413636 0.675492 0.456789
#
# Coordination Sequence:
#
# PCOD8048486 Si02
#       8
#     4   4   4   4   4   2   4   2
#     4  10  26  45  72 100 144 188 237 291 353 429
#     4  11  20  42  70  95 139 185 240 282 349 428
#     4  11  23  43  70 101 141 194 233 295 360 422
#     4  10  25  45  70 105 142 189 234 299 362 419
#     4  11  23  44  69 101 140 187 237 285 361 421
#     4  12  26  42  72 108 144 178 242 300 360 420
#     4  12  23  41  69 107 135 184 237 290 356 421
#     4  10  18  42  72  96 130 190 234 282 350 426
#
# _framework density 23.832751999999999
#
# number of rings (size 3 to 8) (size 9 to 14) (size 15 to 20)
#    0.000    1.143    4.286    1.286    6.000    0.000 
#    5.143    0.000    0.000    0.000    0.000    0.000 
#    0.000    0.000    0.000    0.000    0.000    0.000 
#
# Total GULP energy -173466.078068 kJ/mol
# GULP energy per Si atom -12390.434148 kJ/mol
# Density = 2.377851 g / cm^3
# Si number density = 23.832752 Si / 1000 Ang^3
#
#
#
# Elastic Constant Matrix: (Units=GPa)
#
#
# Indices 1 2 3 4 5 6 
#
# 1 123.1513 48.2102 24.2059 0.0000 16.0348 0.0000
# 2 48.2102 74.1854 -3.9379 0.0000 7.3465 0.0000
# 3 24.2059 -3.9379 64.1228 0.0000 -10.2018 0.0000
# 4 0.0000 0.0000 0.0000 17.1294 0.0000 4.4191
# 5 16.0348 7.3465 -10.2018 0.0000 39.2587 0.0000
# 6 0.0000 0.0000 0.0000 4.4191 0.0000 35.8458
#
#
#
# Elastic Compliance Matrix: (Units=1/GPa)
#
#
# Indices 1 2 3 4 5 6 
#
# 1 0.013471 -0.008546 -0.006500 0.000000 -0.005592 0.000000
# 2 -0.008546 0.019168 0.004577 0.000000 0.001093 0.000000
# 3 -0.006500 0.004577 0.019419 0.000000 0.006844 0.000000
# 4 0.000000 0.000000 0.000000 0.060297 0.000000 -0.007433
# 5 -0.005592 0.001093 0.006844 0.000000 0.029330 0.000000
# 6 0.000000 0.000000 0.000000 -0.007433 0.000000 0.028814
#
#
# Mechanical properties :
#
#
# Convention : Reuss Voigt Hill
#
# Bulk Modulus (GPa) = 32.13279 44.26845 38.20062
# Shear Modulus (GPa) = 24.77591 31.31220 28.04405
#
# Velocity S-wave (km/s) = 3.22774 3.62861 3.43403
# Velocity P-wave (km/s) = 5.23478 6.01421 5.63798
#
# Compressibility (1/GPa) = 0.03112086
#
# Stress axis : x y z
#
# Youngs Moduli (GPa) = 74.23296 52.17052 51.49678
#
# Poissons Ratio (x) = 0.44583 0.33472
# Poissons Ratio (y) = 0.63436 -0.23570
# Poissons Ratio (z) = 0.48249 -0.23878
#
# Static dielectric constant tensor:
#      x y z
#    x 4.524190 0.000000 0.123810 
#    y 0.000000 4.425120 0.000000 
#    z 0.123810 0.000000 4.184050 
# 
# 
# High freq. dielectric constant tensor:
#      x y z
#    x 1.956060 0.000000 -0.002160 
#    y 0.000000 1.936730 0.000000 
#    z -0.002160 0.000000 1.932830 
# 
# From -- ./inp_files/20574.got.cif
#   From: 2010.03.12/outbox.cif.g09.slc.cpg/sg5_11_cif.got.tgz:20574.got - 2010.03.31 09:47:26.
