data_PCOD8048044
_publ_section_title
;
Structure prediction by ZEFSAII (Michael W. Deem and Ramdas Pophale) SiO2 
 PCOD8048044
Probable space group: C 2
;
_chemical_formula_sum "Si O2"
_cell_formula_units_Z 32
_cell_length_a 18.568544
_cell_length_b 9.022472
_cell_length_c 23.701944
_cell_angle_alpha 90.000000
_cell_angle_beta 159.198147
_cell_angle_gamma 90.000000
_cell_volume 1410.209131
_symmetry_space_group_name_H-M "C 2"
_symmetry_group_IT_number 5
_symmetry_cell_setting 'monoclinic'
loop_
_space_group_symop_operation_xyz
x,y,z
-x,y,-z
1/2+x,1/2+y,z
1/2-x,1/2+y,-z
loop_
_atom_site_type_symbol
_atom_site_label
_atom_site_fract_x
_atom_site_fract_y
_atom_site_fract_z
Si Si1 0.806477 0.086080 0.827636
Si Si2 0.990171 0.299829 0.221720
Si Si3 0.166661 0.142439 0.659690
Si Si4 0.818040 0.278388 0.212752
Si Si5 0.306792 0.441522 0.710335
Si Si6 0.579087 0.204779 0.499043
Si Si7 0.941243 0.519317 0.015422
Si Si8 0.702165 0.490423 0.944313
O O1 0.612702 0.198807 0.684926
O O2 0.757033 0.940062 0.826756
O O3 0.867485 0.044079 0.808245
O O4 0.000000 0.163412 0.000000
O O5 0.984918 0.291767 0.285789
O O6 0.885880 0.450414 0.121851
O O7 0.229481 0.298990 0.382499
O O8 0.862607 0.163851 0.100393
O O9 0.092182 0.185936 0.668345
O O10 0.208949 0.289500 0.655700
O O11 0.356028 0.032040 0.799167
O O12 0.000000 0.056478 0.500000
O O13 0.624937 0.187749 0.047612
O O14 0.144090 0.532020 0.553868
O O15 0.503697 0.399915 0.817325
O O16 0.500000 0.272697 0.500000
O O17 0.771145 0.443468 0.930734
O O18 0.000000 0.433462 0.000000
#
# Coordination Sequence:
#
# PCOD8048044 Si02
#       8
#     4   4   4   4   4   4   4   4
#     4  10  16  27  51  81 112 145 185 234 289 341
#     4  10  20  36  59  87 119 155 195 245 298 347
#     4  10  17  29  52  82 112 145 189 239 285 334
#     4   9  17  31  54  84 114 146 189 245 293 333
#     4   9  16  28  50  81 108 137 185 238 285 329
#     4   9  19  33  52  78 113 154 190 233 290 349
#     4   9  18  32  52  80 114 152 191 231 284 348
#     4  10  19  34  59  85 112 150 194 237 289 351
#
# _framework density 22.691670999999999
#
# number of rings (size 3 to 8) (size 9 to 14) (size 15 to 20)
#    0.000    2.500    0.000    6.000    0.000    0.000 
#    0.000    3.125    0.000   27.750    0.000    0.000 
#    0.000    0.000    0.000    0.000    0.000    0.000 
#
# Total GULP energy -198259.938259 kJ/mol
# GULP energy per Si atom -12391.246141 kJ/mol
# Density = 2.264002 g / cm^3
# Si number density = 22.691671 Si / 1000 Ang^3
#
#
#
# Elastic Constant Matrix: (Units=GPa)
#
#
# Indices 1 2 3 4 5 6 
#
# 1 158.7765 12.7311 63.3135 0.0005 32.2000 0.0036
# 2 12.7311 32.1659 21.4590 -0.0071 3.9191 -0.0079
# 3 63.3135 21.4590 175.3098 -0.0573 -2.6738 -0.0242
# 4 0.0005 -0.0071 -0.0573 13.9818 0.0070 6.0932
# 5 32.2000 3.9191 -2.6738 0.0070 42.1868 0.0067
# 6 0.0036 -0.0079 -0.0242 6.0932 0.0067 11.5407
#
#
#
# Elastic Compliance Matrix: (Units=1/GPa)
#
#
# Indices 1 2 3 4 5 6 
#
# 1 0.009114 -0.000513 -0.003337 -0.000010 -0.007120 -0.000001
# 2 -0.000513 0.034380 -0.004070 -0.000006 -0.003060 0.000020
# 3 -0.003337 -0.004070 0.007459 0.000028 0.003398 -0.000003
# 4 -0.000010 -0.000006 0.000028 0.092896 0.000003 -0.049047
# 5 -0.007120 -0.003060 0.003398 0.000003 0.029639 -0.000011
# 6 -0.000001 0.000020 -0.000003 -0.049047 -0.000011 0.112545
#
#
# Mechanical properties :
#
#
# Convention : Reuss Voigt Hill
#
# Bulk Modulus (GPa) = 28.47961 62.36216 45.42088
# Shear Modulus (GPa) = 15.94499 31.45843 23.70171
#
# Velocity S-wave (km/s) = 2.65369 3.72740 3.23540
# Velocity P-wave (km/s) = 4.68693 6.78725 5.83241
#
# Compressibility (1/GPa) = 0.03511285
#
# Stress axis : x y z
#
# Youngs Moduli (GPa) = 109.71961 29.08689 134.05789
#
# Poissons Ratio (x) = 0.01493 0.44740
# Poissons Ratio (y) = 0.05632 0.54556
# Poissons Ratio (z) = 0.36617 0.11837
#
# Static dielectric constant tensor:
#      x y z
#    x 4.432710 0.000000 0.061930 
#    y 0.000000 3.555610 -0.000020 
#    z 0.061930 -0.000020 4.159790 
# 
# 
# High freq. dielectric constant tensor:
#      x y z
#    x 1.898560 0.000000 0.009540 
#    y 0.000000 1.859450 0.000000 
#    z 0.009540 0.000000 1.890260 
# 
# From -- ./inp_files/69270.got.cif
#   From: 2010.03.12/outbox.cif.g09.slc.cpg/sg5_35_cif.got.tgz:69270.got - 2010.03.31 09:47:26.
