data_PCOD8048757
_publ_section_title
;
Structure prediction by ZEFSAII (Michael W. Deem and Ramdas Pophale) SiO2 
 PCOD8048757
Probable space group: C 2
;
_chemical_formula_sum "Si O2"
_cell_formula_units_Z 32
_cell_length_a 13.671264
_cell_length_b 17.189880
_cell_length_c 13.971328
_cell_angle_alpha 90.000000
_cell_angle_beta 148.348647
_cell_angle_gamma 90.000000
_cell_volume 1722.942919
_symmetry_space_group_name_H-M "C 2"
_symmetry_group_IT_number 5
_symmetry_cell_setting 'monoclinic'
loop_
_space_group_symop_operation_xyz
x,y,z
-x,y,-z
1/2+x,1/2+y,z
1/2-x,1/2+y,-z
loop_
_atom_site_type_symbol
_atom_site_label
_atom_site_fract_x
_atom_site_fract_y
_atom_site_fract_z
Si Si1 0.742706 0.871780 0.443264
Si Si2 0.695178 0.498643 0.905387
Si Si3 0.057265 0.770847 0.792875
Si Si4 0.606060 0.526651 0.493463
Si Si5 0.118715 0.891227 0.004219
Si Si6 0.498601 0.952651 0.612682
Si Si7 0.485513 0.090686 0.742085
Si Si8 0.087954 0.346666 0.970882
O O1 0.684314 0.911021 0.496275
O O2 0.566372 0.836417 0.240497
O O3 0.898231 0.808653 0.594570
O O4 0.831529 0.936843 0.447931
O O5 0.539466 0.539647 0.712750
O O6 0.584677 0.464464 0.905335
O O7 0.804121 0.428342 0.944882
O O8 0.846786 0.564304 0.050637
O O9 0.006133 0.681516 0.746892
O O10 0.068231 0.810273 0.908091
O O11 0.259906 0.778863 0.913909
O O12 0.500000 0.553306 0.500000
O O13 0.787345 0.579315 0.628480
O O14 0.335080 0.896739 0.213351
O O15 0.000000 0.901109 0.000000
O O16 0.500000 0.957604 0.500000
O O17 0.504745 0.040603 0.659962
O O18 0.000000 0.336509 0.000000
#
# Coordination Sequence:
#
# PCOD8048757 Si02
#       8
#     4   4   4   4   4   4   4   4
#     4  11  20  37  65  90 117 154 205 256 292 356
#     4  10  20  38  63  86 119 154 200 254 295 354
#     4  11  23  41  58  89 130 158 193 252 312 363
#     4  11  21  37  63  92 112 158 206 241 299 364
#     4  10  19  37  63  89 111 158 208 249 297 347
#     4  10  20  39  64  87 114 158 212 255 290 354
#     4  10  24  41  56  88 131 155 192 254 310 358
#     4  11  21  38  64  91 118 157 204 247 295 364
#
# _framework density 18.572873999999999
#
# number of rings (size 3 to 8) (size 9 to 14) (size 15 to 20)
#    0.000    1.500    7.500    1.500    1.750    1.000 
#    4.500    3.125    0.000    0.000    0.000    0.000 
#    0.000    0.000    0.000    0.000    0.000    0.000 
#
# Total GULP energy -198325.617149 kJ/mol
# GULP energy per Si atom -12395.351072 kJ/mol
# Density = 1.853060 g / cm^3
# Si number density = 18.572874 Si / 1000 Ang^3
#
#
#
# Elastic Constant Matrix: (Units=GPa)
#
#
# Indices 1 2 3 4 5 6 
#
# 1 151.7549 39.7102 46.0703 0.0002 -0.6180 0.0001
# 2 39.7102 115.2373 62.7110 -0.0001 8.6078 0.0000
# 3 46.0703 62.7110 109.7819 0.0009 7.7890 0.0003
# 4 0.0002 -0.0001 0.0009 27.1087 0.0002 -1.6052
# 5 -0.6180 8.6078 7.7890 0.0002 28.9166 0.0001
# 6 0.0001 0.0000 0.0003 -1.6052 0.0001 -2.4760
#
#
#
# Elastic Compliance Matrix: (Units=1/GPa)
#
#
# Indices 1 2 3 4 5 6 
#
# 1 0.007727 -0.001369 -0.002550 0.000000 0.001260 0.000000
# 2 -0.001369 0.012932 -0.006665 0.000000 -0.002084 -0.000001
# 3 -0.002550 -0.006665 0.014119 0.000000 -0.001874 0.000002
# 4 0.000000 0.000000 0.000000 0.035525 0.000000 -0.023031
# 5 0.001260 -0.002084 -0.001874 0.000000 0.035734 0.000001
# 6 0.000000 -0.000001 0.000002 -0.023031 0.000001 -0.388948
#
#
# Mechanical properties :
#
#
# Convention : Reuss Voigt Hill
#
# Bulk Modulus (GPa) = 73.47273 74.86188 74.16731
# Shear Modulus (GPa) = -19.43967 25.92870 3.24451
#
# Velocity S-wave (km/s) = -3.23874 3.74043 1.32314
# Velocity P-wave (km/s) = 5.06549 7.68434 6.50800
#
# Compressibility (1/GPa) = 0.01361049
#
# Stress axis : x y z
#
# Youngs Moduli (GPa) = 129.41470 77.32675 70.82559
#
# Poissons Ratio (x) = 0.10587 0.18060
# Poissons Ratio (y) = 0.17719 0.47204
# Poissons Ratio (z) = 0.33000 0.51537
#
# Static dielectric constant tensor:
#      x y z
#    x 2.771300 0.000000 -0.605920 
#    y 0.000000 3.068870 0.000000 
#    z -0.605920 0.000000 3.070000 
# 
# 
# High freq. dielectric constant tensor:
#      x y z
#    x 1.724230 0.000000 0.011550 
#    y 0.000000 1.684420 0.000000 
#    z 0.011550 0.000000 1.743490 
# 
# From -- ./inp_files/54918.got.cif
#   From: 2010.03.12/outbox.cif.g09.slc.cpg/sg5_28_cif.got.tgz:54918.got - 2010.03.31 09:47:26.
