data_PCOD8048056
_publ_section_title
;
Structure prediction by ZEFSAII (Michael W. Deem and Ramdas Pophale) SiO2 
 PCOD8048056
Probable space group: C 2
;
_chemical_formula_sum "Si O2"
_cell_formula_units_Z 32
_cell_length_a 16.378621
_cell_length_b 12.031034
_cell_length_c 11.709232
_cell_angle_alpha 90.000000
_cell_angle_beta 51.397029
_cell_angle_gamma 90.000000
_cell_volume 1803.146775
_symmetry_space_group_name_H-M "C 2"
_symmetry_group_IT_number 5
_symmetry_cell_setting 'monoclinic'
loop_
_space_group_symop_operation_xyz
x,y,z
-x,y,-z
1/2+x,1/2+y,z
1/2-x,1/2+y,-z
loop_
_atom_site_type_symbol
_atom_site_label
_atom_site_fract_x
_atom_site_fract_y
_atom_site_fract_z
Si Si1 0.557875 0.232150 0.675220
Si Si2 0.310694 0.216185 0.661887
Si Si3 0.383824 0.071522 0.808402
Si Si4 0.822536 0.107502 0.906247
Si Si5 0.389142 0.350485 0.150550
Si Si6 0.367483 0.385234 0.780459
Si Si7 0.886640 0.098546 0.107774
Si Si8 0.788197 0.340465 0.878825
O O1 0.639460 0.205257 0.504852
O O2 0.496775 0.115464 0.753390
O O3 0.624408 0.276229 0.724311
O O4 0.478784 0.331099 0.710827
O O5 0.365175 0.133991 0.704658
O O6 0.325725 0.342168 0.694565
O O7 0.188473 0.184416 0.761284
O O8 0.372836 0.939825 0.792897
O O9 0.304091 0.105182 0.979935
O O10 0.858228 0.229271 0.834482
O O11 0.874901 0.019316 0.773529
O O12 0.850362 0.071025 0.011024
O O13 0.392374 0.482927 0.173012
O O14 0.287559 0.326146 0.163095
O O15 0.500000 0.314190 0.000000
O O16 0.281925 0.352659 0.948380
O O17 0.000000 0.155505 0.000000
#
# Coordination Sequence:
#
# PCOD8048056 Si02
#       8
#     4   4   4   4   4   4   4   4
#     4  11  20  33  57  81 112 147 194 236 283 340
#     4  10  19  34  55  80 109 150 186 234 286 347
#     4   9  17  32  53  85 109 145 186 231 279 337
#     4  10  17  30  55  84 109 138 187 244 283 324
#     4  11  18  32  56  87 109 139 194 243 280 325
#     4  10  16  31  52  83 109 138 191 236 278 328
#     4  10  18  32  57  83 105 138 187 240 283 338
#     4  11  17  31  58  84 113 145 191 242 284 330
#
# _framework density 17.746752999999998
#
# number of rings (size 3 to 8) (size 9 to 14) (size 15 to 20)
#    0.000    1.750    8.750    2.250    0.000    0.000 
#    0.000    1.250    5.500    3.000    0.000    0.000 
#    0.000    0.000    0.000    0.000    0.000    0.000 
#
# Total GULP energy -198279.947390 kJ/mol
# GULP energy per Si atom -12392.496712 kJ/mol
# Density = 1.770636 g / cm^3
# Si number density = 17.746753 Si / 1000 Ang^3
#
#
#
# Elastic Constant Matrix: (Units=GPa)
#
#
# Indices 1 2 3 4 5 6 
#
# 1 62.1882 34.2671 25.0227 0.0000 -2.6289 0.0000
# 2 34.2671 132.0222 32.1429 0.0000 -1.3133 0.0000
# 3 25.0227 32.1429 68.5115 0.0000 -3.6638 0.0000
# 4 0.0000 0.0000 0.0000 20.2842 0.0000 -1.6767
# 5 -2.6289 -1.3133 -3.6638 0.0000 19.1290 0.0000
# 6 0.0000 0.0000 0.0000 -1.6767 0.0000 26.4368
#
#
#
# Elastic Compliance Matrix: (Units=1/GPa)
#
#
# Indices 1 2 3 4 5 6 
#
# 1 0.020572 -0.003968 -0.005572 0.000000 0.001488 0.000000
# 2 -0.003968 0.009317 -0.002947 0.000000 -0.000470 0.000000
# 3 -0.005572 -0.002947 0.018148 0.000000 0.002508 0.000000
# 4 0.000000 0.000000 0.000000 0.049559 0.000000 0.003143
# 5 0.001488 -0.000470 0.002508 0.000000 0.052929 0.000000
# 6 0.000000 0.000000 0.000000 0.003143 0.000000 0.038025
#
#
# Mechanical properties :
#
#
# Convention : Reuss Voigt Hill
#
# Bulk Modulus (GPa) = 43.36125 49.50969 46.43547
# Shear Modulus (GPa) = 22.60264 24.58929 23.59597
#
# Velocity S-wave (km/s) = 3.57265 3.72636 3.65031
# Velocity P-wave (km/s) = 6.44243 6.81709 6.63241
#
# Compressibility (1/GPa) = 0.02306206
#
# Stress axis : x y z
#
# Youngs Moduli (GPa) = 48.61042 107.32753 55.10227
#
# Poissons Ratio (x) = 0.42588 0.30705
# Poissons Ratio (y) = 0.19289 0.16240
# Poissons Ratio (z) = 0.27087 0.31631
#
# Static dielectric constant tensor:
#      x y z
#    x 3.281950 0.000000 -0.067980 
#    y 0.000000 3.620710 0.000000 
#    z -0.067980 0.000000 3.069700 
# 
# 
# High freq. dielectric constant tensor:
#      x y z
#    x 1.662750 0.000000 -0.002060 
#    y 0.000000 1.685040 0.000000 
#    z -0.002060 0.000000 1.656660 
# 
# From -- ./inp_files/44604.got.cif
#   From: 2010.03.12/outbox.cif.g09.slc.cpg/sg5_23_cif.got.tgz:44604.got - 2010.03.31 09:47:26.
