data_PCOD8048238
_publ_section_title
;
Structure prediction by ZEFSAII (Michael W. Deem and Ramdas Pophale) SiO2 
 PCOD8048238
Probable space group: C 2
;
_chemical_formula_sum "Si O2"
_cell_formula_units_Z 26
_cell_length_a 13.881559
_cell_length_b 18.013882
_cell_length_c 14.637257
_cell_angle_alpha 90.000000
_cell_angle_beta 159.448726
_cell_angle_gamma 90.000000
_cell_volume 1284.897923
_symmetry_space_group_name_H-M "C 2"
_symmetry_group_IT_number 5
_symmetry_cell_setting 'monoclinic'
loop_
_space_group_symop_operation_xyz
x,y,z
-x,y,-z
1/2+x,1/2+y,z
1/2-x,1/2+y,-z
loop_
_atom_site_type_symbol
_atom_site_label
_atom_site_fract_x
_atom_site_fract_y
_atom_site_fract_z
Si Si1 0.000000 0.509030 0.500000
Si Si2 0.395103 0.556109 0.586356
Si Si3 0.306868 0.418132 0.636903
Si Si4 0.459958 0.139103 0.592923
Si Si5 0.508561 0.731087 0.905517
Si Si6 0.471415 0.007984 0.078034
Si Si7 0.382720 0.866811 0.126481
O O1 0.242857 0.455490 0.678903
O O2 0.916342 0.562948 0.341219
O O3 0.368223 0.480672 0.618005
O O4 0.252736 0.623216 0.514000
O O5 0.720780 0.567520 0.862133
O O6 0.246490 0.548833 0.356226
O O7 0.564902 0.362824 0.874561
O O8 0.050963 0.371486 0.370385
O O9 0.274637 0.184193 0.355082
O O10 0.719639 0.181472 0.864606
O O11 0.500000 0.765230 0.000000
O O12 0.516624 0.794458 0.837374
O O13 0.423543 0.936585 0.097436
O O14 0.500000 0.980434 0.000000
#
# Coordination Sequence:
#
# PCOD8048238 Si02
#       7
#     2   4   4   4   4   4   4
#     4  10  20  38  60  90 116 138 200 242 294 338
#     4   9  19  33  51  79 111 137 177 231 289 324
#     4   9  20  34  56  79 111 147 179 242 276 328
#     4  11  22  36  55  86 117 144 182 233 297 342
#     4  12  22  36  55  84 116 155 182 221 280 358
#     4  10  18  33  54  80 105 142 182 231 268 326
#     4  10  21  36  51  82 115 149 186 213 287 332
#
# _framework density 20.23507
#
# number of rings (size 3 to 8) (size 9 to 14) (size 15 to 20)
#    0.000    1.846    1.538    2.769    0.000    5.538 
#    0.000    4.615    0.000    0.000   40.000    0.000 
#    0.000    0.000    0.000    0.000    0.000    0.000 
#
# Total GULP energy -161132.604403 kJ/mol
# GULP energy per Si atom -12394.815723 kJ/mol
# Density = 2.018901 g / cm^3
# Si number density = 20.235070 Si / 1000 Ang^3
#
#
#
# Elastic Constant Matrix: (Units=GPa)
#
#
# Indices 1 2 3 4 5 6 
#
# 1 74.6286 29.6534 32.4368 0.0000 4.9286 -0.0007
# 2 29.6534 59.9187 29.1771 0.0012 2.9110 -0.0003
# 3 32.4368 29.1771 134.7366 0.0015 11.8695 -0.0018
# 4 0.0000 0.0012 0.0015 16.8369 0.0002 2.9919
# 5 4.9286 2.9110 11.8695 0.0002 28.4840 0.0001
# 6 -0.0007 -0.0003 -0.0018 2.9919 0.0001 32.0448
#
#
#
# Elastic Compliance Matrix: (Units=1/GPa)
#
#
# Indices 1 2 3 4 5 6 
#
# 1 0.017504 -0.007382 -0.002507 0.000001 -0.001230 0.000000
# 2 -0.007382 0.021771 -0.002963 -0.000001 0.000287 0.000000
# 3 -0.002507 -0.002963 0.008930 -0.000001 -0.002985 0.000000
# 4 0.000001 -0.000001 -0.000001 0.060395 0.000000 -0.005639
# 5 -0.001230 0.000287 -0.002985 0.000000 0.036535 0.000000
# 6 0.000000 0.000000 0.000000 -0.005639 0.000000 0.031733
#
#
# Mechanical properties :
#
#
# Convention : Reuss Voigt Hill
#
# Bulk Modulus (GPa) = 44.44124 50.20206 47.32165
# Shear Modulus (GPa) = 23.80140 27.34091 25.57115
#
# Velocity S-wave (km/s) = 3.43336 3.67981 3.55872
# Velocity P-wave (km/s) = 6.14227 6.55118 6.35002
#
# Compressibility (1/GPa) = 0.02250162
#
# Stress axis : x y z
#
# Youngs Moduli (GPa) = 57.13055 45.93201 111.98306
#
# Poissons Ratio (x) = 0.33907 0.28074
# Poissons Ratio (y) = 0.42174 0.33177
# Poissons Ratio (z) = 0.14323 0.13608
#
# Static dielectric constant tensor:
#      x y z
#    x 3.655210 0.000000 0.149460 
#    y 0.000000 3.353210 0.000000 
#    z 0.149460 0.000000 4.000360 
# 
# 
# High freq. dielectric constant tensor:
#      x y z
#    x 1.784810 0.000000 0.006820 
#    y 0.000000 1.747740 0.000000 
#    z 0.006820 0.000000 1.802550 
# 
# From -- ./inp_files/54974.got.cif
#   From: 2010.03.12/outbox.cif.g09.slc.cpg/sg5_28_cif.got.tgz:54974.got - 2010.03.31 09:47:26.
