data_PCOD8048692
_publ_section_title
;
Structure prediction by ZEFSAII (Michael W. Deem and Ramdas Pophale) SiO2 
 PCOD8048692
Probable space group: C 2
;
_chemical_formula_sum "Si O2"
_cell_formula_units_Z 30
_cell_length_a 8.019554
_cell_length_b 15.667030
_cell_length_c 12.193248
_cell_angle_alpha 90.000000
_cell_angle_beta 72.136303
_cell_angle_gamma 90.000000
_cell_volume 1458.132397
_symmetry_space_group_name_H-M "C 2"
_symmetry_group_IT_number 5
_symmetry_cell_setting 'monoclinic'
loop_
_space_group_symop_operation_xyz
x,y,z
-x,y,-z
1/2+x,1/2+y,z
1/2-x,1/2+y,-z
loop_
_atom_site_type_symbol
_atom_site_label
_atom_site_fract_x
_atom_site_fract_y
_atom_site_fract_z
Si Si1 0.127065 0.239090 0.872271
Si Si2 0.000000 0.050540 0.500000
Si Si3 0.804512 0.427998 0.516309
Si Si4 0.485320 0.559502 0.133068
Si Si5 0.217834 0.387256 0.712693
Si Si6 0.252359 0.075988 0.259014
Si Si7 0.986101 0.721320 0.127916
Si Si8 0.595113 0.386368 0.750288
O O1 0.092396 0.320405 0.800471
O O2 0.322944 0.241832 0.871098
O O3 0.103770 0.149143 0.814547
O O4 0.000000 0.248497 0.000000
O O5 0.103875 0.100889 0.381419
O O6 0.152619 0.999042 0.532418
O O7 0.795166 0.364611 0.413538
O O8 0.753878 0.373267 0.633571
O O9 0.000000 0.465761 0.500000
O O10 0.673752 0.562864 0.153167
O O11 0.378402 0.477130 0.194635
O O12 0.500000 0.554134 0.000000
O O13 0.152123 0.486089 0.732224
O O14 0.414817 0.382986 0.718127
O O15 0.397269 0.149659 0.222107
O O16 0.884697 0.811234 0.163697
O O17 0.000000 0.691532 0.000000
#
# Coordination Sequence:
#
# PCOD8048692 Si02
#       8
#     4   2   4   4   4   4   4   4
#     4  10  22  39  61  90 130 164 202 267 319 373
#     4  10  20  46  64  90 140 158 212 276 312 374
#     4  11  20  36  67  96 121 166 216 261 317 384
#     4  10  19  36  62  88 120 161 201 256 321 365
#     4   9  20  41  63  84 125 168 201 260 324 370
#     4  10  21  41  66  86 126 172 202 267 320 368
#     4  11  23  39  61  91 125 167 218 254 313 385
#     4  10  20  40  60  86 126 167 204 266 313 366
#
# _framework density 20.574262999999998
#
# number of rings (size 3 to 8) (size 9 to 14) (size 15 to 20)
#    0.000    1.867    4.000    2.000    0.000    4.800 
#    3.600    2.667    0.000    0.000    0.000    0.000 
#    0.000    0.000    0.000    0.000    0.000    0.000 
#
# Total GULP energy -185842.456916 kJ/mol
# GULP energy per Si atom -12389.497128 kJ/mol
# Density = 2.052743 g / cm^3
# Si number density = 20.574263 Si / 1000 Ang^3
#
#
#
# Elastic Constant Matrix: (Units=GPa)
#
#
# Indices 1 2 3 4 5 6 
#
# 1 61.8772 19.4749 38.2641 0.0000 -13.5602 0.0000
# 2 19.4749 147.4779 72.6709 0.0000 -22.0360 0.0000
# 3 38.2641 72.6709 148.3510 0.0000 -13.1263 0.0000
# 4 0.0000 0.0000 0.0000 29.2660 0.0000 -9.4126
# 5 -13.5602 -22.0360 -13.1263 0.0000 29.3208 0.0000
# 6 0.0000 0.0000 0.0000 -9.4126 0.0000 28.0662
#
#
#
# Elastic Compliance Matrix: (Units=1/GPa)
#
#
# Indices 1 2 3 4 5 6 
#
# 1 0.020791 0.000988 -0.005134 0.000000 0.008060 0.000000
# 2 0.000988 0.009734 -0.004514 0.000000 0.005752 0.000000
# 3 -0.005134 -0.004514 0.010169 0.000000 -0.001215 0.000000
# 4 0.000000 0.000000 0.000000 0.038300 0.000000 0.012845
# 5 0.008060 0.005752 -0.001215 0.000000 0.041612 0.000000
# 6 0.000000 0.000000 0.000000 0.012845 0.000000 0.039938
#
#
# Mechanical properties :
#
#
# Convention : Reuss Voigt Hill
#
# Bulk Modulus (GPa) = 42.78134 68.72509 55.75322
# Shear Modulus (GPa) = 26.93174 32.48369 29.70771
#
# Velocity S-wave (km/s) = 3.62194 3.97779 3.80403
# Velocity P-wave (km/s) = 6.19112 7.38735 6.81553
#
# Compressibility (1/GPa) = 0.02337468
#
# Stress axis : x y z
#
# Youngs Moduli (GPa) = 48.09817 102.73216 98.34005
#
# Poissons Ratio (x) = -0.10155 0.50484
# Poissons Ratio (y) = -0.04754 0.44394
# Poissons Ratio (z) = 0.24692 0.46377
#
# Static dielectric constant tensor:
#      x y z
#    x 3.570070 0.000000 -0.006710 
#    y 0.000000 3.991410 0.000000 
#    z -0.006710 0.000000 3.530410 
# 
# 
# High freq. dielectric constant tensor:
#      x y z
#    x 1.792590 0.000000 0.005110 
#    y 0.000000 1.789670 0.000000 
#    z 0.005110 0.000000 1.816750 
# 
# From -- ./inp_files/36368.got.cif
#   From: 2010.03.12/outbox.cif.g09.slc.cpg/sg5_19_cif.got.tgz:36368.got - 2010.03.31 09:47:26.
