data_PCOD8048817
_publ_section_title
;
Structure prediction by ZEFSAII (Michael W. Deem and Ramdas Pophale) SiO2 
 PCOD8048817
Probable space group: C 2
;
_chemical_formula_sum "Si O2"
_cell_formula_units_Z 24
_cell_length_a 13.765059
_cell_length_b 18.003845
_cell_length_c 8.367199
_cell_angle_alpha 90.000000
_cell_angle_beta 151.065251
_cell_angle_gamma 90.000000
_cell_volume 1003.231589
_symmetry_space_group_name_H-M "C 2"
_symmetry_group_IT_number 5
_symmetry_cell_setting 'monoclinic'
loop_
_space_group_symop_operation_xyz
x,y,z
-x,y,-z
1/2+x,1/2+y,z
1/2-x,1/2+y,-z
loop_
_atom_site_type_symbol
_atom_site_label
_atom_site_fract_x
_atom_site_fract_y
_atom_site_fract_z
Si Si1 0.670065 0.322090 0.375742
Si Si2 0.337318 0.960848 0.128602
Si Si3 0.080067 0.572934 0.276652
Si Si4 0.443143 0.476872 0.735275
Si Si5 0.279020 0.695664 0.749595
Si Si6 0.422008 0.797399 0.215438
O O1 0.648164 0.397466 0.446817
O O2 0.650959 0.256367 0.472589
O O3 0.889574 0.321074 0.618002
O O4 0.500000 0.310575 0.000000
O O5 0.500000 0.963855 0.500000
O O6 0.290823 0.873366 0.029125
O O7 0.422920 0.008554 0.103210
O O8 0.131120 0.998209 0.893230
O O9 0.282552 0.540967 0.491408
O O10 0.140170 0.622669 0.518917
O O11 0.000000 0.615346 0.000000
O O12 0.500000 0.465295 0.000000
O O13 0.500000 0.679054 0.000000
O O14 0.301422 0.727059 0.963592
O O15 0.500000 0.770605 0.500000
#
# Coordination Sequence:
#
# PCOD8048817 Si02
#       6
#     4   4   4   4   4   4
#     4  10  19  38  68 104 139 189 239 298 361 424
#     4  11  22  42  73 111 141 186 253 305 366 432
#     4  12  26  45  72 105 154 197 241 303 373 435
#     4  11  21  41  76 102 143 193 247 304 357 432
#     4  10  24  43  72  96 151 196 241 291 376 434
#     4  10  20  41  71 106 141 183 246 310 353 437
#
# _framework density 23.922691
#
# number of rings (size 3 to 8) (size 9 to 14) (size 15 to 20)
#    0.000    1.333    3.333    4.000    2.333    0.667 
#    0.000    9.167    0.000    0.000    0.000    0.000 
#    0.000    0.000    0.000    0.000    0.000    0.000 
#
# Total GULP energy -148679.847692 kJ/mol
# GULP energy per Si atom -12389.987308 kJ/mol
# Density = 2.386824 g / cm^3
# Si number density = 23.922691 Si / 1000 Ang^3
#
#
#
# Elastic Constant Matrix: (Units=GPa)
#
#
# Indices 1 2 3 4 5 6 
#
# 1 106.4399 34.9220 46.4261 0.0000 4.2212 0.0000
# 2 34.9220 116.2925 55.2391 0.0000 -11.0791 0.0000
# 3 46.4261 55.2391 92.8969 0.0000 -12.0889 0.0000
# 4 0.0000 0.0000 0.0000 27.8226 0.0000 -0.6534
# 5 4.2212 -11.0791 -12.0889 0.0000 50.0576 0.0000
# 6 0.0000 0.0000 0.0000 -0.6534 0.0000 -14.1614
#
#
#
# Elastic Compliance Matrix: (Units=1/GPa)
#
#
# Indices 1 2 3 4 5 6 
#
# 1 0.012458 -0.001220 -0.005857 0.000000 -0.002735 0.000000
# 2 -0.001220 0.012148 -0.006454 0.000000 0.001233 0.000000
# 3 -0.005857 -0.006454 0.017972 0.000000 0.003406 0.000000
# 4 0.000000 0.000000 0.000000 0.035903 0.000000 -0.001657
# 5 -0.002735 0.001233 0.003406 0.000000 0.021303 0.000000
# 6 0.000000 0.000000 0.000000 -0.001657 0.000000 -0.070538
#
#
# Mechanical properties :
#
#
# Convention : Reuss Voigt Hill
#
# Bulk Modulus (GPa) = 64.43911 65.42264 64.93088
# Shear Modulus (GPa) = 81.32756 24.67989 53.00372
#
# Velocity S-wave (km/s) = 5.83693 3.21542 4.71215
# Velocity P-wave (km/s) = 8.51007 6.41811 7.53702
#
# Compressibility (1/GPa) = 0.01551853
#
# Stress axis : x y z
#
# Youngs Moduli (GPa) = 80.26878 82.31637 55.64120
#
# Poissons Ratio (x) = 0.10040 0.32587
# Poissons Ratio (y) = 0.09791 0.35909
# Poissons Ratio (z) = 0.47011 0.53124
#
# Static dielectric constant tensor:
#      x y z
#    x 4.257980 0.000000 -0.010580 
#    y 0.000000 4.493220 0.000000 
#    z -0.010580 0.000000 4.412060 
# 
# 
# High freq. dielectric constant tensor:
#      x y z
#    x 1.934980 0.000000 -0.000290 
#    y 0.000000 1.940000 0.000000 
#    z -0.000290 0.000000 1.956420 
# 
# From -- ./inp_files/25263.got.cif
#   From: 2010.03.12/outbox.cif.g09.slc.cpg/sg5_13_cif.got.tgz:25263.got - 2010.03.31 09:47:26.
