data_PCOD8048111
_publ_section_title
;
Structure prediction by ZEFSAII (Michael W. Deem and Ramdas Pophale) SiO2 
 PCOD8048111
Probable space group: C 2
;
_chemical_formula_sum "Si O2"
_cell_formula_units_Z 30
_cell_length_a 8.708573
_cell_length_b 30.144508
_cell_length_c 5.344115
_cell_angle_alpha 90.000000
_cell_angle_beta 74.425197
_cell_angle_gamma 90.000000
_cell_volume 1351.399853
_symmetry_space_group_name_H-M "C 2"
_symmetry_group_IT_number 5
_symmetry_cell_setting 'monoclinic'
loop_
_space_group_symop_operation_xyz
x,y,z
-x,y,-z
1/2+x,1/2+y,z
1/2-x,1/2+y,-z
loop_
_atom_site_type_symbol
_atom_site_label
_atom_site_fract_x
_atom_site_fract_y
_atom_site_fract_z
Si Si1 0.683239 0.910000 0.700829
Si Si2 0.190176 0.231051 0.876577
Si Si3 0.899435 0.082349 0.795414
Si Si4 0.323823 0.772582 0.621521
Si Si5 0.174265 0.373866 0.211101
Si Si6 0.651120 0.144684 0.075153
Si Si7 0.500000 0.073485 0.500000
Si Si8 0.335806 0.012577 0.215996
O O1 0.768501 0.897019 0.400997
O O2 0.499656 0.895541 0.748509
O O3 0.707806 0.961993 0.716681
O O4 0.760128 0.883619 0.906106
O O5 0.253627 0.262635 0.619068
O O6 0.259961 0.181999 0.797398
O O7 0.263650 0.247253 0.111647
O O8 0.000000 0.231901 0.000000
O O9 0.810118 0.035026 0.868313
O O10 0.000000 0.082664 0.500000
O O11 0.774360 0.123145 0.823194
O O12 0.000000 0.090821 0.000000
O O13 0.500000 0.753242 0.500000
O O14 0.335331 0.822915 0.708707
O O15 0.590704 0.103764 0.263985
O O16 0.500000 0.166202 0.000000
O O17 0.360980 0.041472 0.455068
O O18 0.500000 0.015667 0.000000
#
# Coordination Sequence:
#
# PCOD8048111 Si02
#       8
#     4   4   4   4   4   4   2   4
#     4  10  20  29  57  93 131 160 211 274 315 385
#     4  10  24  38  59  93 127 166 205 283 329 403
#     4  12  27  45  67  96 136 185 224 275 338 409
#     4  10  19  34  57  84 134 160 204 257 351 383
#     4  10  17  31  52  91 130 162 201 268 335 380
#     4  12  26  45  69  95 125 182 235 281 338 399
#     4  12  22  42  70  92 136 176 232 282 326 396
#     4  12  23  40  64 102 137 177 226 276 336 385
#
# _framework density 22.199203000000001
#
# number of rings (size 3 to 8) (size 9 to 14) (size 15 to 20)
#    0.000    1.067    5.333    2.800    5.600    1.600 
#    0.000    0.000    0.000    0.000    0.000    9.333 
#    0.000    0.000    0.000    0.000    0.000    0.000 
#
# Total GULP energy -185839.948382 kJ/mol
# GULP energy per Si atom -12389.329892 kJ/mol
# Density = 2.214868 g / cm^3
# Si number density = 22.199203 Si / 1000 Ang^3
#
#
#
# Elastic Constant Matrix: (Units=GPa)
#
#
# Indices 1 2 3 4 5 6 
#
# 1 42.8958 13.0768 30.4053 0.0000 9.6776 0.0000
# 2 13.0768 112.1442 35.4544 0.0000 19.9757 0.0000
# 3 30.4053 35.4544 162.2206 0.0000 39.9608 0.0000
# 4 0.0000 0.0000 0.0000 26.1212 0.0000 19.8118
# 5 9.6776 19.9757 39.9608 0.0000 26.6251 0.0000
# 6 0.0000 0.0000 0.0000 19.8118 0.0000 24.0225
#
#
#
# Elastic Compliance Matrix: (Units=1/GPa)
#
#
# Indices 1 2 3 4 5 6 
#
# 1 0.027280 -0.001399 -0.004162 0.000000 -0.002619 0.000000
# 2 -0.001399 0.010395 -0.000339 0.000000 -0.006782 0.000000
# 3 -0.004162 -0.000339 0.010445 0.000000 -0.013909 0.000000
# 4 0.000000 0.000000 0.000000 0.102228 0.000000 -0.084309
# 5 -0.002619 -0.006782 -0.013909 0.000000 0.064475 0.000000
# 6 0.000000 0.000000 0.000000 -0.084309 0.000000 0.111159
#
#
# Mechanical properties :
#
#
# Convention : Reuss Voigt Hill
#
# Bulk Modulus (GPa) = 27.53287 52.79264 40.16275
# Shear Modulus (GPa) = 14.29029 31.24203 22.76616
#
# Velocity S-wave (km/s) = 2.53994 3.75554 3.20588
# Velocity P-wave (km/s) = 4.58599 6.52980 5.64223
#
# Compressibility (1/GPa) = 0.03632022
#
# Stress axis : x y z
#
# Youngs Moduli (GPa) = 36.65713 96.19615 95.73881
#
# Poissons Ratio (x) = 0.13454 0.39848
# Poissons Ratio (y) = 0.05127 0.03248
# Poissons Ratio (z) = 0.15257 0.03264
#
# Static dielectric constant tensor:
#      x y z
#    x 3.594030 0.000000 -0.182530 
#    y 0.000000 4.118940 0.000000 
#    z -0.182530 0.000000 3.502130 
# 
# 
# High freq. dielectric constant tensor:
#      x y z
#    x 1.825200 0.000000 0.025020 
#    y 0.000000 1.879830 0.000000 
#    z 0.025020 0.000000 1.890480 
# 
# From -- ./inp_files/3933.got.cif
#   From: 2010.03.12/outbox.cif.g09.slc.cpg/sg5_2_cif.got.tgz:3933.got - 2010.03.31 09:47:26.
