data_PCOD8048155
_publ_section_title
;
Structure prediction by ZEFSAII (Michael W. Deem and Ramdas Pophale) SiO2 
 PCOD8048155
Probable space group: C 2
;
_chemical_formula_sum "Si O2"
_cell_formula_units_Z 30
_cell_length_a 11.773273
_cell_length_b 14.813980
_cell_length_c 11.232514
_cell_angle_alpha 90.000000
_cell_angle_beta 51.418111
_cell_angle_gamma 90.000000
_cell_volume 1531.425411
_symmetry_space_group_name_H-M "C 2"
_symmetry_group_IT_number 5
_symmetry_cell_setting 'monoclinic'
loop_
_space_group_symop_operation_xyz
x,y,z
-x,y,-z
1/2+x,1/2+y,z
1/2-x,1/2+y,-z
loop_
_atom_site_type_symbol
_atom_site_label
_atom_site_fract_x
_atom_site_fract_y
_atom_site_fract_z
Si Si1 0.638784 0.864620 0.326918
Si Si2 0.268422 0.859748 0.307170
Si Si3 0.000000 0.584704 0.000000
Si Si4 0.309949 0.291565 0.873314
Si Si5 0.225664 0.182900 0.145686
Si Si6 0.613495 0.370126 0.650337
Si Si7 0.584568 0.929622 0.118732
Si Si8 0.572364 0.518754 0.336486
O O1 0.500000 0.865923 0.500000
O O2 0.652450 0.766926 0.257957
O O3 0.782760 0.886510 0.306030
O O4 0.618775 0.940426 0.237082
O O5 0.227923 0.778426 0.241932
O O6 0.202853 0.832249 0.478051
O O7 0.441775 0.867275 0.199092
O O8 0.200506 0.952488 0.298724
O O9 0.054154 0.525603 0.077115
O O10 0.869330 0.651080 0.123364
O O11 0.483615 0.303291 0.773940
O O12 0.261829 0.206918 0.984625
O O13 0.223575 0.382582 0.967829
O O14 0.119918 0.097370 0.216225
O O15 0.548342 0.466040 0.658384
O O16 0.500000 0.563999 0.500000
#
# Coordination Sequence:
#
# PCOD8048155 Si02
#       8
#     4   4   2   4   4   4   4   4
#     4  11  23  38  59  90 119 152 197 248 298 342
#     4  10  17  36  64  89 109 155 206 242 276 349
#     4  12  20  38  62  84 116 162 200 234 290 358
#     4  10  20  34  56  93 117 148 195 242 287 342
#     4  11  22  34  57  90 124 147 191 245 298 347
#     4  10  20  37  62  87 118 153 199 247 288 346
#     4  11  20  35  65  85 113 158 203 239 273 356
#     4   9  18  34  60  88 113 153 200 240 288 349
#
# _framework density 19.589593000000001
#
# number of rings (size 3 to 8) (size 9 to 14) (size 15 to 20)
#    0.000    1.600    4.000    3.200    0.000    1.600 
#    0.000    0.000   11.733    3.200    0.000    0.000 
#    0.000    0.000    0.000    0.000    0.000    0.000 
#
# Total GULP energy -185930.441077 kJ/mol
# GULP energy per Si atom -12395.362738 kJ/mol
# Density = 1.954501 g / cm^3
# Si number density = 19.589593 Si / 1000 Ang^3
#
#
#
# Elastic Constant Matrix: (Units=GPa)
#
#
# Indices 1 2 3 4 5 6 
#
# 1 122.7001 5.1806 33.6472 0.0000 14.9830 0.0000
# 2 5.1806 45.1794 19.5370 0.0000 17.0938 0.0000
# 3 33.6472 19.5370 110.8485 0.0000 8.2905 0.0000
# 4 0.0000 0.0000 0.0000 34.9438 0.0000 4.8417
# 5 14.9830 17.0938 8.2905 0.0000 39.7418 0.0000
# 6 0.0000 0.0000 0.0000 4.8417 0.0000 22.7138
#
#
#
# Elastic Compliance Matrix: (Units=1/GPa)
#
#
# Indices 1 2 3 4 5 6 
#
# 1 0.009295 0.001501 -0.002819 0.000000 -0.003562 0.000000
# 2 0.001501 0.028420 -0.004579 0.000000 -0.011835 0.000000
# 3 -0.002819 -0.004579 0.010623 0.000000 0.000817 0.000000
# 4 0.000000 0.000000 0.000000 0.029488 0.000000 -0.006286
# 5 -0.003562 -0.011835 0.000817 0.000000 0.031425 0.000000
# 6 0.000000 0.000000 0.000000 -0.006286 0.000000 0.045366
#
#
# Mechanical properties :
#
#
# Convention : Reuss Voigt Hill
#
# Bulk Modulus (GPa) = 27.36594 43.93971 35.65282
# Shear Modulus (GPa) = 27.99652 34.17077 31.08364
#
# Velocity S-wave (km/s) = 3.78451 4.18105 3.98772
# Velocity P-wave (km/s) = 5.75297 6.76662 6.28028
#
# Compressibility (1/GPa) = 0.03654178
#
# Stress axis : x y z
#
# Youngs Moduli (GPa) = 107.58877 35.18669 94.13352
#
# Poissons Ratio (x) = -0.05281 0.26541
# Poissons Ratio (y) = -0.16149 0.43108
# Poissons Ratio (z) = 0.30335 0.16114
#
# Static dielectric constant tensor:
#      x y z
#    x 3.776390 0.000000 0.006010 
#    y 0.000000 3.223030 0.000000 
#    z 0.006010 0.000000 4.017980 
# 
# 
# High freq. dielectric constant tensor:
#      x y z
#    x 1.766370 0.000000 -0.008990 
#    y 0.000000 1.718990 0.000000 
#    z -0.008990 0.000000 1.788910 
# 
# From -- ./inp_files/40041.got.cif
#   From: 2010.03.12/outbox.cif.g09.slc.cpg/sg5_21_cif.got.tgz:40041.got - 2010.03.31 09:47:26.
