data_PCOD8048359
_publ_section_title
;
Structure prediction by ZEFSAII (Michael W. Deem and Ramdas Pophale) SiO2 
 PCOD8048359
Probable space group: C 2
;
_chemical_formula_sum "Si O2"
_cell_formula_units_Z 26
_cell_length_a 10.925719
_cell_length_b 15.634034
_cell_length_c 8.262826
_cell_angle_alpha 90.000000
_cell_angle_beta 104.675705
_cell_angle_gamma 90.000000
_cell_volume 1365.352108
_symmetry_space_group_name_H-M "C 2"
_symmetry_group_IT_number 5
_symmetry_cell_setting 'monoclinic'
loop_
_space_group_symop_operation_xyz
x,y,z
-x,y,-z
1/2+x,1/2+y,z
1/2-x,1/2+y,-z
loop_
_atom_site_type_symbol
_atom_site_label
_atom_site_fract_x
_atom_site_fract_y
_atom_site_fract_z
Si Si1 0.371147 0.260170 0.015006
Si Si2 0.631403 0.698035 0.786313
Si Si3 0.355552 0.850206 0.443243
Si Si4 0.253883 0.855804 0.761913
Si Si5 0.345727 0.437650 0.829360
Si Si6 0.896154 0.006213 0.182193
Si Si7 0.000000 0.300164 0.000000
O O1 0.259176 0.195888 0.933841
O O2 0.373202 0.344958 0.908348
O O3 0.500000 0.212669 0.000000
O O4 0.349873 0.288912 0.196387
O O5 0.649948 0.755118 0.633497
O O6 0.597526 0.600306 0.738004
O O7 0.518159 0.740521 0.849996
O O8 0.500000 0.883078 0.500000
O O9 0.292204 0.832514 0.594425
O O10 0.282128 0.925376 0.319354
O O11 0.196066 0.950522 0.736559
O O12 0.375857 0.857441 0.923994
O O13 0.462545 0.467400 0.757792
O O14 0.339670 0.504317 0.978622
#
# Coordination Sequence:
#
# PCOD8048359 Si02
#       7
#     4   4   4   4   4   4   2
#     4   9  16  36  58  83 113 154 202 239 282 366
#     4  10  21  35  60  87 119 147 204 252 300 336
#     4  11  22  39  56  90 124 162 192 248 298 365
#     4  10  20  34  59  84 115 160 201 237 299 356
#     4   9  18  36  63  83 117 149 204 246 289 353
#     4  10  19  38  59  93 110 152 203 255 290 349
#     4  10  18  36  60  82 108 166 204 234 282 376
#
# _framework density 19.042708000000001
#
# number of rings (size 3 to 8) (size 9 to 14) (size 15 to 20)
#    0.000    2.154    4.615    1.846    0.000    0.615 
#    4.154    0.000    0.000    0.000    0.000    0.000 
#    0.000    0.000    0.000    0.000    0.000    0.000 
#
# Total GULP energy -161070.945962 kJ/mol
# GULP energy per Si atom -12390.072766 kJ/mol
# Density = 1.899937 g / cm^3
# Si number density = 19.042708 Si / 1000 Ang^3
#
#
#
# Elastic Constant Matrix: (Units=GPa)
#
#
# Indices 1 2 3 4 5 6 
#
# 1 126.9186 42.7345 50.0414 0.0000 -9.7818 0.0000
# 2 42.7345 91.3791 27.8408 0.0000 -2.4310 0.0000
# 3 50.0414 27.8408 92.5755 0.0000 -12.8802 0.0000
# 4 0.0000 0.0000 0.0000 17.6277 0.0000 0.4065
# 5 -9.7818 -2.4310 -12.8802 0.0000 40.8294 0.0000
# 6 0.0000 0.0000 0.0000 0.4065 0.0000 18.9130
#
#
#
# Elastic Compliance Matrix: (Units=1/GPa)
#
#
# Indices 1 2 3 4 5 6 
#
# 1 0.011067 -0.003708 -0.004737 0.000000 0.000936 0.000000
# 2 -0.003708 0.013297 -0.002100 0.000000 -0.000759 0.000000
# 3 -0.004737 -0.002100 0.014453 0.000000 0.003300 0.000000
# 4 0.000000 0.000000 0.000000 0.056757 0.000000 -0.001220
# 5 0.000936 -0.000759 0.003300 0.000000 0.025712 0.000000
# 6 0.000000 0.000000 0.000000 -0.001220 0.000000 0.052900
#
#
# Mechanical properties :
#
#
# Convention : Reuss Voigt Hill
#
# Bulk Modulus (GPa) = 56.40947 61.34519 58.87733
# Shear Modulus (GPa) = 24.85259 28.15780 26.50519
#
# Velocity S-wave (km/s) = 3.61653 3.84951 3.73484
# Velocity P-wave (km/s) = 6.86484 7.21407 7.04162
#
# Compressibility (1/GPa) = 0.01772752
#
# Stress axis : x y z
#
# Youngs Moduli (GPa) = 90.35576 75.20461 69.18802
#
# Poissons Ratio (x) = 0.27883 0.32775
# Poissons Ratio (y) = 0.33500 0.14532
# Poissons Ratio (z) = 0.42803 0.15796
#
# Static dielectric constant tensor:
#      x y z
#    x 3.963400 0.000000 0.096880 
#    y 0.000000 3.130910 0.000000 
#    z 0.096880 0.000000 3.536530 
# 
# 
# High freq. dielectric constant tensor:
#      x y z
#    x 1.756980 0.000000 -0.010510 
#    y 0.000000 1.700620 0.000000 
#    z -0.010510 0.000000 1.725100 
# 
# From -- ./inp_files/20135.got.cif
#   From: 2010.03.12/outbox.cif.g09.slc.cpg/sg5_11_cif.got.tgz:20135.got - 2010.03.31 09:47:26.
