data_PCOD8048211
_publ_section_title
;
Structure prediction by ZEFSAII (Michael W. Deem and Ramdas Pophale) SiO2 
 PCOD8048211
Probable space group: C 2
;
_chemical_formula_sum "Si O2"
_cell_formula_units_Z 28
_cell_length_a 5.016954
_cell_length_b 23.452396
_cell_length_c 13.337250
_cell_angle_alpha 90.000000
_cell_angle_beta 97.788900
_cell_angle_gamma 90.000000
_cell_volume 1554.777621
_symmetry_space_group_name_H-M "C 2"
_symmetry_group_IT_number 5
_symmetry_cell_setting 'monoclinic'
loop_
_space_group_symop_operation_xyz
x,y,z
-x,y,-z
1/2+x,1/2+y,z
1/2-x,1/2+y,-z
loop_
_atom_site_type_symbol
_atom_site_label
_atom_site_fract_x
_atom_site_fract_y
_atom_site_fract_z
Si Si1 0.228241 0.538320 0.932386
Si Si2 0.027090 0.653799 0.882106
Si Si3 0.479286 0.702558 0.780395
Si Si4 0.731497 0.912751 0.930072
Si Si5 0.914999 0.333029 0.259284
Si Si6 0.560531 0.332582 0.610165
Si Si7 0.243766 0.207355 0.435967
O O1 0.126444 0.589761 0.855753
O O2 0.269805 0.476398 0.882919
O O3 0.500000 0.559660 0.000000
O O4 0.000000 0.525825 0.000000
O O5 0.252256 0.697660 0.854618
O O6 0.741083 0.665432 0.817678
O O7 0.000000 0.659457 0.000000
O O8 0.555022 0.768581 0.777205
O O9 0.361498 0.676635 0.670075
O O10 0.684106 0.870038 0.837620
O O11 0.500000 0.908475 0.000000
O O12 0.000000 0.893639 0.000000
O O13 0.706629 0.334699 0.338922
O O14 0.192953 0.360384 0.315497
O O15 0.500000 0.363380 0.500000
O O16 0.647708 0.268211 0.593229
O O17 0.500000 0.174653 0.500000
O O18 0.000000 0.214270 0.500000
#
# Coordination Sequence:
#
# PCOD8048211 Si02
#       7
#     4   4   4   4   4   4   4
#     4   9  18  35  54  70  91 128 179 217 235 268
#     4  11  21  34  50  73 103 135 167 204 244 289
#     4  11  21  32  49  77 106 132 162 199 252 309
#     4  10  21  36  53  73 101 135 169 205 242 288
#     4  11  21  33  49  77 107 132 164 198 249 310
#     4  10  18  32  51  72 100 132 168 208 244 285
#     4  10  18  32  50  70  98 134 171 207 242 283
#
# _framework density 18.009005999999999
#
# number of rings (size 3 to 8) (size 9 to 14) (size 15 to 20)
#    0.000    1.714    0.000    9.429    0.000    1.714 
#    0.000    0.000    0.000    0.000    0.000   10.000 
#    0.000    0.000    0.000    0.000    0.000    0.000 
#
# Total GULP energy -173510.348727 kJ/mol
# GULP energy per Si atom -12393.596338 kJ/mol
# Density = 1.796802 g / cm^3
# Si number density = 18.009006 Si / 1000 Ang^3
#
#
#
# Elastic Constant Matrix: (Units=GPa)
#
#
# Indices 1 2 3 4 5 6 
#
# 1 127.1087 31.4764 52.7824 0.0000 13.6515 0.0000
# 2 31.4764 62.2776 61.5685 0.0000 11.4841 0.0000
# 3 52.7824 61.5685 118.5592 0.0000 16.8386 0.0000
# 4 0.0000 0.0000 0.0000 -1.5594 0.0000 0.5591
# 5 13.6515 11.4841 16.8386 0.0000 49.1237 0.0000
# 6 0.0000 0.0000 0.0000 0.5591 0.0000 16.8519
#
#
#
# Elastic Compliance Matrix: (Units=1/GPa)
#
#
# Indices 1 2 3 4 5 6 
#
# 1 0.009771 -0.001201 -0.003554 0.000000 -0.001216 0.000000
# 2 -0.001201 0.033322 -0.016514 0.000000 -0.001795 0.000000
# 3 -0.003554 -0.016514 0.018820 0.000000 -0.001603 0.000000
# 4 0.000000 0.000000 0.000000 -0.633754 0.000000 0.021026
# 5 -0.001216 -0.001795 -0.001603 0.000000 0.021664 0.000000
# 6 0.000000 0.000000 0.000000 0.021026 0.000000 0.058643
#
#
# Mechanical properties :
#
#
# Convention : Reuss Voigt Hill
#
# Bulk Modulus (GPa) = 51.61312 66.62224 59.11768
# Shear Modulus (GPa) = -11.29849 23.69112 6.19632
#
# Velocity S-wave (km/s) = -2.50747 3.63094 1.85692
# Velocity P-wave (km/s) = 4.50984 7.39273 6.12336
#
# Compressibility (1/GPa) = 0.01937492
#
# Stress axis : x y z
#
# Youngs Moduli (GPa) = 102.34394 30.01053 53.13403
#
# Poissons Ratio (x) = 0.03604 0.18881
# Poissons Ratio (y) = 0.12292 0.87748
# Poissons Ratio (z) = 0.36368 0.49561
#
# Static dielectric constant tensor:
#      x y z
#    x 3.907430 0.000000 0.428150 
#    y 0.000000 3.260710 0.000000 
#    z 0.428150 0.000000 3.853500 
# 
# 
# High freq. dielectric constant tensor:
#      x y z
#    x 1.732010 0.000000 0.007890 
#    y 0.000000 1.654360 0.000000 
#    z 0.007890 0.000000 1.692330 
# 
# From -- ./inp_files/34115.got.cif
#   From: 2010.03.12/outbox.cif.g09.slc.cpg/sg5_18_cif.got.tgz:34115.got - 2010.03.31 09:47:26.
