data_PCOD8048095
_publ_section_title
;
Structure prediction by ZEFSAII (Michael W. Deem and Ramdas Pophale) SiO2 
 PCOD8048095
Probable space group: C 2
;
_chemical_formula_sum "Si O2"
_cell_formula_units_Z 28
_cell_length_a 18.057272
_cell_length_b 5.254459
_cell_length_c 14.857189
_cell_angle_alpha 90.000000
_cell_angle_beta 69.408770
_cell_angle_gamma 90.000000
_cell_volume 1319.608937
_symmetry_space_group_name_H-M "C 2"
_symmetry_group_IT_number 5
_symmetry_cell_setting 'monoclinic'
loop_
_space_group_symop_operation_xyz
x,y,z
-x,y,-z
1/2+x,1/2+y,z
1/2-x,1/2+y,-z
loop_
_atom_site_type_symbol
_atom_site_label
_atom_site_fract_x
_atom_site_fract_y
_atom_site_fract_z
Si Si1 0.477919 0.200710 0.905391
Si Si2 0.570201 0.763380 0.593725
Si Si3 0.612901 0.762343 0.378423
Si Si4 0.923028 0.201579 0.971988
Si Si5 0.364209 0.262405 0.730433
Si Si6 0.254474 0.800133 0.056005
Si Si7 0.048344 0.762979 0.700905
O O1 0.415057 0.433575 0.921042
O O2 0.553772 0.249953 0.808146
O O3 0.437201 0.932023 0.894439
O O4 0.500000 0.154384 0.000000
O O5 0.623798 0.754674 0.481534
O O6 0.479101 0.760787 0.605859
O O7 0.589885 0.517334 0.646431
O O8 0.591346 0.020013 0.638835
O O9 0.655071 0.514770 0.318756
O O10 0.654091 0.016425 0.323099
O O11 0.842853 0.258946 0.060936
O O12 0.000000 0.152199 0.000000
O O13 0.308772 0.251989 0.840356
O O14 0.454969 0.259753 0.721534
O O15 0.247969 0.588143 0.980250
#
# Coordination Sequence:
#
# PCOD8048095 Si02
#       7
#     4   4   4   4   4   4   4
#     4  10  20  34  52  73 103 138 176 224 265 309
#     4   9  17  27  45  66  96 134 168 207 256 318
#     4   9  17  30  43  66  98 133 170 206 255 313
#     4  10  21  37  54  73 106 145 182 221 264 315
#     4  10  19  29  46  68 100 136 168 208 258 315
#     4  12  23  35  53  80 111 145 183 223 270 322
#     4  10  17  28  45  70  99 133 169 208 264 313
#
# _framework density 21.218409000000001
#
# number of rings (size 3 to 8) (size 9 to 14) (size 15 to 20)
#    0.000    2.000    0.000    5.143    0.000    5.714 
#    0.000    0.000    0.000    0.000    0.000    0.000 
#    0.000   91.429    0.000    0.000    0.000    0.000 
#
# Total GULP energy -173501.691880 kJ/mol
# GULP energy per Si atom -12392.977991 kJ/mol
# Density = 2.117011 g / cm^3
# Si number density = 21.218409 Si / 1000 Ang^3
#
#
#
# Elastic Constant Matrix: (Units=GPa)
#
#
# Indices 1 2 3 4 5 6 
#
# 1 30.7893 -4.2192 2.2164 0.0000 -4.6181 -0.0001
# 2 -4.2192 201.2005 63.0251 -0.0004 1.7417 0.0006
# 3 2.2164 63.0251 157.4545 -0.0001 12.6563 -0.0001
# 4 0.0000 -0.0004 -0.0001 42.6272 -0.0001 -2.3460
# 5 -4.6181 1.7417 12.6563 -0.0001 22.8492 0.0001
# 6 -0.0001 0.0006 -0.0001 -2.3460 0.0001 4.9297
#
#
#
# Elastic Compliance Matrix: (Units=1/GPa)
#
#
# Indices 1 2 3 4 5 6 
#
# 1 0.033886 0.001127 -0.001540 0.000000 0.007616 0.000000
# 2 0.001127 0.005737 -0.002402 0.000000 0.001121 -0.000001
# 3 -0.001540 -0.002402 0.007687 0.000000 -0.004386 0.000000
# 4 0.000000 0.000000 0.000000 0.024090 0.000000 0.011464
# 5 0.007616 0.001121 -0.004386 0.000000 0.047648 -0.000001
# 6 0.000000 -0.000001 0.000000 0.011464 -0.000001 0.208306
#
#
# Mechanical properties :
#
#
# Convention : Reuss Voigt Hill
#
# Bulk Modulus (GPa) = 23.99283 56.83210 40.41246
# Shear Modulus (GPa) = 14.41427 35.97604 25.19516
#
# Velocity S-wave (km/s) = 2.60922 4.12213 3.44963
# Velocity P-wave (km/s) = 4.51769 7.03551 5.91218
#
# Compressibility (1/GPa) = 0.04167913
#
# Stress axis : x y z
#
# Youngs Moduli (GPa) = 29.51028 174.32010 130.09303
#
# Poissons Ratio (x) = -0.19649 0.20039
# Poissons Ratio (y) = -0.03326 0.31251
# Poissons Ratio (z) = 0.04546 0.41875
#
# Static dielectric constant tensor:
#      x y z
#    x 3.289910 0.000000 0.041140 
#    y 0.000000 4.764400 0.000000 
#    z 0.041140 0.000000 3.980860 
# 
# 
# High freq. dielectric constant tensor:
#      x y z
#    x 1.758220 0.000000 0.002480 
#    y 0.000000 1.869770 0.000000 
#    z 0.002480 0.000000 1.833350 
# 
# From -- ./inp_files/55398.got.cif
#   From: 2010.03.12/outbox.cif.g09.slc.cpg/sg5_28_cif.got.tgz:55398.got - 2010.03.31 09:47:26.
