data_PCOD8048191
_publ_section_title
;
Structure prediction by ZEFSAII (Michael W. Deem and Ramdas Pophale) SiO2 
 PCOD8048191
Probable space group: C 2
;
_chemical_formula_sum "Si O2"
_cell_formula_units_Z 32
_cell_length_a 13.465188
_cell_length_b 13.012670
_cell_length_c 13.374768
_cell_angle_alpha 90.000000
_cell_angle_beta 41.882215
_cell_angle_gamma 90.000000
_cell_volume 1564.524572
_symmetry_space_group_name_H-M "C 2"
_symmetry_group_IT_number 5
_symmetry_cell_setting 'monoclinic'
loop_
_space_group_symop_operation_xyz
x,y,z
-x,y,-z
1/2+x,1/2+y,z
1/2-x,1/2+y,-z
loop_
_atom_site_type_symbol
_atom_site_label
_atom_site_fract_x
_atom_site_fract_y
_atom_site_fract_z
Si Si1 0.489572 0.441110 0.169494
Si Si2 0.931354 0.710038 0.850787
Si Si3 0.269265 0.445004 0.159368
Si Si4 0.692479 0.717012 0.180826
Si Si5 0.263304 0.486134 0.489794
Si Si6 0.992442 0.598173 0.618859
Si Si7 0.714822 0.113089 0.700706
Si Si8 0.405884 0.791243 0.470922
O O1 0.499803 0.320027 0.177895
O O2 0.364409 0.475234 0.184203
O O3 0.431308 0.491621 0.317261
O O4 0.648409 0.480375 0.006387
O O5 0.923355 0.689702 0.737689
O O6 0.036058 0.624388 0.825845
O O7 0.764056 0.695609 0.018973
O O8 0.263526 0.322078 0.170118
O O9 0.106796 0.495298 0.289613
O O10 0.732293 0.620643 0.223954
O O11 0.515837 0.736414 0.308030
O O12 0.269681 0.506336 0.605660
O O13 0.181725 0.381768 0.518572
O O14 0.161487 0.578772 0.525168
O O15 0.000000 0.636193 0.500000
O O16 0.785395 0.208012 0.588964
O O17 0.500000 0.826955 0.500000
#
# Coordination Sequence:
#
# PCOD8048191 Si02
#       8
#     4   4   4   4   4   4   4   4
#     4  10  18  32  53  77 106 139 177 219 268 311
#     4  10  20  32  53  79 108 141 174 217 269 316
#     4  10  18  30  53  78 104 134 174 232 266 295
#     4  10  18  33  53  77 107 136 175 220 266 310
#     4  11  19  31  52  82 110 137 174 220 266 318
#     4  11  21  33  52  83 109 137 177 223 266 317
#     4  10  20  30  51  84 108 139 175 221 266 307
#     4  10  18  32  55  80 108 137 179 227 263 303
#
# _framework density 20.453496999999999
#
# number of rings (size 3 to 8) (size 9 to 14) (size 15 to 20)
#    0.000    1.750    5.000    1.500    0.000    1.000 
#    0.000    0.000    0.000    5.250    3.250    0.000 
#    0.000    0.000    0.000    0.000    0.000    0.000 
#
# Total GULP energy -198216.289325 kJ/mol
# GULP energy per Si atom -12388.518083 kJ/mol
# Density = 2.040694 g / cm^3
# Si number density = 20.453497 Si / 1000 Ang^3
#
#
#
# Elastic Constant Matrix: (Units=GPa)
#
#
# Indices 1 2 3 4 5 6 
#
# 1 41.1100 17.4902 25.0073 0.0000 11.9768 0.0000
# 2 17.4902 46.5215 24.4265 0.0000 13.9410 0.0000
# 3 25.0073 24.4265 160.6118 0.0000 16.0347 0.0000
# 4 0.0000 0.0000 0.0000 31.6102 0.0000 12.0743
# 5 11.9768 13.9410 16.0347 0.0000 19.8200 0.0000
# 6 0.0000 0.0000 0.0000 12.0743 0.0000 18.3361
#
#
#
# Elastic Compliance Matrix: (Units=1/GPa)
#
#
# Indices 1 2 3 4 5 6 
#
# 1 0.032664 -0.007078 -0.002759 0.000000 -0.012528 0.000000
# 2 -0.007078 0.029667 -0.001908 0.000000 -0.015047 0.000000
# 3 -0.002759 -0.001908 0.007229 0.000000 -0.002840 0.000000
# 4 0.000000 0.000000 0.000000 0.042267 0.000000 -0.027833
# 5 -0.012528 -0.015047 -0.002840 0.000000 0.070906 0.000000
# 6 0.000000 0.000000 0.000000 -0.027833 0.000000 0.072865
#
#
# Mechanical properties :
#
#
# Convention : Reuss Voigt Hill
#
# Bulk Modulus (GPa) = 21.70486 42.45458 32.07972
# Shear Modulus (GPa) = 16.98114 26.04120 21.51117
#
# Velocity S-wave (km/s) = 2.88450 3.57205 3.24653
# Velocity P-wave (km/s) = 4.66140 6.14934 5.45633
#
# Compressibility (1/GPa) = 0.04607264
#
# Stress axis : x y z
#
# Youngs Moduli (GPa) = 30.61460 33.70729 138.32480
#
# Poissons Ratio (x) = 0.23857 0.38159
# Poissons Ratio (y) = 0.21668 0.26388
# Poissons Ratio (z) = 0.08446 0.06430
#
# Static dielectric constant tensor:
#      x y z
#    x 3.390340 0.000000 -0.013190 
#    y 0.000000 3.385460 0.000000 
#    z -0.013190 0.000000 4.467400 
# 
# 
# High freq. dielectric constant tensor:
#      x y z
#    x 1.756120 0.000000 -0.008400 
#    y 0.000000 1.758380 0.000000 
#    z -0.008400 0.000000 1.833740 
# 
# From -- ./inp_files/54558.got.cif
#   From: 2010.03.12/outbox.cif.g09.slc.cpg/sg5_28_cif.got.tgz:54558.got - 2010.03.31 09:47:26.
