data_PCOD8048861
_publ_section_title
;
Structure prediction by ZEFSAII (Michael W. Deem and Ramdas Pophale) SiO2 
 PCOD8048861
Probable space group: C 2
;
_chemical_formula_sum "Si O2"
_cell_formula_units_Z 28
_cell_length_a 11.387573
_cell_length_b 15.461919
_cell_length_c 8.170004
_cell_angle_alpha 90.000000
_cell_angle_beta 112.166742
_cell_angle_gamma 90.000000
_cell_volume 1332.201489
_symmetry_space_group_name_H-M "C 2"
_symmetry_group_IT_number 5
_symmetry_cell_setting 'monoclinic'
loop_
_space_group_symop_operation_xyz
x,y,z
-x,y,-z
1/2+x,1/2+y,z
1/2-x,1/2+y,-z
loop_
_atom_site_type_symbol
_atom_site_label
_atom_site_fract_x
_atom_site_fract_y
_atom_site_fract_z
Si Si1 0.274916 0.378270 0.660401
Si Si2 0.500000 0.813712 0.000000
Si Si3 0.136512 0.000349 0.050356
Si Si4 0.441514 0.331514 0.191074
Si Si5 0.410221 0.748324 0.297570
Si Si6 0.500000 0.180088 0.000000
Si Si7 0.751724 0.584987 0.819947
Si Si8 0.232120 0.397370 0.283608
O O1 0.292574 0.475350 0.743202
O O2 0.412175 0.341152 0.684867
O O3 0.203390 0.317981 0.753671
O O4 0.192958 0.380959 0.450740
O O5 0.525200 0.756645 0.848948
O O6 0.382383 0.876312 0.899491
O O7 0.230006 0.062454 0.000057
O O8 0.000000 0.047924 0.000000
O O9 0.107371 0.907567 0.952475
O O10 0.426582 0.239110 0.094101
O O11 0.352080 0.335629 0.303500
O O12 0.500000 0.764904 0.500000
O O13 0.353866 0.652891 0.291839
O O14 0.606778 0.119552 0.136829
O O15 0.729183 0.497847 0.706259
#
# Coordination Sequence:
#
# PCOD8048861 Si02
#       8
#     4   2   4   4   4   2   4   4
#     4  11  20  43  69  95 126 175 229 266 314 406
#     4  12  25  46  67  96 136 184 222 260 335 402
#     4   9  19  37  65  92 124 167 217 260 324 389
#     4  10  19  39  68  91 116 174 223 259 315 391
#     4  12  25  44  68  98 137 172 220 278 334 390
#     4  12  19  40  65  88 130 164 214 272 325 386
#     4  11  24  39  62  99 131 167 212 276 335 376
#     4  11  24  41  68  97 129 175 224 269 321 397
#
# _framework density 21.017842000000002
#
# number of rings (size 3 to 8) (size 9 to 14) (size 15 to 20)
#    0.000    1.143    5.000    3.429    1.000    3.429 
#    0.000    0.000    0.000    0.000    0.000    0.000 
#    0.000    0.000    0.000    0.000    0.000    0.000 
#
# Total GULP energy -173557.532027 kJ/mol
# GULP energy per Si atom -12396.966573 kJ/mol
# Density = 2.097000 g / cm^3
# Si number density = 21.017842 Si / 1000 Ang^3
#
#
#
# Elastic Constant Matrix: (Units=GPa)
#
#
# Indices 1 2 3 4 5 6 
#
# 1 109.3192 40.7414 32.1219 0.0000 -5.6855 0.0000
# 2 40.7414 84.3184 19.2561 0.0000 -3.8201 0.0000
# 3 32.1219 19.2561 105.4188 0.0000 -7.6746 0.0000
# 4 0.0000 0.0000 0.0000 18.6023 0.0000 -4.2503
# 5 -5.6855 -3.8201 -7.6746 0.0000 35.5210 0.0000
# 6 0.0000 0.0000 0.0000 -4.2503 0.0000 30.4884
#
#
#
# Elastic Compliance Matrix: (Units=1/GPa)
#
#
# Indices 1 2 3 4 5 6 
#
# 1 0.011859 -0.005095 -0.002626 0.000000 0.000783 0.000000
# 2 -0.005095 0.014591 -0.001075 0.000000 0.000521 0.000000
# 3 -0.002626 -0.001075 0.010610 0.000000 0.001757 0.000000
# 4 0.000000 0.000000 0.000000 0.055525 0.000000 0.007741
# 5 0.000783 0.000521 0.001757 0.000000 0.028713 0.000000
# 6 0.000000 0.000000 0.000000 0.007741 0.000000 0.033878
#
#
# Mechanical properties :
#
#
# Convention : Reuss Voigt Hill
#
# Bulk Modulus (GPa) = 51.36428 53.69947 52.53187
# Shear Modulus (GPa) = 27.89297 30.71814 29.30555
#
# Velocity S-wave (km/s) = 3.64690 3.82714 3.73811
# Velocity P-wave (km/s) = 6.49805 6.71820 6.60904
#
# Compressibility (1/GPa) = 0.01946878
#
# Stress axis : x y z
#
# Youngs Moduli (GPa) = 84.32763 68.53734 94.24836
#
# Poissons Ratio (x) = 0.34918 0.24747
# Poissons Ratio (y) = 0.42963 0.10130
# Poissons Ratio (z) = 0.22143 0.07366
#
# Static dielectric constant tensor:
#      x y z
#    x 4.088190 0.000000 -0.207420 
#    y 0.000000 3.607460 0.000000 
#    z -0.207420 0.000000 3.678140 
# 
# 
# High freq. dielectric constant tensor:
#      x y z
#    x 1.833570 0.000000 -0.000480 
#    y 0.000000 1.805820 0.000000 
#    z -0.000480 0.000000 1.813340 
# 
# From -- ./inp_files/20434.got.cif
#   From: 2010.03.12/outbox.cif.g09.slc.cpg/sg5_11_cif.got.tgz:20434.got - 2010.03.31 09:47:26.
