data_PCOD8048120
_publ_section_title
;
Structure prediction by ZEFSAII (Michael W. Deem and Ramdas Pophale) SiO2 
 PCOD8048120
Probable space group: C 2
;
_chemical_formula_sum "Si O2"
_cell_formula_units_Z 30
_cell_length_a 25.266292
_cell_length_b 8.012797
_cell_length_c 7.802009
_cell_angle_alpha 90.000000
_cell_angle_beta 121.314754
_cell_angle_gamma 90.000000
_cell_volume 1349.445113
_symmetry_space_group_name_H-M "C 2"
_symmetry_group_IT_number 5
_symmetry_cell_setting 'monoclinic'
loop_
_space_group_symop_operation_xyz
x,y,z
-x,y,-z
1/2+x,1/2+y,z
1/2-x,1/2+y,-z
loop_
_atom_site_type_symbol
_atom_site_label
_atom_site_fract_x
_atom_site_fract_y
_atom_site_fract_z
Si Si1 0.117786 0.289520 0.559587
Si Si2 0.933594 0.391544 0.897514
Si Si3 0.000000 0.151273 0.500000
Si Si4 0.688726 0.458668 0.610310
Si Si5 0.815823 0.573321 0.761347
Si Si6 0.040815 0.041262 0.912307
Si Si7 0.324472 0.443435 0.812741
Si Si8 0.200335 0.590458 0.667579
O O1 0.093380 0.324119 0.326948
O O2 0.059658 0.272126 0.588490
O O3 0.159825 0.446570 0.693064
O O4 0.154918 0.114110 0.642606
O O5 0.884793 0.507545 0.915933
O O6 0.947544 0.235389 0.039617
O O7 0.000000 0.489333 0.000000
O O8 0.002678 0.029227 0.670414
O O9 0.763058 0.462457 0.761127
O O10 0.670548 0.476005 0.381177
O O11 0.673560 0.275806 0.667589
O O12 0.803302 0.755902 0.814085
O O13 0.806312 0.563947 0.544146
O O14 0.000000 0.962630 0.000000
O O15 0.106931 0.956228 0.995823
O O16 0.274466 0.563156 0.825536
#
# Coordination Sequence:
#
# PCOD8048120 Si02
#       8
#     4   4   2   4   4   4   4   4
#     4  11  20  38  61  89 124 164 212 253 314 373
#     4  10  18  35  57  86 121 163 211 248 302 376
#     4  12  24  40  68  90 124 176 206 260 318 368
#     4  10  17  32  58  94 128 160 208 262 312 370
#     4   9  18  28  56  95 125 161 209 258 313 371
#     4  11  21  38  63  90 123 167 214 255 311 377
#     4  10  17  32  56  92 127 160 210 259 309 376
#     4   9  19  31  58  94 127 164 205 261 315 369
#
# _framework density 22.231359999999999
#
# number of rings (size 3 to 8) (size 9 to 14) (size 15 to 20)
#    0.000    1.867    5.333    0.800    3.733    0.533 
#    0.000    2.000    8.800    0.000    0.000    0.000 
#    0.000    0.000    0.000    0.000    0.000    0.000 
#
# Total GULP energy -185861.951211 kJ/mol
# GULP energy per Si atom -12390.796747 kJ/mol
# Density = 2.218076 g / cm^3
# Si number density = 22.231360 Si / 1000 Ang^3
#
#
#
# Elastic Constant Matrix: (Units=GPa)
#
#
# Indices 1 2 3 4 5 6 
#
# 1 123.3996 50.6176 28.5960 0.0000 29.7441 0.0000
# 2 50.6176 111.3310 -4.4207 0.0000 9.8852 0.0000
# 3 28.5960 -4.4207 53.2211 0.0000 9.4014 0.0000
# 4 0.0000 0.0000 0.0000 15.2541 0.0000 15.1926
# 5 29.7441 9.8852 9.4014 0.0000 37.4606 0.0000
# 6 0.0000 0.0000 0.0000 15.1926 0.0000 26.8826
#
#
#
# Elastic Compliance Matrix: (Units=1/GPa)
#
#
# Indices 1 2 3 4 5 6 
#
# 1 0.013951 -0.005907 -0.006597 0.000000 -0.007863 0.000000
# 2 -0.005907 0.011778 0.004052 0.000000 0.000565 0.000000
# 3 -0.006597 0.004052 0.022952 0.000000 -0.001591 0.000000
# 4 0.000000 0.000000 0.000000 0.149968 0.000000 -0.084754
# 5 -0.007863 0.000565 -0.001591 0.000000 0.033188 0.000000
# 6 0.000000 0.000000 0.000000 -0.084754 0.000000 0.085097
#
#
# Mechanical properties :
#
#
# Convention : Reuss Voigt Hill
#
# Bulk Modulus (GPa) = 31.46884 48.61525 40.04205
# Shear Modulus (GPa) = 14.51672 30.13004 22.32338
#
# Velocity S-wave (km/s) = 2.55813 3.68543 3.17225
# Velocity P-wave (km/s) = 4.78657 6.32654 5.60965
#
# Compressibility (1/GPa) = 0.03177746
#
# Stress axis : x y z
#
# Youngs Moduli (GPa) = 71.68117 84.90057 43.56908
#
# Poissons Ratio (x) = 0.50148 0.28745
# Poissons Ratio (y) = 0.42339 -0.17655
# Poissons Ratio (z) = 0.47292 -0.34404
#
# Static dielectric constant tensor:
#      x y z
#    x 4.294110 0.000000 0.605140 
#    y 0.000000 3.987420 0.000000 
#    z 0.605140 0.000000 3.974110 
# 
# 
# High freq. dielectric constant tensor:
#      x y z
#    x 1.873260 0.000000 0.030300 
#    y 0.000000 1.857000 0.000000 
#    z 0.030300 0.000000 1.850240 
# 
# From -- ./inp_files/30679.got.cif
#   From: 2010.03.12/outbox.cif.g09.slc.cpg/sg5_16_cif.got.tgz:30679.got - 2010.03.31 09:47:26.
