data_PCOD8048128
_publ_section_title
;
Structure prediction by ZEFSAII (Michael W. Deem and Ramdas Pophale) SiO2 
 PCOD8048128
Probable space group: C 2
;
_chemical_formula_sum "Si O2"
_cell_formula_units_Z 28
_cell_length_a 20.162501
_cell_length_b 17.860275
_cell_length_c 9.278834
_cell_angle_alpha 90.000000
_cell_angle_beta 153.431677
_cell_angle_gamma 90.000000
_cell_volume 1494.481499
_symmetry_space_group_name_H-M "C 2"
_symmetry_group_IT_number 5
_symmetry_cell_setting 'monoclinic'
loop_
_space_group_symop_operation_xyz
x,y,z
-x,y,-z
1/2+x,1/2+y,z
1/2-x,1/2+y,-z
loop_
_atom_site_type_symbol
_atom_site_label
_atom_site_fract_x
_atom_site_fract_y
_atom_site_fract_z
Si Si1 0.893083 0.678360 0.614341
Si Si2 0.291146 0.113435 0.685188
Si Si3 0.573022 0.848297 0.790725
Si Si4 0.335697 0.252584 0.219396
Si Si5 0.681132 0.742835 0.622198
Si Si6 0.658972 0.328049 0.311781
Si Si7 0.368153 0.952055 0.847454
O O1 0.793107 0.620630 0.513942
O O2 0.847668 0.683596 0.357632
O O3 0.865658 0.760325 0.625944
O O4 0.062631 0.652146 0.960546
O O5 0.158461 0.163566 0.494405
O O6 0.271546 0.026684 0.689878
O O7 0.500000 0.873876 0.500000
O O8 0.480807 0.779444 0.679871
O O9 0.743188 0.822237 0.104274
O O10 0.566246 0.921968 0.875623
O O11 0.500000 0.281909 0.500000
O O12 0.250298 0.224199 0.912258
O O13 0.788931 0.798736 0.743225
O O14 0.779093 0.385750 0.601031
O O15 0.500000 0.370166 0.000000
O O16 0.500000 0.978596 0.000000
#
# Coordination Sequence:
#
# PCOD8048128 Si02
#       7
#     4   4   4   4   4   4   4
#     4  10  17  33  57  83 107 142 200 232 267 336
#     4  10  20  37  57  87 116 147 189 246 279 349
#     4  10  23  38  55  90 119 150 195 244 288 347
#     4  11  19  33  60  89 104 150 202 238 277 339
#     4  10  20  36  58  82 116 147 195 241 278 335
#     4  11  19  35  60  83 111 151 193 238 281 345
#     4  12  22  37  60  86 120 154 188 239 306 333
#
# _framework density 18.735595
#
# number of rings (size 3 to 8) (size 9 to 14) (size 15 to 20)
#    0.000    1.429    8.571    0.000    0.000    0.000 
#    2.571    1.429    0.000    2.571    0.000    0.000 
#    0.000    0.000    0.000    0.000    0.000    0.000 
#
# Total GULP energy -173525.572211 kJ/mol
# GULP energy per Si atom -12394.683729 kJ/mol
# Density = 1.869295 g / cm^3
# Si number density = 18.735595 Si / 1000 Ang^3
#
#
#
# Elastic Constant Matrix: (Units=GPa)
#
#
# Indices 1 2 3 4 5 6 
#
# 1 103.6350 38.2831 35.5308 0.0000 -10.0975 0.0000
# 2 38.2831 109.1858 26.7376 0.0000 -10.6406 0.0000
# 3 35.5308 26.7376 61.9965 0.0000 -8.9633 0.0000
# 4 0.0000 0.0000 0.0000 23.9324 0.0000 2.5440
# 5 -10.0975 -10.6406 -8.9633 0.0000 34.7860 0.0000
# 6 0.0000 0.0000 0.0000 2.5440 0.0000 14.7721
#
#
#
# Elastic Compliance Matrix: (Units=1/GPa)
#
#
# Indices 1 2 3 4 5 6 
#
# 1 0.012898 -0.002941 -0.005933 0.000000 0.001315 0.000000
# 2 -0.002941 0.011057 -0.002822 0.000000 0.001801 0.000000
# 3 -0.005933 -0.002822 0.021162 0.000000 0.002867 0.000000
# 4 0.000000 0.000000 0.000000 0.042564 0.000000 -0.007330
# 5 0.001315 0.001801 0.002867 0.000000 0.030419 0.000000
# 6 0.000000 0.000000 0.000000 -0.007330 0.000000 0.068957
#
#
# Mechanical properties :
#
#
# Convention : Reuss Voigt Hill
#
# Bulk Modulus (GPa) = 46.03431 52.88001 49.45716
# Shear Modulus (GPa) = 22.96826 26.31582 24.64204
#
# Velocity S-wave (km/s) = 3.50511 3.75185 3.63058
# Velocity P-wave (km/s) = 6.40351 6.85960 6.63547
#
# Compressibility (1/GPa) = 0.02172293
#
# Stress axis : x y z
#
# Youngs Moduli (GPa) = 77.53048 90.44340 47.25403
#
# Poissons Ratio (x) = 0.26601 0.28038
# Poissons Ratio (y) = 0.22803 0.13337
# Poissons Ratio (z) = 0.46002 0.25527
#
# Static dielectric constant tensor:
#      x y z
#    x 3.840340 0.000000 -0.055950 
#    y 0.000000 3.241520 0.000000 
#    z -0.055950 0.000000 3.402530 
# 
# 
# High freq. dielectric constant tensor:
#      x y z
#    x 1.741690 0.000000 -0.007150 
#    y 0.000000 1.695620 0.000000 
#    z -0.007150 0.000000 1.713940 
# 
# From -- ./inp_files/29994.got.cif
#   From: 2010.03.12/outbox.cif.g09.slc.cpg/sg5_15_cif.got.tgz:29994.got - 2010.03.31 09:47:26.
