data_PCOD8048946
_publ_section_title
;
Structure prediction by ZEFSAII (Michael W. Deem and Ramdas Pophale) SiO2 
 PCOD8048946
Probable space group: C 2
;
_chemical_formula_sum "Si O2"
_cell_formula_units_Z 28
_cell_length_a 13.571071
_cell_length_b 8.293277
_cell_length_c 17.886689
_cell_angle_alpha 90.000000
_cell_angle_beta 45.059322
_cell_angle_gamma 90.000000
_cell_volume 1424.965795
_symmetry_space_group_name_H-M "C 2"
_symmetry_group_IT_number 5
_symmetry_cell_setting 'monoclinic'
loop_
_space_group_symop_operation_xyz
x,y,z
-x,y,-z
1/2+x,1/2+y,z
1/2-x,1/2+y,-z
loop_
_atom_site_type_symbol
_atom_site_label
_atom_site_fract_x
_atom_site_fract_y
_atom_site_fract_z
Si Si1 0.071977 0.127790 0.723152
Si Si2 0.348111 0.105813 0.102903
Si Si3 0.864184 0.592784 0.617364
Si Si4 0.754381 0.098028 0.092479
Si Si5 0.882854 0.351345 0.735701
Si Si6 0.341398 0.428666 0.906616
Si Si7 0.663570 0.781288 0.813699
O O1 0.233958 0.073079 0.628204
O O2 0.050335 0.229262 0.812230
O O3 0.016194 0.237705 0.684043
O O4 0.979305 0.968351 0.784172
O O5 0.260246 0.251564 0.184217
O O6 0.284586 0.027351 0.062802
O O7 0.353709 0.970035 0.164314
O O8 0.500000 0.171244 0.000000
O O9 0.896757 0.426810 0.645045
O O10 0.819165 0.735876 0.698684
O O11 0.000000 0.647704 0.500000
O O12 0.680519 0.237912 0.083895
O O13 0.856407 0.179110 0.099356
O O14 0.631253 0.993966 0.196320
O O15 0.848266 0.983719 0.989271
#
# Coordination Sequence:
#
# PCOD8048946 Si02
#       7
#     4   4   4   4   4   4   4
#     4   9  20  38  57  84 112 151 192 254 294 367
#     4  10  21  34  55  85 120 159 190 241 292 365
#     4   9  20  41  63  81 114 155 195 254 316 352
#     4  10  20  35  50  81 114 162 194 240 294 359
#     4  10  21  39  57  84 120 155 202 246 298 365
#     4  10  20  32  53  78 119 154 202 236 289 365
#     4   8  20  36  59  77 114 150 190 249 303 351
#
# _framework density 19.649595999999999
#
# number of rings (size 3 to 8) (size 9 to 14) (size 15 to 20)
#    0.857    1.714    0.000    1.714    6.000    2.286 
#    0.000    6.429    0.000    0.000    0.000    0.000 
#    0.000    0.000    0.000    0.000    0.000    0.000 
#
# Total GULP energy -173467.417735 kJ/mol
# GULP energy per Si atom -12390.529838 kJ/mol
# Density = 1.960487 g / cm^3
# Si number density = 19.649596 Si / 1000 Ang^3
#
#
#
# Elastic Constant Matrix: (Units=GPa)
#
#
# Indices 1 2 3 4 5 6 
#
# 1 73.2308 17.5884 23.6363 0.0000 -17.1501 0.0000
# 2 17.5884 81.5217 21.9504 0.0000 0.2232 0.0000
# 3 23.6363 21.9504 74.3508 0.0000 -17.2758 0.0000
# 4 0.0000 0.0000 0.0000 16.5278 0.0000 3.2981
# 5 -17.1501 0.2232 -17.2758 0.0000 27.4160 0.0000
# 6 0.0000 0.0000 0.0000 3.2981 0.0000 25.5553
#
#
#
# Elastic Compliance Matrix: (Units=1/GPa)
#
#
# Indices 1 2 3 4 5 6 
#
# 1 0.017383 -0.003123 -0.002427 0.000000 0.009370 0.000000
# 2 -0.003123 0.014105 -0.004279 0.000000 -0.004764 0.000000
# 3 -0.002427 -0.004279 0.017737 0.000000 0.009693 0.000000
# 4 0.000000 0.000000 0.000000 0.062104 0.000000 -0.008015
# 5 0.009370 -0.004764 0.009693 0.000000 0.048483 0.000000
# 6 0.000000 0.000000 0.000000 -0.008015 0.000000 0.040165
#
#
# Mechanical properties :
#
#
# Convention : Reuss Voigt Hill
#
# Bulk Modulus (GPa) = 33.81947 39.49483 36.65715
# Shear Modulus (GPa) = 21.78738 24.96167 23.37453
#
# Velocity S-wave (km/s) = 3.33347 3.56805 3.45275
# Velocity P-wave (km/s) = 5.66257 6.09244 5.88143
#
# Compressibility (1/GPa) = 0.02956877
#
# Stress axis : x y z
#
# Youngs Moduli (GPa) = 57.52674 70.89437 56.38012
#
# Poissons Ratio (x) = 0.22137 0.13684
# Poissons Ratio (y) = 0.17963 0.24123
# Poissons Ratio (z) = 0.13962 0.30333
#
# Static dielectric constant tensor:
#      x y z
#    x 3.569070 0.000000 0.016230 
#    y 0.000000 3.556300 0.000000 
#    z 0.016230 0.000000 3.101310 
# 
# 
# High freq. dielectric constant tensor:
#      x y z
#    x 1.763320 0.000000 -0.002080 
#    y 0.000000 1.763780 0.000000 
#    z -0.002080 0.000000 1.725050 
# 
# From -- ./inp_files/65787.got.cif
#   From: 2010.03.12/outbox.cif.g09.slc.cpg/sg5_33_cif.got.tgz:65787.got - 2010.03.31 09:47:26.
