data_PCOD8048798
_publ_section_title
;
Structure prediction by ZEFSAII (Michael W. Deem and Ramdas Pophale) SiO2 
 PCOD8048798
Probable space group: C 2
;
_chemical_formula_sum "Si O2"
_cell_formula_units_Z 26
_cell_length_a 8.360246
_cell_length_b 19.998089
_cell_length_c 9.389108
_cell_angle_alpha 90.000000
_cell_angle_beta 129.936545
_cell_angle_gamma 90.000000
_cell_volume 1203.618881
_symmetry_space_group_name_H-M "C 2"
_symmetry_group_IT_number 5
_symmetry_cell_setting 'monoclinic'
loop_
_space_group_symop_operation_xyz
x,y,z
-x,y,-z
1/2+x,1/2+y,z
1/2-x,1/2+y,-z
loop_
_atom_site_type_symbol
_atom_site_label
_atom_site_fract_x
_atom_site_fract_y
_atom_site_fract_z
Si Si1 0.069031 0.589860 0.263861
Si Si2 0.877086 0.997959 0.577617
Si Si3 0.327558 0.237164 0.658847
Si Si4 0.552111 0.738031 0.766957
Si Si5 0.953019 0.860321 0.313524
Si Si6 0.330750 0.593735 0.125651
Si Si7 0.500000 0.834697 0.000000
O O1 0.150117 0.531944 0.419225
O O2 0.078328 0.665033 0.331592
O O3 0.215357 0.592605 0.210351
O O4 0.829572 0.573558 0.090646
O O5 0.000000 0.000259 0.500000
O O6 0.887343 0.920924 0.636521
O O7 0.986020 0.039601 0.765291
O O8 0.253074 0.241587 0.779506
O O9 0.504245 0.294051 0.753688
O O10 0.148297 0.252484 0.443363
O O11 0.557718 0.664410 0.839741
O O12 0.556211 0.791140 0.894774
O O13 0.000000 0.838793 0.500000
O O14 0.706618 0.879941 0.150703
#
# Coordination Sequence:
#
# PCOD8048798 Si02
#       7
#     4   4   4   4   4   4   2
#     4   9  16  29  56  83 111 146 199 236 290 332
#     4   9  18  31  50  80 116 151 189 237 289 344
#     4  10  19  38  62  89 117 158 195 250 291 353
#     4  10  20  36  64  89 117 150 202 243 300 346
#     4  11  23  37  55  88 126 159 196 244 298 349
#     4   9  16  30  53  86 108 145 192 244 278 351
#     4  12  24  38  58  92 120 156 194 250 296 354
#
# _framework density 21.601524999999999
#
# number of rings (size 3 to 8) (size 9 to 14) (size 15 to 20)
#    0.000    2.154    3.077    0.923    0.000    5.538 
#    0.000    0.000    0.000    1.846   12.000    0.000 
#    0.000    0.000    0.000    0.000    0.000    0.000 
#
# Total GULP energy -161089.800943 kJ/mol
# GULP energy per Si atom -12391.523149 kJ/mol
# Density = 2.155236 g / cm^3
# Si number density = 21.601525 Si / 1000 Ang^3
#
#
#
# Elastic Constant Matrix: (Units=GPa)
#
#
# Indices 1 2 3 4 5 6 
#
# 1 27.0486 23.2981 27.9008 0.0000 8.3081 0.0000
# 2 23.2981 140.9410 46.6072 0.0000 11.9830 0.0000
# 3 27.9008 46.6072 113.6426 0.0000 20.0531 0.0000
# 4 0.0000 0.0000 0.0000 17.5450 0.0000 5.1643
# 5 8.3081 11.9830 20.0531 0.0000 27.4666 0.0000
# 6 0.0000 0.0000 0.0000 5.1643 0.0000 21.7044
#
#
#
# Elastic Compliance Matrix: (Units=1/GPa)
#
#
# Indices 1 2 3 4 5 6 
#
# 1 0.053584 -0.005005 -0.009904 0.000000 -0.006794 0.000000
# 2 -0.005005 0.008716 -0.002229 0.000000 -0.000661 0.000000
# 3 -0.009904 -0.002229 0.013138 0.000000 -0.005623 0.000000
# 4 0.000000 0.000000 0.000000 0.061289 0.000000 -0.014583
# 5 -0.006794 -0.000661 -0.005623 0.000000 0.042857 0.000000
# 6 0.000000 0.000000 0.000000 -0.014583 0.000000 0.049543
#
#
# Mechanical properties :
#
#
# Convention : Reuss Voigt Hill
#
# Bulk Modulus (GPa) = 24.29464 53.02716 38.66090
# Shear Modulus (GPa) = 18.04248 25.59829 21.82038
#
# Velocity S-wave (km/s) = 2.89319 3.44615 3.18170
# Velocity P-wave (km/s) = 4.73623 6.35891 5.60659
#
# Compressibility (1/GPa) = 0.04116134
#
# Stress axis : x y z
#
# Youngs Moduli (GPa) = 18.66213 114.73357 76.11724
#
# Poissons Ratio (x) = 0.57423 0.75389
# Poissons Ratio (y) = 0.09340 0.16967
# Poissons Ratio (z) = 0.18484 0.25575
#
# Static dielectric constant tensor:
#      x y z
#    x 3.443720 0.000000 0.255830 
#    y 0.000000 4.039590 0.000000 
#    z 0.255830 0.000000 4.082220 
# 
# 
# High freq. dielectric constant tensor:
#      x y z
#    x 1.797540 0.000000 0.019530 
#    y 0.000000 1.841680 0.000000 
#    z 0.019530 0.000000 1.861920 
# 
# From -- ./inp_files/17008.got.cif
#   From: 2010.03.12/outbox.cif.g09.slc.cpg/sg5_9_cif.got.tgz:17008.got - 2010.03.31 09:47:26.
