data_PCOD8048261
_publ_section_title
;
Structure prediction by ZEFSAII (Michael W. Deem and Ramdas Pophale) SiO2 
 PCOD8048261
Probable space group: C 2
;
_chemical_formula_sum "Si O2"
_cell_formula_units_Z 26
_cell_length_a 11.512086
_cell_length_b 15.560574
_cell_length_c 15.121129
_cell_angle_alpha 90.000000
_cell_angle_beta 153.049936
_cell_angle_gamma 90.000000
_cell_volume 1227.628483
_symmetry_space_group_name_H-M "C 2"
_symmetry_group_IT_number 5
_symmetry_cell_setting 'monoclinic'
loop_
_space_group_symop_operation_xyz
x,y,z
-x,y,-z
1/2+x,1/2+y,z
1/2-x,1/2+y,-z
loop_
_atom_site_type_symbol
_atom_site_label
_atom_site_fract_x
_atom_site_fract_y
_atom_site_fract_z
Si Si1 0.800585 0.665680 0.296551
Si Si2 0.110396 0.885449 0.847954
Si Si3 0.993833 0.605414 0.160569
Si Si4 0.434337 0.511560 0.043287
Si Si5 0.000000 0.489137 0.000000
Si Si6 0.420019 0.748498 0.159001
Si Si7 0.192597 0.732638 0.424759
O O1 0.607736 0.593122 0.137888
O O2 0.645925 0.741683 0.240374
O O3 0.000000 0.624356 0.500000
O O4 0.939652 0.704649 0.306267
O O5 0.878641 0.826500 0.658759
O O6 0.971947 0.962993 0.805495
O O7 0.283925 0.837820 0.040966
O O8 0.271222 0.926244 0.876207
O O9 0.098857 0.549691 0.148562
O O10 0.216617 0.661573 0.361343
O O11 0.862145 0.540245 0.142018
O O12 0.775047 0.669308 0.975845
O O13 0.500000 0.454188 0.000000
O O14 0.545946 0.743651 0.342641
#
# Coordination Sequence:
#
# PCOD8048261 Si02
#       7
#     4   4   4   4   2   4   4
#     4   9  17  31  59  82  99 134 190 230 251 310
#     4  10  21  35  55  80 114 141 171 227 272 327
#     4   9  19  35  59  78 107 143 184 227 254 325
#     4  10  18  34  53  80 107 136 174 221 274 306
#     4  10  20  38  56  82 112 148 182 218 284 316
#     4   9  19  35  55  83 107 141 183 222 269 320
#     4  10  18  36  58  80 106 142 185 222 268 316
#
# _framework density 21.179046
#
# number of rings (size 3 to 8) (size 9 to 14) (size 15 to 20)
#    0.000    2.462    1.538    0.923    0.000    0.000 
#    8.308    6.923    0.000    0.000    0.000    0.000 
#    0.000    0.000    0.000    0.000    0.000    0.000 
#
# Total GULP energy -161045.107213 kJ/mol
# GULP energy per Si atom -12388.085170 kJ/mol
# Density = 2.113084 g / cm^3
# Si number density = 21.179046 Si / 1000 Ang^3
#
#
#
# Elastic Constant Matrix: (Units=GPa)
#
#
# Indices 1 2 3 4 5 6 
#
# 1 86.3479 26.7184 13.8194 0.0092 -18.9553 -0.0010
# 2 26.7184 74.7304 19.2711 0.0838 -13.3035 0.0343
# 3 13.8194 19.2711 99.5636 0.1477 -23.2053 0.0497
# 4 0.0092 0.0838 0.1477 -3.2951 0.0250 -22.0202
# 5 -18.9553 -13.3035 -23.2053 0.0250 23.1171 0.0120
# 6 -0.0010 0.0343 0.0497 -22.0202 0.0120 30.8747
#
#
#
# Elastic Compliance Matrix: (Units=1/GPa)
#
#
# Indices 1 2 3 4 5 6 
#
# 1 0.015037 -0.003660 0.001311 0.000019 0.011539 0.000011
# 2 -0.003660 0.015902 -0.001484 0.000083 0.004661 0.000042
# 3 0.001311 -0.001484 0.013316 0.000144 0.013587 0.000078
# 4 0.000019 0.000083 0.000144 -0.052629 0.000284 -0.037536
# 5 0.011539 0.004661 0.013587 0.000284 0.069041 0.000149
# 6 0.000011 0.000042 0.000078 -0.037536 0.000149 0.005618
#
#
# Mechanical properties :
#
#
# Convention : Reuss Voigt Hill
#
# Bulk Modulus (GPa) = 27.33096 42.25109 34.79103
# Shear Modulus (GPa) = 58.04059 23.52819 40.78439
#
# Velocity S-wave (km/s) = 5.24063 3.33666 4.39304
# Velocity P-wave (km/s) = 7.03930 5.90230 6.49572
#
# Compressibility (1/GPa) = 0.03658855
#
# Stress axis : x y z
#
# Youngs Moduli (GPa) = 66.50316 62.88424 75.09994
#
# Poissons Ratio (x) = 0.23015 -0.09843
# Poissons Ratio (y) = 0.24340 0.11143
# Poissons Ratio (z) = -0.08717 0.09331
#
# Static dielectric constant tensor:
#      x y z
#    x 4.018560 -0.000050 -0.254770 
#    y -0.000050 3.838840 -0.000020 
#    z -0.254770 -0.000020 3.634660 
# 
# 
# High freq. dielectric constant tensor:
#      x y z
#    x 1.832150 0.000000 -0.022240 
#    y 0.000000 1.826780 0.000000 
#    z -0.022240 0.000000 1.805670 
# 
# From -- ./inp_files/53229.got.cif
#   From: 2010.03.12/outbox.cif.g09.slc.cpg/sg5_27_cif.got.tgz:53229.got - 2010.03.31 09:47:26.
