data_PCOD8048730
_publ_section_title
;
Structure prediction by ZEFSAII (Michael W. Deem and Ramdas Pophale) SiO2 
 PCOD8048730
Probable space group: C 2
;
_chemical_formula_sum "Si O2"
_cell_formula_units_Z 24
_cell_length_a 15.985269
_cell_length_b 16.197373
_cell_length_c 8.826440
_cell_angle_alpha 90.000000
_cell_angle_beta 33.798488
_cell_angle_gamma 90.000000
_cell_volume 1271.272412
_symmetry_space_group_name_H-M "C 2"
_symmetry_group_IT_number 5
_symmetry_cell_setting 'monoclinic'
loop_
_space_group_symop_operation_xyz
x,y,z
-x,y,-z
1/2+x,1/2+y,z
1/2-x,1/2+y,-z
loop_
_atom_site_type_symbol
_atom_site_label
_atom_site_fract_x
_atom_site_fract_y
_atom_site_fract_z
Si Si1 0.608518 0.468830 0.975121
Si Si2 0.390582 0.951422 0.361688
Si Si3 0.700454 0.999977 0.817628
Si Si4 0.956197 0.111281 0.392599
Si Si5 0.150332 0.868542 0.201958
Si Si6 0.036727 0.292661 0.271146
O O1 0.776554 0.485186 0.659524
O O2 0.500000 0.443757 0.000000
O O3 0.553272 0.551451 0.140371
O O4 0.616977 0.392130 0.077842
O O5 0.312101 0.946071 0.316357
O O6 0.448415 0.859535 0.306343
O O7 0.535119 0.013449 0.139661
O O8 0.809420 0.952580 0.769247
O O9 0.779041 0.086702 0.653749
O O10 0.000000 0.104947 0.500000
O O11 0.982503 0.203726 0.292884
O O12 0.000000 0.829096 0.500000
O O13 0.283284 0.801911 0.018073
O O14 0.000000 0.307836 0.500000
#
# Coordination Sequence:
#
# PCOD8048730 Si02
#       6
#     4   4   4   4   4   4
#     4  12  20  35  63  89 111 151 201 238 274 349
#     4  10  21  36  60  87 112 152 205 230 275 349
#     4  10  19  37  59  85 116 156 191 238 284 345
#     4  11  21  39  58  84 118 156 183 239 307 332
#     4  11  19  37  60  86 115 157 197 233 282 350
#     4  10  22  37  60  86 119 153 188 244 293 337
#
# _framework density 18.878724999999999
#
# number of rings (size 3 to 8) (size 9 to 14) (size 15 to 20)
#    0.000    1.333    6.667    0.000    0.000    0.000 
#    6.000    3.333    3.667    0.000    0.000    0.000 
#    0.000    0.000    0.000    0.000    0.000    0.000 
#
# Total GULP energy -148770.968428 kJ/mol
# GULP energy per Si atom -12397.580702 kJ/mol
# Density = 1.883576 g / cm^3
# Si number density = 18.878725 Si / 1000 Ang^3
#
#
#
# Elastic Constant Matrix: (Units=GPa)
#
#
# Indices 1 2 3 4 5 6 
#
# 1 99.1564 43.4695 33.7199 0.0000 -2.1178 0.0000
# 2 43.4695 108.6292 57.1849 0.0000 -15.5079 0.0000
# 3 33.7199 57.1849 182.9403 0.0001 -16.1341 -0.0001
# 4 0.0000 0.0000 0.0001 21.7683 0.0000 -4.8026
# 5 -2.1178 -15.5079 -16.1341 0.0000 29.0218 0.0000
# 6 0.0000 0.0000 -0.0001 -4.8026 0.0000 23.2963
#
#
#
# Elastic Compliance Matrix: (Units=1/GPa)
#
#
# Indices 1 2 3 4 5 6 
#
# 1 0.012473 -0.004779 -0.000999 0.000000 -0.002199 0.000000
# 2 -0.004779 0.013354 -0.002834 0.000000 0.005212 0.000000
# 3 -0.000999 -0.002834 0.006726 0.000000 0.002152 0.000000
# 4 0.000000 0.000000 0.000000 0.048127 0.000000 0.009922
# 5 -0.002199 0.005212 0.002152 0.000000 0.038278 0.000000
# 6 0.000000 0.000000 0.000000 0.009922 0.000000 0.044971
#
#
# Mechanical properties :
#
#
# Convention : Reuss Voigt Hill
#
# Bulk Modulus (GPa) = 65.23650 73.27494 69.25572
# Shear Modulus (GPa) = 26.84388 31.90739 29.37564
#
# Velocity S-wave (km/s) = 3.77492 4.11557 3.94892
# Velocity P-wave (km/s) = 7.32329 7.84102 7.58657
#
# Compressibility (1/GPa) = 0.01532884
#
# Stress axis : x y z
#
# Youngs Moduli (GPa) = 80.17274 74.88469 148.67706
#
# Poissons Ratio (x) = 0.35790 0.14854
# Poissons Ratio (y) = 0.38317 0.42131
# Poissons Ratio (z) = 0.08010 0.21220
#
# Static dielectric constant tensor:
#      x y z
#    x 3.577960 0.000000 -0.045470 
#    y 0.000000 3.223540 0.000000 
#    z -0.045470 0.000000 3.940940 
# 
# 
# High freq. dielectric constant tensor:
#      x y z
#    x 1.742620 0.000000 0.000980 
#    y 0.000000 1.688090 0.000000 
#    z 0.000980 0.000000 1.757530 
# 
# From -- ./inp_files/24503.got.cif
#   From: 2010.03.12/outbox.cif.g09.slc.cpg/sg5_13_cif.got.tgz:24503.got - 2010.03.31 09:47:26.
