data_PCOD8048225
_publ_section_title
;
Structure prediction by ZEFSAII (Michael W. Deem and Ramdas Pophale) SiO2 
 PCOD8048225
Probable space group: C 2
;
_chemical_formula_sum "Si O2"
_cell_formula_units_Z 30
_cell_length_a 19.369546
_cell_length_b 8.639276
_cell_length_c 9.880590
_cell_angle_alpha 90.000000
_cell_angle_beta 103.769652
_cell_angle_gamma 90.000000
_cell_volume 1605.888508
_symmetry_space_group_name_H-M "C 2"
_symmetry_group_IT_number 5
_symmetry_cell_setting 'monoclinic'
loop_
_space_group_symop_operation_xyz
x,y,z
-x,y,-z
1/2+x,1/2+y,z
1/2-x,1/2+y,-z
loop_
_atom_site_type_symbol
_atom_site_label
_atom_site_fract_x
_atom_site_fract_y
_atom_site_fract_z
Si Si1 0.559007 0.790280 0.375327
Si Si2 0.575328 0.716155 0.092422
Si Si3 0.441875 0.353736 0.867122
Si Si4 0.588463 0.940277 0.652433
Si Si5 0.500000 0.515107 0.500000
Si Si6 0.944758 0.779210 0.281043
Si Si7 0.680528 0.877689 0.942905
Si Si8 0.666500 0.231169 0.001837
O O1 0.594698 0.799185 0.244094
O O2 0.604293 0.892241 0.503942
O O3 0.479294 0.851312 0.322810
O O4 0.550351 0.615101 0.424396
O O5 0.571136 0.535883 0.124122
O O6 0.500000 0.776450 0.000000
O O7 0.635150 0.756971 0.010900
O O8 0.474170 0.295453 0.739463
O O9 0.500000 0.294625 0.000000
O O10 0.367680 0.268702 0.867351
O O11 0.654225 0.888373 0.775838
O O12 0.570038 0.120534 0.648440
O O13 0.441675 0.414632 0.390477
O O14 0.885009 0.801138 0.138318
O O15 0.675942 0.047786 0.003570
O O16 0.760121 0.819077 0.980462
#
# Coordination Sequence:
#
# PCOD8048225 Si02
#       8
#     4   4   4   4   2   4   4   4
#     4  10  20  33  53  89 115 145 185 231 279 334
#     4  11  20  34  58  85 115 145 187 232 280 326
#     4   9  19  33  55  85 111 138 181 236 273 327
#     4   9  20  34  56  83 113 148 182 229 281 331
#     4  10  18  32  56  86 112 148 184 226 284 326
#     4  10  19  36  58  84 112 147 184 235 277 332
#     4  11  22  37  60  80 113 153 186 236 278 339
#     4  10  23  37  57  83 112 146 192 228 288 332
#
# _framework density 18.681246999999999
#
# number of rings (size 3 to 8) (size 9 to 14) (size 15 to 20)
#    0.000    2.133    2.667    1.600    1.867    2.667 
#    0.000    0.000    2.933    0.000    0.000    0.000 
#    0.000    0.000    0.000    0.000    0.000    0.000 
#
# Total GULP energy -185910.693017 kJ/mol
# GULP energy per Si atom -12394.046201 kJ/mol
# Density = 1.863873 g / cm^3
# Si number density = 18.681247 Si / 1000 Ang^3
#
#
#
# Elastic Constant Matrix: (Units=GPa)
#
#
# Indices 1 2 3 4 5 6 
#
# 1 104.7054 30.4850 40.7539 0.0000 2.5266 0.0000
# 2 30.4850 86.1285 49.2343 0.0000 7.4549 0.0000
# 3 40.7539 49.2343 103.6443 0.0000 -2.4534 0.0000
# 4 0.0000 0.0000 0.0000 25.0242 0.0000 4.4198
# 5 2.5266 7.4549 -2.4534 0.0000 18.1286 0.0000
# 6 0.0000 0.0000 0.0000 4.4198 0.0000 22.5977
#
#
#
# Elastic Compliance Matrix: (Units=1/GPa)
#
#
# Indices 1 2 3 4 5 6 
#
# 1 0.011563 -0.001866 -0.003692 0.000000 -0.001344 0.000000
# 2 -0.001866 0.017358 -0.007699 0.000000 -0.007920 0.000000
# 3 -0.003692 -0.007699 0.014892 0.000000 0.005696 0.000000
# 4 0.000000 0.000000 0.000000 0.041391 0.000000 -0.008096
# 5 -0.001344 -0.007920 0.005696 0.000000 0.059376 0.000000
# 6 0.000000 0.000000 0.000000 -0.008096 0.000000 0.045836
#
#
# Mechanical properties :
#
#
# Convention : Reuss Voigt Hill
#
# Bulk Modulus (GPa) = 57.80776 59.49163 58.64970
# Shear Modulus (GPa) = 22.45196 24.75045 23.60120
#
# Velocity S-wave (km/s) = 3.47052 3.64384 3.55824
# Velocity P-wave (km/s) = 6.86082 7.04402 6.95302
#
# Compressibility (1/GPa) = 0.01729872
#
# Stress axis : x y z
#
# Youngs Moduli (GPa) = 86.47958 57.61152 67.14811
#
# Poissons Ratio (x) = 0.10749 0.24793
# Poissons Ratio (y) = 0.16136 0.51699
# Poissons Ratio (z) = 0.31931 0.44356
#
# Static dielectric constant tensor:
#      x y z
#    x 3.221600 0.000000 -0.103120 
#    y 0.000000 3.508680 0.000000 
#    z -0.103120 0.000000 3.702010 
# 
# 
# High freq. dielectric constant tensor:
#      x y z
#    x 1.689150 0.000000 -0.007300 
#    y 0.000000 1.737510 0.000000 
#    z -0.007300 0.000000 1.727930 
# 
# From -- ./inp_files/44180.got.cif
#   From: 2010.03.12/outbox.cif.g09.slc.cpg/sg5_23_cif.got.tgz:44180.got - 2010.03.31 09:47:26.
