data_PCOD8048825
_publ_section_title
;
Structure prediction by ZEFSAII (Michael W. Deem and Ramdas Pophale) SiO2 
 PCOD8048825
Probable space group: C 2
;
_chemical_formula_sum "Si O2"
_cell_formula_units_Z 32
_cell_length_a 11.289182
_cell_length_b 8.821734
_cell_length_c 19.229359
_cell_angle_alpha 90.000000
_cell_angle_beta 128.618490
_cell_angle_gamma 90.000000
_cell_volume 1496.269010
_symmetry_space_group_name_H-M "C 2"
_symmetry_group_IT_number 5
_symmetry_cell_setting 'monoclinic'
loop_
_space_group_symop_operation_xyz
x,y,z
-x,y,-z
1/2+x,1/2+y,z
1/2-x,1/2+y,-z
loop_
_atom_site_type_symbol
_atom_site_label
_atom_site_fract_x
_atom_site_fract_y
_atom_site_fract_z
Si Si1 0.692363 0.700180 0.245085
Si Si2 0.662483 0.495227 0.020102
Si Si3 0.598790 0.154722 0.802331
Si Si4 0.119466 0.409867 0.332489
Si Si5 0.429240 0.643677 0.295359
Si Si6 0.145313 0.200813 0.887643
Si Si7 0.376286 0.408401 0.700931
Si Si8 0.666820 0.659270 0.590804
O O1 0.823080 0.722324 0.237874
O O2 0.728509 0.807580 0.323643
O O3 0.525953 0.755442 0.158264
O O4 0.687907 0.522482 0.264575
O O5 0.770398 0.621060 0.094735
O O6 0.730681 0.326453 0.047362
O O7 0.500000 0.497131 0.000000
O O8 0.661610 0.547123 0.939198
O O9 0.481355 0.286657 0.781071
O O10 0.511468 0.998117 0.757554
O O11 0.229664 0.532284 0.410442
O O12 0.031594 0.293368 0.351101
O O13 0.338470 0.662887 0.189001
O O14 0.535863 0.498086 0.326977
O O15 0.322447 0.619395 0.322488
O O16 0.241257 0.324201 0.609788
O O17 0.500000 0.657027 0.500000
#
# Coordination Sequence:
#
# PCOD8048825 Si02
#       8
#     4   4   4   4   4   4   4   4
#     4  10  19  39  60  85 116 161 200 235 301 359
#     4  12  24  40  58  89 126 158 205 260 297 345
#     4  11  19  35  61  82 114 162 196 242 299 347
#     4   9  20  39  60  85 120 159 200 238 299 370
#     4  10  21  43  60  84 125 161 199 244 310 362
#     4  10  24  40  59  88 122 161 203 253 298 353
#     4   9  22  36  62  90 116 157 202 242 296 374
#     4  11  23  39  64  95 120 154 202 254 305 363
#
# _framework density 21.386528999999999
#
# number of rings (size 3 to 8) (size 9 to 14) (size 15 to 20)
#    0.000    2.000    3.750    1.500    3.500    1.000 
#    2.250    4.375    0.000    0.000    0.000    0.000 
#    0.000    0.000    0.000    0.000    0.000    0.000 
#
# Total GULP energy -198245.905901 kJ/mol
# GULP energy per Si atom -12390.369119 kJ/mol
# Density = 2.133785 g / cm^3
# Si number density = 21.386529 Si / 1000 Ang^3
#
#
#
# Elastic Constant Matrix: (Units=GPa)
#
#
# Indices 1 2 3 4 5 6 
#
# 1 50.2904 21.0040 17.9889 0.0000 2.1534 0.0000
# 2 21.0040 81.0111 35.8447 0.0000 19.1415 0.0000
# 3 17.9889 35.8447 69.0256 0.0000 24.5384 0.0000
# 4 0.0000 0.0000 0.0000 22.0136 0.0000 8.7202
# 5 2.1534 19.1415 24.5384 0.0000 35.2001 0.0000
# 6 0.0000 0.0000 0.0000 8.7202 0.0000 25.6155
#
#
#
# Elastic Compliance Matrix: (Units=1/GPa)
#
#
# Indices 1 2 3 4 5 6 
#
# 1 0.023653 -0.004932 -0.005374 0.000000 0.004981 0.000000
# 2 -0.004932 0.017462 -0.006002 0.000000 -0.005010 0.000000
# 3 -0.005374 -0.006002 0.023568 0.000000 -0.012837 0.000000
# 4 0.000000 0.000000 0.000000 0.052507 0.000000 -0.017875
# 5 0.004981 -0.005010 -0.012837 0.000000 0.039778 0.000000
# 6 0.000000 0.000000 0.000000 -0.017875 0.000000 0.045124
#
#
# Mechanical properties :
#
#
# Convention : Reuss Voigt Hill
#
# Bulk Modulus (GPa) = 31.18312 38.88914 35.03613
# Shear Modulus (GPa) = 20.37520 24.93180 22.65350
#
# Velocity S-wave (km/s) = 3.08995 3.41804 3.25813
# Velocity P-wave (km/s) = 5.22903 5.81384 5.52918
#
# Compressibility (1/GPa) = 0.03206863
#
# Stress axis : x y z
#
# Youngs Moduli (GPa) = 42.27738 57.26724 42.43029
#
# Poissons Ratio (x) = 0.28243 0.22802
# Poissons Ratio (y) = 0.20850 0.25465
# Poissons Ratio (z) = 0.22720 0.34369
#
# Static dielectric constant tensor:
#      x y z
#    x 3.769810 0.000000 0.116860 
#    y 0.000000 4.094690 0.000000 
#    z 0.116860 0.000000 3.508210 
# 
# 
# High freq. dielectric constant tensor:
#      x y z
#    x 1.834030 0.000000 0.015140 
#    y 0.000000 1.858920 0.000000 
#    z 0.015140 0.000000 1.804640 
# 
# From -- ./inp_files/65133.got.cif
#   From: 2010.03.12/outbox.cif.g09.slc.cpg/sg5_33_cif.got.tgz:65133.got - 2010.03.31 09:47:26.
