data_PCOD8048954
_publ_section_title
;
Structure prediction by ZEFSAII (Michael W. Deem and Ramdas Pophale) SiO2 
 PCOD8048954
Probable space group: C 2
;
_chemical_formula_sum "Si O2"
_cell_formula_units_Z 24
_cell_length_a 12.363516
_cell_length_b 22.553357
_cell_length_c 14.464564
_cell_angle_alpha 90.000000
_cell_angle_beta 160.772366
_cell_angle_gamma 90.000000
_cell_volume 1328.248682
_symmetry_space_group_name_H-M "C 2"
_symmetry_group_IT_number 5
_symmetry_cell_setting 'monoclinic'
loop_
_space_group_symop_operation_xyz
x,y,z
-x,y,-z
1/2+x,1/2+y,z
1/2-x,1/2+y,-z
loop_
_atom_site_type_symbol
_atom_site_label
_atom_site_fract_x
_atom_site_fract_y
_atom_site_fract_z
Si Si1 0.500000 0.032090 0.500000
Si Si2 0.325255 0.206220 0.142392
Si Si3 0.500000 0.612154 0.000000
Si Si4 0.705608 0.355605 0.014078
Si Si5 0.094001 0.418533 0.477146
Si Si6 0.613643 0.232746 0.189546
Si Si7 0.761233 0.781463 0.386974
O O1 0.813661 0.071933 0.775571
O O2 0.601419 0.990187 0.494291
O O3 0.497241 0.191583 0.182225
O O4 0.540669 0.258306 0.363472
O O5 0.282020 0.149574 0.173711
O O6 0.954279 0.227574 0.826321
O O7 0.809537 0.402295 0.176224
O O8 0.035005 0.337946 0.225928
O O9 0.449382 0.389538 0.739334
O O10 0.556977 0.296412 0.938288
O O11 0.000000 0.389058 0.500000
O O12 0.000000 0.239724 0.500000
O O13 0.500000 0.204261 0.000000
O O14 0.000000 0.803867 0.500000
#
# Coordination Sequence:
#
# PCOD8048954 Si02
#       7
#     2   4   2   4   4   4   4
#     4  10  24  34  56  78 106 132 196 232 286 310
#     4  11  22  34  56  76 112 148 181 225 271 315
#     4  12  20  40  56  78 106 150 182 240 274 318
#     4  11  19  30  53  72 109 152 167 205 283 314
#     4  10  20  33  48  76 105 130 171 228 267 323
#     4  11  21  33  50  83 114 145 182 207 262 357
#     4  11  20  34  48  82 111 146 184 215 251 352
#
# _framework density 18.068905999999998
#
# number of rings (size 3 to 8) (size 9 to 14) (size 15 to 20)
#    0.500    0.667    1.667    9.000    0.000    0.000 
#    0.000    0.000    0.000    0.000    0.000   11.667 
#    0.000    0.000    0.000    0.000    0.000    0.000 
#
# Total GULP energy -148760.537963 kJ/mol
# GULP energy per Si atom -12396.711497 kJ/mol
# Density = 1.802778 g / cm^3
# Si number density = 18.068906 Si / 1000 Ang^3
#
#
#
# Elastic Constant Matrix: (Units=GPa)
#
#
# Indices 1 2 3 4 5 6 
#
# 1 89.8790 26.6255 35.0887 0.0890 14.0416 -0.0288
# 2 26.6255 67.3300 15.2671 0.0238 9.5382 -0.0395
# 3 35.0887 15.2671 97.3302 0.2127 7.5075 -0.1250
# 4 0.0890 0.0238 0.2127 20.1278 0.0571 -3.6434
# 5 14.0416 9.5382 7.5075 0.0571 35.2477 -0.0177
# 6 -0.0288 -0.0395 -0.1250 -3.6434 -0.0177 12.4995
#
#
#
# Elastic Compliance Matrix: (Units=1/GPa)
#
#
# Indices 1 2 3 4 5 6 
#
# 1 0.014674 -0.004288 -0.004327 -0.000009 -0.003763 -0.000031
# 2 -0.004288 0.017147 -0.000933 0.000023 -0.002733 0.000038
# 3 -0.004327 -0.000933 0.012026 -0.000091 -0.000585 0.000080
# 4 -0.000009 0.000023 -0.000091 0.052451 -0.000061 0.015288
# 5 -0.003763 -0.002733 -0.000585 -0.000061 0.030734 0.000003
# 6 -0.000031 0.000038 0.000080 0.015288 0.000003 0.084460
#
#
# Mechanical properties :
#
#
# Convention : Reuss Voigt Hill
#
# Bulk Modulus (GPa) = 40.40420 45.38907 42.89664
# Shear Modulus (GPa) = 20.93465 25.41218 23.17342
#
# Velocity S-wave (km/s) = 3.40752 3.75427 3.58509
# Velocity P-wave (km/s) = 6.15559 6.63078 6.39760
#
# Compressibility (1/GPa) = 0.02474990
#
# Stress axis : x y z
#
# Youngs Moduli (GPa) = 68.14911 58.32013 83.15297
#
# Poissons Ratio (x) = 0.25010 0.35981
# Poissons Ratio (y) = 0.29225 0.07756
# Poissons Ratio (z) = 0.29489 0.05440
#
# Static dielectric constant tensor:
#      x y z
#    x 3.421100 -0.000130 -0.071730 
#    y -0.000130 3.039510 -0.000400 
#    z -0.071730 -0.000400 3.623950 
# 
# 
# High freq. dielectric constant tensor:
#      x y z
#    x 1.685090 0.000000 -0.009740 
#    y 0.000000 1.656450 -0.000010 
#    z -0.009740 -0.000010 1.727430 
# 
# From -- ./inp_files/53577.got.cif
#   From: 2010.03.12/outbox.cif.g09.slc.cpg/sg5_27_cif.got.tgz:53577.got - 2010.03.31 09:47:26.
