data_PCOD8048283
_publ_section_title
;
Structure prediction by ZEFSAII (Michael W. Deem and Ramdas Pophale) SiO2 
 PCOD8048283
Probable space group: C 2
;
_chemical_formula_sum "Si O2"
_cell_formula_units_Z 32
_cell_length_a 13.063845
_cell_length_b 13.907038
_cell_length_c 14.061391
_cell_angle_alpha 90.000000
_cell_angle_beta 41.816261
_cell_angle_gamma 90.000000
_cell_volume 1703.307549
_symmetry_space_group_name_H-M "C 2"
_symmetry_group_IT_number 5
_symmetry_cell_setting 'monoclinic'
loop_
_space_group_symop_operation_xyz
x,y,z
-x,y,-z
1/2+x,1/2+y,z
1/2-x,1/2+y,-z
loop_
_atom_site_type_symbol
_atom_site_label
_atom_site_fract_x
_atom_site_fract_y
_atom_site_fract_z
Si Si1 0.389416 0.859600 0.361254
Si Si2 0.679968 0.938525 0.247251
Si Si3 0.900296 0.654918 0.692943
Si Si4 0.848439 0.984920 0.943905
Si Si5 0.325782 0.455105 0.342711
Si Si6 0.949473 0.400091 0.927206
Si Si7 0.881611 0.186691 0.996470
Si Si8 0.226906 0.673209 0.420567
O O1 0.547008 0.862502 0.313006
O O2 0.243270 0.903499 0.517024
O O3 0.418150 0.921660 0.243226
O O4 0.355478 0.748201 0.363561
O O5 0.749798 0.910562 0.300375
O O6 0.595788 0.040098 0.316027
O O7 0.814167 0.944920 0.074299
O O8 0.795260 0.693344 0.849714
O O9 0.829000 0.699235 0.646597
O O10 0.075984 0.684618 0.591247
O O11 0.992412 0.932669 0.793902
O O12 0.697355 0.968126 0.985096
O O13 0.893316 0.098061 0.915487
O O14 0.299574 0.568220 0.372436
O O15 0.913897 0.288776 0.926562
O O16 0.000000 0.415460 0.000000
O O17 0.000000 0.164954 0.000000
#
# Coordination Sequence:
#
# PCOD8048283 Si02
#       8
#     4   4   4   4   4   4   4   4
#     4  11  21  33  55  84 110 148 180 222 279 330
#     4   9  18  36  56  84 111 143 175 228 279 325
#     4   9  17  31  54  80 106 137 178 233 273 317
#     4  10  20  33  60  87 109 140 188 227 269 325
#     4  11  20  35  57  85 115 139 182 232 275 323
#     4  10  22  39  56  79 114 149 182 224 275 329
#     4  10  18  34  59  81 106 139 185 228 279 323
#     4  10  19  31  52  82 112 138 179 228 280 320
#
# _framework density 18.786978000000001
#
# number of rings (size 3 to 8) (size 9 to 14) (size 15 to 20)
#    0.000    2.000    1.250    5.250    1.750    0.000 
#    0.000    0.000    0.000   12.750    0.000    0.000 
#    0.000    0.000    0.000    0.000    0.000    0.000 
#
# Total GULP energy -198307.893987 kJ/mol
# GULP energy per Si atom -12394.243374 kJ/mol
# Density = 1.874422 g / cm^3
# Si number density = 18.786978 Si / 1000 Ang^3
#
#
#
# Elastic Constant Matrix: (Units=GPa)
#
#
# Indices 1 2 3 4 5 6 
#
# 1 83.0484 39.0631 30.1686 -0.0001 5.3628 0.0001
# 2 39.0631 61.8454 9.2375 -0.0001 -6.7315 0.0001
# 3 30.1686 9.2375 121.0199 -0.0003 1.3585 0.0002
# 4 -0.0001 -0.0001 -0.0003 22.8079 0.0002 -4.7690
# 5 5.3628 -6.7315 1.3585 0.0002 27.2191 -0.0001
# 6 0.0001 0.0001 0.0002 -4.7690 -0.0001 33.5183
#
#
#
# Elastic Compliance Matrix: (Units=1/GPa)
#
#
# Indices 1 2 3 4 5 6 
#
# 1 0.019892 -0.012728 -0.003910 0.000000 -0.006872 0.000000
# 2 -0.012728 0.024973 0.001170 0.000000 0.008625 0.000000
# 3 -0.003910 0.001170 0.009142 0.000000 0.000603 0.000000
# 4 0.000000 0.000000 0.000000 0.045189 0.000000 0.006429
# 5 -0.006872 0.008625 0.000603 0.000000 0.040196 0.000000
# 6 0.000000 0.000000 0.000000 0.006429 0.000000 0.030749
#
#
# Mechanical properties :
#
#
# Convention : Reuss Voigt Hill
#
# Bulk Modulus (GPa) = 43.34647 46.98354 45.16500
# Shear Modulus (GPa) = 23.95002 29.20538 26.57770
#
# Velocity S-wave (km/s) = 3.57434 3.94706 3.76531
# Velocity P-wave (km/s) = 6.33697 6.77017 6.55715
#
# Compressibility (1/GPa) = 0.02306993
#
# Stress axis : x y z
#
# Youngs Moduli (GPa) = 50.27059 40.04322 109.38789
#
# Poissons Ratio (x) = 0.50969 0.42773
# Poissons Ratio (y) = 0.63987 -0.12798
# Poissons Ratio (z) = 0.19657 -0.04685
#
# Static dielectric constant tensor:
#      x y z
#    x 3.254170 0.000000 -0.031200 
#    y 0.000000 3.216970 0.000000 
#    z -0.031200 0.000000 3.851930 
# 
# 
# High freq. dielectric constant tensor:
#      x y z
#    x 1.697950 0.000000 -0.006510 
#    y 0.000000 1.700080 0.000000 
#    z -0.006510 0.000000 1.761490 
# 
# From -- ./inp_files/53187.got.cif
#   From: 2010.03.12/outbox.cif.g09.slc.cpg/sg5_27_cif.got.tgz:53187.got - 2010.03.31 09:47:26.
