data_PCOD8048141
_publ_section_title
;
Structure prediction by ZEFSAII (Michael W. Deem and Ramdas Pophale) SiO2 
 PCOD8048141
Probable space group: C 2
;
_chemical_formula_sum "Si O2"
_cell_formula_units_Z 32
_cell_length_a 9.222036
_cell_length_b 19.030624
_cell_length_c 11.016183
_cell_angle_alpha 90.000000
_cell_angle_beta 116.419722
_cell_angle_gamma 90.000000
_cell_volume 1731.430328
_symmetry_space_group_name_H-M "C 2"
_symmetry_group_IT_number 5
_symmetry_cell_setting 'monoclinic'
loop_
_space_group_symop_operation_xyz
x,y,z
-x,y,-z
1/2+x,1/2+y,z
1/2-x,1/2+y,-z
loop_
_atom_site_type_symbol
_atom_site_label
_atom_site_fract_x
_atom_site_fract_y
_atom_site_fract_z
Si Si1 0.736658 0.571770 0.040994
Si Si2 0.828701 0.847981 0.873405
Si Si3 0.314415 0.189215 0.897329
Si Si4 0.447669 0.943487 0.112492
Si Si5 0.609515 0.608383 0.645008
Si Si6 0.213890 0.948881 0.642956
Si Si7 0.931679 0.051483 0.792114
Si Si8 0.904425 0.912629 0.657888
O O1 0.898244 0.525773 0.080856
O O2 0.702758 0.586007 0.170327
O O3 0.730429 0.647735 0.975759
O O4 0.590792 0.526972 0.926559
O O5 0.762586 0.770243 0.877286
O O6 0.698409 0.901409 0.880083
O O7 0.853424 0.852455 0.735402
O O8 0.000000 0.863338 0.000000
O O9 0.263944 0.154243 0.748085
O O10 0.500000 0.181114 0.000000
O O11 0.600911 0.937549 0.256552
O O12 0.500000 0.914236 0.000000
O O13 0.500000 0.644966 0.500000
O O14 0.668099 0.531591 0.621560
O O15 0.482716 0.606100 0.708330
O O16 0.190561 0.910257 0.505047
O O17 0.097349 0.912233 0.699942
O O18 0.849900 0.983453 0.704327
#
# Coordination Sequence:
#
# PCOD8048141 Si02
#       8
#     4   4   4   4   4   4   4   4
#     4  10  18  32  57  83 110 142 195 244 286 334
#     4  11  23  40  58  80 119 163 194 239 301 361
#     4  10  22  38  57  81 113 158 198 239 293 352
#     4  12  22  34  57  91 115 147 197 256 291 340
#     4  10  17  35  59  85 115 151 192 236 300 354
#     4  10  20  34  62  89 115 145 196 250 289 346
#     4   9  16  30  55  83 106 146 186 231 289 345
#     4  10  18  37  57  83 116 154 187 231 298 358
#
# _framework density 18.481829000000001
#
# number of rings (size 3 to 8) (size 9 to 14) (size 15 to 20)
#    0.000    1.750    3.750    4.875    0.000    0.500 
#    6.750    0.000    0.000    0.000    0.000    0.000 
#    0.000    0.000    0.000    0.000    0.000    0.000 
#
# Total GULP energy -198247.351353 kJ/mol
# GULP energy per Si atom -12390.459460 kJ/mol
# Density = 1.843976 g / cm^3
# Si number density = 18.481829 Si / 1000 Ang^3
#
#
#
# Elastic Constant Matrix: (Units=GPa)
#
#
# Indices 1 2 3 4 5 6 
#
# 1 96.2749 39.0349 57.8031 0.0000 -9.8582 0.0000
# 2 39.0349 85.2304 36.4453 0.0000 -4.6431 0.0000
# 3 57.8031 36.4453 123.1770 0.0000 -4.8484 0.0000
# 4 0.0000 0.0000 0.0000 19.2807 0.0000 -0.1869
# 5 -9.8582 -4.6431 -4.8484 0.0000 37.8305 0.0000
# 6 0.0000 0.0000 0.0000 -0.1869 0.0000 18.4275
#
#
#
# Elastic Compliance Matrix: (Units=1/GPa)
#
#
# Indices 1 2 3 4 5 6 
#
# 1 0.016257 -0.004665 -0.006135 0.000000 0.002877 0.000000
# 2 -0.004665 0.014821 -0.002183 0.000000 0.000323 0.000000
# 3 -0.006135 -0.002183 0.011629 0.000000 -0.000376 0.000000
# 4 0.000000 0.000000 0.000000 0.051870 0.000000 0.000526
# 5 0.002877 0.000323 -0.000376 0.000000 0.027175 0.000000
# 6 0.000000 0.000000 0.000000 0.000526 0.000000 0.054272
#
#
# Mechanical properties :
#
#
# Convention : Reuss Voigt Hill
#
# Bulk Modulus (GPa) = 59.74113 63.47210 61.60662
# Shear Modulus (GPa) = 24.08828 26.53434 25.31131
#
# Velocity S-wave (km/s) = 3.61411 3.79317 3.70472
# Velocity P-wave (km/s) = 7.05763 7.32132 7.19068
#
# Compressibility (1/GPa) = 0.01673889
#
# Stress axis : x y z
#
# Youngs Moduli (GPa) = 61.51360 67.47332 85.99534
#
# Poissons Ratio (x) = 0.31478 0.52759
# Poissons Ratio (y) = 0.28697 0.18774
# Poissons Ratio (z) = 0.37739 0.14730
#
# Static dielectric constant tensor:
#      x y z
#    x 3.475240 0.000000 -0.132400 
#    y 0.000000 3.260570 0.000000 
#    z -0.132400 0.000000 3.684570 
# 
# 
# High freq. dielectric constant tensor:
#      x y z
#    x 1.714300 0.000000 -0.006820 
#    y 0.000000 1.678170 0.000000 
#    z -0.006820 0.000000 1.727720 
# 
# From -- ./inp_files/37204.got.cif
#   From: 2010.03.12/outbox.cif.g09.slc.cpg/sg5_19_cif.got.tgz:37204.got - 2010.03.31 09:47:26.
