data_PCOD8048949
_publ_section_title
;
Structure prediction by ZEFSAII (Michael W. Deem and Ramdas Pophale) SiO2 
 PCOD8048949
Probable space group: C 2
;
_chemical_formula_sum "Si O2"
_cell_formula_units_Z 32
_cell_length_a 14.559647
_cell_length_b 18.610488
_cell_length_c 11.681262
_cell_angle_alpha 90.000000
_cell_angle_beta 148.988695
_cell_angle_gamma 90.000000
_cell_volume 1630.723346
_symmetry_space_group_name_H-M "C 2"
_symmetry_group_IT_number 5
_symmetry_cell_setting 'monoclinic'
loop_
_space_group_symop_operation_xyz
x,y,z
-x,y,-z
1/2+x,1/2+y,z
1/2-x,1/2+y,-z
loop_
_atom_site_type_symbol
_atom_site_label
_atom_site_fract_x
_atom_site_fract_y
_atom_site_fract_z
Si Si1 0.826914 0.675490 0.098763
Si Si2 0.613182 0.941312 0.461305
Si Si3 0.831612 0.584586 0.569345
Si Si4 0.687497 0.613865 0.166066
Si Si5 0.775973 0.961410 0.864626
Si Si6 0.031653 0.146885 0.403509
Si Si7 0.118181 0.813342 0.971801
Si Si8 0.777756 0.294723 0.378955
O O1 0.807330 0.666220 0.215090
O O2 0.994426 0.633413 0.220803
O O3 0.655502 0.639178 0.858827
O O4 0.830620 0.761597 0.079159
O O5 0.774603 0.942954 0.727637
O O6 0.425581 0.965296 0.310416
O O7 0.620671 0.856919 0.438015
O O8 0.643472 0.997943 0.390818
O O9 0.793687 0.598075 0.394818
O O10 0.676823 0.598423 0.494480
O O11 0.642309 0.541653 0.042079
O O12 0.500000 0.650929 0.000000
O O13 0.883665 0.900242 0.053317
O O14 0.104430 0.226653 0.469057
O O15 0.000000 0.121762 0.500000
O O16 0.270267 0.804342 0.232754
O O17 0.924529 0.785301 0.798313
#
# Coordination Sequence:
#
# PCOD8048949 Si02
#       8
#     4   4   4   4   4   4   4   4
#     4  12  22  38  59  87 127 166 198 250 309 368
#     4   9  18  33  54  81 121 154 190 252 310 355
#     4  11  23  40  58  91 124 163 208 253 305 362
#     4  11  22  37  60  91 123 161 206 248 307 364
#     4   9  18  31  53  86 118 151 194 250 305 356
#     4  12  24  38  60  90 124 163 205 251 311 370
#     4  10  20  32  56  88 124 157 194 250 312 363
#     4  10  20  34  54  88 123 155 201 250 305 364
#
# _framework density 19.623194000000002
#
# number of rings (size 3 to 8) (size 9 to 14) (size 15 to 20)
#    0.000    1.500    5.000    1.125    7.000    0.500 
#    0.000    0.000    0.000    0.000    6.500    1.750 
#    0.000    0.000    0.000    0.000    0.000    0.000 
#
# Total GULP energy -198213.077541 kJ/mol
# GULP energy per Si atom -12388.317346 kJ/mol
# Density = 1.957853 g / cm^3
# Si number density = 19.623194 Si / 1000 Ang^3
#
#
#
# Elastic Constant Matrix: (Units=GPa)
#
#
# Indices 1 2 3 4 5 6 
#
# 1 112.1781 58.1555 23.4103 0.0000 5.5106 0.0000
# 2 58.1555 120.2825 15.8410 0.0000 -2.8465 0.0000
# 3 23.4103 15.8410 60.4611 0.0000 9.7108 0.0000
# 4 0.0000 0.0000 0.0000 27.0793 0.0000 -0.0125
# 5 5.5106 -2.8465 9.7108 0.0000 20.6695 0.0000
# 6 0.0000 0.0000 0.0000 -0.0125 0.0000 33.3069
#
#
#
# Elastic Compliance Matrix: (Units=1/GPa)
#
#
# Indices 1 2 3 4 5 6 
#
# 1 0.012676 -0.005808 -0.002937 0.000000 -0.002800 0.000000
# 2 -0.005808 0.011386 -0.001336 0.000000 0.003744 0.000000
# 3 -0.002937 -0.001336 0.019394 0.000000 -0.008512 0.000000
# 4 0.000000 0.000000 0.000000 0.036929 0.000000 0.000014
# 5 -0.002800 0.003744 -0.008512 0.000000 0.053642 0.000000
# 6 0.000000 0.000000 0.000000 0.000014 0.000000 0.030024
#
#
# Mechanical properties :
#
#
# Convention : Reuss Voigt Hill
#
# Bulk Modulus (GPa) = 42.92760 54.19282 48.56021
# Shear Modulus (GPa) = 26.04487 29.24547 27.64517
#
# Velocity S-wave (km/s) = 3.64710 3.86470 3.75747
# Velocity P-wave (km/s) = 6.29750 6.89864 6.60491
#
# Compressibility (1/GPa) = 0.02329504
#
# Stress axis : x y z
#
# Youngs Moduli (GPa) = 78.89022 87.82343 51.56295
#
# Poissons Ratio (x) = 0.51009 0.15142
# Poissons Ratio (y) = 0.45821 0.06888
# Poissons Ratio (z) = 0.23167 0.11731
#
# Static dielectric constant tensor:
#      x y z
#    x 3.582300 0.000000 0.218990 
#    y 0.000000 3.803990 0.000000 
#    z 0.218990 0.000000 3.461580 
# 
# 
# High freq. dielectric constant tensor:
#      x y z
#    x 1.742930 0.000000 0.043850 
#    y 0.000000 1.762970 0.000000 
#    z 0.043850 0.000000 1.748290 
# 
# From -- ./inp_files/43370.got.cif
#   From: 2010.03.12/outbox.cif.g09.slc.cpg/sg5_22_cif.got.tgz:43370.got - 2010.03.31 09:47:26.
