data_PCOD8048607
_publ_section_title
;
Structure prediction by ZEFSAII (Michael W. Deem and Ramdas Pophale) SiO2 
 PCOD8048607
Probable space group: C 2
;
_chemical_formula_sum "Si O2"
_cell_formula_units_Z 32
_cell_length_a 13.973322
_cell_length_b 8.402326
_cell_length_c 14.781086
_cell_angle_alpha 90.000000
_cell_angle_beta 117.060840
_cell_angle_gamma 90.000000
_cell_volume 1545.436416
_symmetry_space_group_name_H-M "C 2"
_symmetry_group_IT_number 5
_symmetry_cell_setting 'monoclinic'
loop_
_space_group_symop_operation_xyz
x,y,z
-x,y,-z
1/2+x,1/2+y,z
1/2-x,1/2+y,-z
loop_
_atom_site_type_symbol
_atom_site_label
_atom_site_fract_x
_atom_site_fract_y
_atom_site_fract_z
Si Si1 0.998115 0.201990 0.605206
Si Si2 0.790064 0.296700 0.077042
Si Si3 0.736418 0.747913 0.435520
Si Si4 0.769250 0.704789 0.249010
Si Si5 0.371082 0.567766 0.958260
Si Si6 0.052609 0.494544 0.739361
Si Si7 0.820030 0.592860 0.637098
Si Si8 0.797034 0.068438 0.241163
O O1 0.878891 0.175891 0.589364
O O2 0.000000 0.174748 0.500000
O O3 0.040515 0.378697 0.647764
O O4 0.074115 0.073710 0.688784
O O5 0.682080 0.406311 0.021741
O O6 0.888748 0.404229 0.153639
O O7 0.761617 0.155939 0.134685
O O8 0.831620 0.217541 0.002099
O O9 0.769415 0.666766 0.355546
O O10 0.820671 0.713475 0.552656
O O11 0.738278 0.936123 0.425415
O O12 0.675546 0.600658 0.161863
O O13 0.883849 0.651718 0.260782
O O14 0.752430 0.889898 0.219296
O O15 0.500000 0.551396 0.000000
O O16 0.937977 0.553488 0.724831
O O17 0.754940 0.661285 0.695023
#
# Coordination Sequence:
#
# PCOD8048607 Si02
#       8
#     4   4   4   4   4   4   4   4
#     4  10  19  35  55  81 117 171 205 253 311 367
#     4  10  23  47  66  96 128 163 216 270 326 393
#     4  10  22  34  57  83 126 161 214 251 309 376
#     4  10  23  41  58  95 121 164 211 262 321 383
#     4  11  25  45  72  98 128 170 217 271 335 391
#     4   9  22  38  62  85 126 161 210 255 324 373
#     4  10  21  37  56  91 121 169 208 250 316 376
#     4  10  21  39  62  86 128 162 208 264 317 384
#
# _framework density 20.706126000000001
#
# number of rings (size 3 to 8) (size 9 to 14) (size 15 to 20)
#    0.000    2.000    1.250    0.750   10.500    2.000 
#    6.750    0.625    0.000    0.000    0.000    0.000 
#    0.000    0.000    0.000    0.000    0.000    0.000 
#
# Total GULP energy -198371.039268 kJ/mol
# GULP energy per Si atom -12398.189954 kJ/mol
# Density = 2.065900 g / cm^3
# Si number density = 20.706126 Si / 1000 Ang^3
#
#
#
# Elastic Constant Matrix: (Units=GPa)
#
#
# Indices 1 2 3 4 5 6 
#
# 1 91.8215 34.6768 27.1039 0.0000 3.8183 0.0000
# 2 34.6768 52.7891 17.5779 0.0000 2.1811 0.0000
# 3 27.1039 17.5779 65.2469 0.0000 -5.3498 0.0000
# 4 0.0000 0.0000 0.0000 30.6084 0.0000 -3.7628
# 5 3.8183 2.1811 -5.3498 0.0000 37.3714 0.0000
# 6 0.0000 0.0000 0.0000 -3.7628 0.0000 26.8541
#
#
#
# Elastic Compliance Matrix: (Units=1/GPa)
#
#
# Indices 1 2 3 4 5 6 
#
# 1 0.015495 -0.008700 -0.004231 0.000000 -0.001681 0.000000
# 2 -0.008700 0.025850 -0.003441 0.000000 -0.001112 0.000000
# 3 -0.004231 -0.003441 0.018277 0.000000 0.003250 0.000000
# 4 0.000000 0.000000 0.000000 0.033243 0.000000 0.004658
# 5 -0.001681 -0.001112 0.003250 0.000000 0.027460 0.000000
# 6 0.000000 0.000000 0.000000 0.004658 0.000000 0.037891
#
#
# Mechanical properties :
#
#
# Convention : Reuss Voigt Hill
#
# Bulk Modulus (GPa) = 37.20484 40.95273 39.07879
# Shear Modulus (GPa) = 25.00979 27.66671 26.33825
#
# Velocity S-wave (km/s) = 3.47918 3.65932 3.57038
# Velocity P-wave (km/s) = 5.84351 6.13801 5.99257
#
# Compressibility (1/GPa) = 0.02687822
#
# Stress axis : x y z
#
# Youngs Moduli (GPa) = 64.53618 38.68410 54.71254
#
# Poissons Ratio (x) = 0.33657 0.23147
# Poissons Ratio (y) = 0.56150 0.18828
# Poissons Ratio (z) = 0.27303 0.13312
#
# Static dielectric constant tensor:
#      x y z
#    x 3.816120 0.000000 -0.056030 
#    y 0.000000 3.664220 0.000000 
#    z -0.056030 0.000000 3.865880 
# 
# 
# High freq. dielectric constant tensor:
#      x y z
#    x 1.809130 0.000000 -0.001800 
#    y 0.000000 1.801330 0.000000 
#    z -0.001800 0.000000 1.812200 
# 
# From -- ./inp_files/54168.got.cif
#   From: 2010.03.12/outbox.cif.g09.slc.cpg/sg5_28_cif.got.tgz:54168.got - 2010.03.31 09:47:26.
