data_PCOD8048456
_publ_section_title
;
Structure prediction by ZEFSAII (Michael W. Deem and Ramdas Pophale) SiO2 
 PCOD8048456
Probable space group: C 2
;
_chemical_formula_sum "Si O2"
_cell_formula_units_Z 26
_cell_length_a 18.403752
_cell_length_b 12.688146
_cell_length_c 11.625315
_cell_angle_alpha 90.000000
_cell_angle_beta 149.875103
_cell_angle_gamma 90.000000
_cell_volume 1362.432183
_symmetry_space_group_name_H-M "C 2"
_symmetry_group_IT_number 5
_symmetry_cell_setting 'monoclinic'
loop_
_space_group_symop_operation_xyz
x,y,z
-x,y,-z
1/2+x,1/2+y,z
1/2-x,1/2+y,-z
loop_
_atom_site_type_symbol
_atom_site_label
_atom_site_fract_x
_atom_site_fract_y
_atom_site_fract_z
Si Si1 0.500000 0.318960 0.000000
Si Si2 0.291913 0.346552 0.536794
Si Si3 0.500000 0.821976 0.500000
Si Si4 0.046316 0.667704 0.345432
Si Si5 0.500000 0.310118 0.500000
Si Si6 0.275753 0.185639 0.824688
Si Si7 0.472547 0.931006 0.697840
Si Si8 0.251278 0.448461 0.233234
O O1 0.435087 0.389204 0.805175
O O2 0.363846 0.244537 0.845270
O O3 0.332952 0.224260 0.568634
O O4 0.264255 0.407153 0.381023
O O5 0.151596 0.353678 0.425110
O O6 0.641134 0.752870 0.680190
O O7 0.530077 0.891582 0.654174
O O8 0.036279 0.731303 0.448386
O O9 0.095048 0.546394 0.419841
O O10 0.882870 0.670187 0.077409
O O11 0.362965 0.388995 0.300728
O O12 0.215117 0.071736 0.705165
O O13 0.593653 0.931527 0.962794
#
# Coordination Sequence:
#
# PCOD8048456 Si02
#       8
#     2   4   2   4   2   4   4   4
#     4  10  20  40  58  82 122 156 192 234 302 352
#     4  10  21  37  62  84 114 154 199 244 281 354
#     4  12  22  36  60  90 126 146 198 248 286 338
#     4   9  21  37  60  81 119 160 195 232 300 351
#     4  10  18  40  56  84 122 154 190 242 296 352
#     4  10  21  36  59  88 115 156 194 240 287 355
#     4  11  22  37  60  90 116 156 198 239 294 351
#     4  10  22  36  64  87 116 152 199 241 296 344
#
# _framework density 19.083518000000002
#
# number of rings (size 3 to 8) (size 9 to 14) (size 15 to 20)
#    0.000    1.846    1.538    2.308    6.462    0.000 
#    0.000    0.000   13.538    0.000    0.000    0.000 
#    0.000    0.000    0.000    0.000    0.000    0.000 
#
# Total GULP energy -161075.780331 kJ/mol
# GULP energy per Si atom -12390.444641 kJ/mol
# Density = 1.904008 g / cm^3
# Si number density = 19.083518 Si / 1000 Ang^3
#
#
#
# Elastic Constant Matrix: (Units=GPa)
#
#
# Indices 1 2 3 4 5 6 
#
# 1 119.2849 55.3771 53.4917 0.0000 6.3521 0.0000
# 2 55.3771 114.4441 63.1227 0.0000 8.8890 0.0000
# 3 53.4917 63.1227 94.3153 0.0000 -6.5328 0.0000
# 4 0.0000 0.0000 0.0000 71.4065 0.0000 52.1519
# 5 6.3521 8.8890 -6.5328 0.0000 42.1074 0.0000
# 6 0.0000 0.0000 0.0000 52.1519 0.0000 78.8235
#
#
#
# Elastic Compliance Matrix: (Units=1/GPa)
#
#
# Indices 1 2 3 4 5 6 
#
# 1 0.012110 -0.002917 -0.005054 0.000000 -0.001995 0.000000
# 2 -0.002917 0.015414 -0.008953 0.000000 -0.004203 0.000000
# 3 -0.005054 -0.008953 0.019858 0.000000 0.005733 0.000000
# 4 0.000000 0.000000 0.000000 0.027099 0.000000 -0.017930
# 5 -0.001995 -0.004203 0.005733 0.000000 0.025826 0.000000
# 6 0.000000 0.000000 0.000000 -0.017930 0.000000 0.024549
#
#
# Mechanical properties :
#
#
# Convention : Reuss Voigt Hill
#
# Bulk Modulus (GPa) = 73.88748 74.66970 74.27859
# Shear Modulus (GPa) = 30.63402 48.87100 39.75251
#
# Velocity S-wave (km/s) = 4.01092 5.06602 4.56903
# Velocity P-wave (km/s) = 7.76221 8.56926 8.17570
#
# Compressibility (1/GPa) = 0.01353409
#
# Stress axis : x y z
#
# Youngs Moduli (GPa) = 82.57389 64.87677 50.35707
#
# Poissons Ratio (x) = 0.18926 0.25452
# Poissons Ratio (y) = 0.24089 0.45083
# Poissons Ratio (z) = 0.41735 0.58082
#
# Static dielectric constant tensor:
#      x y z
#    x 3.315460 0.000000 -0.774180 
#    y 0.000000 3.631670 0.000000 
#    z -0.774180 0.000000 2.325940 
# 
# 
# High freq. dielectric constant tensor:
#      x y z
#    x 1.753180 0.000000 -0.006530 
#    y 0.000000 1.736010 0.000000 
#    z -0.006530 0.000000 1.746060 
# 
# From -- ./inp_files/38765.got.cif
#   From: 2010.03.12/outbox.cif.g09.slc.cpg/sg5_20_cif.got.tgz:38765.got - 2010.03.31 09:47:26.
