data_PCOD8048147
_publ_section_title
;
Structure prediction by ZEFSAII (Michael W. Deem and Ramdas Pophale) SiO2 
 PCOD8048147
Probable space group: C 2
;
_chemical_formula_sum "Si O2"
_cell_formula_units_Z 26
_cell_length_a 10.628866
_cell_length_b 21.857751
_cell_length_c 6.406245
_cell_angle_alpha 90.000000
_cell_angle_beta 119.264310
_cell_angle_gamma 90.000000
_cell_volume 1298.370488
_symmetry_space_group_name_H-M "C 2"
_symmetry_group_IT_number 5
_symmetry_cell_setting 'monoclinic'
loop_
_space_group_symop_operation_xyz
x,y,z
-x,y,-z
1/2+x,1/2+y,z
1/2-x,1/2+y,-z
loop_
_atom_site_type_symbol
_atom_site_label
_atom_site_fract_x
_atom_site_fract_y
_atom_site_fract_z
Si Si1 0.864061 0.684500 0.767774
Si Si2 0.381061 0.615648 0.222312
Si Si3 0.500000 0.973396 0.000000
Si Si4 0.000000 0.618861 0.500000
Si Si5 0.285394 0.025289 0.155090
Si Si6 0.351793 0.920323 0.501297
Si Si7 0.141121 0.283728 0.472389
Si Si8 0.500000 0.714814 0.000000
O O1 0.775041 0.629216 0.803032
O O2 0.759769 0.741272 0.666273
O O3 0.937607 0.663587 0.618319
O O4 0.000000 0.709338 0.000000
O O5 0.500000 0.605879 0.500000
O O6 0.421624 0.671849 0.104977
O O7 0.360877 0.552695 0.070541
O O8 0.616412 0.935895 0.231377
O O9 0.403353 0.012696 0.074610
O O10 0.141418 0.578999 0.656587
O O11 0.250913 0.968308 0.287023
O O12 0.500000 0.920890 0.500000
O O13 0.289666 0.851725 0.461887
O O14 0.108535 0.260181 0.210673
O O15 0.000000 0.279600 0.500000
#
# Coordination Sequence:
#
# PCOD8048147 Si02
#       8
#     4   4   2   2   4   4   4   2
#     4  12  24  39  62  91 125 165 202 260 317 374
#     4  12  25  40  61  97 129 166 211 260 323 387
#     4  10  17  36  60  92 120 157 210 260 318 358
#     4  12  22  36  62  94 126 156 202 254 322 376
#     4  11  21  36  61  92 125 161 207 263 316 376
#     4   9  20  35  60  93 119 165 211 265 310 368
#     4  11  22  41  63  92 127 161 218 260 313 382
#     4  12  21  40  66  94 126 167 208 260 330 368
#
# _framework density 20.025102
#
# number of rings (size 3 to 8) (size 9 to 14) (size 15 to 20)
#    0.000    0.923    6.923    2.308    0.000    0.000 
#    0.000    0.000    5.077    0.000    0.000    0.000 
#    0.000    0.000    0.000    0.000    0.000    0.000 
#
# Total GULP energy -161062.360995 kJ/mol
# GULP energy per Si atom -12389.412384 kJ/mol
# Density = 1.997952 g / cm^3
# Si number density = 20.025102 Si / 1000 Ang^3
#
#
#
# Elastic Constant Matrix: (Units=GPa)
#
#
# Indices 1 2 3 4 5 6 
#
# 1 48.3348 28.4029 36.8780 0.0000 4.1178 0.0000
# 2 28.4029 150.7498 77.7313 0.0000 6.2632 0.0000
# 3 36.8780 77.7313 152.9512 0.0000 8.1140 0.0000
# 4 0.0000 0.0000 0.0000 51.9037 0.0000 -17.3558
# 5 4.1178 6.2632 8.1140 0.0000 35.9853 0.0000
# 6 0.0000 0.0000 0.0000 -17.3558 0.0000 31.2616
#
#
#
# Elastic Compliance Matrix: (Units=1/GPa)
#
#
# Indices 1 2 3 4 5 6 
#
# 1 0.025978 -0.002228 -0.005054 0.000000 -0.001445 0.000000
# 2 -0.002228 0.009191 -0.004111 0.000000 -0.000418 0.000000
# 3 -0.005054 -0.004111 0.009896 0.000000 -0.000937 0.000000
# 4 0.000000 0.000000 0.000000 0.023658 0.000000 0.013135
# 5 -0.001445 -0.000418 -0.000937 0.000000 0.028239 0.000000
# 6 0.000000 0.000000 0.000000 0.013135 0.000000 0.039280
#
#
# Mechanical properties :
#
#
# Convention : Reuss Voigt Hill
#
# Bulk Modulus (GPa) = 44.89074 70.89558 57.89316
# Shear Modulus (GPa) = 30.03809 37.76502 33.90156
#
# Velocity S-wave (km/s) = 3.87721 4.34739 4.11901
# Velocity P-wave (km/s) = 6.51994 7.78973 7.18295
#
# Compressibility (1/GPa) = 0.02227631
#
# Stress axis : x y z
#
# Youngs Moduli (GPa) = 38.49421 108.80639 101.05221
#
# Poissons Ratio (x) = 0.24245 0.51076
# Poissons Ratio (y) = 0.08577 0.41546
# Poissons Ratio (z) = 0.19457 0.44734
#
# Static dielectric constant tensor:
#      x y z
#    x 3.175180 0.000000 0.533850 
#    y 0.000000 3.998730 0.000000 
#    z 0.533850 0.000000 2.115930 
# 
# 
# High freq. dielectric constant tensor:
#      x y z
#    x 1.750690 0.000000 -0.016900 
#    y 0.000000 1.780460 0.000000 
#    z -0.016900 0.000000 1.801410 
# 
# From -- ./inp_files/5718.got.cif
#   From: 2010.03.12/outbox.cif.g09.slc.cpg/sg5_3_cif.got.tgz:5718.got - 2010.03.31 09:47:26.
