data_PCOD8048378
_publ_section_title
;
Structure prediction by ZEFSAII (Michael W. Deem and Ramdas Pophale) SiO2 
 PCOD8048378
Probable space group: C 2
;
_chemical_formula_sum "Si O2"
_cell_formula_units_Z 32
_cell_length_a 17.530953
_cell_length_b 14.780073
_cell_length_c 11.125462
_cell_angle_alpha 90.000000
_cell_angle_beta 147.828631
_cell_angle_gamma 90.000000
_cell_volume 1534.905821
_symmetry_space_group_name_H-M "C 2"
_symmetry_group_IT_number 5
_symmetry_cell_setting 'monoclinic'
loop_
_space_group_symop_operation_xyz
x,y,z
-x,y,-z
1/2+x,1/2+y,z
1/2-x,1/2+y,-z
loop_
_atom_site_type_symbol
_atom_site_label
_atom_site_fract_x
_atom_site_fract_y
_atom_site_fract_z
Si Si1 0.916441 0.236780 0.602881
Si Si2 0.648050 0.584001 0.664324
Si Si3 0.111581 0.139366 0.056492
Si Si4 0.299197 0.070281 0.112938
Si Si5 0.566523 0.258405 0.712868
Si Si6 0.156194 0.440055 0.172532
Si Si7 0.647999 0.872571 0.896478
Si Si8 0.780620 0.772849 0.454393
O O1 0.888316 0.177664 0.448453
O O2 0.764698 0.249456 0.469270
O O3 0.997034 0.326012 0.660434
O O4 0.028087 0.198238 0.847963
O O5 0.500000 0.532204 0.500000
O O6 0.740514 0.526151 0.694870
O O7 0.723181 0.602847 0.890064
O O8 0.197938 0.064899 0.095912
O O9 0.217470 0.204141 0.271328
O O10 0.000000 0.091922 0.000000
O O11 0.413412 0.150662 0.282997
O O12 0.359031 0.969082 0.180793
O O13 0.500000 0.299107 0.500000
O O14 0.452393 0.272783 0.668778
O O15 0.711192 0.311616 0.945221
O O16 0.215829 0.372603 0.351817
O O17 0.152678 0.387670 0.043830
O O18 0.000000 0.475953 0.000000
#
# Coordination Sequence:
#
# PCOD8048378 Si02
#       8
#     4   4   4   4   4   4   4   4
#     4  11  20  41  59  92 124 175 200 248 318 385
#     4  11  24  37  63  91 130 166 209 248 319 383
#     4  10  18  36  65  92 125 158 206 266 313 356
#     4  11  23  39  62  98 128 161 207 265 314 368
#     4  12  21  39  64  94 122 159 219 267 304 366
#     4  11  20  36  60  97 127 156 210 276 309 352
#     4  11  22  37  66  90 129 167 207 264 312 365
#     4  11  21  35  68  91 123 156 214 267 315 357
#
# _framework density 20.848185000000001
#
# number of rings (size 3 to 8) (size 9 to 14) (size 15 to 20)
#    0.000    1.000    7.500    0.375    3.500    2.000 
#    0.000    1.875    0.000    0.000    0.000    0.000 
#    0.000    0.000    0.000    0.000    0.000    0.000 
#
# Total GULP energy -198315.196270 kJ/mol
# GULP energy per Si atom -12394.699767 kJ/mol
# Density = 2.080073 g / cm^3
# Si number density = 20.848185 Si / 1000 Ang^3
#
#
#
# Elastic Constant Matrix: (Units=GPa)
#
#
# Indices 1 2 3 4 5 6 
#
# 1 133.5450 50.4974 32.3115 0.0000 35.7884 0.0000
# 2 50.4974 117.0668 24.6423 0.0000 13.9723 0.0000
# 3 32.3115 24.6423 25.7477 0.0000 20.0771 0.0000
# 4 0.0000 0.0000 0.0000 30.6142 0.0000 5.5517
# 5 35.7884 13.9723 20.0771 0.0000 44.4241 0.0000
# 6 0.0000 0.0000 0.0000 5.5517 0.0000 25.0307
#
#
#
# Elastic Compliance Matrix: (Units=1/GPa)
#
#
# Indices 1 2 3 4 5 6 
#
# 1 0.011891 -0.002763 -0.008471 0.000000 -0.004882 0.000000
# 2 -0.002763 0.011450 -0.009911 0.000000 0.003104 0.000000
# 3 -0.008471 -0.009911 0.079065 0.000000 -0.025792 0.000000
# 4 0.000000 0.000000 0.000000 0.034033 0.000000 -0.007548
# 5 -0.004882 0.003104 -0.025792 0.000000 0.037123 0.000000
# 6 0.000000 0.000000 0.000000 -0.007548 0.000000 0.041625
#
#
# Mechanical properties :
#
#
# Convention : Reuss Voigt Hill
#
# Bulk Modulus (GPa) = 16.63448 54.58465 35.60957
# Shear Modulus (GPa) = 18.01696 31.27435 24.64565
#
# Velocity S-wave (km/s) = 2.94291 3.87731 3.44197
# Velocity P-wave (km/s) = 4.42084 6.80320 5.73705
#
# Compressibility (1/GPa) = 0.06011611
#
# Stress axis : x y z
#
# Youngs Moduli (GPa) = 84.09829 87.33701 12.64778
#
# Poissons Ratio (x) = 0.24135 0.10713
# Poissons Ratio (y) = 0.23240 0.12535
# Poissons Ratio (z) = 0.71236 0.86559
#
# Static dielectric constant tensor:
#      x y z
#    x 4.261560 0.000000 0.364410 
#    y 0.000000 3.640220 0.000000 
#    z 0.364410 0.000000 3.662340 
# 
# 
# High freq. dielectric constant tensor:
#      x y z
#    x 1.830810 0.000000 0.019830 
#    y 0.000000 1.799400 0.000000 
#    z 0.019830 0.000000 1.795710 
# 
# From -- ./inp_files/44987.got.cif
#   From: 2010.03.12/outbox.cif.g09.slc.cpg/sg5_23_cif.got.tgz:44987.got - 2010.03.31 09:47:26.
