data_PCOD8048175
_publ_section_title
;
Structure prediction by ZEFSAII (Michael W. Deem and Ramdas Pophale) SiO2 
 PCOD8048175
Probable space group: C 2
;
_chemical_formula_sum "Si O2"
_cell_formula_units_Z 30
_cell_length_a 5.099120
_cell_length_b 24.143673
_cell_length_c 12.629693
_cell_angle_alpha 90.000000
_cell_angle_beta 85.553982
_cell_angle_gamma 90.000000
_cell_volume 1550.181405
_symmetry_space_group_name_H-M "C 2"
_symmetry_group_IT_number 5
_symmetry_cell_setting 'monoclinic'
loop_
_space_group_symop_operation_xyz
x,y,z
-x,y,-z
1/2+x,1/2+y,z
1/2-x,1/2+y,-z
loop_
_atom_site_type_symbol
_atom_site_label
_atom_site_fract_x
_atom_site_fract_y
_atom_site_fract_z
Si Si1 0.040582 0.323510 0.720960
Si Si2 0.549404 0.388721 0.779451
Si Si3 0.008879 0.214804 0.620571
Si Si4 0.050057 0.000474 0.879412
Si Si5 0.500000 0.339766 0.000000
Si Si6 0.340819 0.752720 0.094973
Si Si7 0.026457 0.679062 0.253047
Si Si8 0.950127 0.572499 0.119820
O O1 0.301611 0.358932 0.734016
O O2 0.073311 0.281263 0.621069
O O3 0.980196 0.279102 0.817365
O O4 0.804423 0.366641 0.708092
O O5 0.518481 0.455159 0.785512
O O6 0.603110 0.376202 0.900325
O O7 0.233742 0.178747 0.671267
O O8 0.000000 0.195208 0.500000
O O9 0.730431 0.202947 0.683737
O O10 0.345412 0.023370 0.863167
O O11 0.844798 0.049388 0.862279
O O12 0.000000 0.976658 0.000000
O O13 0.742305 0.304041 0.030552
O O14 0.102761 0.717654 0.150889
O O15 0.500000 0.716989 0.000000
O O16 0.977878 0.618272 0.209538
O O17 0.000000 0.596729 0.000000
#
# Coordination Sequence:
#
# PCOD8048175 Si02
#       8
#     4   4   4   4   2   4   4   4
#     4  10  21  33  50  84 111 144 184 229 281 343
#     4  11  19  32  52  77 114 149 194 226 263 321
#     4  11  23  43  62  85 114 146 191 249 298 356
#     4  10  20  35  52  77 113 163 201 227 264 322
#     4  10  18  28  44  72 112 154 184 222 252 308
#     4  10  20  30  48  78 121 153 180 217 274 332
#     4  11  24  37  60  85 114 153 200 231 291 353
#     4  10  22  37  54  81 118 155 193 230 279 334
#
# _framework density 19.352571999999999
#
# number of rings (size 3 to 8) (size 9 to 14) (size 15 to 20)
#    0.000    1.600    2.000    4.400    2.800    1.600 
#    0.000    0.000    0.000    0.000    0.000   18.667 
#    0.000    0.000    0.000    0.000    0.000    0.000 
#
# Total GULP energy -185906.848529 kJ/mol
# GULP energy per Si atom -12393.789902 kJ/mol
# Density = 1.930853 g / cm^3
# Si number density = 19.352572 Si / 1000 Ang^3
#
#
#
# Elastic Constant Matrix: (Units=GPa)
#
#
# Indices 1 2 3 4 5 6 
#
# 1 115.0300 20.5039 33.8201 0.0000 -1.8950 0.0000
# 2 20.5039 71.8865 29.7789 0.0000 -0.8694 0.0000
# 3 33.8201 29.7789 67.6843 0.0000 4.4721 0.0000
# 4 0.0000 0.0000 0.0000 18.2149 0.0000 5.8114
# 5 -1.8950 -0.8694 4.4721 0.0000 18.8307 0.0000
# 6 0.0000 0.0000 0.0000 5.8114 0.0000 23.2045
#
#
#
# Elastic Compliance Matrix: (Units=1/GPa)
#
#
# Indices 1 2 3 4 5 6 
#
# 1 0.010332 -0.000884 -0.004917 0.000000 0.002167 0.000000
# 2 -0.000884 0.017213 -0.007293 0.000000 0.002438 0.000000
# 3 -0.004917 -0.007293 0.020822 0.000000 -0.005776 0.000000
# 4 0.000000 0.000000 0.000000 0.059668 0.000000 -0.014943
# 5 0.002167 0.002438 -0.005776 0.000000 0.054807 0.000000
# 6 0.000000 0.000000 0.000000 -0.014943 0.000000 0.046838
#
#
# Mechanical properties :
#
#
# Convention : Reuss Voigt Hill
#
# Bulk Modulus (GPa) = 45.08585 46.97851 46.03218
# Shear Modulus (GPa) = 20.55408 23.41654 21.98531
#
# Velocity S-wave (km/s) = 3.26250 3.48227 3.37418
# Velocity P-wave (km/s) = 6.12695 6.36365 6.24642
#
# Compressibility (1/GPa) = 0.02217991
#
# Stress axis : x y z
#
# Youngs Moduli (GPa) = 96.78374 58.09416 48.02695
#
# Poissons Ratio (x) = 0.05135 0.23615
# Poissons Ratio (y) = 0.08555 0.35025
# Poissons Ratio (z) = 0.47589 0.42367
#
# Static dielectric constant tensor:
#      x y z
#    x 3.629170 0.000000 0.120380 
#    y 0.000000 3.385690 0.000000 
#    z 0.120380 0.000000 3.829420 
# 
# 
# High freq. dielectric constant tensor:
#      x y z
#    x 1.771160 0.000000 0.002450 
#    y 0.000000 1.737710 0.000000 
#    z 0.002450 0.000000 1.714660 
# 
# From -- ./inp_files/34259.got.cif
#   From: 2010.03.12/outbox.cif.g09.slc.cpg/sg5_18_cif.got.tgz:34259.got - 2010.03.31 09:47:26.
