data_PCOD8048808
_publ_section_title
;
Structure prediction by ZEFSAII (Michael W. Deem and Ramdas Pophale) SiO2 
 PCOD8048808
Probable space group: C 2
;
_chemical_formula_sum "Si O2"
_cell_formula_units_Z 26
_cell_length_a 10.699610
_cell_length_b 13.852148
_cell_length_c 9.244897
_cell_angle_alpha 90.000000
_cell_angle_beta 116.878054
_cell_angle_gamma 90.000000
_cell_volume 1222.187298
_symmetry_space_group_name_H-M "C 2"
_symmetry_group_IT_number 5
_symmetry_cell_setting 'monoclinic'
loop_
_space_group_symop_operation_xyz
x,y,z
-x,y,-z
1/2+x,1/2+y,z
1/2-x,1/2+y,-z
loop_
_atom_site_type_symbol
_atom_site_label
_atom_site_fract_x
_atom_site_fract_y
_atom_site_fract_z
Si Si1 0.914822 0.214650 0.692833
Si Si2 0.237640 0.606024 0.829856
Si Si3 0.757860 0.223340 0.108426
Si Si4 0.500000 0.128431 0.500000
Si Si5 0.124694 0.430010 0.248495
Si Si6 0.700922 0.928229 0.971762
Si Si7 0.204718 0.638066 0.377354
O O1 0.857846 0.159465 0.804065
O O2 0.867044 0.327251 0.664545
O O3 0.859307 0.165623 0.515902
O O4 0.079175 0.197852 0.789719
O O5 0.110433 0.570066 0.658514
O O6 0.292407 0.513187 0.947000
O O7 0.186316 0.678924 0.928411
O O8 0.742477 0.337177 0.086306
O O9 0.675988 0.182035 0.204680
O O10 0.595868 0.188031 0.435707
O O11 0.184048 0.521240 0.371063
O O12 0.963137 0.450064 0.132108
O O13 0.221606 0.420859 0.155289
#
# Coordination Sequence:
#
# PCOD8048808 Si02
#       7
#     4   4   4   2   4   4   4
#     4  10  23  39  62  94 129 163 207 261 311 367
#     4  11  20  39  67  86 132 155 212 256 315 364
#     4  11  22  39  67  91 119 169 213 251 310 377
#     4  10  24  38  58 100 116 164 196 272 316 348
#     4  10  19  38  64  92 119 162 214 260 301 357
#     4  10  20  36  65  95 114 161 222 255 292 372
#     4  11  22  39  66  91 130 159 211 260 311 366
#
# _framework density 21.273334999999999
#
# number of rings (size 3 to 8) (size 9 to 14) (size 15 to 20)
#    0.000    1.538    4.615    0.923    0.000    3.077 
#    0.000    0.000   33.846    0.000    0.000    0.000 
#    0.000    0.000    0.000    0.000    0.000    0.000 
#
# Total GULP energy -161051.373453 kJ/mol
# GULP energy per Si atom -12388.567189 kJ/mol
# Density = 2.122492 g / cm^3
# Si number density = 21.273335 Si / 1000 Ang^3
#
#
#
# Elastic Constant Matrix: (Units=GPa)
#
#
# Indices 1 2 3 4 5 6 
#
# 1 65.9885 30.7904 23.2006 0.0000 -23.9726 0.0000
# 2 30.7904 130.6122 27.6030 0.0000 -5.2730 0.0000
# 3 23.2006 27.6030 90.3943 0.0000 -17.8060 0.0000
# 4 0.0000 0.0000 0.0000 33.7574 0.0000 -1.9021
# 5 -23.9726 -5.2730 -17.8060 0.0000 35.0705 0.0000
# 6 0.0000 0.0000 0.0000 -1.9021 0.0000 21.3435
#
#
#
# Elastic Compliance Matrix: (Units=1/GPa)
#
#
# Indices 1 2 3 4 5 6 
#
# 1 0.023005 -0.004483 -0.001745 0.000000 0.014165 0.000000
# 2 -0.004483 0.009058 -0.002168 0.000000 -0.002803 0.000000
# 3 -0.001745 -0.002168 0.013193 0.000000 0.005179 0.000000
# 4 0.000000 0.000000 0.000000 0.029773 0.000000 0.002653
# 5 0.014165 -0.002803 0.005179 0.000000 0.040405 0.000000
# 6 0.000000 0.000000 0.000000 0.002653 0.000000 0.047089
#
#
# Mechanical properties :
#
#
# Convention : Reuss Voigt Hill
#
# Bulk Modulus (GPa) = 35.13089 50.02032 42.57560
# Shear Modulus (GPa) = 26.48275 31.72767 29.10521
#
# Velocity S-wave (km/s) = 3.53211 3.86609 3.70287
# Velocity P-wave (km/s) = 5.76058 6.59493 6.19183
#
# Compressibility (1/GPa) = 0.02846498
#
# Stress axis : x y z
#
# Youngs Moduli (GPa) = 43.46806 110.40108 75.79941
#
# Poissons Ratio (x) = 0.49487 0.13231
# Poissons Ratio (y) = 0.19485 0.16430
# Poissons Ratio (z) = 0.07587 0.23930
#
# Static dielectric constant tensor:
#      x y z
#    x 3.768950 0.000000 -0.272260 
#    y 0.000000 3.751690 0.000000 
#    z -0.272260 0.000000 4.047370 
# 
# 
# High freq. dielectric constant tensor:
#      x y z
#    x 1.820750 0.000000 -0.023950 
#    y 0.000000 1.819860 0.000000 
#    z -0.023950 0.000000 1.838900 
# 
# From -- ./inp_files/20187.got.cif
#   From: 2010.03.12/outbox.cif.g09.slc.cpg/sg5_11_cif.got.tgz:20187.got - 2010.03.31 09:47:26.
