data_PCOD8048850
_publ_section_title
;
Structure prediction by ZEFSAII (Michael W. Deem and Ramdas Pophale) SiO2 
 PCOD8048850
Probable space group: C 2
;
_chemical_formula_sum "Si O2"
_cell_formula_units_Z 32
_cell_length_a 11.686645
_cell_length_b 18.135432
_cell_length_c 9.765836
_cell_angle_alpha 90.000000
_cell_angle_beta 132.164463
_cell_angle_gamma 90.000000
_cell_volume 1534.175157
_symmetry_space_group_name_H-M "C 2"
_symmetry_group_IT_number 5
_symmetry_cell_setting 'monoclinic'
loop_
_space_group_symop_operation_xyz
x,y,z
-x,y,-z
1/2+x,1/2+y,z
1/2-x,1/2+y,-z
loop_
_atom_site_type_symbol
_atom_site_label
_atom_site_fract_x
_atom_site_fract_y
_atom_site_fract_z
Si Si1 0.398602 0.905720 0.630903
Si Si2 0.740233 0.949376 0.956581
Si Si3 0.832019 0.931386 0.318986
Si Si4 0.829862 0.527412 0.364009
Si Si5 0.862440 0.760693 0.292965
Si Si6 0.633342 0.297092 0.000053
Si Si7 0.612619 0.653221 0.206397
Si Si8 0.480954 0.751141 0.332182
O O1 0.567728 0.919165 0.823957
O O2 0.284207 0.940356 0.649553
O O3 0.396040 0.818302 0.596236
O O4 0.349933 0.948145 0.453186
O O5 0.863977 0.885713 0.017911
O O6 0.741262 0.014578 0.845201
O O7 0.782544 0.978016 0.143920
O O8 0.824184 0.845811 0.278183
O O9 0.000000 0.958582 0.500000
O O10 0.716842 0.585528 0.346543
O O11 0.000000 0.564617 0.500000
O O12 0.711019 0.715804 0.209393
O O13 0.000000 0.733714 0.500000
O O14 0.909709 0.751562 0.172089
O O15 0.803469 0.273967 0.181702
O O16 0.500000 0.275971 0.000000
O O17 0.519405 0.685728 0.259059
O O18 0.500000 0.621585 0.000000
O O19 0.500000 0.720349 0.500000
#
# Coordination Sequence:
#
# PCOD8048850 Si02
#       8
#     4   4   4   4   4   4   4   4
#     4  10  19  39  65  92 127 166 215 268 322 387
#     4   9  20  36  60  90 126 167 209 260 323 382
#     4  10  20  32  58  97 128 158 207 268 319 367
#     4  10  23  43  64  92 126 173 216 261 328 394
#     4  10  21  36  58  91 126 168 207 255 316 375
#     4  10  21  36  60  96 132 157 210 273 325 376
#     4  12  24  42  64  91 131 175 217 263 322 397
#     4  11  23  39  65  97 128 171 215 276 330 379
#
# _framework density 20.858114
#
# number of rings (size 3 to 8) (size 9 to 14) (size 15 to 20)
#    0.000    1.750    2.500    2.625    1.750    5.500 
#    0.000    1.875    0.000    0.000    0.000    0.000 
#    0.000    0.000    0.000    0.000    0.000    0.000 
#
# Total GULP energy -198324.097991 kJ/mol
# GULP energy per Si atom -12395.256124 kJ/mol
# Density = 2.081064 g / cm^3
# Si number density = 20.858114 Si / 1000 Ang^3
#
#
#
# Elastic Constant Matrix: (Units=GPa)
#
#
# Indices 1 2 3 4 5 6 
#
# 1 131.1272 22.6598 48.3340 0.0000 -11.3353 0.0000
# 2 22.6598 49.7334 28.7365 0.0000 1.2217 0.0000
# 3 48.3340 28.7365 138.2702 0.0000 -13.8426 0.0000
# 4 0.0000 0.0000 0.0000 12.5874 0.0000 3.4885
# 5 -11.3353 1.2217 -13.8426 0.0000 31.8560 0.0000
# 6 0.0000 0.0000 0.0000 3.4885 0.0000 21.1221
#
#
#
# Elastic Compliance Matrix: (Units=1/GPa)
#
#
# Indices 1 2 3 4 5 6 
#
# 1 0.009205 -0.002873 -0.002385 0.000000 0.002349 0.000000
# 2 -0.002873 0.024040 -0.004377 0.000000 -0.003846 0.000000
# 3 -0.002385 -0.004377 0.009313 0.000000 0.003366 0.000000
# 4 0.000000 0.000000 0.000000 0.083255 0.000000 -0.013750
# 5 0.002349 -0.003846 0.003366 0.000000 0.033837 0.000000
# 6 0.000000 0.000000 0.000000 -0.013750 0.000000 0.049615
#
#
# Mechanical properties :
#
#
# Convention : Reuss Voigt Hill
#
# Bulk Modulus (GPa) = 42.94369 57.62129 50.28249
# Shear Modulus (GPa) = 21.15970 27.73979 24.44975
#
# Velocity S-wave (km/s) = 3.18851 3.65077 3.42745
# Velocity P-wave (km/s) = 5.84711 6.74212 6.31050
#
# Compressibility (1/GPa) = 0.02328631
#
# Stress axis : x y z
#
# Youngs Moduli (GPa) = 108.63579 41.59753 107.38104
#
# Poissons Ratio (x) = 0.11953 0.25614
# Poissons Ratio (y) = 0.31216 0.46998
# Poissons Ratio (z) = 0.25914 0.18206
#
# Static dielectric constant tensor:
#      x y z
#    x 3.958960 0.000000 -0.108770 
#    y 0.000000 3.390790 0.000000 
#    z -0.108770 0.000000 4.003620 
# 
# 
# High freq. dielectric constant tensor:
#      x y z
#    x 1.820250 0.000000 0.000130 
#    y 0.000000 1.777360 0.000000 
#    z 0.000130 0.000000 1.831440 
# 
# From -- ./inp_files/21931.got.cif
#   From: 2010.03.12/outbox.cif.g09.slc.cpg/sg5_11_cif.got.tgz:21931.got - 2010.03.31 09:47:26.
