data_PCOD8048601
_publ_section_title
;
Structure prediction by ZEFSAII (Michael W. Deem and Ramdas Pophale) SiO2 
 PCOD8048601
Probable space group: C 2
;
_chemical_formula_sum "Si O2"
_cell_formula_units_Z 32
_cell_length_a 11.232720
_cell_length_b 14.634370
_cell_length_c 14.823042
_cell_angle_alpha 90.000000
_cell_angle_beta 137.486571
_cell_angle_gamma 90.000000
_cell_volume 1646.609845
_symmetry_space_group_name_H-M "C 2"
_symmetry_group_IT_number 5
_symmetry_cell_setting 'monoclinic'
loop_
_space_group_symop_operation_xyz
x,y,z
-x,y,-z
1/2+x,1/2+y,z
1/2-x,1/2+y,-z
loop_
_atom_site_type_symbol
_atom_site_label
_atom_site_fract_x
_atom_site_fract_y
_atom_site_fract_z
Si Si1 0.919518 0.425780 0.046775
Si Si2 0.668341 0.266871 0.544214
Si Si3 0.567560 0.449956 0.781780
Si Si4 0.733885 0.450609 0.680417
Si Si5 0.342792 0.655754 0.353902
Si Si6 0.991210 0.148594 0.243257
Si Si7 0.644555 0.715948 0.011563
Si Si8 0.040287 0.756284 0.273842
O O1 0.052074 0.456379 0.199966
O O2 0.722409 0.466140 0.942976
O O3 0.915238 0.317123 0.045477
O O4 0.000000 0.465727 0.000000
O O5 0.500000 0.224140 0.500000
O O6 0.679925 0.375595 0.574904
O O7 0.640525 0.247218 0.424207
O O8 0.839859 0.212883 0.673512
O O9 0.655512 0.420869 0.734394
O O10 0.450671 0.541709 0.714305
O O11 0.454753 0.363293 0.750547
O O12 0.663934 0.550410 0.616498
O O13 0.500000 0.701601 0.500000
O O14 0.378147 0.671539 0.268466
O O15 0.155622 0.703045 0.265346
O O16 0.863544 0.159437 0.085999
O O17 0.841960 0.714990 0.163652
O O18 0.500000 0.673771 0.000000
#
# Coordination Sequence:
#
# PCOD8048601 Si02
#       8
#     4   4   4   4   4   4   4   4
#     4   8  15  31  56  88 113 145 199 255 299 350
#     4  12  21  36  65  94 117 159 208 259 312 360
#     4   9  20  37  59  89 120 159 205 260 307 361
#     4  10  19  34  63  90 116 154 213 262 304 352
#     4  11  24  40  57  94 129 162 208 255 305 374
#     4  11  23  39  66  88 125 164 208 259 311 365
#     4  10  20  39  63  92 121 157 208 264 306 361
#     4  11  23  38  62  87 130 164 201 254 313 370
#
# _framework density 19.433869999999999
#
# number of rings (size 3 to 8) (size 9 to 14) (size 15 to 20)
#    0.000    1.750    3.750    1.875    3.500    0.500 
#    0.000    0.625   11.000    0.000    0.000    0.000 
#    0.000    0.000    0.000    0.000    0.000    0.000 
#
# Total GULP energy -198301.496740 kJ/mol
# GULP energy per Si atom -12393.843546 kJ/mol
# Density = 1.938964 g / cm^3
# Si number density = 19.433870 Si / 1000 Ang^3
#
#
#
# Elastic Constant Matrix: (Units=GPa)
#
#
# Indices 1 2 3 4 5 6 
#
# 1 95.0842 49.1704 33.9392 -0.0001 4.0419 0.0000
# 2 49.1704 84.4646 21.0720 0.0000 6.7660 0.0000
# 3 33.9392 21.0720 106.2327 -0.0001 1.6566 -0.0001
# 4 -0.0001 0.0000 -0.0001 20.7355 -0.0001 -3.5797
# 5 4.0419 6.7660 1.6566 -0.0001 31.9614 0.0000
# 6 0.0000 0.0000 -0.0001 -3.5797 0.0000 22.8815
#
#
#
# Elastic Compliance Matrix: (Units=1/GPa)
#
#
# Indices 1 2 3 4 5 6 
#
# 1 0.016179 -0.008548 -0.003473 0.000000 -0.000057 0.000000
# 2 -0.008548 0.017176 -0.000637 0.000000 -0.002522 0.000000
# 3 -0.003473 -0.000637 0.010649 0.000000 0.000022 0.000000
# 4 0.000000 0.000000 0.000000 0.049565 0.000000 0.007754
# 5 -0.000057 -0.002522 0.000022 0.000000 0.031828 0.000000
# 6 0.000000 0.000000 0.000000 0.007754 0.000000 0.044917
#
#
# Mechanical properties :
#
#
# Convention : Reuss Voigt Hill
#
# Bulk Modulus (GPa) = 53.50514 54.90496 54.20505
# Shear Modulus (GPa) = 24.76998 27.22236 25.99617
#
# Velocity S-wave (km/s) = 3.57400 3.74674 3.66139
# Velocity P-wave (km/s) = 6.68004 6.85791 6.76956
#
# Compressibility (1/GPa) = 0.01868979
#
# Stress axis : x y z
#
# Youngs Moduli (GPa) = 61.80816 58.22025 93.90838
#
# Poissons Ratio (x) = 0.49765 0.32610
# Poissons Ratio (y) = 0.52832 0.05981
# Poissons Ratio (z) = 0.21463 0.03708
#
# Static dielectric constant tensor:
#      x y z
#    x 3.327760 0.000000 0.116600 
#    y 0.000000 3.392830 0.000000 
#    z 0.116600 0.000000 3.709210 
# 
# 
# High freq. dielectric constant tensor:
#      x y z
#    x 1.722520 0.000000 0.010950 
#    y 0.000000 1.743460 0.000000 
#    z 0.010950 0.000000 1.774430 
# 
# From -- ./inp_files/53198.got.cif
#   From: 2010.03.12/outbox.cif.g09.slc.cpg/sg5_27_cif.got.tgz:53198.got - 2010.03.31 09:47:26.
