data_PCOD8048863
_publ_section_title
;
Structure prediction by ZEFSAII (Michael W. Deem and Ramdas Pophale) SiO2 
 PCOD8048863
Probable space group: C 2
;
_chemical_formula_sum "Si O2"
_cell_formula_units_Z 32
_cell_length_a 20.649094
_cell_length_b 11.352145
_cell_length_c 16.156826
_cell_angle_alpha 90.000000
_cell_angle_beta 23.307517
_cell_angle_gamma 90.000000
_cell_volume 1498.524014
_symmetry_space_group_name_H-M "C 2"
_symmetry_group_IT_number 5
_symmetry_cell_setting 'monoclinic'
loop_
_space_group_symop_operation_xyz
x,y,z
-x,y,-z
1/2+x,1/2+y,z
1/2-x,1/2+y,-z
loop_
_atom_site_type_symbol
_atom_site_label
_atom_site_fract_x
_atom_site_fract_y
_atom_site_fract_z
Si Si1 0.163641 0.772580 0.440846
Si Si2 0.520298 0.035015 0.104634
Si Si3 0.132117 0.097314 0.910608
Si Si4 0.224123 0.036483 0.333529
Si Si5 0.041412 0.213549 0.297235
Si Si6 0.444455 0.778488 0.238232
Si Si7 0.386452 0.132256 0.837121
Si Si8 0.627684 0.945309 0.282284
O O1 0.234122 0.677769 0.293207
O O2 0.266420 0.774108 0.405355
O O3 0.976929 0.738792 0.682842
O O4 0.164057 0.901489 0.399768
O O5 0.346246 0.058856 0.266425
O O6 0.523106 0.115268 0.182097
O O7 0.537513 0.897745 0.105144
O O8 0.676974 0.069179 0.865298
O O9 0.200738 0.981133 0.876216
O O10 0.051885 0.172550 0.077178
O O11 0.000000 0.050942 0.000000
O O12 0.064930 0.118435 0.527819
O O13 0.929392 0.269095 0.355601
O O14 0.110502 0.307628 0.282113
O O15 0.195651 0.155683 0.071365
O O16 0.405355 0.012827 0.763795
O O17 0.500000 0.986397 0.500000
#
# Coordination Sequence:
#
# PCOD8048863 Si02
#       8
#     4   4   4   4   4   4   4   4
#     4  10  21  39  69 102 127 171 228 276 333 396
#     4  10  21  43  67  99 127 175 223 279 343 397
#     4  10  20  41  70 101 132 173 230 284 337 406
#     4  10  23  43  70  94 134 174 227 278 333 403
#     4  12  27  42  63  96 141 177 216 276 339 401
#     4  10  19  39  69  99 132 165 219 286 336 395
#     4  12  25  40  65  95 135 174 223 275 327 409
#     4  12  26  45  63  95 139 180 218 270 345 398
#
# _framework density 21.354347000000001
#
# number of rings (size 3 to 8) (size 9 to 14) (size 15 to 20)
#    0.000    1.250    5.000    0.750    3.500    0.000 
#    0.000    3.750    0.000    0.000    0.000    0.000 
#    0.000    0.000    0.000    0.000    0.000    0.000 
#
# Total GULP energy -198398.499635 kJ/mol
# GULP energy per Si atom -12399.906227 kJ/mol
# Density = 2.130574 g / cm^3
# Si number density = 21.354347 Si / 1000 Ang^3
#
#
#
# Elastic Constant Matrix: (Units=GPa)
#
#
# Indices 1 2 3 4 5 6 
#
# 1 91.9439 42.0221 16.8632 0.0001 10.6314 0.0000
# 2 42.0221 105.6253 48.4829 0.0000 -5.0167 0.0000
# 3 16.8632 48.4829 117.5993 0.0000 -0.6147 0.0000
# 4 0.0001 0.0000 0.0000 29.5875 -0.0002 0.6133
# 5 10.6314 -5.0167 -0.6147 -0.0002 20.8336 0.0001
# 6 0.0000 0.0000 0.0000 0.6133 0.0001 33.0831
#
#
#
# Elastic Compliance Matrix: (Units=1/GPa)
#
#
# Indices 1 2 3 4 5 6 
#
# 1 0.014846 -0.006588 0.000540 0.000000 -0.009146 0.000000
# 2 -0.006588 0.014751 -0.005101 0.000000 0.006764 0.000000
# 3 0.000540 -0.005101 0.010523 0.000000 -0.001193 0.000000
# 4 0.000000 0.000000 0.000000 0.033811 0.000000 -0.000627
# 5 -0.009146 0.006764 -0.001193 0.000000 0.054260 0.000000
# 6 0.000000 0.000000 0.000000 -0.000627 0.000000 0.030239
#
#
# Mechanical properties :
#
#
# Convention : Reuss Voigt Hill
#
# Bulk Modulus (GPa) = 56.11744 58.87832 57.49788
# Shear Modulus (GPa) = 26.78508 30.55419 28.66964
#
# Velocity S-wave (km/s) = 3.54547 3.78672 3.66808
# Velocity P-wave (km/s) = 6.56481 6.83746 6.70252
#
# Compressibility (1/GPa) = 0.01781977
#
# Stress axis : x y z
#
# Youngs Moduli (GPa) = 67.35809 67.78993 95.02953
#
# Poissons Ratio (x) = 0.44663 -0.05127
# Poissons Ratio (y) = 0.44378 0.48479
# Poissons Ratio (z) = -0.03634 0.34583
#
# Static dielectric constant tensor:
#      x y z
#    x 4.051960 0.000000 0.039880 
#    y 0.000000 3.623320 0.000000 
#    z 0.039880 0.000000 3.747870 
# 
# 
# High freq. dielectric constant tensor:
#      x y z
#    x 1.850830 0.000000 0.006500 
#    y 0.000000 1.823980 0.000000 
#    z 0.006500 0.000000 1.834580 
# 
# From -- ./inp_files/63406.got.cif
#   From: 2010.03.12/outbox.cif.g09.slc.cpg/sg5_32_cif.got.tgz:63406.got - 2010.03.31 09:47:26.
