data_PCOD8048979
_publ_section_title
;
Structure prediction by ZEFSAII (Michael W. Deem and Ramdas Pophale) SiO2 
 PCOD8048979
Probable space group: C 2
;
_chemical_formula_sum "Si O2"
_cell_formula_units_Z 26
_cell_length_a 23.421408
_cell_length_b 5.267921
_cell_length_c 13.075523
_cell_angle_alpha 90.000000
_cell_angle_beta 64.839118
_cell_angle_gamma 90.000000
_cell_volume 1460.213306
_symmetry_space_group_name_H-M "C 2"
_symmetry_group_IT_number 5
_symmetry_cell_setting 'monoclinic'
loop_
_space_group_symop_operation_xyz
x,y,z
-x,y,-z
1/2+x,1/2+y,z
1/2-x,1/2+y,-z
loop_
_atom_site_type_symbol
_atom_site_label
_atom_site_fract_x
_atom_site_fract_y
_atom_site_fract_z
Si Si1 0.193702 0.433460 0.441979
Si Si2 0.000000 0.687674 0.000000
Si Si3 0.539864 0.426852 0.776162
Si Si4 0.572480 0.925707 0.410132
Si Si5 0.099745 0.447525 0.800488
Si Si6 0.960083 0.926664 0.634410
Si Si7 0.766886 0.432987 0.355853
O O1 0.119738 0.436196 0.470309
O O2 0.200303 0.428880 0.558141
O O3 0.225265 0.683579 0.369618
O O4 0.225506 0.183201 0.369457
O O5 0.061422 0.507288 0.935031
O O6 0.990736 0.866677 0.906796
O O7 0.577064 0.686260 0.767134
O O8 0.504980 0.452257 0.696483
O O9 0.588210 0.187892 0.732322
O O10 0.500000 0.908942 0.500000
O O11 0.585958 0.671110 0.334057
O O12 0.581898 0.170232 0.329285
O O13 0.174324 0.430136 0.767919
O O14 0.000000 0.908252 0.500000
#
# Coordination Sequence:
#
# PCOD8048979 Si02
#       7
#     4   2   4   4   4   4   4
#     4  10  21  36  50  79 117 148 202 214 273 351
#     4   8  22  34  58  84 116 140 188 254 282 332
#     4  10  20  34  53  84 120 137 188 233 285 346
#     4  10  21  34  51  76 110 155 183 226 268 324
#     4  10  20  34  57  81 115 146 182 234 297 323
#     4  10  21  31  50  82 111 154 176 215 289 332
#     4  10  21  34  55  78 110 161 179 238 275 334
#
# _framework density 17.805617000000002
#
# number of rings (size 3 to 8) (size 9 to 14) (size 15 to 20)
#    0.923    1.231    0.000    3.231    8.615    0.000 
#    0.000    0.000    0.000    0.000    0.000    4.308 
#    0.000    0.000    0.000    0.000    0.000    0.000 
#
# Total GULP energy -161059.062998 kJ/mol
# GULP energy per Si atom -12389.158692 kJ/mol
# Density = 1.776509 g / cm^3
# Si number density = 17.805617 Si / 1000 Ang^3
#
#
#
# Elastic Constant Matrix: (Units=GPa)
#
#
# Indices 1 2 3 4 5 6 
#
# 1 105.3927 35.3785 26.0920 0.0000 -10.6213 0.0000
# 2 35.3785 169.7754 12.3436 0.0000 -6.0748 0.0001
# 3 26.0920 12.3436 63.1153 0.0000 -9.3377 0.0000
# 4 0.0000 0.0000 0.0000 11.4385 0.0000 -0.5097
# 5 -10.6213 -6.0748 -9.3377 0.0000 25.4970 0.0000
# 6 0.0000 0.0001 0.0000 -0.5097 0.0000 30.6750
#
#
#
# Elastic Compliance Matrix: (Units=1/GPa)
#
#
# Indices 1 2 3 4 5 6 
#
# 1 0.011411 -0.001992 -0.003906 0.000000 0.002848 0.000000
# 2 -0.001992 0.006350 -0.000335 0.000000 0.000560 0.000000
# 3 -0.003906 -0.000335 0.018261 0.000000 0.004981 0.000000
# 4 0.000000 0.000000 0.000000 0.087489 0.000000 0.001454
# 5 0.002848 0.000560 0.004981 0.000000 0.042364 0.000000
# 6 0.000000 0.000000 0.000000 0.001454 0.000000 0.032624
#
#
# Mechanical properties :
#
#
# Convention : Reuss Voigt Hill
#
# Bulk Modulus (GPa) = 42.45468 53.99019 48.22243
# Shear Modulus (GPa) = 22.84999 31.15338 27.00169
#
# Velocity S-wave (km/s) = 3.58621 4.18741 3.89841
# Velocity P-wave (km/s) = 6.40648 7.33260 6.88513
#
# Compressibility (1/GPa) = 0.02355453
#
# Stress axis : x y z
#
# Youngs Moduli (GPa) = 87.63352 157.48869 54.76024
#
# Poissons Ratio (x) = 0.31371 0.21392
# Poissons Ratio (y) = 0.17456 0.01837
# Poissons Ratio (z) = 0.34233 0.05283
#
# Static dielectric constant tensor:
#      x y z
#    x 3.077740 0.000000 -0.083680 
#    y 0.000000 5.198400 0.000000 
#    z -0.083680 0.000000 2.930370 
# 
# 
# High freq. dielectric constant tensor:
#      x y z
#    x 1.667930 0.000000 -0.006840 
#    y 0.000000 1.727520 0.000000 
#    z -0.006840 0.000000 1.637850 
# 
# From -- ./inp_files/55177.got.cif
#   From: 2010.03.12/outbox.cif.g09.slc.cpg/sg5_28_cif.got.tgz:55177.got - 2010.03.31 09:47:26.
