data_PCOD8048767
_publ_section_title
;
Structure prediction by ZEFSAII (Michael W. Deem and Ramdas Pophale) SiO2 
 PCOD8048767
Probable space group: C 2
;
_chemical_formula_sum "Si O2"
_cell_formula_units_Z 32
_cell_length_a 18.402012
_cell_length_b 5.437652
_cell_length_c 27.947574
_cell_angle_alpha 90.000000
_cell_angle_beta 146.021177
_cell_angle_gamma 90.000000
_cell_volume 1562.947578
_symmetry_space_group_name_H-M "C 2"
_symmetry_group_IT_number 5
_symmetry_cell_setting 'monoclinic'
loop_
_space_group_symop_operation_xyz
x,y,z
-x,y,-z
1/2+x,1/2+y,z
1/2-x,1/2+y,-z
loop_
_atom_site_type_symbol
_atom_site_label
_atom_site_fract_x
_atom_site_fract_y
_atom_site_fract_z
Si Si1 0.152038 0.594660 0.833726
Si Si2 0.589783 0.758987 0.196181
Si Si3 0.805077 0.150836 0.008702
Si Si4 0.473835 0.694515 0.284555
Si Si5 0.322128 0.302061 0.250725
Si Si6 0.075930 0.577345 0.413537
Si Si7 0.904743 0.764353 0.741990
Si Si8 0.280994 0.368288 0.586038
O O1 0.199240 0.610141 0.804427
O O2 0.072063 0.336845 0.788773
O O3 0.044402 0.799227 0.790498
O O4 0.273046 0.595711 0.935651
O O5 0.455299 0.713235 0.095568
O O6 0.696866 0.807696 0.214557
O O7 0.626192 0.512129 0.245142
O O8 0.582465 0.016095 0.220287
O O9 0.725170 0.394704 0.980531
O O10 0.348383 0.551922 0.236242
O O11 0.600825 0.549807 0.337663
O O12 0.521701 0.849620 0.355551
O O13 0.451238 0.252514 0.353905
O O14 0.142555 0.500365 0.500452
O O15 0.189171 0.706046 0.444286
O O16 0.785055 0.717695 0.638564
#
# Coordination Sequence:
#
# PCOD8048767 Si02
#       8
#     4   4   4   4   4   4   4   4
#     4  11  22  40  71 100 129 177 228 283 331 406
#     4  12  27  47  68  99 139 187 220 281 361 412
#     4  12  25  43  72 105 135 170 230 291 335 408
#     4  10  19  37  65  96 134 167 230 275 339 386
#     4  10  25  42  68  93 142 182 222 284 349 416
#     4  10  20  35  64  98 133 167 234 276 339 377
#     4  12  24  42  71  97 135 179 235 275 343 411
#     4  11  20  34  66 104 126 178 225 298 311 408
#
# _framework density 20.474132999999998
#
# number of rings (size 3 to 8) (size 9 to 14) (size 15 to 20)
#    0.000    1.000    7.500    0.750    5.250    0.500 
#    0.000    0.625    0.000    0.000    0.000    0.000 
#    0.000    0.000    0.000    0.000    0.000    0.000 
#
# Total GULP energy -198210.655331 kJ/mol
# GULP energy per Si atom -12388.165958 kJ/mol
# Density = 2.042753 g / cm^3
# Si number density = 20.474133 Si / 1000 Ang^3
#
#
#
# Elastic Constant Matrix: (Units=GPa)
#
#
# Indices 1 2 3 4 5 6 
#
# 1 78.4335 7.1864 57.8232 0.0015 5.4258 -0.0173
# 2 7.1864 86.4046 39.1988 0.0024 -5.1130 -0.0326
# 3 57.8232 39.1988 167.1386 -0.0019 -30.2746 -0.0030
# 4 0.0015 0.0024 -0.0019 29.2052 -0.0017 -7.8712
# 5 5.4258 -5.1130 -30.2746 -0.0017 32.6074 0.0040
# 6 -0.0173 -0.0326 -0.0030 -7.8712 0.0040 23.9622
#
#
#
# Elastic Compliance Matrix: (Units=1/GPa)
#
#
# Indices 1 2 3 4 5 6 
#
# 1 0.020673 0.002023 -0.009848 0.000003 -0.012267 0.000019
# 2 0.002023 0.013174 -0.004179 0.000004 -0.002151 0.000020
# 3 -0.009848 -0.004179 0.012681 -0.000001 0.012757 -0.000014
# 4 0.000003 0.000004 -0.000001 0.037566 -0.000001 0.012340
# 5 -0.012267 -0.002151 0.012757 -0.000001 0.044216 -0.000018
# 6 0.000019 0.000020 -0.000014 0.012340 -0.000018 0.045786
#
#
# Mechanical properties :
#
#
# Convention : Reuss Voigt Hill
#
# Bulk Modulus (GPa) = 44.40750 60.04372 52.22561
# Shear Modulus (GPa) = 24.31754 32.33952 28.32853
#
# Velocity S-wave (km/s) = 3.45007 3.97864 3.72375
# Velocity P-wave (km/s) = 6.13248 7.10608 6.63716
#
# Compressibility (1/GPa) = 0.02251872
#
# Stress axis : x y z
#
# Youngs Moduli (GPa) = 48.37116 75.90814 78.85741
#
# Poissons Ratio (x) = -0.15353 0.77663
# Poissons Ratio (y) = -0.09784 0.32954
# Poissons Ratio (z) = 0.47638 0.31722
#
# Static dielectric constant tensor:
#      x y z
#    x 3.482770 -0.000030 -0.219730 
#    y -0.000030 4.228370 0.000020 
#    z -0.219730 0.000020 3.796860 
# 
# 
# High freq. dielectric constant tensor:
#      x y z
#    x 1.763420 0.000000 -0.024020 
#    y 0.000000 1.818990 0.000000 
#    z -0.024020 0.000000 1.804340 
# 
# From -- ./inp_files/72028.got.cif
#   From: 2010.03.12/outbox.cif.g09.slc.cpg/sg5_37_cif.got.tgz:72028.got - 2010.03.31 09:47:26.
