data_PCOD8048832
_publ_section_title
;
Structure prediction by ZEFSAII (Michael W. Deem and Ramdas Pophale) SiO2 
 PCOD8048832
Probable space group: C 2
;
_chemical_formula_sum "Si O2"
_cell_formula_units_Z 32
_cell_length_a 22.741516
_cell_length_b 9.403455
_cell_length_c 14.343736
_cell_angle_alpha 90.000000
_cell_angle_beta 28.876584
_cell_angle_gamma 90.000000
_cell_volume 1481.318451
_symmetry_space_group_name_H-M "C 2"
_symmetry_group_IT_number 5
_symmetry_cell_setting 'monoclinic'
loop_
_space_group_symop_operation_xyz
x,y,z
-x,y,-z
1/2+x,1/2+y,z
1/2-x,1/2+y,-z
loop_
_atom_site_type_symbol
_atom_site_label
_atom_site_fract_x
_atom_site_fract_y
_atom_site_fract_z
Si Si1 0.426239 0.718910 0.232526
Si Si2 0.385230 0.754864 0.717539
Si Si3 0.840516 0.251662 0.986598
Si Si4 0.238492 0.039467 0.662481
Si Si5 0.268704 0.211533 0.335417
Si Si6 0.359656 0.065782 0.685187
Si Si7 0.203796 0.559198 0.887798
Si Si8 0.068520 0.544606 0.766851
O O1 0.562343 0.676872 0.077985
O O2 0.381994 0.626194 0.204794
O O3 0.338987 0.693596 0.441444
O O4 0.430442 0.883552 0.195983
O O5 0.500000 0.693172 0.500000
O O6 0.411508 0.786525 0.790672
O O7 0.275321 0.642362 0.869380
O O8 0.346862 0.899241 0.719963
O O9 0.726340 0.149213 0.122855
O O10 0.782936 0.391589 0.113997
O O11 0.300477 0.106277 0.667790
O O12 0.339849 0.057969 0.444538
O O13 0.205432 0.875142 0.726036
O O14 0.234592 0.115412 0.293463
O O15 0.393739 0.148249 0.202292
O O16 0.500000 0.115469 0.500000
O O17 0.061579 0.597651 0.088919
#
# Coordination Sequence:
#
# PCOD8048832 Si02
#       8
#     4   4   4   4   4   4   4   4
#     4   9  21  40  66  91 131 167 211 267 320 386
#     4  11  24  43  70  91 123 174 219 269 322 385
#     4  11  25  42  64  99 129 167 215 271 327 382
#     4  10  21  41  65  93 127 172 216 256 325 381
#     4  10  19  39  61  97 122 169 215 254 327 378
#     4  11  26  43  66  93 129 175 213 267 318 389
#     4  11  22  38  65  92 130 163 212 271 320 389
#     4   9  21  36  65  92 129 168 205 271 316 389
#
# _framework density 21.602377000000001
#
# number of rings (size 3 to 8) (size 9 to 14) (size 15 to 20)
#    0.000    1.750    1.250    1.875   12.250    2.000 
#    2.250    1.250    0.000    0.000    0.000    0.000 
#    0.000    0.000    0.000    0.000    0.000    0.000 
#
# Total GULP energy -198359.472721 kJ/mol
# GULP energy per Si atom -12397.467045 kJ/mol
# Density = 2.155321 g / cm^3
# Si number density = 21.602377 Si / 1000 Ang^3
#
#
#
# Elastic Constant Matrix: (Units=GPa)
#
#
# Indices 1 2 3 4 5 6 
#
# 1 134.6164 47.8033 47.4412 0.0000 -11.4919 0.0000
# 2 47.8033 73.7260 50.2643 0.0001 -16.1195 -0.0001
# 3 47.4412 50.2643 81.9148 0.0000 -22.7167 0.0000
# 4 0.0000 0.0001 0.0000 28.2948 0.0000 -12.1341
# 5 -11.4919 -16.1195 -22.7167 0.0000 42.1077 0.0000
# 6 0.0000 -0.0001 0.0000 -12.1341 0.0000 34.0830
#
#
#
# Elastic Compliance Matrix: (Units=1/GPa)
#
#
# Indices 1 2 3 4 5 6 
#
# 1 0.010121 -0.004450 -0.003337 0.000000 -0.000741 0.000000
# 2 -0.004450 0.025348 -0.012492 0.000000 0.001750 0.000000
# 3 -0.003337 -0.012492 0.023785 0.000000 0.007139 0.000000
# 4 0.000000 0.000000 0.000000 0.041710 0.000000 0.014850
# 5 -0.000741 0.001750 0.007139 0.000000 0.028068 0.000000
# 6 0.000000 0.000000 0.000000 0.014850 0.000000 0.034627
#
#
# Mechanical properties :
#
#
# Convention : Reuss Voigt Hill
#
# Bulk Modulus (GPa) = 53.48113 64.58610 59.03362
# Shear Modulus (GPa) = 23.75876 30.54699 27.15288
#
# Velocity S-wave (km/s) = 3.31995 3.76447 3.54918
# Velocity P-wave (km/s) = 6.28545 6.98982 6.64697
#
# Compressibility (1/GPa) = 0.01869818
#
# Stress axis : x y z
#
# Youngs Moduli (GPa) = 98.80114 39.45110 42.04259
#
# Poissons Ratio (x) = 0.17554 0.14030
# Poissons Ratio (y) = 0.43962 0.52518
# Poissons Ratio (z) = 0.32971 0.49281
#
# Static dielectric constant tensor:
#      x y z
#    x 4.074570 0.000000 -0.031630 
#    y 0.000000 3.849260 0.000000 
#    z -0.031630 0.000000 3.898660 
# 
# 
# High freq. dielectric constant tensor:
#      x y z
#    x 1.860550 0.000000 0.000690 
#    y 0.000000 1.833820 0.000000 
#    z 0.000690 0.000000 1.853590 
# 
# From -- ./inp_files/57667.got.cif
#   From: 2010.03.12/outbox.cif.g09.slc.cpg/sg5_29_cif.got.tgz:57667.got - 2010.03.31 09:47:26.
