data_PCOD8048284
_publ_section_title
;
Structure prediction by ZEFSAII (Michael W. Deem and Ramdas Pophale) SiO2 
 PCOD8048284
Probable space group: C 2
;
_chemical_formula_sum "Si O2"
_cell_formula_units_Z 32
_cell_length_a 20.110507
_cell_length_b 9.331953
_cell_length_c 19.586113
_cell_angle_alpha 90.000000
_cell_angle_beta 152.997595
_cell_angle_gamma 90.000000
_cell_volume 1668.884799
_symmetry_space_group_name_H-M "C 2"
_symmetry_group_IT_number 5
_symmetry_cell_setting 'monoclinic'
loop_
_space_group_symop_operation_xyz
x,y,z
-x,y,-z
1/2+x,1/2+y,z
1/2-x,1/2+y,-z
loop_
_atom_site_type_symbol
_atom_site_label
_atom_site_fract_x
_atom_site_fract_y
_atom_site_fract_z
Si Si1 0.738561 0.346570 0.877757
Si Si2 0.768712 0.005775 0.915588
Si Si3 0.087292 0.982031 0.236241
Si Si4 0.202939 0.292510 0.358220
Si Si5 0.172642 0.815666 0.667068
Si Si6 0.048090 0.787240 0.312386
Si Si7 0.956883 0.486432 0.179464
Si Si8 0.834080 0.027960 0.832209
O O1 0.774782 0.178450 0.916893
O O2 0.726663 0.391677 0.786657
O O3 0.585097 0.374575 0.775195
O O4 0.862317 0.446163 0.025758
O O5 0.631165 0.945236 0.831837
O O6 0.769778 0.943026 0.838978
O O7 0.914407 0.949859 0.085033
O O8 0.108288 0.151721 0.258145
O O9 0.154650 0.927974 0.225247
O O10 0.147477 0.891266 0.355028
O O11 0.246812 0.374373 0.327721
O O12 0.346618 0.238662 0.529918
O O13 0.108413 0.400838 0.317321
O O14 0.215767 0.649753 0.708858
O O15 0.000000 0.833140 0.500000
O O16 0.991624 0.654880 0.214823
O O17 0.000000 0.087242 0.000000
#
# Coordination Sequence:
#
# PCOD8048284 Si02
#       8
#     4   4   4   4   4   4   4   4
#     4  10  19  35  57  82 112 148 194 239 281 338
#     4   9  17  33  56  82 108 141 191 239 273 328
#     4  10  18  34  59  81 112 145 186 235 282 330
#     4  11  22  37  58  88 113 151 191 241 289 340
#     4  10  19  33  56  84 115 144 190 247 288 324
#     4  11  22  36  55  86 121 150 185 234 295 349
#     4  11  22  35  58  85 118 153 190 230 293 351
#     4   8  17  31  55  84 107 142 189 241 280 322
#
# _framework density 19.174482000000001
#
# number of rings (size 3 to 8) (size 9 to 14) (size 15 to 20)
#    0.000    2.000    3.750    0.750    1.750    0.000 
#    0.000    0.000    8.250    0.000    0.000    0.000 
#    0.000    0.000    0.000    0.000    0.000    0.000 
#
# Total GULP energy -198238.580347 kJ/mol
# GULP energy per Si atom -12389.911272 kJ/mol
# Density = 1.913084 g / cm^3
# Si number density = 19.174482 Si / 1000 Ang^3
#
#
#
# Elastic Constant Matrix: (Units=GPa)
#
#
# Indices 1 2 3 4 5 6 
#
# 1 167.2207 43.0124 41.2758 -0.0002 -10.2702 -0.0001
# 2 43.0124 37.8486 13.7162 -0.0017 -3.0543 -0.0008
# 3 41.2758 13.7162 80.2511 -0.0009 -7.0345 -0.0005
# 4 -0.0002 -0.0017 -0.0009 20.7879 -0.0006 1.2956
# 5 -10.2702 -3.0543 -7.0345 -0.0006 32.4185 -0.0003
# 6 -0.0001 -0.0008 -0.0005 1.2956 -0.0003 26.8562
#
#
#
# Elastic Compliance Matrix: (Units=1/GPa)
#
#
# Indices 1 2 3 4 5 6 
#
# 1 0.009187 -0.009232 -0.003026 -0.000001 0.001384 0.000000
# 2 -0.009232 0.037528 -0.001644 0.000003 0.000254 0.000001
# 3 -0.003026 -0.001644 0.014476 0.000001 0.002028 0.000000
# 4 -0.000001 0.000003 0.000001 0.048250 0.000001 -0.002328
# 5 0.001384 0.000254 0.002028 0.000001 0.031749 0.000000
# 6 0.000000 0.000001 0.000000 -0.002328 0.000000 0.037348
#
#
# Mechanical properties :
#
#
# Convention : Reuss Voigt Hill
#
# Bulk Modulus (GPa) = 29.95054 53.48102 41.71578
# Shear Modulus (GPa) = 22.99177 28.50027 25.74602
#
# Velocity S-wave (km/s) = 3.46653 3.85952 3.66829
# Velocity P-wave (km/s) = 5.62818 6.91473 6.30436
#
# Compressibility (1/GPa) = 0.03338838
#
# Stress axis : x y z
#
# Youngs Moduli (GPa) = 108.85477 26.64648 69.08065
#
# Poissons Ratio (x) = 0.24599 0.20902
# Poissons Ratio (y) = 1.00491 0.11355
# Poissons Ratio (z) = 0.32937 0.04380
#
# Static dielectric constant tensor:
#      x y z
#    x 4.073090 0.000000 -0.088060 
#    y 0.000000 2.901810 0.000000 
#    z -0.088060 0.000000 3.483060 
# 
# 
# High freq. dielectric constant tensor:
#      x y z
#    x 1.773800 0.000000 -0.003900 
#    y 0.000000 1.679150 0.000000 
#    z -0.003900 0.000000 1.749690 
# 
# From -- ./inp_files/29454.got.cif
#   From: 2010.03.12/outbox.cif.g09.slc.cpg/sg5_15_cif.got.tgz:29454.got - 2010.03.31 09:47:26.
