data_PCOD8048593
_publ_section_title
;
Structure prediction by ZEFSAII (Michael W. Deem and Ramdas Pophale) SiO2 
 PCOD8048593
Probable space group: C 2
;
_chemical_formula_sum "Si O2"
_cell_formula_units_Z 24
_cell_length_a 11.688430
_cell_length_b 19.182902
_cell_length_c 8.900960
_cell_angle_alpha 90.000000
_cell_angle_beta 40.401175
_cell_angle_gamma 90.000000
_cell_volume 1293.520034
_symmetry_space_group_name_H-M "C 2"
_symmetry_group_IT_number 5
_symmetry_cell_setting 'monoclinic'
loop_
_space_group_symop_operation_xyz
x,y,z
-x,y,-z
1/2+x,1/2+y,z
1/2-x,1/2+y,-z
loop_
_atom_site_type_symbol
_atom_site_label
_atom_site_fract_x
_atom_site_fract_y
_atom_site_fract_z
Si Si1 0.297346 0.279920 0.027634
Si Si2 0.696796 0.626667 0.124536
Si Si3 0.999998 0.369649 0.822002
Si Si4 0.500000 0.027182 0.820899
Si Si5 0.202657 0.779920 0.622329
Si Si6 0.303205 0.626667 0.518130
O O1 0.260818 0.202142 0.003378
O O2 0.248731 0.284759 0.251266
O O3 0.176894 0.333471 0.058562
O O4 0.500003 0.299925 0.795187
O O5 0.500001 0.611373 0.260675
O O6 0.701100 0.626456 0.298899
O O7 0.826840 0.567104 0.931584
O O8 0.176888 0.333470 0.587650
O O9 0.000000 0.448652 0.759993
O O10 0.000000 0.368010 0.000000
O O11 0.673161 0.067105 0.585265
O O12 0.500000 0.028589 0.000000
O O13 0.239185 0.702143 0.525018
#
# Coordination Sequence:
#
# PCOD8048593 Si02
#       6
#     4   4   4   4   4   4
#     4  10  19  34  59  84 104 137 188 233 263 306
#     4   9  15  27  52  80 100 126 177 234 266 294
#     4  11  23  35  51  81 122 149 166 212 281 341
#     4   9  18  31  47  77 110 135 172 224 275 311
#     4  10  19  34  59  84 104 137 188 233 263 306
#     4   9  15  27  52  80 100 126 177 234 266 294
#
# _framework density 18.554022
#
# number of rings (size 3 to 8) (size 9 to 14) (size 15 to 20)
#    0.000    2.333    3.333    0.500    0.000    2.000 
#    0.000    3.333    0.000    4.000    0.000    0.000 
#    0.000    0.000    0.000    0.000    0.000    0.000 
#
# Total GULP energy -148790.531569 kJ/mol
# GULP energy per Si atom -12399.210964 kJ/mol
# Density = 1.851179 g / cm^3
# Si number density = 18.554022 Si / 1000 Ang^3
#
#
#
# Elastic Constant Matrix: (Units=GPa)
#
#
# Indices 1 2 3 4 5 6 
#
# 1 75.0485 59.0080 43.7699 0.0000 -31.7640 0.0000
# 2 59.0080 179.9793 67.5157 0.0000 -28.2501 0.0000
# 3 43.7699 67.5157 95.2920 0.0000 -35.4497 0.0000
# 4 0.0000 0.0000 0.0000 30.1859 0.0000 -6.2827
# 5 -31.7640 -28.2501 -35.4497 0.0000 32.6576 0.0000
# 6 0.0000 0.0000 0.0000 -6.2827 0.0000 28.2942
#
#
#
# Elastic Compliance Matrix: (Units=1/GPa)
#
#
# Indices 1 2 3 4 5 6 
#
# 1 0.026530 -0.005140 -0.001004 0.000000 0.020268 0.000000
# 2 -0.005140 0.008592 -0.004733 0.000000 -0.002704 0.000000
# 3 -0.001004 -0.004733 0.020836 0.000000 0.017547 0.000000
# 4 0.000000 0.000000 0.000000 0.034733 0.000000 0.007712
# 5 0.020268 -0.002704 0.017547 0.000000 0.067042 0.000000
# 6 0.000000 0.000000 0.000000 0.007712 0.000000 0.037055
#
#
# Mechanical properties :
#
#
# Convention : Reuss Voigt Hill
#
# Bulk Modulus (GPa) = 29.23604 76.76744 53.00174
# Shear Modulus (GPa) = 21.93508 30.22928 26.08218
#
# Velocity S-wave (km/s) = 3.44208 4.04079 3.75339
# Velocity P-wave (km/s) = 5.62038 7.95208 6.88565
#
# Compressibility (1/GPa) = 0.03420436
#
# Stress axis : x y z
#
# Youngs Moduli (GPa) = 37.69286 116.38157 47.99326
#
# Poissons Ratio (x) = 0.59822 0.04820
# Poissons Ratio (y) = 0.19375 0.22714
# Poissons Ratio (z) = 0.03785 0.55082
#
# Static dielectric constant tensor:
#      x y z
#    x 3.204610 0.000000 -0.408430 
#    y 0.000000 3.563700 0.000000 
#    z -0.408430 0.000000 3.327620 
# 
# 
# High freq. dielectric constant tensor:
#      x y z
#    x 1.695100 0.000000 -0.039340 
#    y 0.000000 1.722550 0.000000 
#    z -0.039340 0.000000 1.706950 
# 
# From -- ./inp_files/21702.got.cif
#   From: 2010.03.12/outbox.cif.g09.slc.cpg/sg5_11_cif.got.tgz:21702.got - 2010.03.31 09:47:26.
