data_PCOD8048920
_publ_section_title
;
Structure prediction by ZEFSAII (Michael W. Deem and Ramdas Pophale) SiO2 
 PCOD8048920
Probable space group: C 2
;
_chemical_formula_sum "Si O2"
_cell_formula_units_Z 32
_cell_length_a 12.994375
_cell_length_b 10.985401
_cell_length_c 11.509715
_cell_angle_alpha 90.000000
_cell_angle_beta 109.514743
_cell_angle_gamma 90.000000
_cell_volume 1548.612794
_symmetry_space_group_name_H-M "C 2"
_symmetry_group_IT_number 5
_symmetry_cell_setting 'monoclinic'
loop_
_space_group_symop_operation_xyz
x,y,z
-x,y,-z
1/2+x,1/2+y,z
1/2-x,1/2+y,-z
loop_
_atom_site_type_symbol
_atom_site_label
_atom_site_fract_x
_atom_site_fract_y
_atom_site_fract_z
Si Si1 0.285119 0.916120 0.987736
Si Si2 0.878813 0.705238 0.476578
Si Si3 0.503553 0.903533 0.808626
Si Si4 0.198649 0.253279 0.222664
Si Si5 0.678386 0.306685 0.295179
Si Si6 0.393195 0.117937 0.906572
Si Si7 0.598221 0.937533 0.602066
Si Si8 0.385261 0.498628 0.896163
O O1 0.255014 0.840058 0.861638
O O2 0.313102 0.058501 0.972248
O O3 0.393546 0.851374 0.080449
O O4 0.185661 0.916519 0.041073
O O5 0.790612 0.762119 0.356341
O O6 0.859420 0.747951 0.599999
O O7 0.873296 0.559513 0.459198
O O8 0.000000 0.755054 0.500000
O O9 0.415712 0.794986 0.760943
O O10 0.552887 0.966179 0.712705
O O11 0.440962 0.007185 0.852187
O O12 0.181628 0.118456 0.165163
O O13 0.680604 0.203068 0.199038
O O14 0.801294 0.348495 0.357061
O O15 0.602715 0.417724 0.217649
O O16 0.500000 0.187990 0.000000
O O17 0.500000 0.867438 0.500000
O O18 0.500000 0.530705 0.000000
#
# Coordination Sequence:
#
# PCOD8048920 Si02
#       8
#     4   4   4   4   4   4   4   4
#     4  10  22  40  67  98 130 175 223 264 336 397
#     4  11  25  43  67  90 130 181 225 272 320 397
#     4  10  19  42  69  97 123 170 229 267 324 391
#     4  11  23  44  69  96 133 176 222 282 324 396
#     4  12  24  41  65  99 131 169 221 276 337 390
#     4   9  20  37  64  98 128 165 218 275 319 398
#     4  11  22  42  66  93 122 173 224 268 319 398
#     4  12  26  41  65 100 141 172 211 282 349 397
#
# _framework density 20.663654000000001
#
# number of rings (size 3 to 8) (size 9 to 14) (size 15 to 20)
#    0.000    1.250    2.500    4.500    3.500    3.000 
#    0.000    0.000    2.750    0.000    0.000    0.000 
#    0.000    0.000    0.000    0.000    0.000    0.000 
#
# Total GULP energy -198325.067578 kJ/mol
# GULP energy per Si atom -12395.316724 kJ/mol
# Density = 2.061662 g / cm^3
# Si number density = 20.663654 Si / 1000 Ang^3
#
#
#
# Elastic Constant Matrix: (Units=GPa)
#
#
# Indices 1 2 3 4 5 6 
#
# 1 110.0865 36.0140 56.2372 0.0000 4.9745 0.0000
# 2 36.0140 58.9406 54.4650 0.0000 0.5050 0.0000
# 3 56.2372 54.4650 139.6168 0.0000 13.1981 0.0000
# 4 0.0000 0.0000 0.0000 42.1295 0.0000 8.0586
# 5 4.9745 0.5050 13.1981 0.0000 45.0251 0.0000
# 6 0.0000 0.0000 0.0000 8.0586 0.0000 8.6261
#
#
#
# Elastic Compliance Matrix: (Units=1/GPa)
#
#
# Indices 1 2 3 4 5 6 
#
# 1 0.012175 -0.004595 -0.003075 0.000000 -0.000392 0.000000
# 2 -0.004595 0.028615 -0.009596 0.000000 0.002999 0.000000
# 3 -0.003075 -0.009596 0.012447 0.000000 -0.003201 0.000000
# 4 0.000000 0.000000 0.000000 0.028901 0.000000 -0.027000
# 5 -0.000392 0.002999 -0.003201 0.000000 0.023158 0.000000
# 6 0.000000 0.000000 0.000000 -0.027000 0.000000 0.141151
#
#
# Mechanical properties :
#
#
# Convention : Reuss Voigt Hill
#
# Bulk Modulus (GPa) = 53.45585 66.89736 60.17661
# Shear Modulus (GPa) = 17.40872 29.95133 23.68002
#
# Velocity S-wave (km/s) = 2.90570 3.81132 3.38890
# Velocity P-wave (km/s) = 6.09780 7.19812 6.67068
#
# Compressibility (1/GPa) = 0.01870703
#
# Stress axis : x y z
#
# Youngs Moduli (GPa) = 82.13320 34.94669 80.34217
#
# Poissons Ratio (x) = 0.16058 0.24702
# Poissons Ratio (y) = 0.37739 0.77093
# Poissons Ratio (z) = 0.25253 0.33533
#
# Static dielectric constant tensor:
#      x y z
#    x 4.054330 0.000000 0.000710 
#    y 0.000000 3.692060 0.000000 
#    z 0.000710 0.000000 4.246840 
# 
# 
# High freq. dielectric constant tensor:
#      x y z
#    x 1.808650 0.000000 0.007590 
#    y 0.000000 1.794170 0.000000 
#    z 0.007590 0.000000 1.827200 
# 
# From -- ./inp_files/39420.got.cif
#   From: 2010.03.12/outbox.cif.g09.slc.cpg/sg5_20_cif.got.tgz:39420.got - 2010.03.31 09:47:26.
