data_PCOD8048866
_publ_section_title
;
Structure prediction by ZEFSAII (Michael W. Deem and Ramdas Pophale) SiO2 
 PCOD8048866
Probable space group: C 2
;
_chemical_formula_sum "Si O2"
_cell_formula_units_Z 20
_cell_length_a 7.701934
_cell_length_b 17.123062
_cell_length_c 9.068693
_cell_angle_alpha 90.000000
_cell_angle_beta 120.679854
_cell_angle_gamma 90.000000
_cell_volume 1028.585500
_symmetry_space_group_name_H-M "C 2"
_symmetry_group_IT_number 5
_symmetry_cell_setting 'monoclinic'
loop_
_space_group_symop_operation_xyz
x,y,z
-x,y,-z
1/2+x,1/2+y,z
1/2-x,1/2+y,-z
loop_
_atom_site_type_symbol
_atom_site_label
_atom_site_fract_x
_atom_site_fract_y
_atom_site_fract_z
Si Si1 0.500000 0.408340 0.500000
Si Si2 0.500000 0.731989 0.500000
Si Si3 0.417443 0.981434 0.628097
Si Si4 0.081828 0.656515 0.372157
Si Si5 0.677094 0.294621 0.811750
Si Si6 0.929912 0.327644 0.185821
O O1 0.680827 0.463649 0.529727
O O2 0.540901 0.355464 0.661700
O O3 0.318467 0.677793 0.477063
O O4 0.404681 0.787493 0.333193
O O5 0.500000 0.973477 0.500000
O O6 0.530406 0.920189 0.782330
O O7 0.450149 0.069000 0.703378
O O8 0.000000 0.664608 0.500000
O O9 0.945763 0.714638 0.216338
O O10 0.884762 0.283069 0.812320
O O11 0.728201 0.322662 0.999864
#
# Coordination Sequence:
#
# PCOD8048866 Si02
#       6
#     2   2   4   4   4   4
#     4  10  19  40  59  82 116 160 196 230 291 350
#     4  12  21  38  61  90 114 156 206 228 285 362
#     4  10  21  37  60  87 118 151 193 242 293 340
#     4  11  21  38  60  88 121 153 188 247 298 333
#     4  10  20  39  63  85 120 157 193 241 291 341
#     4  10  21  38  63  88 115 157 202 233 284 358
#
# _framework density 19.444179999999999
#
# number of rings (size 3 to 8) (size 9 to 14) (size 15 to 20)
#    0.000    1.600    4.000    1.800    0.000    0.800 
#    0.000   10.000    0.000    0.000    0.000    0.000 
#    0.000    0.000    0.000    0.000    0.000    0.000 
#
# Total GULP energy -123983.091131 kJ/mol
# GULP energy per Si atom -12398.309113 kJ/mol
# Density = 1.939992 g / cm^3
# Si number density = 19.444180 Si / 1000 Ang^3
#
#
#
# Elastic Constant Matrix: (Units=GPa)
#
#
# Indices 1 2 3 4 5 6 
#
# 1 100.6658 65.9307 37.6229 0.0000 7.5712 0.0000
# 2 65.9307 154.8796 68.4588 0.0000 16.2253 0.0000
# 3 37.6229 68.4588 141.6508 0.0000 4.9622 0.0000
# 4 0.0000 0.0000 0.0000 13.6439 0.0000 -11.1931
# 5 7.5712 16.2253 4.9622 0.0000 24.8918 0.0000
# 6 0.0000 0.0000 0.0000 -11.1931 0.0000 0.0052
#
#
#
# Elastic Compliance Matrix: (Units=1/GPa)
#
#
# Indices 1 2 3 4 5 6 
#
# 1 0.013904 -0.005394 -0.001068 0.000000 -0.000500 0.000000
# 2 -0.005394 0.010860 -0.003651 0.000000 -0.004710 0.000000
# 3 -0.001068 -0.003651 0.009076 0.000000 0.000895 0.000000
# 4 0.000000 0.000000 0.000000 -0.000041 0.000000 -0.089391
# 5 -0.000500 -0.004710 0.000895 0.000000 0.043218 0.000000
# 6 0.000000 0.000000 0.000000 -0.089391 0.000000 -0.108964
#
#
# Mechanical properties :
#
#
# Convention : Reuss Voigt Hill
#
# Bulk Modulus (GPa) = 73.45687 82.35788 77.90738
# Shear Modulus (GPa) = -696.12353 22.72043 -336.70155
#
# Velocity S-wave (km/s) = -18.94171 3.42203 -13.17342
# Velocity P-wave (km/s) = 20.98867 7.61983 13.82864
#
# Compressibility (1/GPa) = 0.01361343
#
# Stress axis : x y z
#
# Youngs Moduli (GPa) = 71.92414 92.08117 110.17485
#
# Poissons Ratio (x) = 0.49668 0.11772
# Poissons Ratio (y) = 0.38795 0.40224
# Poissons Ratio (z) = 0.07685 0.33618
#
# Static dielectric constant tensor:
#      x y z
#    x 3.617670 0.000000 0.070400 
#    y 0.000000 3.716470 0.000000 
#    z 0.070400 0.000000 3.539640 
# 
# 
# High freq. dielectric constant tensor:
#      x y z
#    x 1.767740 0.000000 0.003360 
#    y 0.000000 1.755000 0.000000 
#    z 0.003360 0.000000 1.743360 
# 
# From -- ./inp_files/15180.got.cif
#   From: 2010.03.12/outbox.cif.g09.slc.cpg/sg5_8_cif.got.tgz:15180.got - 2010.03.31 09:47:26.
