data_PCOD8048129
_publ_section_title
;
Structure prediction by ZEFSAII (Michael W. Deem and Ramdas Pophale) SiO2 
 PCOD8048129
Probable space group: C 2
;
_chemical_formula_sum "Si O2"
_cell_formula_units_Z 30
_cell_length_a 25.312478
_cell_length_b 7.756037
_cell_length_c 10.879771
_cell_angle_alpha 90.000000
_cell_angle_beta 41.723031
_cell_angle_gamma 90.000000
_cell_volume 1421.550209
_symmetry_space_group_name_H-M "C 2"
_symmetry_group_IT_number 5
_symmetry_cell_setting 'monoclinic'
loop_
_space_group_symop_operation_xyz
x,y,z
-x,y,-z
1/2+x,1/2+y,z
1/2-x,1/2+y,-z
loop_
_atom_site_type_symbol
_atom_site_label
_atom_site_fract_x
_atom_site_fract_y
_atom_site_fract_z
Si Si1 0.766495 0.232360 0.643856
Si Si2 0.668539 0.930777 0.735290
Si Si3 0.417062 0.940357 0.854180
Si Si4 0.828901 0.046873 0.240017
Si Si5 0.000000 0.091387 0.000000
Si Si6 0.325880 0.619050 0.962206
Si Si7 0.683246 0.240195 0.051643
Si Si8 0.930004 0.351198 0.303579
O O1 0.731324 0.391854 0.621561
O O2 0.727844 0.234776 0.844369
O O3 0.860439 0.254006 0.499731
O O4 0.746099 0.052356 0.609059
O O5 0.687759 0.729655 0.661201
O O6 0.607589 0.985048 0.731597
O O7 0.623169 0.940109 0.942271
O O8 0.392138 0.766217 0.823608
O O9 0.512596 0.952030 0.701468
O O10 0.390346 0.107952 0.823873
O O11 0.919854 0.982313 0.109622
O O12 0.813466 0.091943 0.126749
O O13 0.013375 0.209450 0.857615
O O14 0.241949 0.684442 0.057233
O O15 0.348912 0.433480 0.862924
#
# Coordination Sequence:
#
# PCOD8048129 Si02
#       8
#     4   4   4   4   2   4   4   4
#     4  10  23  35  54  88 112 138 193 223 278 324
#     4   9  19  36  55  77 111 149 181 219 273 333
#     4  10  18  36  55  80 111 141 188 228 271 331
#     4   9  19  37  56  80 107 148 184 229 269 334
#     4  10  18  36  58  76 112 152 182 214 284 324
#     4  10  17  33  59  80 104 142 190 227 270 329
#     4  10  20  34  58  87 100 145 189 232 269 327
#     4  11  19  36  57  82 114 151 173 232 279 328
#
# _framework density 21.103722000000001
#
# number of rings (size 3 to 8) (size 9 to 14) (size 15 to 20)
#    0.000    2.133    5.333    0.000    3.733    0.000 
#    7.200    2.000    0.000    0.000    6.933    0.000 
#    0.000    0.000    0.000    0.000    0.000    0.000 
#
# Total GULP energy -185905.466830 kJ/mol
# GULP energy per Si atom -12393.697789 kJ/mol
# Density = 2.105569 g / cm^3
# Si number density = 21.103722 Si / 1000 Ang^3
#
#
#
# Elastic Constant Matrix: (Units=GPa)
#
#
# Indices 1 2 3 4 5 6 
#
# 1 141.5559 57.6934 21.9894 0.0000 -41.1934 0.0000
# 2 57.6934 131.8600 32.8462 0.0000 -26.1153 -0.0001
# 3 21.9894 32.8462 53.0683 0.0000 -33.9788 0.0000
# 4 0.0000 0.0000 0.0000 25.8662 0.0000 -7.3381
# 5 -41.1934 -26.1153 -33.9788 0.0000 37.0945 0.0000
# 6 0.0000 -0.0001 0.0000 -7.3381 0.0000 30.1274
#
#
#
# Elastic Compliance Matrix: (Units=1/GPa)
#
#
# Indices 1 2 3 4 5 6 
#
# 1 0.013642 -0.004359 0.011561 0.000000 0.022671 0.000000
# 2 -0.004359 0.010496 -0.007396 0.000000 -0.004226 0.000000
# 3 0.011561 -0.007396 0.056874 0.000000 0.059728 0.000000
# 4 0.000000 0.000000 0.000000 0.041530 0.000000 0.010115
# 5 0.022671 -0.004226 0.059728 0.000000 0.103871 0.000000
# 6 0.000000 0.000000 0.000000 0.010115 0.000000 0.035656
#
#
# Mechanical properties :
#
#
# Convention : Reuss Voigt Hill
#
# Bulk Modulus (GPa) = 12.40314 61.28245 36.84280
# Shear Modulus (GPa) = 17.28112 32.88131 25.08121
#
# Velocity S-wave (km/s) = 2.86469 3.95154 3.45116
# Velocity P-wave (km/s) = 4.10267 7.06550 5.77725
#
# Compressibility (1/GPa) = 0.08062475
#
# Stress axis : x y z
#
# Youngs Moduli (GPa) = 73.30156 95.27097 17.58263
#
# Poissons Ratio (x) = 0.41526 -0.20327
# Poissons Ratio (y) = 0.31950 0.13004
# Poissons Ratio (z) = -0.84742 0.70464
#
# Static dielectric constant tensor:
#      x y z
#    x 4.019650 0.000000 -0.162720 
#    y 0.000000 4.375260 0.000000 
#    z -0.162720 0.000000 3.474200 
# 
# 
# High freq. dielectric constant tensor:
#      x y z
#    x 1.839450 0.000000 -0.005170 
#    y 0.000000 1.818700 0.000000 
#    z -0.005170 0.000000 1.798130 
# 
# From -- ./inp_files/47306.got.cif
#   From: 2010.03.12/outbox.cif.g09.slc.cpg/sg5_24_cif.got.tgz:47306.got - 2010.03.31 09:47:26.
