data_PCOD8048421
_publ_section_title
;
Structure prediction by ZEFSAII (Michael W. Deem and Ramdas Pophale) SiO2 
 PCOD8048421
Probable space group: C 2
;
_chemical_formula_sum "Si O2"
_cell_formula_units_Z 26
_cell_length_a 19.695320
_cell_length_b 13.360988
_cell_length_c 5.062491
_cell_angle_alpha 90.000000
_cell_angle_beta 115.258912
_cell_angle_gamma 90.000000
_cell_volume 1204.816891
_symmetry_space_group_name_H-M "C 2"
_symmetry_group_IT_number 5
_symmetry_cell_setting 'monoclinic'
loop_
_space_group_symop_operation_xyz
x,y,z
-x,y,-z
1/2+x,1/2+y,z
1/2-x,1/2+y,-z
loop_
_atom_site_type_symbol
_atom_site_label
_atom_site_fract_x
_atom_site_fract_y
_atom_site_fract_z
Si Si1 0.635188 0.012070 0.350259
Si Si2 0.587689 0.232899 0.208797
Si Si3 0.693264 0.904705 0.925748
Si Si4 0.000000 0.402866 0.000000
Si Si5 0.139320 0.846799 0.799426
Si Si6 0.449140 0.536135 0.166191
Si Si7 0.923750 0.251359 0.209996
O O1 0.629888 0.131536 0.358962
O O2 0.693864 0.974210 0.666696
O O3 0.550002 0.972807 0.276924
O O4 0.660754 0.974460 0.104609
O O5 0.595108 0.312028 0.462656
O O6 0.500000 0.218034 0.000000
O O7 0.630943 0.266613 0.017380
O O8 0.647866 0.802344 0.768091
O O9 0.775338 0.866609 0.139441
O O10 0.935728 0.331616 0.002708
O O11 0.108485 0.949482 0.869056
O O12 0.500000 0.554208 0.500000
O O13 0.405297 0.642184 0.054531
O O14 0.500000 0.508064 0.000000
O O15 0.000000 0.248616 0.500000
#
# Coordination Sequence:
#
# PCOD8048421 Si02
#       7
#     4   4   4   2   4   4   4
#     4  11  23  41  69  99 134 167 231 272 346 391
#     4  12  25  45  72 100 131 184 234 284 326 401
#     4  11  25  42  66 100 138 179 208 285 345 411
#     4  10  18  38  62  98 126 160 210 290 328 388
#     4  12  26  45  64  96 145 180 225 270 341 408
#     4  11  23  40  66  92 120 171 222 274 319 386
#     4  10  20  37  65  94 125 162 223 272 336 385
#
# _framework density 21.580044000000001
#
# number of rings (size 3 to 8) (size 9 to 14) (size 15 to 20)
#    0.000    0.923    3.077    4.615    0.000    2.462 
#    0.000    1.538    0.000    0.000    0.000    0.000 
#    0.000    0.000    0.000    0.000    0.000    0.000 
#
# Total GULP energy -161105.581793 kJ/mol
# GULP energy per Si atom -12392.737061 kJ/mol
# Density = 2.153093 g / cm^3
# Si number density = 21.580044 Si / 1000 Ang^3
#
#
#
# Elastic Constant Matrix: (Units=GPa)
#
#
# Indices 1 2 3 4 5 6 
#
# 1 92.5385 50.1211 28.4420 0.0000 4.9288 0.0000
# 2 50.1211 125.4552 26.7060 0.0000 6.5804 0.0000
# 3 28.4420 26.7060 99.3899 0.0000 -8.1064 0.0000
# 4 0.0000 0.0000 0.0000 -24.1931 0.0000 -31.4538
# 5 4.9288 6.5804 -8.1064 0.0000 35.0163 0.0000
# 6 0.0000 0.0000 0.0000 -31.4538 0.0000 13.5390
#
#
#
# Elastic Compliance Matrix: (Units=1/GPa)
#
#
# Indices 1 2 3 4 5 6 
#
# 1 0.014568 -0.005101 -0.002943 0.000000 -0.001773 0.000000
# 2 -0.005101 0.010403 -0.001464 0.000000 -0.001576 0.000000
# 3 -0.002943 -0.001464 0.011572 0.000000 0.003368 0.000000
# 4 0.000000 0.000000 0.000000 -0.010281 0.000000 -0.023885
# 5 -0.001773 -0.001576 0.003368 0.000000 0.029884 0.000000
# 6 0.000000 0.000000 0.000000 -0.023885 0.000000 0.018371
#
#
# Mechanical properties :
#
#
# Convention : Reuss Voigt Hill
#
# Bulk Modulus (GPa) = 57.05429 58.65799 57.85614
# Shear Modulus (GPa) = 50.31462 19.01339 34.66401
#
# Velocity S-wave (km/s) = 4.83384 2.97149 4.01221
# Velocity P-wave (km/s) = 7.59279 6.24609 6.95213
#
# Compressibility (1/GPa) = 0.01752716
#
# Stress axis : x y z
#
# Youngs Moduli (GPa) = 68.64417 96.12531 86.41756
#
# Poissons Ratio (x) = 0.49029 0.25432
# Poissons Ratio (y) = 0.35012 0.12654
# Poissons Ratio (z) = 0.20202 0.14075
#
# Static dielectric constant tensor:
#      x y z
#    x 6.760020 0.000000 -0.067930 
#    y 0.000000 4.383060 0.000000 
#    z -0.067930 0.000000 3.740430 
# 
# 
# High freq. dielectric constant tensor:
#      x y z
#    x 1.836070 0.000000 -0.004900 
#    y 0.000000 1.867960 0.000000 
#    z -0.004900 0.000000 1.841520 
# 
# From -- ./inp_files/9626.got.cif
#   From: 2010.03.12/outbox.cif.g09.slc.cpg/sg5_5_cif.got.tgz:9626.got - 2010.03.31 09:47:26.
