data_PCOD8048455
_publ_section_title
;
Structure prediction by ZEFSAII (Michael W. Deem and Ramdas Pophale) SiO2 
 PCOD8048455
Probable space group: C 2
;
_chemical_formula_sum "Si O2"
_cell_formula_units_Z 26
_cell_length_a 14.132083
_cell_length_b 13.195330
_cell_length_c 8.054881
_cell_angle_alpha 90.000000
_cell_angle_beta 124.908259
_cell_angle_gamma 90.000000
_cell_volume 1231.788565
_symmetry_space_group_name_H-M "C 2"
_symmetry_group_IT_number 5
_symmetry_cell_setting 'monoclinic'
loop_
_space_group_symop_operation_xyz
x,y,z
-x,y,-z
1/2+x,1/2+y,z
1/2-x,1/2+y,-z
loop_
_atom_site_type_symbol
_atom_site_label
_atom_site_fract_x
_atom_site_fract_y
_atom_site_fract_z
Si Si1 0.878504 0.056660 0.939677
Si Si2 0.243091 0.851447 0.696601
Si Si3 0.000000 0.358716 0.500000
Si Si4 0.351330 0.752071 0.092882
Si Si5 0.066583 0.705002 0.394439
Si Si6 0.324479 0.002138 0.504338
Si Si7 0.621839 0.345407 0.897677
O O1 0.780516 0.053732 0.700822
O O2 0.842618 0.131034 0.054789
O O3 0.000000 0.101956 0.000000
O O4 0.903355 0.943370 0.021448
O O5 0.189103 0.762549 0.530191
O O6 0.279468 0.946440 0.623045
O O7 0.142092 0.882131 0.726637
O O8 0.352089 0.807579 0.911668
O O9 0.961901 0.286431 0.309640
O O10 0.893285 0.426850 0.452105
O O11 0.235596 0.785570 0.076031
O O12 0.091843 0.592603 0.349591
O O13 0.000000 0.690687 0.500000
O O14 0.986282 0.769651 0.190086
#
# Coordination Sequence:
#
# PCOD8048455 Si02
#       7
#     4   4   2   4   4   4   4
#     4  12  24  44  69  99 140 183 220 279 350 405
#     4   9  21  40  68  94 137 167 229 279 334 399
#     4  12  26  42  72  96 138 182 242 282 326 416
#     4  10  24  44  65  95 139 182 222 284 339 395
#     4  10  18  39  70  94 131 180 216 274 338 401
#     4  12  22  41  72 102 127 187 226 276 348 408
#     4   9  21  44  65  96 134 181 226 276 333 409
#
# _framework density 21.107519
#
# number of rings (size 3 to 8) (size 9 to 14) (size 15 to 20)
#    0.923    0.615    3.846    0.923    2.154    0.000 
#    9.692    0.000    3.385    0.000    0.000    0.000 
#    0.000    0.000    0.000    0.000    0.000    0.000 
#
# Total GULP energy -161123.154728 kJ/mol
# GULP energy per Si atom -12394.088825 kJ/mol
# Density = 2.105948 g / cm^3
# Si number density = 21.107519 Si / 1000 Ang^3
#
#
#
# Elastic Constant Matrix: (Units=GPa)
#
#
# Indices 1 2 3 4 5 6 
#
# 1 67.6929 38.6963 31.6527 0.0000 11.8733 0.0000
# 2 38.6963 144.6770 56.0870 0.0000 10.7576 0.0000
# 3 31.6527 56.0870 101.3509 0.0000 26.8892 0.0000
# 4 0.0000 0.0000 0.0000 40.8650 0.0000 -0.4393
# 5 11.8733 10.7576 26.8892 0.0000 23.5254 0.0000
# 6 0.0000 0.0000 0.0000 -0.4393 0.0000 45.0717
#
#
#
# Elastic Compliance Matrix: (Units=1/GPa)
#
#
# Indices 1 2 3 4 5 6 
#
# 1 0.018957 -0.003713 -0.002552 0.000000 -0.004953 0.000000
# 2 -0.003713 0.009608 -0.005008 0.000000 0.003204 0.000000
# 3 -0.002552 -0.005008 0.017920 0.000000 -0.016904 0.000000
# 4 0.000000 0.000000 0.000000 0.024473 0.000000 0.000239
# 5 -0.004953 0.003204 -0.016904 0.000000 0.062864 0.000000
# 6 0.000000 0.000000 0.000000 0.000239 0.000000 0.022189
#
#
# Mechanical properties :
#
#
# Convention : Reuss Voigt Hill
#
# Bulk Modulus (GPa) = 41.76979 62.95475 52.36227
# Shear Modulus (GPa) = 26.80465 34.37807 30.59136
#
# Velocity S-wave (km/s) = 3.56745 4.04011 3.81111
# Velocity P-wave (km/s) = 6.06638 7.18706 6.65037
#
# Compressibility (1/GPa) = 0.02394075
#
# Stress axis : x y z
#
# Youngs Moduli (GPa) = 52.75105 104.07935 55.80500
#
# Poissons Ratio (x) = 0.38643 0.14239
# Poissons Ratio (y) = 0.19586 0.27944
# Poissons Ratio (z) = 0.13460 0.52118
#
# Static dielectric constant tensor:
#      x y z
#    x 3.626750 0.000000 0.204950 
#    y 0.000000 3.743370 0.000000 
#    z 0.204950 0.000000 3.637650 
# 
# 
# High freq. dielectric constant tensor:
#      x y z
#    x 1.813820 0.000000 0.018520 
#    y 0.000000 1.830720 0.000000 
#    z 0.018520 0.000000 1.812200 
# 
# From -- ./inp_files/23714.got.cif
#   From: 2010.03.12/outbox.cif.g09.slc.cpg/sg5_12_cif.got.tgz:23714.got - 2010.03.31 09:47:26.
