data_PCOD8048592
_publ_section_title
;
Structure prediction by ZEFSAII (Michael W. Deem and Ramdas Pophale) SiO2 
 PCOD8048592
Probable space group: C 2
;
_chemical_formula_sum "Si O2"
_cell_formula_units_Z 32
_cell_length_a 11.860939
_cell_length_b 18.903719
_cell_length_c 9.434807
_cell_angle_alpha 90.000000
_cell_angle_beta 129.879441
_cell_angle_gamma 90.000000
_cell_volume 1623.373541
_symmetry_space_group_name_H-M "C 2"
_symmetry_group_IT_number 5
_symmetry_cell_setting 'monoclinic'
loop_
_space_group_symop_operation_xyz
x,y,z
-x,y,-z
1/2+x,1/2+y,z
1/2-x,1/2+y,-z
loop_
_atom_site_type_symbol
_atom_site_label
_atom_site_fract_x
_atom_site_fract_y
_atom_site_fract_z
Si Si1 0.796066 0.529540 0.587118
Si Si2 0.172520 0.446787 0.118020
Si Si3 0.092855 0.222525 0.250510
Si Si4 0.131495 0.706312 0.009104
Si Si5 0.788347 0.288855 0.910879
Si Si6 0.361712 0.565658 0.810273
Si Si7 0.341471 0.667591 0.410304
Si Si8 0.876320 0.559333 0.143609
O O1 0.757471 0.470615 0.674607
O O2 0.694039 0.517759 0.366451
O O3 0.768791 0.606794 0.630109
O O4 0.967741 0.526837 0.680750
O O5 0.235723 0.372585 0.116608
O O6 0.209100 0.504311 0.026785
O O7 0.000000 0.440447 0.000000
O O8 0.219129 0.257258 0.254248
O O9 0.074427 0.140044 0.195209
O O10 0.142561 0.227136 0.453893
O O11 0.942864 0.265555 0.105289
O O12 0.280007 0.705434 0.221192
O O13 0.154732 0.759108 0.896431
O O14 0.091188 0.629135 0.919989
O O15 0.000000 0.735496 0.000000
O O16 0.224937 0.577602 0.804493
O O17 0.500000 0.527765 0.000000
O O18 0.500000 0.634743 0.500000
#
# Coordination Sequence:
#
# PCOD8048592 Si02
#       8
#     4   4   4   4   4   4   4   4
#     4  10  22  36  57  93 125 159 205 257 316 374
#     4  10  20  37  63  87 124 164 207 257 313 382
#     4  10  19  34  58  92 117 153 205 257 308 352
#     4  12  21  38  61  94 127 165 206 265 322 373
#     4  11  20  38  62  91 122 160 212 262 310 373
#     4  11  21  36  61  95 122 154 207 265 314 367
#     4  11  21  34  59  92 128 154 208 261 309 370
#     4  11  20  38  59  93 124 162 207 257 320 370
#
# _framework density 19.712036999999999
#
# number of rings (size 3 to 8) (size 9 to 14) (size 15 to 20)
#    0.000    1.250    7.500    0.750    1.750    0.000 
#    0.000    2.500    5.500    3.000    0.000    0.000 
#    0.000    0.000    0.000    0.000    0.000    0.000 
#
# Total GULP energy -198386.369365 kJ/mol
# GULP energy per Si atom -12399.148085 kJ/mol
# Density = 1.966717 g / cm^3
# Si number density = 19.712037 Si / 1000 Ang^3
#
#
#
# Elastic Constant Matrix: (Units=GPa)
#
#
# Indices 1 2 3 4 5 6 
#
# 1 94.0381 27.2775 25.7887 0.0000 -5.9115 0.0000
# 2 27.2775 95.4821 34.9420 0.0000 -10.2039 0.0000
# 3 25.7887 34.9420 125.1251 0.0000 -7.0907 0.0000
# 4 0.0000 0.0000 0.0000 23.1845 0.0000 -5.1165
# 5 -5.9115 -10.2039 -7.0907 0.0000 28.0397 0.0000
# 6 0.0000 0.0000 0.0000 -5.1165 0.0000 22.2225
#
#
#
# Elastic Compliance Matrix: (Units=1/GPa)
#
#
# Indices 1 2 3 4 5 6 
#
# 1 0.011935 -0.002688 -0.001646 0.000000 0.001122 0.000000
# 2 -0.002688 0.012613 -0.002780 0.000000 0.003320 0.000000
# 3 -0.001646 -0.002780 0.009162 0.000000 0.000958 0.000000
# 4 0.000000 0.000000 0.000000 0.045441 0.000000 0.010462
# 5 0.001122 0.003320 0.000958 0.000000 0.037351 0.000000
# 6 0.000000 0.000000 0.000000 0.010462 0.000000 0.047408
#
#
# Mechanical properties :
#
#
# Convention : Reuss Voigt Hill
#
# Bulk Modulus (GPa) = 51.32590 54.51798 52.92194
# Shear Modulus (GPa) = 27.08083 29.79849 28.43966
#
# Velocity S-wave (km/s) = 3.71053 3.89226 3.80248
# Velocity P-wave (km/s) = 6.66722 6.92220 6.79590
#
# Compressibility (1/GPa) = 0.01948334
#
# Stress axis : x y z
#
# Youngs Moduli (GPa) = 83.78414 79.28186 109.14749
#
# Poissons Ratio (x) = 0.21307 0.17964
# Poissons Ratio (y) = 0.22517 0.30346
# Poissons Ratio (z) = 0.13789 0.22042
#
# Static dielectric constant tensor:
#      x y z
#    x 3.605070 0.000000 -0.269100 
#    y 0.000000 3.330290 0.000000 
#    z -0.269100 0.000000 3.822200 
# 
# 
# High freq. dielectric constant tensor:
#      x y z
#    x 1.773840 0.000000 -0.016770 
#    y 0.000000 1.725700 0.000000 
#    z -0.016770 0.000000 1.768010 
# 
# From -- ./inp_files/21949.got.cif
#   From: 2010.03.12/outbox.cif.g09.slc.cpg/sg5_11_cif.got.tgz:21949.got - 2010.03.31 09:47:26.
