data_PCOD8048440
_publ_section_title
;
Structure prediction by ZEFSAII (Michael W. Deem and Ramdas Pophale) SiO2 
 PCOD8048440
Probable space group: C 2
;
_chemical_formula_sum "Si O2"
_cell_formula_units_Z 22
_cell_length_a 21.016287
_cell_length_b 8.394873
_cell_length_c 5.784426
_cell_angle_alpha 90.000000
_cell_angle_beta 71.764842
_cell_angle_gamma 90.000000
_cell_volume 969.289504
_symmetry_space_group_name_H-M "C 2"
_symmetry_group_IT_number 5
_symmetry_cell_setting 'monoclinic'
loop_
_space_group_symop_operation_xyz
x,y,z
-x,y,-z
1/2+x,1/2+y,z
1/2-x,1/2+y,-z
loop_
_atom_site_type_symbol
_atom_site_label
_atom_site_fract_x
_atom_site_fract_y
_atom_site_fract_z
Si Si1 0.291419 0.497880 0.815145
Si Si2 0.000000 0.956355 0.500000
Si Si3 0.887937 0.920295 0.322276
Si Si4 0.163614 0.689913 0.986032
Si Si5 0.404748 0.656226 0.917651
Si Si6 0.037463 0.500765 0.204019
O O1 0.327240 0.502439 0.527868
O O2 0.213495 0.543061 0.878950
O O3 0.326408 0.627142 0.945476
O O4 0.299465 0.318375 0.897283
O O5 0.945963 0.069649 0.674311
O O6 0.953228 0.849221 0.385921
O O7 0.856928 0.770243 0.229943
O O8 0.919659 0.065580 0.139681
O O9 0.095191 0.631444 0.184805
O O10 0.424648 0.838448 0.905184
O O11 0.000000 0.487979 0.500000
O O12 0.000000 0.542658 0.000000
#
# Coordination Sequence:
#
# PCOD8048440 Si02
#       6
#     4   2   4   4   4   4
#     4  10  24  46  73  98 139 183 239 302 362 427
#     4  10  18  38  68  98 144 176 230 286 346 430
#     4  10  23  40  69 106 133 186 236 293 358 430
#     4  11  26  47  68 103 139 185 240 299 361 431
#     4  10  21  43  69 105 136 185 237 286 356 432
#     4  12  28  47  72 107 151 192 240 298 362 429
#
# _framework density 22.697036000000001
#
# number of rings (size 3 to 8) (size 9 to 14) (size 15 to 20)
#    0.000    1.455    0.909    2.727    5.091    8.727 
#    6.545    0.000    0.000    0.000    0.000    0.000 
#    0.000    0.000    0.000    0.000    0.000    0.000 
#
# Total GULP energy -136274.075911 kJ/mol
# GULP energy per Si atom -12388.552356 kJ/mol
# Density = 2.264538 g / cm^3
# Si number density = 22.697036 Si / 1000 Ang^3
#
#
#
# Elastic Constant Matrix: (Units=GPa)
#
#
# Indices 1 2 3 4 5 6 
#
# 1 135.5355 64.0416 60.8113 0.0000 -4.3349 0.0000
# 2 64.0416 109.3286 34.0775 0.0000 3.3688 0.0000
# 3 60.8113 34.0775 120.4155 0.0000 2.8458 0.0000
# 4 0.0000 0.0000 0.0000 65.9934 0.0000 -17.1824
# 5 -4.3349 3.3688 2.8458 0.0000 32.3323 0.0000
# 6 0.0000 0.0000 0.0000 -17.1824 0.0000 27.4229
#
#
#
# Elastic Compliance Matrix: (Units=1/GPa)
#
#
# Indices 1 2 3 4 5 6 
#
# 1 0.012298 -0.005846 -0.004619 0.000000 0.002665 0.000000
# 2 -0.005846 0.012831 -0.000630 0.000000 -0.002065 0.000000
# 3 -0.004619 -0.000630 0.010851 0.000000 -0.001509 0.000000
# 4 0.000000 0.000000 0.000000 0.018107 0.000000 0.011345
# 5 0.002665 -0.002065 -0.001509 0.000000 0.031634 0.000000
# 6 0.000000 0.000000 0.000000 0.011345 0.000000 0.043575
#
#
# Mechanical properties :
#
#
# Convention : Reuss Voigt Hill
#
# Bulk Modulus (GPa) = 72.51719 75.90447 74.21083
# Shear Modulus (GPa) = 32.03397 38.90633 35.47015
#
# Velocity S-wave (km/s) = 3.76090 4.14473 3.95747
# Velocity P-wave (km/s) = 7.13292 7.51133 7.32457
#
# Compressibility (1/GPa) = 0.01378983
#
# Stress axis : x y z
#
# Youngs Moduli (GPa) = 81.31178 77.93420 92.15469
#
# Poissons Ratio (x) = 0.45563 0.42569
# Poissons Ratio (y) = 0.47537 0.05806
# Poissons Ratio (z) = 0.37560 0.04910
#
# Static dielectric constant tensor:
#      x y z
#    x 2.678220 0.000000 0.374750 
#    y 0.000000 3.972760 0.000000 
#    z 0.374750 0.000000 4.210980 
# 
# 
# High freq. dielectric constant tensor:
#      x y z
#    x 1.907130 0.000000 -0.001570 
#    y 0.000000 1.889570 0.000000 
#    z -0.001570 0.000000 1.901830 
# 
# From -- ./inp_files/9234.got.cif
#   From: 2010.03.12/outbox.cif.g09.slc.cpg/sg5_5_cif.got.tgz:9234.got - 2010.03.31 09:47:26.
