data_PCOD8048709
_publ_section_title
;
Structure prediction by ZEFSAII (Michael W. Deem and Ramdas Pophale) SiO2 
 PCOD8048709
Probable space group: C 2
;
_chemical_formula_sum "Si O2"
_cell_formula_units_Z 26
_cell_length_a 18.943120
_cell_length_b 13.071598
_cell_length_c 6.594978
_cell_angle_alpha 90.000000
_cell_angle_beta 125.436295
_cell_angle_gamma 90.000000
_cell_volume 1330.526733
_symmetry_space_group_name_H-M "C 2"
_symmetry_group_IT_number 5
_symmetry_cell_setting 'monoclinic'
loop_
_space_group_symop_operation_xyz
x,y,z
-x,y,-z
1/2+x,1/2+y,z
1/2-x,1/2+y,-z
loop_
_atom_site_type_symbol
_atom_site_label
_atom_site_fract_x
_atom_site_fract_y
_atom_site_fract_z
Si Si1 0.911763 0.220570 0.435308
Si Si2 0.572343 0.540563 0.268767
Si Si3 0.693591 0.856598 0.435291
Si Si4 0.500000 0.345449 0.000000
Si Si5 0.741147 0.734450 0.130410
Si Si6 0.335827 0.254761 0.898712
Si Si7 0.229719 0.578794 0.488955
O O1 0.934511 0.103992 0.535525
O O2 0.879194 0.288035 0.573380
O O3 0.000000 0.272696 0.500000
O O4 0.841217 0.208333 0.143595
O O5 0.669548 0.551849 0.351697
O O6 0.500000 0.591414 0.000000
O O7 0.549535 0.418893 0.246884
O O8 0.709130 0.822724 0.229356
O O9 0.783497 0.846117 0.705148
O O10 0.670263 0.976929 0.396171
O O11 0.436502 0.270574 0.017307
O O12 0.781465 0.639909 0.320840
O O13 0.820016 0.765878 0.113338
O O14 0.300312 0.146288 0.753736
#
# Coordination Sequence:
#
# PCOD8048709 Si02
#       7
#     4   4   4   2   4   4   4
#     4  11  22  37  58  93 122 153 204 258 309 356
#     4  10  19  36  65  89 122 157 196 265 307 353
#     4  10  21  39  57  84 121 165 204 248 303 368
#     4  10  22  40  62  92 128 158 202 264 310 358
#     4  10  21  38  63  86 122 162 203 254 304 371
#     4  10  21  39  60  87 124 164 206 250 310 369
#     4  11  20  41  62  87 125 165 205 249 313 369
#
# _framework density 19.541135000000001
#
# number of rings (size 3 to 8) (size 9 to 14) (size 15 to 20)
#    0.462    1.231    6.154    0.923    0.000    2.462 
#    2.769    6.154    0.000    0.000    0.000    0.000 
#    0.000    0.000    0.000    0.000    0.000    0.000 
#
# Total GULP energy -161073.671567 kJ/mol
# GULP energy per Si atom -12390.282428 kJ/mol
# Density = 1.949666 g / cm^3
# Si number density = 19.541135 Si / 1000 Ang^3
#
#
#
# Elastic Constant Matrix: (Units=GPa)
#
#
# Indices 1 2 3 4 5 6 
#
# 1 152.0079 34.9381 44.5496 0.0000 -8.4775 0.0000
# 2 34.9381 116.0611 38.0638 0.0000 -10.4602 0.0000
# 3 44.5496 38.0638 81.3609 0.0000 -24.1814 0.0000
# 4 0.0000 0.0000 0.0000 13.2872 0.0000 8.5296
# 5 -8.4775 -10.4602 -24.1814 0.0000 31.1162 0.0000
# 6 0.0000 0.0000 0.0000 8.5296 0.0000 22.8979
#
#
#
# Elastic Compliance Matrix: (Units=1/GPa)
#
#
# Indices 1 2 3 4 5 6 
#
# 1 0.008020 -0.001137 -0.004322 0.000000 -0.001556 0.000000
# 2 -0.001137 0.010342 -0.004258 0.000000 -0.000142 0.000000
# 3 -0.004322 -0.004258 0.020642 0.000000 0.013432 0.000000
# 4 0.000000 0.000000 0.000000 0.098914 0.000000 -0.036846
# 5 -0.001556 -0.000142 0.013432 0.000000 0.042105 0.000000
# 6 0.000000 0.000000 0.000000 -0.036846 0.000000 0.057398
#
#
# Mechanical properties :
#
#
# Convention : Reuss Voigt Hill
#
# Bulk Modulus (GPa) = 51.09915 64.94809 58.02362
# Shear Modulus (GPa) = 18.98421 28.91881 23.95151
#
# Velocity S-wave (km/s) = 3.12027 3.85111 3.50479
# Velocity P-wave (km/s) = 6.26001 7.28584 6.79232
#
# Compressibility (1/GPa) = 0.01956980
#
# Stress axis : x y z
#
# Youngs Moduli (GPa) = 124.69188 96.69188 48.44563
#
# Poissons Ratio (x) = 0.10994 0.20937
# Poissons Ratio (y) = 0.14178 0.20629
# Poissons Ratio (z) = 0.53888 0.41173
#
# Static dielectric constant tensor:
#      x y z
#    x 3.616430 0.000000 -0.063330 
#    y 0.000000 3.529360 0.000000 
#    z -0.063330 0.000000 3.439560 
# 
# 
# High freq. dielectric constant tensor:
#      x y z
#    x 1.762170 0.000000 -0.005750 
#    y 0.000000 1.748600 0.000000 
#    z -0.005750 0.000000 1.747650 
# 
# From -- ./inp_files/8584.got.cif
#   From: 2010.03.12/outbox.cif.g09.slc.cpg/sg5_5_cif.got.tgz:8584.got - 2010.03.31 09:47:26.
