data_PCOD8048596
_publ_section_title
;
Structure prediction by ZEFSAII (Michael W. Deem and Ramdas Pophale) SiO2 
 PCOD8048596
Probable space group: C 2
;
_chemical_formula_sum "Si O2"
_cell_formula_units_Z 24
_cell_length_a 15.532313
_cell_length_b 10.168620
_cell_length_c 7.849288
_cell_angle_alpha 90.000000
_cell_angle_beta 87.573205
_cell_angle_gamma 90.000000
_cell_volume 1238.621855
_symmetry_space_group_name_H-M "C 2"
_symmetry_group_IT_number 5
_symmetry_cell_setting 'monoclinic'
loop_
_space_group_symop_operation_xyz
x,y,z
-x,y,-z
1/2+x,1/2+y,z
1/2-x,1/2+y,-z
loop_
_atom_site_type_symbol
_atom_site_label
_atom_site_fract_x
_atom_site_fract_y
_atom_site_fract_z
Si Si1 0.500000 0.414150 0.500000
Si Si2 0.323387 0.488897 0.366104
Si Si3 0.166066 0.231811 0.862224
Si Si4 0.092933 0.885389 0.173223
Si Si5 0.686632 0.249063 0.883208
Si Si6 0.500000 0.609738 0.000000
Si Si7 0.772956 0.481651 0.287203
O O1 0.420556 0.502634 0.434321
O O2 0.544832 0.324673 0.345599
O O3 0.299798 0.602496 0.235685
O O4 0.314010 0.350175 0.272599
O O5 0.249894 0.504879 0.514545
O O6 0.164592 0.356065 0.735232
O O7 0.068885 0.209579 0.922362
O O8 0.223864 0.258708 0.023332
O O9 0.186839 0.943841 0.194404
O O10 0.104663 0.780453 0.017192
O O11 0.035683 0.012765 0.140627
O O12 0.678271 0.105262 0.801070
#
# Coordination Sequence:
#
# PCOD8048596 Si02
#       7
#     2   4   4   4   4   2   4
#     4  10  20  36  60 100 114 156 212 262 290 350
#     4  11  21  37  64  90 125 162 209 254 298 373
#     4  11  21  37  61  90 121 164 211 248 303 365
#     4  10  19  34  60  87 122 159 206 248 295 364
#     4  11  20  38  60  90 125 166 206 249 304 374
#     4  12  18  38  60  88 116 164 208 246 288 370
#     4  10  22  36  56  93 126 157 200 255 314 354
#
# _framework density 19.376373999999998
#
# number of rings (size 3 to 8) (size 9 to 14) (size 15 to 20)
#    0.000    1.333    5.000    2.000    0.000    0.000 
#    0.000    2.500    0.000    1.000    0.000    0.000 
#    0.000    0.000    0.000    0.000    0.000    0.000 
#
# Total GULP energy -148701.190810 kJ/mol
# GULP energy per Si atom -12391.765901 kJ/mol
# Density = 1.933227 g / cm^3
# Si number density = 19.376374 Si / 1000 Ang^3
#
#
#
# Elastic Constant Matrix: (Units=GPa)
#
#
# Indices 1 2 3 4 5 6 
#
# 1 86.4465 39.6602 47.1282 0.0000 -18.4469 0.0000
# 2 39.6602 99.3027 32.2248 0.0000 -13.3380 0.0000
# 3 47.1282 32.2248 112.3199 0.0000 -26.3077 0.0000
# 4 0.0000 0.0000 0.0000 22.5139 0.0000 -7.5195
# 5 -18.4469 -13.3380 -26.3077 0.0000 39.6728 0.0000
# 6 0.0000 0.0000 0.0000 -7.5195 0.0000 29.8305
#
#
#
# Elastic Compliance Matrix: (Units=1/GPa)
#
#
# Indices 1 2 3 4 5 6 
#
# 1 0.017213 -0.004805 -0.005147 0.000000 0.002975 0.000000
# 2 -0.004805 0.012570 -0.001330 0.000000 0.001110 0.000000
# 3 -0.005147 -0.001330 0.012761 0.000000 0.005622 0.000000
# 4 0.000000 0.000000 0.000000 0.048500 0.000000 0.012226
# 5 0.002975 0.001110 0.005622 0.000000 0.030690 0.000000
# 6 0.000000 0.000000 0.000000 0.012226 0.000000 0.036605
#
#
# Mechanical properties :
#
#
# Convention : Reuss Voigt Hill
#
# Bulk Modulus (GPa) = 50.05065 59.56616 54.80840
# Shear Modulus (GPa) = 26.65755 30.34049 28.49902
#
# Velocity S-wave (km/s) = 3.71317 3.96137 3.83928
# Velocity P-wave (km/s) = 6.65360 7.19248 6.92828
#
# Compressibility (1/GPa) = 0.01997976
#
# Stress axis : x y z
#
# Youngs Moduli (GPa) = 58.09515 79.55461 78.36265
#
# Poissons Ratio (x) = 0.38224 0.40334
# Poissons Ratio (y) = 0.27914 0.10425
# Poissons Ratio (z) = 0.29902 0.10584
#
# Static dielectric constant tensor:
#      x y z
#    x 3.715720 0.000000 -0.298240 
#    y 0.000000 3.459300 0.000000 
#    z -0.298240 0.000000 4.086020 
# 
# 
# High freq. dielectric constant tensor:
#      x y z
#    x 1.743320 0.000000 -0.009320 
#    y 0.000000 1.727930 0.000000 
#    z -0.009320 0.000000 1.777460 
# 
# From -- ./inp_files/22807.got.cif
#   From: 2010.03.12/outbox.cif.g09.slc.cpg/sg5_12_cif.got.tgz:22807.got - 2010.03.31 09:47:26.
