data_PCOD8048467
_publ_section_title
;
Structure prediction by ZEFSAII (Michael W. Deem and Ramdas Pophale) SiO2 
 PCOD8048467
Probable space group: C 2
;
_chemical_formula_sum "Si O2"
_cell_formula_units_Z 20
_cell_length_a 14.495106
_cell_length_b 14.328541
_cell_length_c 8.537898
_cell_angle_alpha 90.000000
_cell_angle_beta 34.415566
_cell_angle_gamma 90.000000
_cell_volume 1002.235264
_symmetry_space_group_name_H-M "C 2"
_symmetry_group_IT_number 5
_symmetry_cell_setting 'monoclinic'
loop_
_space_group_symop_operation_xyz
x,y,z
-x,y,-z
1/2+x,1/2+y,z
1/2-x,1/2+y,-z
loop_
_atom_site_type_symbol
_atom_site_label
_atom_site_fract_x
_atom_site_fract_y
_atom_site_fract_z
Si Si1 0.848049 0.524980 0.413450
Si Si2 0.500000 0.100136 0.500000
Si Si3 0.561902 0.324512 0.154871
Si Si4 0.000000 0.675328 0.000000
Si Si5 0.000000 0.362988 0.000000
Si Si6 0.720458 0.271768 0.224388
Si Si7 0.000000 0.978179 0.000000
O O1 0.975044 0.535579 0.381532
O O2 0.659424 0.536277 0.728541
O O3 0.866170 0.611372 0.271014
O O4 0.886310 0.427847 0.270329
O O5 0.663381 0.165710 0.262607
O O6 0.702011 0.331067 0.090148
O O7 0.389958 0.310158 0.480648
O O8 0.561841 0.419608 0.060922
O O9 0.596779 0.238835 0.988564
O O10 0.097070 0.289954 0.973708
#
# Coordination Sequence:
#
# PCOD8048467 Si02
#       7
#     4   2   4   2   2   4   2
#     4  11  23  38  62  95 126 161 205 267 310 355
#     4  10  22  42  60  86 132 172 196 252 324 364
#     4   9  19  38  64  81 123 172 201 240 315 377
#     4  10  18  40  64  86 120 170 202 248 310 368
#     4  11  24  38  66  97 122 158 222 259 300 368
#     4  10  19  41  64  89 118 175 201 252 299 391
#     4  11  22  38  60  95 126 164 198 261 312 372
#
# _framework density 19.955393999999998
#
# number of rings (size 3 to 8) (size 9 to 14) (size 15 to 20)
#    0.000    2.000    6.000    0.000    2.800    0.800 
#    0.000    0.000    0.000    2.400    0.000    0.000 
#    0.000    0.000    0.000    0.000    0.000    0.000 
#
# Total GULP energy -123909.385955 kJ/mol
# GULP energy per Si atom -12390.938596 kJ/mol
# Density = 1.990997 g / cm^3
# Si number density = 19.955394 Si / 1000 Ang^3
#
#
#
# Elastic Constant Matrix: (Units=GPa)
#
#
# Indices 1 2 3 4 5 6 
#
# 1 149.6038 44.1384 49.3571 0.0001 -2.0576 0.0000
# 2 44.1384 69.6733 33.8059 0.0000 -4.0916 0.0000
# 3 49.3571 33.8059 104.1368 0.0001 -1.2726 -0.0001
# 4 0.0001 0.0000 0.0001 7.1598 -0.0001 1.7316
# 5 -2.0576 -4.0916 -1.2726 -0.0001 37.3213 0.0000
# 6 0.0000 0.0000 -0.0001 1.7316 0.0000 18.5543
#
#
#
# Elastic Compliance Matrix: (Units=1/GPa)
#
#
# Indices 1 2 3 4 5 6 
#
# 1 0.008870 -0.004253 -0.002824 0.000000 -0.000074 0.000000
# 2 -0.004253 0.019181 -0.004190 0.000000 0.001726 0.000000
# 3 -0.002824 -0.004190 0.012299 0.000000 -0.000196 0.000000
# 4 0.000000 0.000000 0.000000 0.142895 0.000000 -0.013336
# 5 -0.000074 0.001726 -0.000196 0.000000 0.026973 0.000000
# 6 0.000000 0.000000 0.000000 -0.013336 0.000000 0.055140
#
#
# Mechanical properties :
#
#
# Convention : Reuss Voigt Hill
#
# Bulk Modulus (GPa) = 56.12979 64.22408 60.17693
# Shear Modulus (GPa) = 17.01655 25.68126 21.34891
#
# Velocity S-wave (km/s) = 2.92332 3.59128 3.27438
# Velocity P-wave (km/s) = 6.29151 7.03207 6.67207
#
# Compressibility (1/GPa) = 0.01781585
#
# Stress axis : x y z
#
# Youngs Moduli (GPa) = 112.74098 52.13390 81.30665
#
# Poissons Ratio (x) = 0.22173 0.22963
# Poissons Ratio (y) = 0.47950 0.34067
# Poissons Ratio (z) = 0.31841 0.21844
#
# Static dielectric constant tensor:
#      x y z
#    x 3.907450 0.000000 0.277460 
#    y 0.000000 3.528600 0.000000 
#    z 0.277460 0.000000 3.474740 
# 
# 
# High freq. dielectric constant tensor:
#      x y z
#    x 1.794610 0.000000 0.022080 
#    y 0.000000 1.766340 0.000000 
#    z 0.022080 0.000000 1.754260 
# 
# From -- ./inp_files/15649.got.cif
#   From: 2010.03.12/outbox.cif.g09.slc.cpg/sg5_8_cif.got.tgz:15649.got - 2010.03.31 09:47:26.
