data_PCOD8048776
_publ_section_title
;
Structure prediction by ZEFSAII (Michael W. Deem and Ramdas Pophale) SiO2 
 PCOD8048776
Probable space group: C 2
;
_chemical_formula_sum "Si O2"
_cell_formula_units_Z 26
_cell_length_a 19.787882
_cell_length_b 7.869169
_cell_length_c 11.047505
_cell_angle_alpha 90.000000
_cell_angle_beta 141.658899
_cell_angle_gamma 90.000000
_cell_volume 1067.145059
_symmetry_space_group_name_H-M "C 2"
_symmetry_group_IT_number 5
_symmetry_cell_setting 'monoclinic'
loop_
_space_group_symop_operation_xyz
x,y,z
-x,y,-z
1/2+x,1/2+y,z
1/2-x,1/2+y,-z
loop_
_atom_site_type_symbol
_atom_site_label
_atom_site_fract_x
_atom_site_fract_y
_atom_site_fract_z
Si Si1 0.077915 0.529160 0.912704
Si Si2 0.762476 0.632553 0.689708
Si Si3 0.500000 0.650702 0.000000
Si Si4 0.883391 0.139144 0.297846
Si Si5 0.353246 0.893460 0.633753
Si Si6 0.156087 0.144257 0.027886
Si Si7 0.117050 0.543451 0.705903
O O1 0.114559 0.644365 0.080391
O O2 0.121521 0.338444 0.995346
O O3 0.130295 0.605380 0.863926
O O4 0.946411 0.521228 0.713370
O O5 0.697204 0.561470 0.714872
O O6 0.709449 0.807342 0.567651
O O7 0.762131 0.499353 0.578729
O O8 0.588965 0.759593 0.198318
O O9 0.575272 0.544090 0.009639
O O10 0.877702 0.341490 0.292087
O O11 0.000000 0.070478 0.500000
O O12 0.861252 0.070120 0.131579
O O13 0.284576 0.119582 0.237184
O O14 0.000000 0.612890 0.500000
#
# Coordination Sequence:
#
# PCOD8048776 Si02
#       7
#     4   4   2   4   4   4   4
#     4  10  21  44  68  95 142 187 227 299 355 418
#     4  12  22  43  73 101 136 193 235 296 358 425
#     4  10  20  40  64  94 134 184 220 294 360 408
#     4  10  21  39  67  98 129 180 230 281 354 429
#     4  11  23  41  76  96 136 193 236 286 373 416
#     4  10  19  37  68  94 132 183 225 280 359 421
#     4  10  20  37  67 100 134 184 234 281 356 432
#
# _framework density 24.364070999999999
#
# number of rings (size 3 to 8) (size 9 to 14) (size 15 to 20)
#    0.000    1.538    4.615    3.692    0.000    2.462 
#    0.000    0.769   33.846    0.000    0.000    0.000 
#    0.000    0.000    0.000    0.000    0.000    0.000 
#
# Total GULP energy -161076.931823 kJ/mol
# GULP energy per Si atom -12390.533217 kJ/mol
# Density = 2.430862 g / cm^3
# Si number density = 24.364071 Si / 1000 Ang^3
#
#
#
# Elastic Constant Matrix: (Units=GPa)
#
#
# Indices 1 2 3 4 5 6 
#
# 1 226.5794 24.5977 68.3670 0.0000 16.6333 0.0000
# 2 24.5977 22.2817 32.8985 0.0000 6.1241 0.0000
# 3 68.3670 32.8985 141.2430 0.0000 15.7663 0.0000
# 4 0.0000 0.0000 0.0000 25.9185 0.0000 5.6116
# 5 16.6333 6.1241 15.7663 0.0000 40.4832 0.0000
# 6 0.0000 0.0000 0.0000 5.6116 0.0000 31.1089
#
#
#
# Elastic Compliance Matrix: (Units=1/GPa)
#
#
# Indices 1 2 3 4 5 6 
#
# 1 0.005352 -0.002998 -0.001774 0.000000 -0.001054 0.000000
# 2 -0.002998 0.070819 -0.014621 0.000000 -0.003787 0.000000
# 3 -0.001774 -0.014621 0.011517 0.000000 -0.001544 0.000000
# 4 0.000000 0.000000 0.000000 0.040151 0.000000 -0.007243
# 5 -0.001054 -0.003787 -0.001544 0.000000 0.026309 0.000000
# 6 0.000000 0.000000 0.000000 -0.007243 0.000000 0.033452
#
#
# Mechanical properties :
#
#
# Convention : Reuss Voigt Hill
#
# Bulk Modulus (GPa) = 20.45012 71.31450 45.88231
# Shear Modulus (GPa) = 20.60273 37.11817 28.86045
#
# Velocity S-wave (km/s) = 2.91111 3.90741 3.44546
# Velocity P-wave (km/s) = 4.43973 7.04919 5.89077
#
# Compressibility (1/GPa) = 0.04889947
#
# Stress axis : x y z
#
# Youngs Moduli (GPa) = 186.85429 14.12056 86.82954
#
# Poissons Ratio (x) = 0.04234 0.15407
# Poissons Ratio (y) = 0.56027 1.26954
# Poissons Ratio (z) = 0.33155 0.20646
#
# Static dielectric constant tensor:
#      x y z
#    x 5.180100 0.000000 0.021860 
#    y 0.000000 3.604450 0.000000 
#    z 0.021860 0.000000 4.637360 
# 
# 
# High freq. dielectric constant tensor:
#      x y z
#    x 1.996450 0.000000 -0.000840 
#    y 0.000000 1.895340 0.000000 
#    z -0.000840 0.000000 1.978290 
# 
# From -- ./inp_files/44627.got.cif
#   From: 2010.03.12/outbox.cif.g09.slc.cpg/sg5_23_cif.got.tgz:44627.got - 2010.03.31 09:47:26.
