data_PCOD8048873
_publ_section_title
;
Structure prediction by ZEFSAII (Michael W. Deem and Ramdas Pophale) SiO2 
 PCOD8048873
Probable space group: C 2
;
_chemical_formula_sum "Si O2"
_cell_formula_units_Z 26
_cell_length_a 20.689910
_cell_length_b 13.801845
_cell_length_c 5.057689
_cell_angle_alpha 90.000000
_cell_angle_beta 122.633293
_cell_angle_gamma 90.000000
_cell_volume 1216.274906
_symmetry_space_group_name_H-M "C 2"
_symmetry_group_IT_number 5
_symmetry_cell_setting 'monoclinic'
loop_
_space_group_symop_operation_xyz
x,y,z
-x,y,-z
1/2+x,1/2+y,z
1/2-x,1/2+y,-z
loop_
_atom_site_type_symbol
_atom_site_label
_atom_site_fract_x
_atom_site_fract_y
_atom_site_fract_z
Si Si1 0.568954 0.634440 0.466029
Si Si2 0.847087 0.377310 0.787113
Si Si3 0.000000 0.980015 0.000000
Si Si4 0.295976 0.762412 0.164098
Si Si5 0.500000 0.800346 0.000000
Si Si6 0.000000 0.852362 0.500000
Si Si7 0.877116 0.695373 0.234951
Si Si8 0.588170 0.073749 0.187313
O O1 0.500000 0.595850 0.500000
O O2 0.651519 0.664307 0.771914
O O3 0.572007 0.550931 0.245141
O O4 0.545300 0.738480 0.310869
O O5 0.809176 0.313790 0.473190
O O6 0.846452 0.492741 0.734620
O O7 0.938150 0.361778 0.023134
O O8 0.806645 0.345350 0.967628
O O9 0.026117 0.915838 0.809707
O O10 0.210616 0.724451 0.965648
O O11 0.927145 0.788824 0.424590
O O12 0.890568 0.611480 0.476232
O O13 0.905023 0.659413 0.010383
O O14 0.500000 0.035400 0.000000
#
# Coordination Sequence:
#
# PCOD8048873 Si02
#       8
#     4   4   2   4   2   2   4   4
#     4  10  19  40  64  96 131 168 214 264 341 390
#     4  11  22  40  67 105 133 164 221 272 338 407
#     4  11  24  40  67  98 118 172 237 276 306 389
#     4  11  25  43  66 100 138 179 206 275 353 405
#     4   9  18  32  65  92 130 170 197 268 328 411
#     4  12  24  46  68  86 126 182 232 276 316 384
#     4  12  26  48  67  93 139 181 226 273 340 397
#     4  12  23  45  74 101 129 176 230 281 332 400
#
# _framework density 21.376746000000001
#
# number of rings (size 3 to 8) (size 9 to 14) (size 15 to 20)
#    0.000    0.923    4.615    2.769    0.000    0.000 
#    8.308    0.000    0.000    0.000    0.000    0.000 
#    0.000    0.000    0.000    0.000    0.000    0.000 
#
# Total GULP energy -161114.811822 kJ/mol
# GULP energy per Si atom -12393.447063 kJ/mol
# Density = 2.132809 g / cm^3
# Si number density = 21.376746 Si / 1000 Ang^3
#
#
#
# Elastic Constant Matrix: (Units=GPa)
#
#
# Indices 1 2 3 4 5 6 
#
# 1 97.2202 27.7740 45.4914 0.0000 14.5487 0.0000
# 2 27.7740 97.2650 33.6452 0.0000 10.6383 0.0000
# 3 45.4914 33.6452 92.2382 0.0000 12.1740 0.0000
# 4 0.0000 0.0000 0.0000 16.3347 0.0000 -13.9501
# 5 14.5487 10.6383 12.1740 0.0000 41.3407 0.0000
# 6 0.0000 0.0000 0.0000 -13.9501 0.0000 25.6009
#
#
#
# Elastic Compliance Matrix: (Units=1/GPa)
#
#
# Indices 1 2 3 4 5 6 
#
# 1 0.013929 -0.001632 -0.005913 0.000000 -0.002741 0.000000
# 2 -0.001632 0.012092 -0.003403 0.000000 -0.001535 0.000000
# 3 -0.005913 -0.003403 0.015199 0.000000 -0.001519 0.000000
# 4 0.000000 0.000000 0.000000 0.114506 0.000000 0.062395
# 5 -0.002741 -0.001535 -0.001519 0.000000 0.025996 0.000000
# 6 0.000000 0.000000 0.000000 0.062395 0.000000 0.073061
#
#
# Mechanical properties :
#
#
# Convention : Reuss Voigt Hill
#
# Bulk Modulus (GPa) = 51.74753 55.61607 53.68180
# Shear Modulus (GPa) = 17.66027 28.64279 23.15153
#
# Velocity S-wave (km/s) = 2.87739 3.66444 3.29450
# Velocity P-wave (km/s) = 5.94131 6.63157 6.29591
#
# Compressibility (1/GPa) = 0.01932459
#
# Stress axis : x y z
#
# Youngs Moduli (GPa) = 71.79252 82.69636 65.79206
#
# Poissons Ratio (x) = 0.13500 0.38900
# Poissons Ratio (y) = 0.11720 0.22390
# Poissons Ratio (z) = 0.42448 0.28143
#
# Static dielectric constant tensor:
#      x y z
#    x 3.982620 0.000000 -0.036920 
#    y 0.000000 3.997710 0.000000 
#    z -0.036920 0.000000 3.917310 
# 
# 
# High freq. dielectric constant tensor:
#      x y z
#    x 1.824750 0.000000 -0.011460 
#    y 0.000000 1.845080 0.000000 
#    z -0.011460 0.000000 1.842100 
# 
# From -- ./inp_files/10364.got.cif
#   From: 2010.03.12/outbox.cif.g09.slc.cpg/sg5_6_cif.got.tgz:10364.got - 2010.03.31 09:47:26.
