data_PCOD8048664
_publ_section_title
;
Structure prediction by ZEFSAII (Michael W. Deem and Ramdas Pophale) SiO2 
 PCOD8048664
Probable space group: C 2
;
_chemical_formula_sum "Si O2"
_cell_formula_units_Z 30
_cell_length_a 14.404253
_cell_length_b 13.677074
_cell_length_c 14.058958
_cell_angle_alpha 90.000000
_cell_angle_beta 149.975258
_cell_angle_gamma 90.000000
_cell_volume 1385.899520
_symmetry_space_group_name_H-M "C 2"
_symmetry_group_IT_number 5
_symmetry_cell_setting 'monoclinic'
loop_
_space_group_symop_operation_xyz
x,y,z
-x,y,-z
1/2+x,1/2+y,z
1/2-x,1/2+y,-z
loop_
_atom_site_type_symbol
_atom_site_label
_atom_site_fract_x
_atom_site_fract_y
_atom_site_fract_z
Si Si1 0.649754 0.603990 0.751790
Si Si2 0.724137 0.700175 0.999653
Si Si3 0.688209 0.816815 0.707938
Si Si4 0.463606 0.343683 0.113130
Si Si5 0.960315 0.918586 0.626274
Si Si6 0.500000 0.996336 0.000000
Si Si7 0.164525 0.742210 0.706762
Si Si8 0.910194 0.339201 0.776051
O O1 0.678693 0.608800 0.892235
O O2 0.611665 0.710639 0.674602
O O3 0.481756 0.525150 0.594519
O O4 0.823200 0.565325 0.846706
O O5 0.559281 0.780660 0.846222
O O6 0.911952 0.745238 0.123366
O O7 0.765394 0.670654 0.146360
O O8 0.500000 0.869700 0.500000
O O9 0.842379 0.815275 0.763061
O O10 0.794419 0.871181 0.890137
O O11 0.489722 0.427017 0.216892
O O12 0.751686 0.879243 0.435023
O O13 0.098095 0.845526 0.692369
O O14 0.507897 0.930947 0.912294
O O15 0.335049 0.764527 0.789215
O O16 0.000000 0.691458 0.500000
#
# Coordination Sequence:
#
# PCOD8048664 Si02
#       8
#     4   4   4   4   4   2   4   4
#     4  11  23  36  56  95 127 146 190 267 308 343
#     4  10  19  36  55  88 123 155 198 246 305 351
#     4  10  22  38  64  86 121 161 200 239 308 357
#     4   9  20  40  57  86 118 161 208 238 281 376
#     4  10  21  36  58  90 124 151 200 256 299 343
#     4  12  20  36  60  88 124 158 198 248 310 358
#     4   9  17  34  58  83 112 157 207 241 283 365
#     4  11  20  34  62  86 115 167 205 234 297 375
#
# _framework density 21.646591000000001
#
# number of rings (size 3 to 8) (size 9 to 14) (size 15 to 20)
#    0.000    1.867    2.667    2.400    5.600    0.000 
#    0.000    0.000    5.867    0.800    0.000    0.000 
#    0.000    0.000    0.000    0.000    0.000    0.000 
#
# Total GULP energy -185832.960209 kJ/mol
# GULP energy per Si atom -12388.864014 kJ/mol
# Density = 2.159732 g / cm^3
# Si number density = 21.646591 Si / 1000 Ang^3
#
#
#
# Elastic Constant Matrix: (Units=GPa)
#
#
# Indices 1 2 3 4 5 6 
#
# 1 96.2970 10.5500 36.9869 -0.0001 2.7075 -0.0001
# 2 10.5500 28.0542 5.0784 -0.0034 3.4582 -0.0025
# 3 36.9869 5.0784 133.7835 -0.0007 -0.9847 -0.0012
# 4 -0.0001 -0.0034 -0.0007 12.9149 0.0003 -3.4541
# 5 2.7075 3.4582 -0.9847 0.0003 31.0821 0.0000
# 6 -0.0001 -0.0025 -0.0012 -3.4541 0.0000 3.3437
#
#
#
# Elastic Compliance Matrix: (Units=1/GPa)
#
#
# Indices 1 2 3 4 5 6 
#
# 1 0.012054 -0.003866 -0.003191 -0.000003 -0.000721 -0.000006
# 2 -0.003866 0.037646 -0.000389 0.000024 -0.003864 0.000052
# 3 -0.003191 -0.000389 0.008376 0.000001 0.000587 0.000004
# 4 -0.000003 0.000024 0.000001 0.106989 -0.000003 0.110520
# 5 -0.000721 -0.003864 0.000587 -0.000003 0.032684 -0.000006
# 6 -0.000006 0.000052 0.000004 0.110520 -0.000006 0.413235
#
#
# Mechanical properties :
#
#
# Convention : Reuss Voigt Hill
#
# Bulk Modulus (GPa) = 23.15681 40.37392 31.76536
# Shear Modulus (GPa) = 7.80920 23.16945 15.48933
#
# Velocity S-wave (km/s) = 1.90143 3.27517 2.67789
# Velocity P-wave (km/s) = 3.94227 5.74406 4.92624
#
# Compressibility (1/GPa) = 0.04318384
#
# Stress axis : x y z
#
# Youngs Moduli (GPa) = 82.95944 26.56332 119.38782
#
# Poissons Ratio (x) = 0.10271 0.38098
# Poissons Ratio (y) = 0.32076 0.04638
# Poissons Ratio (z) = 0.26473 0.01032
#
# Static dielectric constant tensor:
#      x y z
#    x 4.271490 0.000000 -0.390320 
#    y 0.000000 3.370100 0.000000 
#    z -0.390320 0.000000 4.335610 
# 
# 
# High freq. dielectric constant tensor:
#      x y z
#    x 1.863430 0.000000 -0.006230 
#    y 0.000000 1.785380 0.000000 
#    z -0.006230 0.000000 1.863350 
# 
# From -- ./inp_files/54802.got.cif
#   From: 2010.03.12/outbox.cif.g09.slc.cpg/sg5_28_cif.got.tgz:54802.got - 2010.03.31 09:47:26.
