data_PCOD8048494
_publ_section_title
;
Structure prediction by ZEFSAII (Michael W. Deem and Ramdas Pophale) SiO2 
 PCOD8048494
Probable space group: C 2
;
_chemical_formula_sum "Si O2"
_cell_formula_units_Z 30
_cell_length_a 28.422958
_cell_length_b 5.024877
_cell_length_c 14.519402
_cell_angle_alpha 90.000000
_cell_angle_beta 135.042058
_cell_angle_gamma 90.000000
_cell_volume 1465.242181
_symmetry_space_group_name_H-M "C 2"
_symmetry_group_IT_number 5
_symmetry_cell_setting 'monoclinic'
loop_
_space_group_symop_operation_xyz
x,y,z
-x,y,-z
1/2+x,1/2+y,z
1/2-x,1/2+y,-z
loop_
_atom_site_type_symbol
_atom_site_label
_atom_site_fract_x
_atom_site_fract_y
_atom_site_fract_z
Si Si1 0.363244 0.750000 0.799017
Si Si2 0.324702 0.000346 0.926324
Si Si3 0.108770 0.349245 0.364173
Si Si4 0.525637 0.336536 0.238195
Si Si5 0.384737 0.497857 0.101075
Si Si6 0.278704 0.386502 0.083552
Si Si7 0.247778 0.468650 0.558783
Si Si8 0.500000 0.472131 0.000000
O O1 0.333963 0.960756 0.830869
O O2 0.309453 0.509370 0.714594
O O3 0.371413 0.906543 0.714761
O O4 0.435160 0.648311 0.932429
O O5 0.372722 0.797410 0.049332
O O6 0.246972 0.948866 0.848118
O O7 0.345407 0.301015 0.977652
O O8 0.178634 0.386248 0.516178
O O9 0.051503 0.556574 0.314182
O O10 0.083073 0.050282 0.336966
O O11 0.511084 0.300885 0.108330
O O12 0.462179 0.426879 0.208840
O O13 0.355625 0.459202 0.165373
O O14 0.233499 0.576176 0.954742
O O15 0.267908 0.248331 0.512585
#
# Coordination Sequence:
#
# PCOD8048494 Si02
#       8
#     4   4   4   4   4   4   4   2
#     4  10  21  33  51  73 102 134 162 209 247 297
#     4  10  19  31  47  73  99 130 164 199 247 302
#     4  10  22  34  48  69  97 135 174 201 236 289
#     4  11  21  32  49  70 102 134 164 199 246 298
#     4  10  19  31  47  70 101 133 161 196 248 302
#     4   8  16  30  46  64  96 130 161 195 235 296
#     4  10  20  37  52  67  95 138 179 212 241 278
#     4  10  20  30  44  74 102 130 154 194 252 298
#
# _framework density 20.474433000000001
#
# number of rings (size 3 to 8) (size 9 to 14) (size 15 to 20)
#    0.000    2.133    1.333    3.200    3.733    2.667 
#    0.000    0.000    0.000    0.000    0.000    0.933 
#    0.000    6.400    0.000    0.000    0.000    0.000 
#
# Total GULP energy -185870.767597 kJ/mol
# GULP energy per Si atom -12391.384506 kJ/mol
# Density = 2.042783 g / cm^3
# Si number density = 20.474433 Si / 1000 Ang^3
#
#
#
# Elastic Constant Matrix: (Units=GPa)
#
#
# Indices 1 2 3 4 5 6 
#
# 1 92.2656 -12.4210 12.8108 -0.0001 21.9070 -0.0001
# 2 -12.4210 67.2240 13.4325 0.0008 2.2778 -0.0005
# 3 12.8108 13.4325 69.6020 -0.0001 28.6183 0.0000
# 4 -0.0001 0.0008 -0.0001 22.6409 0.0000 6.6519
# 5 21.9070 2.2778 28.6183 0.0000 26.6229 0.0000
# 6 -0.0001 -0.0005 0.0000 6.6519 0.0000 21.5550
#
#
#
# Elastic Compliance Matrix: (Units=1/GPa)
#
#
# Indices 1 2 3 4 5 6 
#
# 1 0.014433 0.002542 0.003271 0.000000 -0.015610 0.000000
# 2 0.002542 0.016092 -0.003848 -0.000001 0.000668 0.000001
# 3 0.003271 -0.003848 0.027740 0.000000 -0.032182 0.000000
# 4 0.000000 -0.000001 0.000000 0.048572 0.000000 -0.014989
# 5 -0.015610 0.000668 -0.032182 0.000000 0.084944 0.000000
# 6 0.000000 0.000001 0.000000 -0.014989 0.000000 0.051019
#
#
# Mechanical properties :
#
#
# Convention : Reuss Voigt Hill
#
# Bulk Modulus (GPa) = 16.07840 28.52622 22.30231
# Shear Modulus (GPa) = 19.26044 28.51506 23.88775
#
# Velocity S-wave (km/s) = 3.07042 3.73596 3.41942
# Velocity P-wave (km/s) = 4.52106 5.70725 5.14843
#
# Compressibility (1/GPa) = 0.06219525
#
# Stress axis : x y z
#
# Youngs Moduli (GPa) = 69.28735 62.14422 36.04867
#
# Poissons Ratio (x) = -0.15797 -0.11793
# Poissons Ratio (y) = -0.17613 0.13872
# Poissons Ratio (z) = -0.22667 0.23913
#
# Static dielectric constant tensor:
#      x y z
#    x 3.986110 0.000000 0.446070 
#    y 0.000000 3.692890 0.000000 
#    z 0.446070 0.000000 3.531980 
# 
# 
# High freq. dielectric constant tensor:
#      x y z
#    x 1.790990 0.000000 0.048260 
#    y 0.000000 1.815650 0.000000 
#    z 0.048260 0.000000 1.743540 
# 
# From -- ./inp_files/63488.got.cif
#   From: 2010.03.12/outbox.cif.g09.slc.cpg/sg5_32_cif.got.tgz:63488.got - 2010.03.31 09:47:26.
