data_PCOD8048330
_publ_section_title
;
Structure prediction by ZEFSAII (Michael W. Deem and Ramdas Pophale) SiO2 
 PCOD8048330
Probable space group: C 2
;
_chemical_formula_sum "Si O2"
_cell_formula_units_Z 32
_cell_length_a 15.225239
_cell_length_b 12.905084
_cell_length_c 13.908335
_cell_angle_alpha 90.000000
_cell_angle_beta 40.032652
_cell_angle_gamma 90.000000
_cell_volume 1757.771343
_symmetry_space_group_name_H-M "C 2"
_symmetry_group_IT_number 5
_symmetry_cell_setting 'monoclinic'
loop_
_space_group_symop_operation_xyz
x,y,z
-x,y,-z
1/2+x,1/2+y,z
1/2-x,1/2+y,-z
loop_
_atom_site_type_symbol
_atom_site_label
_atom_site_fract_x
_atom_site_fract_y
_atom_site_fract_z
Si Si1 0.250033 0.658600 0.935991
Si Si2 0.938736 0.844463 0.947280
Si Si3 0.228018 0.330642 0.682822
Si Si4 0.198749 0.497026 0.133990
Si Si5 0.464627 0.326148 0.337391
Si Si6 0.617781 0.165338 0.328688
Si Si7 0.918479 0.334683 0.880900
Si Si8 0.794063 0.954717 0.800537
O O1 0.372605 0.719885 0.886833
O O2 0.294139 0.578786 0.815154
O O3 0.147975 0.739771 0.973317
O O4 0.177395 0.588280 0.075671
O O5 0.048598 0.833436 0.767970
O O6 0.000000 0.864481 0.000000
O O7 0.846384 0.943950 0.999744
O O8 0.314665 0.328423 0.511293
O O9 0.265336 0.234227 0.720109
O O10 0.260368 0.434479 0.716525
O O11 0.068414 0.324900 0.797016
O O12 0.180928 0.553083 0.250973
O O13 0.082472 0.409821 0.212268
O O14 0.550725 0.223446 0.293170
O O15 0.551174 0.421826 0.306229
O O16 0.500000 0.139743 0.500000
O O17 0.812585 0.387931 0.044732
#
# Coordination Sequence:
#
# PCOD8048330 Si02
#       8
#     4   4   4   4   4   4   4   4
#     4  10  18  35  61  75 113 147 183 227 272 322
#     4  11  22  36  58  83 109 146 190 227 270 330
#     4  10  21  34  60  88 110 137 188 236 271 319
#     4  10  19  36  57  79 110 150 183 225 277 320
#     4  10  18  39  58  81 114 145 180 234 278 318
#     4   9  18  35  60  80 107 148 186 223 277 330
#     4  10  20  34  54  87 115 142 180 233 277 315
#     4  10  18  35  62  82 106 152 188 219 274 330
#
# _framework density 18.20487
#
# number of rings (size 3 to 8) (size 9 to 14) (size 15 to 20)
#    0.000    2.000    5.000    2.250    0.000    3.000 
#    2.250    1.250    2.750    0.000    0.000    0.000 
#    0.000    0.000    0.000    0.000    0.000    0.000 
#
# Total GULP energy -198249.300911 kJ/mol
# GULP energy per Si atom -12390.581307 kJ/mol
# Density = 1.816344 g / cm^3
# Si number density = 18.204870 Si / 1000 Ang^3
#
#
#
# Elastic Constant Matrix: (Units=GPa)
#
#
# Indices 1 2 3 4 5 6 
#
# 1 87.8417 15.8061 35.5272 0.0000 5.2835 0.0000
# 2 15.8061 99.5632 31.1825 0.0000 6.6430 0.0000
# 3 35.5272 31.1825 55.9151 0.0000 2.4660 0.0000
# 4 0.0000 0.0000 0.0000 24.5152 0.0000 9.7460
# 5 5.2835 6.6430 2.4660 0.0000 30.8176 0.0000
# 6 0.0000 0.0000 0.0000 9.7460 0.0000 17.5012
#
#
#
# Elastic Compliance Matrix: (Units=1/GPa)
#
#
# Indices 1 2 3 4 5 6 
#
# 1 0.015491 0.000885 -0.010247 0.000000 -0.002027 0.000000
# 2 0.000885 0.012355 -0.007354 0.000000 -0.002227 0.000000
# 3 -0.010247 -0.007354 0.028449 0.000000 0.001066 0.000000
# 4 0.000000 0.000000 0.000000 0.052389 0.000000 -0.029174
# 5 -0.002027 -0.002227 0.001066 0.000000 0.033191 0.000000
# 6 0.000000 0.000000 0.000000 -0.029174 0.000000 0.073385
#
#
# Mechanical properties :
#
#
# Convention : Reuss Voigt Hill
#
# Bulk Modulus (GPa) = 43.73831 45.37242 44.55536
# Shear Modulus (GPa) = 19.50726 25.28708 22.39717
#
# Velocity S-wave (km/s) = 3.27699 3.73101 3.51135
# Velocity P-wave (km/s) = 6.19645 6.59833 6.40054
#
# Compressibility (1/GPa) = 0.02286325
#
# Stress axis : x y z
#
# Youngs Moduli (GPa) = 64.55330 80.93714 35.15010
#
# Poissons Ratio (x) = -0.07165 0.36018
# Poissons Ratio (y) = -0.05714 0.25851
# Poissons Ratio (z) = 0.66148 0.59525
#
# Static dielectric constant tensor:
#      x y z
#    x 3.285860 0.000000 0.210830 
#    y 0.000000 3.677950 0.000000 
#    z 0.210830 0.000000 3.341010 
# 
# 
# High freq. dielectric constant tensor:
#      x y z
#    x 1.691520 0.000000 0.010290 
#    y 0.000000 1.708080 0.000000 
#    z 0.010290 0.000000 1.690370 
# 
# From -- ./inp_files/54564.got.cif
#   From: 2010.03.12/outbox.cif.g09.slc.cpg/sg5_28_cif.got.tgz:54564.got - 2010.03.31 09:47:26.
