data_PCOD8048545
_publ_section_title
;
Structure prediction by ZEFSAII (Michael W. Deem and Ramdas Pophale) SiO2 
 PCOD8048545
Probable space group: C 2
;
_chemical_formula_sum "Si O2"
_cell_formula_units_Z 24
_cell_length_a 15.552137
_cell_length_b 18.778054
_cell_length_c 9.064206
_cell_angle_alpha 90.000000
_cell_angle_beta 29.446368
_cell_angle_gamma 90.000000
_cell_volume 1301.337468
_symmetry_space_group_name_H-M "C 2"
_symmetry_group_IT_number 5
_symmetry_cell_setting 'monoclinic'
loop_
_space_group_symop_operation_xyz
x,y,z
-x,y,-z
1/2+x,1/2+y,z
1/2-x,1/2+y,-z
loop_
_atom_site_type_symbol
_atom_site_label
_atom_site_fract_x
_atom_site_fract_y
_atom_site_fract_z
Si Si1 0.682935 0.295960 0.644975
Si Si2 0.979350 0.545758 0.363284
Si Si3 0.471714 0.881244 0.376976
Si Si4 0.173129 0.040947 0.337225
Si Si5 0.809197 0.393669 0.212451
Si Si6 0.319701 0.132649 0.355722
O O1 0.821224 0.330330 0.546299
O O2 0.694473 0.335190 0.469560
O O3 0.729905 0.214280 0.542968
O O4 0.500000 0.305043 0.000000
O O5 0.914411 0.463989 0.453619
O O6 0.836647 0.593136 0.488646
O O7 0.000000 0.572612 0.500000
O O8 0.167960 0.555321 0.009727
O O9 0.500000 0.856447 0.500000
O O10 0.649475 0.868344 0.016609
O O11 0.169730 0.097463 0.477188
O O12 0.000000 0.047458 0.500000
O O13 0.191526 0.964058 0.386363
O O14 0.000000 0.409510 0.000000
O O15 0.500000 0.124025 0.000000
#
# Coordination Sequence:
#
# PCOD8048545 Si02
#       6
#     4   4   4   4   4   4
#     4  10  20  33  52  76 103 137 172 207 249 302
#     4   9  18  36  57  75  98 133 172 209 257 305
#     4   9  18  34  55  75  99 134 170 210 257 304
#     4  10  19  33  55  79 101 130 171 214 252 298
#     4   9  18  35  54  73 102 138 170 206 258 308
#     4   9  18  35  53  72 105 140 166 202 257 309
#
# _framework density 18.442564999999998
#
# number of rings (size 3 to 8) (size 9 to 14) (size 15 to 20)
#    0.000    2.667    0.000    3.500    0.000    4.667 
#    0.000   11.667    0.000    0.000    0.000    0.000 
#    0.000    0.000    0.000    0.000    0.000    0.000 
#
# Total GULP energy -148757.246627 kJ/mol
# GULP energy per Si atom -12396.437219 kJ/mol
# Density = 1.840059 g / cm^3
# Si number density = 18.442565 Si / 1000 Ang^3
#
#
#
# Elastic Constant Matrix: (Units=GPa)
#
#
# Indices 1 2 3 4 5 6 
#
# 1 141.6256 83.2808 44.0575 -0.0095 16.5414 0.0094
# 2 83.2808 137.6894 53.2706 -0.0192 5.9566 0.0136
# 3 44.0575 53.2706 60.2206 -0.0238 11.7257 0.0259
# 4 -0.0095 -0.0192 -0.0238 23.7999 0.0114 1.8480
# 5 16.5414 5.9566 11.7257 0.0114 38.5043 -0.0098
# 6 0.0094 0.0136 0.0259 1.8480 -0.0098 8.3806
#
#
#
# Elastic Compliance Matrix: (Units=1/GPa)
#
#
# Indices 1 2 3 4 5 6 
#
# 1 0.011783 -0.005926 -0.002733 -0.000001 -0.003313 0.000001
# 2 -0.005926 0.014088 -0.008715 -0.000002 0.003020 0.000015
# 3 -0.002733 -0.008715 0.027451 0.000028 -0.005837 -0.000081
# 4 -0.000001 -0.000002 0.000028 0.042749 -0.000023 -0.009427
# 5 -0.003313 0.003020 -0.005837 -0.000023 0.028705 0.000055
# 6 0.000001 0.000015 -0.000081 -0.009427 0.000055 0.121402
#
#
# Mechanical properties :
#
#
# Convention : Reuss Voigt Hill
#
# Bulk Modulus (GPa) = 53.83939 77.86149 65.85044
# Shear Modulus (GPa) = 17.41454 24.73207 21.07330
#
# Velocity S-wave (km/s) = 3.07621 3.66598 3.38397
# Velocity P-wave (km/s) = 6.47100 7.76075 7.14504
#
# Compressibility (1/GPa) = 0.01857376
#
# Stress axis : x y z
#
# Youngs Moduli (GPa) = 84.87014 70.98243 36.42876
#
# Poissons Ratio (x) = 0.42064 0.09957
# Poissons Ratio (y) = 0.50294 0.31747
# Poissons Ratio (z) = 0.23196 0.61859
#
# Static dielectric constant tensor:
#      x y z
#    x 3.590240 -0.000010 0.289340 
#    y -0.000010 3.434460 0.000010 
#    z 0.289340 0.000010 3.269810 
# 
# 
# High freq. dielectric constant tensor:
#      x y z
#    x 1.722040 0.000000 0.017930 
#    y 0.000000 1.711300 0.000000 
#    z 0.017930 0.000000 1.694470 
# 
# From -- ./inp_files/15693.got.cif
#   From: 2010.03.12/outbox.cif.g09.slc.cpg/sg5_8_cif.got.tgz:15693.got - 2010.03.31 09:47:26.
