data_PCOD8048638
_publ_section_title
;
Structure prediction by ZEFSAII (Michael W. Deem and Ramdas Pophale) SiO2 
 PCOD8048638
Probable space group: C 2
;
_chemical_formula_sum "Si O2"
_cell_formula_units_Z 32
_cell_length_a 8.812421
_cell_length_b 23.061797
_cell_length_c 15.292978
_cell_angle_alpha 90.000000
_cell_angle_beta 149.284140
_cell_angle_gamma 90.000000
_cell_volume 1587.505015
_symmetry_space_group_name_H-M "C 2"
_symmetry_group_IT_number 5
_symmetry_cell_setting 'monoclinic'
loop_
_space_group_symop_operation_xyz
x,y,z
-x,y,-z
1/2+x,1/2+y,z
1/2-x,1/2+y,-z
loop_
_atom_site_type_symbol
_atom_site_label
_atom_site_fract_x
_atom_site_fract_y
_atom_site_fract_z
Si Si1 0.826410 0.410330 0.999564
Si Si2 0.158237 0.598477 0.317617
Si Si3 0.828234 0.232195 0.784240
Si Si4 0.813218 0.544854 0.991089
Si Si5 0.037754 0.724102 0.818317
Si Si6 0.683885 0.106764 0.673581
Si Si7 0.346624 0.327427 0.830381
Si Si8 0.827726 0.351490 0.682348
O O1 0.524586 0.374149 0.861181
O O2 0.739018 0.477023 0.948701
O O3 0.000000 0.387819 0.000000
O O4 0.037739 0.399197 0.186627
O O5 0.500000 0.580967 0.500000
O O6 0.005209 0.555710 0.172821
O O7 0.136542 0.663712 0.270544
O O8 0.988624 0.590393 0.324253
O O9 0.611514 0.246832 0.757784
O O10 0.709941 0.176000 0.674808
O O11 0.833355 0.286896 0.723785
O O12 0.157364 0.216388 0.978475
O O13 0.506739 0.578975 0.839697
O O14 0.000000 0.565647 0.000000
O O15 0.825497 0.768781 0.763709
O O16 0.500000 0.082121 0.500000
O O17 0.014701 0.350447 0.684519
O O18 0.500000 0.315545 0.000000
O O19 0.500000 0.373048 0.500000
#
# Coordination Sequence:
#
# PCOD8048638 Si02
#       8
#     4   4   4   4   4   4   4   4
#     4  10  22  43  64  84 113 159 205 245 302 369
#     4  11  24  40  61  93 128 164 208 252 305 366
#     4  10  19  36  60  88 125 161 196 244 304 366
#     4  11  24  42  66  90 117 164 211 257 315 361
#     4  10  19  35  60  88 120 164 201 241 302 364
#     4  11  23  41  63  93 127 163 204 254 307 369
#     4  10  20  35  59  88 116 156 197 240 299 359
#     4  11  23  37  59  93 123 152 197 251 303 355
#
# _framework density 20.157416999999999
#
# number of rings (size 3 to 8) (size 9 to 14) (size 15 to 20)
#    0.000    1.500    3.750    2.250    0.000    8.000 
#    0.000    4.375    0.000    0.000    0.000    0.000 
#    0.000    0.000    0.000    0.000    0.000    0.000 
#
# Total GULP energy -198449.244367 kJ/mol
# GULP energy per Si atom -12403.077773 kJ/mol
# Density = 2.011154 g / cm^3
# Si number density = 20.157417 Si / 1000 Ang^3
#
#
#
# Elastic Constant Matrix: (Units=GPa)
#
#
# Indices 1 2 3 4 5 6 
#
# 1 149.1978 46.0622 37.9625 0.0054 11.8028 0.0131
# 2 46.0622 56.2100 9.2692 -0.0002 -1.9698 -0.0007
# 3 37.9625 9.2692 90.4963 0.0198 9.7847 0.0469
# 4 0.0054 -0.0002 0.0198 45.4467 0.0064 79.9705
# 5 11.8028 -1.9698 9.7847 0.0064 31.9479 0.0156
# 6 0.0131 -0.0007 0.0469 79.9705 0.0156 232.7425
#
#
#
# Elastic Compliance Matrix: (Units=1/GPa)
#
#
# Indices 1 2 3 4 5 6 
#
# 1 0.010219 -0.007977 -0.003111 0.000000 -0.003314 0.000000
# 2 -0.007977 0.024418 0.000377 0.000000 0.004337 0.000000
# 3 -0.003111 0.000377 0.012608 -0.000002 -0.002689 -0.000001
# 4 0.000000 0.000000 -0.000002 0.055652 -0.000001 -0.019122
# 5 -0.003314 0.004337 -0.002689 -0.000001 0.033616 -0.000001
# 6 0.000000 0.000000 -0.000001 -0.019122 -0.000001 0.010867
#
#
# Mechanical properties :
#
#
# Convention : Reuss Voigt Hill
#
# Bulk Modulus (GPa) = 38.73018 53.61018 46.17018
# Shear Modulus (GPa) = 28.18315 75.53478 51.85896
#
# Velocity S-wave (km/s) = 3.74324 6.12812 5.07768
# Velocity P-wave (km/s) = 6.15939 8.75929 7.57177
#
# Compressibility (1/GPa) = 0.02581966
#
# Stress axis : x y z
#
# Youngs Moduli (GPa) = 97.85420 40.95409 79.31753
#
# Poissons Ratio (x) = 0.32671 0.24679
# Poissons Ratio (y) = 0.78062 -0.02986
# Poissons Ratio (z) = 0.30447 -0.01542
#
# Static dielectric constant tensor:
#      x y z
#    x 1.100150 -0.000030 0.807910 
#    y -0.000030 3.506720 0.000010 
#    z 0.807910 0.000010 3.518200 
# 
# 
# High freq. dielectric constant tensor:
#      x y z
#    x 1.804460 0.000000 0.003930 
#    y 0.000000 1.777970 0.000000 
#    z 0.003930 0.000000 1.777330 
# 
# From -- ./inp_files/25641.got.cif
#   From: 2010.03.12/outbox.cif.g09.slc.cpg/sg5_13_cif.got.tgz:25641.got - 2010.03.31 09:47:26.
