data_PCOD8048124
_publ_section_title
;
Structure prediction by ZEFSAII (Michael W. Deem and Ramdas Pophale) SiO2 
 PCOD8048124
Probable space group: C 2
;
_chemical_formula_sum "Si O2"
_cell_formula_units_Z 32
_cell_length_a 14.619663
_cell_length_b 17.041388
_cell_length_c 13.797933
_cell_angle_alpha 90.000000
_cell_angle_beta 150.240334
_cell_angle_gamma 90.000000
_cell_volume 1706.301325
_symmetry_space_group_name_H-M "C 2"
_symmetry_group_IT_number 5
_symmetry_cell_setting 'monoclinic'
loop_
_space_group_symop_operation_xyz
x,y,z
-x,y,-z
1/2+x,1/2+y,z
1/2-x,1/2+y,-z
loop_
_atom_site_type_symbol
_atom_site_label
_atom_site_fract_x
_atom_site_fract_y
_atom_site_fract_z
Si Si1 0.419381 0.392050 0.027996
Si Si2 0.646489 0.306369 0.843724
Si Si3 0.856887 0.159035 0.743308
Si Si4 0.325093 0.502506 0.619881
Si Si5 0.397938 0.419569 0.500572
Si Si6 0.456465 0.824840 0.849496
Si Si7 0.554623 0.981700 0.661393
Si Si8 0.727924 0.143415 0.828524
O O1 0.426799 0.322220 0.114564
O O2 0.538046 0.466654 0.173297
O O3 0.500000 0.361006 0.000000
O O4 0.207829 0.415948 0.818369
O O5 0.508457 0.344077 0.639323
O O6 0.650019 0.214383 0.822420
O O7 0.848904 0.346833 0.020607
O O8 0.868118 0.248545 0.714185
O O9 0.709390 0.158152 0.695825
O O10 0.790623 0.095656 0.602812
O O11 0.058177 0.129696 0.956756
O O12 0.405212 0.488465 0.586580
O O13 0.128318 0.458053 0.446997
O O14 0.500000 0.453251 0.500000
O O15 0.185645 0.396769 0.282997
O O16 0.500000 0.797892 0.000000
O O17 0.500000 0.987863 0.500000
O O18 0.622477 0.065589 0.763206
#
# Coordination Sequence:
#
# PCOD8048124 Si02
#       8
#     4   4   4   4   4   4   4   4
#     4  11  21  38  55  79 119 149 184 224 271 332
#     4  10  22  36  55  85 112 149 182 228 279 322
#     4  10  17  33  54  81 114 140 173 227 281 322
#     4  11  23  35  53  87 113 149 182 225 282 323
#     4  11  22  37  57  80 113 151 188 220 272 336
#     4  11  19  35  57  84 114 142 177 232 282 321
#     4  12  21  31  57  85 114 146 177 229 280 326
#     4  10  18  32  53  83 112 139 177 226 281 319
#
# _framework density 18.754014000000002
#
# number of rings (size 3 to 8) (size 9 to 14) (size 15 to 20)
#    0.000    1.250    7.500    0.750    1.750    0.500 
#    0.000    0.000    0.000    3.000    0.000    0.000 
#    0.000    0.000    0.000    0.000    0.000    0.000 
#
# Total GULP energy -198357.729306 kJ/mol
# GULP energy per Si atom -12397.358082 kJ/mol
# Density = 1.871133 g / cm^3
# Si number density = 18.754014 Si / 1000 Ang^3
#
#
#
# Elastic Constant Matrix: (Units=GPa)
#
#
# Indices 1 2 3 4 5 6 
#
# 1 123.4818 31.7230 21.3266 -0.0001 -6.4602 0.0000
# 2 31.7230 61.2924 8.4685 0.0001 -9.9782 0.0001
# 3 21.3266 8.4685 57.5911 -0.0008 8.0261 -0.0008
# 4 -0.0001 0.0001 -0.0008 15.3432 -0.0003 1.2256
# 5 -6.4602 -9.9782 8.0261 -0.0003 25.2886 -0.0003
# 6 0.0000 0.0001 -0.0008 1.2256 -0.0003 24.1520
#
#
#
# Elastic Compliance Matrix: (Units=1/GPa)
#
#
# Indices 1 2 3 4 5 6 
#
# 1 0.009881 -0.004362 -0.003274 0.000000 0.001842 0.000000
# 2 -0.004362 0.020142 -0.002405 0.000000 0.007597 0.000000
# 3 -0.003274 -0.002405 0.020066 0.000001 -0.008154 0.000000
# 4 0.000000 0.000000 0.000001 0.065441 0.000001 -0.003321
# 5 0.001842 0.007597 -0.008154 0.000001 0.045600 0.000000
# 6 0.000000 0.000000 0.000000 -0.003321 0.000000 0.041573
#
#
# Mechanical properties :
#
#
# Convention : Reuss Voigt Hill
#
# Bulk Modulus (GPa) = 33.32624 40.60014 36.96319
# Shear Modulus (GPa) = 21.47885 25.01322 23.24603
#
# Velocity S-wave (km/s) = 3.38789 3.65602 3.52451
# Velocity P-wave (km/s) = 5.75435 6.28631 6.02620
#
# Compressibility (1/GPa) = 0.03000639
#
# Stress axis : x y z
#
# Youngs Moduli (GPa) = 101.20649 49.64821 49.83448
#
# Poissons Ratio (x) = 0.21655 0.16318
# Poissons Ratio (y) = 0.44143 0.11987
# Poissons Ratio (z) = 0.33139 0.11942
#
# Static dielectric constant tensor:
#      x y z
#    x 3.408770 0.000000 0.206150 
#    y 0.000000 3.082230 0.000000 
#    z 0.206150 0.000000 3.618940 
# 
# 
# High freq. dielectric constant tensor:
#      x y z
#    x 1.714870 0.000000 0.021430 
#    y 0.000000 1.695730 0.000000 
#    z 0.021430 0.000000 1.739800 
# 
# From -- ./inp_files/54904.got.cif
#   From: 2010.03.12/outbox.cif.g09.slc.cpg/sg5_28_cif.got.tgz:54904.got - 2010.03.31 09:47:26.
