data_PCOD8048976
_publ_section_title
;
Structure prediction by ZEFSAII (Michael W. Deem and Ramdas Pophale) SiO2 
 PCOD8048976
Probable space group: C 2
;
_chemical_formula_sum "Si O2"
_cell_formula_units_Z 24
_cell_length_a 8.220988
_cell_length_b 9.208070
_cell_length_c 13.631973
_cell_angle_alpha 90.000000
_cell_angle_beta 88.185717
_cell_angle_gamma 90.000000
_cell_volume 1031.415318
_symmetry_space_group_name_H-M "C 2"
_symmetry_group_IT_number 5
_symmetry_cell_setting 'monoclinic'
loop_
_space_group_symop_operation_xyz
x,y,z
-x,y,-z
1/2+x,1/2+y,z
1/2-x,1/2+y,-z
loop_
_atom_site_type_symbol
_atom_site_label
_atom_site_fract_x
_atom_site_fract_y
_atom_site_fract_z
Si Si1 0.987812 0.635130 0.277499
Si Si2 0.684787 0.630415 0.605012
Si Si3 0.157226 0.464558 0.557770
Si Si4 0.188093 0.573838 0.101866
Si Si5 0.034374 0.962408 0.765998
Si Si6 0.331782 0.396198 0.941780
O O1 0.157285 0.617023 0.330835
O O2 0.015945 0.577466 0.164622
O O3 0.849700 0.539743 0.334539
O O4 0.935038 0.802357 0.278686
O O5 0.691993 0.527808 0.508056
O O6 0.663141 0.793158 0.569169
O O7 0.531762 0.575429 0.674554
O O8 0.000000 0.512250 0.500000
O O9 0.317906 0.495427 0.166143
O O10 0.241162 0.737366 0.075263
O O11 0.188229 0.485441 0.999306
O O12 0.869205 0.969390 0.834299
O O13 0.500000 0.387410 0.000000
#
# Coordination Sequence:
#
# PCOD8048976 Si02
#       6
#     4   4   4   4   4   4
#     4   9  19  36  53  73 103 135 169 210 251 296
#     4  10  20  34  53  77 103 134 170 208 252 300
#     4  10  21  35  53  77 103 133 170 209 251 301
#     4   9  18  34  54  75 103 135 168 209 253 298
#     4   9  18  35  54  74 104 135 167 210 253 297
#     4   9  18  34  53  74 102 136 170 208 252 296
#
# _framework density 23.268998
#
# number of rings (size 3 to 8) (size 9 to 14) (size 15 to 20)
#    0.000    2.667    0.000    1.000    0.000    2.667 
#    0.000   17.500    0.000    0.000    0.000    0.000 
#    0.000    0.000    0.000    0.000    0.000    0.000 
#
# Total GULP energy -148702.164651 kJ/mol
# GULP energy per Si atom -12391.847054 kJ/mol
# Density = 2.321604 g / cm^3
# Si number density = 23.268998 Si / 1000 Ang^3
#
#
#
# Elastic Constant Matrix: (Units=GPa)
#
#
# Indices 1 2 3 4 5 6 
#
# 1 14.4559 10.9505 32.0500 0.0000 -14.5040 0.0000
# 2 10.9505 169.1898 109.5673 0.0000 -42.0647 0.0000
# 3 32.0500 109.5673 184.5998 0.0000 -52.6440 0.0000
# 4 0.0000 0.0000 0.0000 62.7890 0.0000 -7.4849
# 5 -14.5040 -42.0647 -52.6440 0.0000 34.2635 0.0000
# 6 0.0000 0.0000 0.0000 -7.4849 0.0000 28.5794
#
#
#
# Elastic Compliance Matrix: (Units=1/GPa)
#
#
# Indices 1 2 3 4 5 6 
#
# 1 0.162773 0.018400 -0.023298 0.000000 0.055696 0.000000
# 2 0.018400 0.012276 -0.007051 0.000000 0.012026 0.000000
# 3 -0.023298 -0.007051 0.014891 0.000000 0.004359 0.000000
# 4 0.000000 0.000000 0.000000 0.016440 0.000000 0.004305
# 5 0.055696 0.012026 0.004359 0.000000 0.074224 0.000000
# 6 0.000000 0.000000 0.000000 0.004305 0.000000 0.036118
#
#
# Mechanical properties :
#
#
# Convention : Reuss Voigt Hill
#
# Bulk Modulus (GPa) = 6.02261 74.82011 40.42136
# Shear Modulus (GPa) = 12.62729 39.50490 26.06609
#
# Velocity S-wave (km/s) = 2.33205 4.12484 3.35058
# Velocity P-wave (km/s) = 3.13769 7.41013 5.69013
#
# Compressibility (1/GPa) = 0.16604098
#
# Stress axis : x y z
#
# Youngs Moduli (GPa) = 6.14351 81.45985 67.15633
#
# Poissons Ratio (x) = -1.49887 1.56463
# Poissons Ratio (y) = -0.11304 0.47354
# Poissons Ratio (z) = 0.14313 0.57440
#
# Static dielectric constant tensor:
#      x y z
#    x 3.746390 0.000000 -0.458480 
#    y 0.000000 4.057520 0.000000 
#    z -0.458480 0.000000 5.255530 
# 
# 
# High freq. dielectric constant tensor:
#      x y z
#    x 1.879790 0.000000 -0.013880 
#    y 0.000000 1.916130 0.000000 
#    z -0.013880 0.000000 1.954400 
# 
# From -- ./inp_files/49861.got.cif
#   From: 2010.03.12/outbox.cif.g09.slc.cpg/sg5_25_cif.got.tgz:49861.got - 2010.03.31 09:47:26.
