data_PCOD8048437
_publ_section_title
;
Structure prediction by ZEFSAII (Michael W. Deem and Ramdas Pophale) SiO2 
 PCOD8048437
Probable space group: C 2
;
_chemical_formula_sum "Si O2"
_cell_formula_units_Z 32
_cell_length_a 31.305258
_cell_length_b 9.289439
_cell_length_c 10.801160
_cell_angle_alpha 90.000000
_cell_angle_beta 149.895669
_cell_angle_gamma 90.000000
_cell_volume 1575.484144
_symmetry_space_group_name_H-M "C 2"
_symmetry_group_IT_number 5
_symmetry_cell_setting 'monoclinic'
loop_
_space_group_symop_operation_xyz
x,y,z
-x,y,-z
1/2+x,1/2+y,z
1/2-x,1/2+y,-z
loop_
_atom_site_type_symbol
_atom_site_label
_atom_site_fract_x
_atom_site_fract_y
_atom_site_fract_z
Si Si1 0.739315 0.037710 0.307599
Si Si2 0.598404 0.051795 0.753750
Si Si3 0.801716 0.768870 0.602615
Si Si4 0.112846 0.058335 0.525598
Si Si5 0.350582 0.864421 0.340357
Si Si6 0.984270 0.854499 0.098689
Si Si7 0.131729 0.645500 0.478989
Si Si8 0.673748 0.307146 0.818147
O O1 0.747741 0.175585 0.419172
O O2 0.820744 0.040387 0.421408
O O3 0.741909 0.894590 0.398993
O O4 0.647217 0.038480 0.007241
O O5 0.500000 0.006219 0.500000
O O6 0.602631 0.215084 0.712660
O O7 0.645620 0.940511 0.782352
O O8 0.832131 0.665951 0.567224
O O9 0.884993 0.835504 0.878918
O O10 0.089986 0.223841 0.498063
O O11 0.149984 0.974746 0.739159
O O12 0.022254 0.983439 0.275044
O O13 0.370669 0.975089 0.500854
O O14 0.255798 0.798325 0.112260
O O15 0.035437 0.705633 0.251567
O O16 0.000000 0.906674 0.000000
O O17 0.189972 0.731796 0.724499
#
# Coordination Sequence:
#
# PCOD8048437 Si02
#       8
#     4   4   4   4   4   4   4   4
#     4  12  24  41  64  95 133 169 215 265 325 381
#     4  11  25  43  64  95 132 167 210 271 327 389
#     4  11  24  41  63  91 132 175 208 269 327 385
#     4  11  20  38  64  94 120 163 218 267 307 384
#     4  11  20  36  64  97 122 162 216 273 315 373
#     4   9  18  40  62  79 119 171 212 250 307 386
#     4   9  19  36  62  87 120 166 215 251 310 387
#     4  10  18  38  67  87 119 172 215 255 314 388
#
# _framework density 20.311216999999999
#
# number of rings (size 3 to 8) (size 9 to 14) (size 15 to 20)
#    0.000    1.500    6.250    0.750    7.000    0.000 
#    2.250    2.500    0.000    0.000    0.000    0.000 
#    0.000    0.000    0.000    0.000    0.000    0.000 
#
# Total GULP energy -198333.155569 kJ/mol
# GULP energy per Si atom -12395.822223 kJ/mol
# Density = 2.026499 g / cm^3
# Si number density = 20.311217 Si / 1000 Ang^3
#
#
#
# Elastic Constant Matrix: (Units=GPa)
#
#
# Indices 1 2 3 4 5 6 
#
# 1 46.0553 33.5255 28.5354 0.0000 -11.0467 0.0000
# 2 33.5255 149.8702 38.4168 0.0000 -13.1167 0.0000
# 3 28.5354 38.4168 104.8502 0.0000 -12.0971 0.0000
# 4 0.0000 0.0000 0.0000 20.7349 0.0000 -5.3876
# 5 -11.0467 -13.1167 -12.0971 0.0000 23.5479 0.0000
# 6 0.0000 0.0000 0.0000 -5.3876 0.0000 26.1939
#
#
#
# Elastic Compliance Matrix: (Units=1/GPa)
#
#
# Indices 1 2 3 4 5 6 
#
# 1 0.030727 -0.004649 -0.005628 0.000000 0.008934 0.000000
# 2 -0.004649 0.008257 -0.001574 0.000000 0.001610 0.000000
# 3 -0.005628 -0.001574 0.011948 0.000000 0.002621 0.000000
# 4 0.000000 0.000000 0.000000 0.050951 0.000000 0.010480
# 5 0.008934 0.001610 0.002621 0.000000 0.048900 0.000000
# 6 0.000000 0.000000 0.000000 0.010480 0.000000 0.040332
#
#
# Mechanical properties :
#
#
# Convention : Reuss Voigt Hill
#
# Bulk Modulus (GPa) = 36.72550 55.74788 46.23669
# Shear Modulus (GPa) = 22.33180 27.44855 24.89018
#
# Velocity S-wave (km/s) = 3.31944 3.68013 3.50443
# Velocity P-wave (km/s) = 5.72819 6.75013 6.26005
#
# Compressibility (1/GPa) = 0.02722903
#
# Stress axis : x y z
#
# Youngs Moduli (GPa) = 32.54436 121.11194 83.69300
#
# Poissons Ratio (x) = 0.56304 0.47106
# Poissons Ratio (y) = 0.15130 0.13176
# Poissons Ratio (z) = 0.18317 0.19067
#
# Static dielectric constant tensor:
#      x y z
#    x 3.437920 0.000000 -0.254090 
#    y 0.000000 3.791450 0.000000 
#    z -0.254090 0.000000 3.831220 
# 
# 
# High freq. dielectric constant tensor:
#      x y z
#    x 1.766470 0.000000 -0.022650 
#    y 0.000000 1.797110 0.000000 
#    z -0.022650 0.000000 1.790630 
# 
# From -- ./inp_files/48418.got.cif
#   From: 2010.03.12/outbox.cif.g09.slc.cpg/sg5_25_cif.got.tgz:48418.got - 2010.03.31 09:47:26.
