data_PCOD8048992
_publ_section_title
;
Structure prediction by ZEFSAII (Michael W. Deem and Ramdas Pophale) SiO2 
 PCOD8048992
Probable space group: C 2
;
_chemical_formula_sum "Si O2"
_cell_formula_units_Z 32
_cell_length_a 14.949207
_cell_length_b 24.344474
_cell_length_c 9.060541
_cell_angle_alpha 90.000000
_cell_angle_beta 150.731372
_cell_angle_gamma 90.000000
_cell_volume 1612.118844
_symmetry_space_group_name_H-M "C 2"
_symmetry_group_IT_number 5
_symmetry_cell_setting 'monoclinic'
loop_
_space_group_symop_operation_xyz
x,y,z
-x,y,-z
1/2+x,1/2+y,z
1/2-x,1/2+y,-z
loop_
_atom_site_type_symbol
_atom_site_label
_atom_site_fract_x
_atom_site_fract_y
_atom_site_fract_z
Si Si1 0.314872 0.727150 0.821581
Si Si2 0.454606 0.946600 0.101437
Si Si3 0.689138 0.345100 0.686459
Si Si4 0.809611 0.642496 0.139458
Si Si5 0.470158 0.209946 0.129606
Si Si6 0.812144 0.519627 0.141569
Si Si7 0.309465 0.435557 0.811436
Si Si8 0.055769 0.828647 0.917248
O O1 0.267515 0.784693 0.834447
O O2 0.331772 0.680789 0.973695
O O3 0.167636 0.708723 0.489346
O O4 0.500000 0.733859 0.000000
O O5 0.336552 0.993900 0.013092
O O6 0.642804 0.940431 0.460183
O O7 0.500000 0.965141 0.000000
O O8 0.342686 0.889856 0.943920
O O9 0.500000 0.355676 0.500000
O O10 0.631711 0.348416 0.432482
O O11 0.729989 0.580815 0.010824
O O12 0.000000 0.643587 0.500000
O O13 0.839836 0.664214 0.015940
O O14 0.375536 0.268838 0.037860
O O15 0.500000 0.197278 0.000000
O O16 0.676880 0.482644 0.045306
O O17 0.000000 0.520851 0.500000
O O18 0.500000 0.435751 0.000000
O O19 0.291552 0.376742 0.871709
O O20 0.000000 0.815069 0.000000
#
# Coordination Sequence:
#
# PCOD8048992 Si02
#       8
#     4   4   4   4   4   4   4   4
#     4  10  20  34  56  83 110 140 179 222 271 330
#     4  11  22  35  55  85 112 142 184 228 271 321
#     4  11  21  35  56  83 112 144 180 224 272 322
#     4   9  18  36  56  75 104 145 185 222 266 322
#     4   9  18  33  56  80 105 139 177 218 271 323
#     4   9  20  36  54  76 106 144 187 225 266 321
#     4  10  20  36  56  80 110 145 180 220 273 330
#     4   9  17  31  52  78 106 137 168 207 265 325
#
# _framework density 19.849654000000001
#
# number of rings (size 3 to 8) (size 9 to 14) (size 15 to 20)
#    0.000    2.250    0.000    4.500    0.000    4.000 
#    0.000    0.625    0.000   12.000    0.000    0.000 
#    0.000    0.000    0.000    0.000    0.000    0.000 
#
# Total GULP energy -198262.193079 kJ/mol
# GULP energy per Si atom -12391.387067 kJ/mol
# Density = 1.980448 g / cm^3
# Si number density = 19.849654 Si / 1000 Ang^3
#
#
#
# Elastic Constant Matrix: (Units=GPa)
#
#
# Indices 1 2 3 4 5 6 
#
# 1 125.7355 59.4600 37.8073 0.0000 -12.1640 0.0000
# 2 59.4600 140.1655 30.9933 0.0000 -19.1588 0.0000
# 3 37.8073 30.9933 56.6620 0.0000 -8.4868 0.0000
# 4 0.0000 0.0000 0.0000 21.7912 0.0000 -0.0284
# 5 -12.1640 -19.1588 -8.4868 0.0000 27.5557 0.0000
# 6 0.0000 0.0000 0.0000 -0.0284 0.0000 32.1214
#
#
#
# Elastic Compliance Matrix: (Units=1/GPa)
#
#
# Indices 1 2 3 4 5 6 
#
# 1 0.011344 -0.003465 -0.005540 0.000000 0.000892 0.000000
# 2 -0.003465 0.009739 -0.002338 0.000000 0.004522 0.000000
# 3 -0.005540 -0.002338 0.023079 0.000000 0.003037 0.000000
# 4 0.000000 0.000000 0.000000 0.045890 0.000000 0.000041
# 5 0.000892 0.004522 0.003037 0.000000 0.040763 0.000000
# 6 0.000000 0.000000 0.000000 0.000041 0.000000 0.031132
#
#
# Mechanical properties :
#
#
# Convention : Reuss Voigt Hill
#
# Bulk Modulus (GPa) = 46.56439 64.34268 55.45353
# Shear Modulus (GPa) = 26.06979 29.24717 27.65848
#
# Velocity S-wave (km/s) = 3.62797 3.84270 3.73687
# Velocity P-wave (km/s) = 6.40773 7.22315 6.82762
#
# Compressibility (1/GPa) = 0.02147564
#
# Stress axis : x y z
#
# Youngs Moduli (GPa) = 88.15130 102.67478 43.32979
#
# Poissons Ratio (x) = 0.35580 0.24006
# Poissons Ratio (y) = 0.30548 0.10130
# Poissons Ratio (z) = 0.48838 0.24004
#
# Static dielectric constant tensor:
#      x y z
#    x 3.698870 0.000000 -0.213000 
#    y 0.000000 4.083620 0.000000 
#    z -0.213000 0.000000 3.222920 
# 
# 
# High freq. dielectric constant tensor:
#      x y z
#    x 1.779250 0.000000 -0.018240 
#    y 0.000000 1.779900 0.000000 
#    z -0.018240 0.000000 1.745070 
# 
# From -- ./inp_files/25645.got.cif
#   From: 2010.03.12/outbox.cif.g09.slc.cpg/sg5_13_cif.got.tgz:25645.got - 2010.03.31 09:47:26.
