data_PCOD8048117
_publ_section_title
;
Structure prediction by ZEFSAII (Michael W. Deem and Ramdas Pophale) SiO2 
 PCOD8048117
Probable space group: C 2
;
_chemical_formula_sum "Si O2"
_cell_formula_units_Z 24
_cell_length_a 7.668064
_cell_length_b 17.097447
_cell_length_c 11.497001
_cell_angle_alpha 90.000000
_cell_angle_beta 75.596143
_cell_angle_gamma 90.000000
_cell_volume 1459.926431
_symmetry_space_group_name_H-M "C 2"
_symmetry_group_IT_number 5
_symmetry_cell_setting 'monoclinic'
loop_
_space_group_symop_operation_xyz
x,y,z
-x,y,-z
1/2+x,1/2+y,z
1/2-x,1/2+y,-z
loop_
_atom_site_type_symbol
_atom_site_label
_atom_site_fract_x
_atom_site_fract_y
_atom_site_fract_z
Si Si1 0.310985 0.797050 0.595174
Si Si2 0.409661 0.109651 0.710972
Si Si3 0.279384 0.468245 0.339587
Si Si4 0.500000 0.229649 0.500000
Si Si5 0.792806 0.139590 0.723120
Si Si6 0.545806 0.571878 0.860793
Si Si7 0.500000 0.538505 0.500000
O O1 0.500000 0.797487 0.500000
O O2 0.280083 0.879265 0.664627
O O3 0.305254 0.731876 0.696465
O O4 0.155564 0.783918 0.525937
O O5 0.411044 0.176568 0.613794
O O6 0.585466 0.112146 0.762663
O O7 0.231070 0.122361 0.820238
O O8 0.393981 0.025058 0.649460
O O9 0.427818 0.490584 0.215515
O O10 0.363298 0.483334 0.452789
O O11 0.882916 0.121506 0.831900
O O12 0.891070 0.095114 0.602672
O O13 0.500000 0.551435 0.000000
#
# Coordination Sequence:
#
# PCOD8048117 Si02
#       7
#     4   4   4   2   4   4   2
#     4  11  20  30  49  81 112 135 161 208 269 311
#     4   9  19  32  55  76 100 138 172 210 252 305
#     4   9  20  31  50  78 104 137 169 212 254 302
#     4  10  19  34  51  78 114 134 162 208 263 322
#     4  10  19  33  55  76 105 136 171 212 258 308
#     4   9  20  38  57  72 100 139 186 212 247 302
#     4  10  17  32  49  78 108 142 164 204 259 312
#
# _framework density 16.439185999999999
#
# number of rings (size 3 to 8) (size 9 to 14) (size 15 to 20)
#    1.000    1.333    0.833    3.500    3.500    0.667 
#    0.000    0.000    7.333    0.000    0.000    0.000 
#    0.000    0.000    0.000    0.000    0.000    0.000 
#
# Total GULP energy -148738.729838 kJ/mol
# GULP energy per Si atom -12394.894153 kJ/mol
# Density = 1.640177 g / cm^3
# Si number density = 16.439186 Si / 1000 Ang^3
#
#
#
# Elastic Constant Matrix: (Units=GPa)
#
#
# Indices 1 2 3 4 5 6 
#
# 1 121.9200 50.4157 36.1309 0.0000 4.3232 0.0000
# 2 50.4157 110.9820 25.8499 0.0000 6.3081 0.0000
# 3 36.1309 25.8499 75.5062 0.0000 5.9456 0.0000
# 4 0.0000 0.0000 0.0000 5.8341 0.0000 4.1136
# 5 4.3232 6.3081 5.9456 0.0000 21.2337 0.0000
# 6 0.0000 0.0000 0.0000 4.1136 0.0000 12.6979
#
#
#
# Elastic Compliance Matrix: (Units=1/GPa)
#
#
# Indices 1 2 3 4 5 6 
#
# 1 0.011055 -0.004121 -0.003884 0.000000 0.000061 0.000000
# 2 -0.004121 0.011412 -0.001773 0.000000 -0.002055 0.000000
# 3 -0.003884 -0.001773 0.015958 0.000000 -0.003151 0.000000
# 4 0.000000 0.000000 0.000000 0.222149 0.000000 -0.071967
# 5 0.000061 -0.002055 -0.003151 0.000000 0.048575 0.000000
# 6 0.000000 0.000000 0.000000 -0.071967 0.000000 0.102067
#
#
# Mechanical properties :
#
#
# Convention : Reuss Voigt Hill
#
# Bulk Modulus (GPa) = 52.99801 59.24458 56.12130
# Shear Modulus (GPa) = 11.44001 21.02060 16.23030
#
# Velocity S-wave (km/s) = 2.64085 3.57975 3.14553
# Velocity P-wave (km/s) = 6.45040 7.29404 6.88515
#
# Compressibility (1/GPa) = 0.01886863
#
# Stress axis : x y z
#
# Youngs Moduli (GPa) = 90.45732 87.62530 62.66553
#
# Poissons Ratio (x) = 0.36108 0.24339
# Poissons Ratio (y) = 0.37275 0.11113
# Poissons Ratio (z) = 0.35134 0.15540
#
# Static dielectric constant tensor:
#      x y z
#    x 3.411250 0.000000 0.045840 
#    y 0.000000 2.980780 0.000000 
#    z 0.045840 0.000000 2.732080 
# 
# 
# High freq. dielectric constant tensor:
#      x y z
#    x 1.648780 0.000000 -0.000510 
#    y 0.000000 1.621030 0.000000 
#    z -0.000510 0.000000 1.599900 
# 
# From -- ./inp_files/35819.got.cif
#   From: 2010.03.12/outbox.cif.g09.slc.cpg/sg5_18_cif.got.tgz:35819.got - 2010.03.31 09:47:26.
