data_PCOD8048401
_publ_section_title
;
Structure prediction by ZEFSAII (Michael W. Deem and Ramdas Pophale) SiO2 
 PCOD8048401
Probable space group: C 2
;
_chemical_formula_sum "Si O2"
_cell_formula_units_Z 28
_cell_length_a 15.218178
_cell_length_b 17.817700
_cell_length_c 7.209671
_cell_angle_alpha 90.000000
_cell_angle_beta 140.230761
_cell_angle_gamma 90.000000
_cell_volume 1250.558901
_symmetry_space_group_name_H-M "C 2"
_symmetry_group_IT_number 5
_symmetry_cell_setting 'monoclinic'
loop_
_space_group_symop_operation_xyz
x,y,z
-x,y,-z
1/2+x,1/2+y,z
1/2-x,1/2+y,-z
loop_
_atom_site_type_symbol
_atom_site_label
_atom_site_fract_x
_atom_site_fract_y
_atom_site_fract_z
Si Si1 0.612325 0.745340 0.902304
Si Si2 0.677345 0.810094 0.633711
Si Si3 0.881214 0.451577 0.681037
Si Si4 0.732599 0.200293 0.483169
Si Si5 0.841874 0.048830 0.483503
Si Si6 0.858651 0.076778 0.098847
Si Si7 0.916211 0.593094 0.543915
O O1 0.687193 0.800608 0.872278
O O2 0.458438 0.773535 0.676635
O O3 0.606072 0.663212 0.803371
O O4 0.688861 0.743941 0.222848
O O5 0.676426 0.897228 0.573873
O O6 0.797806 0.762602 0.724808
O O7 0.747460 0.482177 0.571632
O O8 0.972160 0.519961 0.739528
O O9 0.000000 0.411874 0.000000
O O10 0.815447 0.129524 0.534157
O O11 0.589121 0.166622 0.332340
O O12 0.802413 0.045847 0.202213
O O13 0.006690 0.033779 0.762194
O O14 0.741093 0.069703 0.755332
O O15 0.000000 0.616007 0.500000
#
# Coordination Sequence:
#
# PCOD8048401 Si02
#       7
#     4   4   4   4   4   4   4
#     4  10  19  31  60  92 115 143 202 267 304 347
#     4  11  20  36  56  90 125 157 203 255 310 360
#     4  11  24  37  56  87 132 172 204 253 314 383
#     4  10  19  34  61  84 117 151 200 256 302 359
#     4  10  19  36  61  94 117 160 209 254 318 360
#     4  10  18  37  67  90 120 150 214 275 299 366
#     4  10  23  37  58  89 123 163 206 254 314 372
#
# _framework density 22.389990000000001
#
# number of rings (size 3 to 8) (size 9 to 14) (size 15 to 20)
#    0.000    1.714    2.857    3.000    4.000    1.714 
#    2.571    0.000    3.143    3.429    0.000    0.000 
#    0.000    0.000    0.000    0.000    0.000    0.000 
#
# Total GULP energy -173469.307613 kJ/mol
# GULP energy per Si atom -12390.664829 kJ/mol
# Density = 2.233903 g / cm^3
# Si number density = 22.389990 Si / 1000 Ang^3
#
#
#
# Elastic Constant Matrix: (Units=GPa)
#
#
# Indices 1 2 3 4 5 6 
#
# 1 145.8353 36.9920 5.6100 0.0000 1.8668 0.0000
# 2 36.9920 72.6911 2.2196 0.0000 3.7472 0.0000
# 3 5.6100 2.2196 37.4755 0.0000 -4.8719 0.0000
# 4 0.0000 0.0000 0.0000 22.1319 0.0000 -6.5157
# 5 1.8668 3.7472 -4.8719 0.0000 28.4052 0.0000
# 6 0.0000 0.0000 0.0000 -6.5157 0.0000 35.3925
#
#
#
# Elastic Compliance Matrix: (Units=1/GPa)
#
#
# Indices 1 2 3 4 5 6 
#
# 1 0.007907 -0.003986 -0.000968 0.000000 -0.000160 0.000000
# 2 -0.003986 0.015904 -0.000597 0.000000 -0.001938 0.000000
# 3 -0.000968 -0.000597 0.027496 0.000000 0.004858 0.000000
# 4 0.000000 0.000000 0.000000 0.047773 0.000000 0.008795
# 5 -0.000160 -0.001938 0.004858 0.000000 0.036304 0.000000
# 6 0.000000 0.000000 0.000000 0.008795 0.000000 0.029874
#
#
# Mechanical properties :
#
#
# Convention : Reuss Voigt Hill
#
# Bulk Modulus (GPa) = 24.87354 38.40500 31.63927
# Shear Modulus (GPa) = 26.34865 31.26460 28.80663
#
# Velocity S-wave (km/s) = 3.43418 3.74085 3.59079
# Velocity P-wave (km/s) = 5.18248 5.98737 5.59941
#
# Compressibility (1/GPa) = 0.04020337
#
# Stress axis : x y z
#
# Youngs Moduli (GPa) = 126.46243 62.87893 36.36883
#
# Poissons Ratio (x) = 0.25065 0.03522
# Poissons Ratio (y) = 0.50411 0.02172
# Poissons Ratio (z) = 0.12247 0.03755
#
# Static dielectric constant tensor:
#      x y z
#    x 4.388420 0.000000 -0.016470 
#    y 0.000000 3.961130 0.000000 
#    z -0.016470 0.000000 3.714000 
# 
# 
# High freq. dielectric constant tensor:
#      x y z
#    x 1.908920 0.000000 -0.018020 
#    y 0.000000 1.853520 0.000000 
#    z -0.018020 0.000000 1.848920 
# 
# From -- ./inp_files/25220.got.cif
#   From: 2010.03.12/outbox.cif.g09.slc.cpg/sg5_13_cif.got.tgz:25220.got - 2010.03.31 09:47:26.
