data_PCOD8048746
_publ_section_title
;
Structure prediction by ZEFSAII (Michael W. Deem and Ramdas Pophale) SiO2 
 PCOD8048746
Probable space group: C 2
;
_chemical_formula_sum "Si O2"
_cell_formula_units_Z 30
_cell_length_a 12.103287
_cell_length_b 6.238199
_cell_length_c 15.064032
_cell_angle_alpha 90.000000
_cell_angle_beta 109.245996
_cell_angle_gamma 90.000000
_cell_volume 1073.809719
_symmetry_space_group_name_H-M "C 2"
_symmetry_group_IT_number 5
_symmetry_cell_setting 'monoclinic'
loop_
_space_group_symop_operation_xyz
x,y,z
-x,y,-z
1/2+x,1/2+y,z
1/2-x,1/2+y,-z
loop_
_atom_site_type_symbol
_atom_site_label
_atom_site_fract_x
_atom_site_fract_y
_atom_site_fract_z
Si Si1 0.128315 0.633680 0.367169
Si Si2 0.527857 0.783627 0.740518
Si Si3 0.500000 0.082532 0.500000
Si Si4 0.073073 0.284544 0.106820
Si Si5 0.104866 0.171026 0.584939
Si Si6 0.793986 0.937933 0.089189
Si Si7 0.735685 0.919075 0.878371
Si Si8 0.950339 0.772503 0.837231
O O1 0.068487 0.721655 0.442856
O O2 0.267488 0.602202 0.414135
O O3 0.091826 0.787805 0.276088
O O4 0.082178 0.392887 0.337501
O O5 0.478771 0.664365 0.818162
O O6 0.585507 0.617807 0.684931
O O7 0.617744 0.982829 0.792188
O O8 0.597209 0.930260 0.572944
O O9 0.214725 0.253565 0.121357
O O10 0.068367 0.537279 0.126614
O O11 0.000000 0.224354 0.000000
O O12 0.000000 0.058819 0.500000
O O13 0.794826 0.160107 0.141457
O O14 0.917302 0.830512 0.107112
O O15 0.729045 0.986886 0.979017
O O16 0.866743 0.943214 0.870134
#
# Coordination Sequence:
#
# PCOD8048746 Si02
#       8
#     4   4   2   4   4   4   4   4
#     4  10  19  39  69  92 123 165 206 260 331 377
#     4  10  20  38  65  90 124 168 205 256 318 379
#     4   8  20  38  64  94 122 156 206 254 330 388
#     4  10  19  37  61  87 126 168 209 262 311 362
#     4   9  19  40  67  90 120 164 202 258 330 384
#     4  11  23  39  62  95 128 175 224 255 314 368
#     4  11  22  41  63  90 134 171 218 264 310 370
#     4  10  21  38  63  89 127 170 215 257 309 378
#
# _framework density 27.937913000000002
#
# number of rings (size 3 to 8) (size 9 to 14) (size 15 to 20)
#    0.400    1.600    2.667    2.000    1.867    0.000 
#    7.200    1.333    1.467    0.000    0.000    0.000 
#    0.000    0.000    0.000    0.000    0.000    0.000 
#
# Total GULP energy -185953.572574 kJ/mol
# GULP energy per Si atom -12396.904838 kJ/mol
# Density = 2.787432 g / cm^3
# Si number density = 27.937913 Si / 1000 Ang^3
#
#
#
# Elastic Constant Matrix: (Units=GPa)
#
#
# Indices 1 2 3 4 5 6 
#
# 1 253.6943 25.6988 86.9628 0.0000 -3.1828 0.0000
# 2 25.6988 64.8428 14.6356 0.0000 -8.3337 0.0000
# 3 86.9628 14.6356 176.9561 0.0000 -14.8628 0.0000
# 4 0.0000 0.0000 0.0000 27.3455 0.0000 -4.7033
# 5 -3.1828 -8.3337 -14.8628 0.0000 68.5333 0.0000
# 6 0.0000 0.0000 0.0000 -4.7033 0.0000 42.8416
#
#
#
# Elastic Compliance Matrix: (Units=1/GPa)
#
#
# Indices 1 2 3 4 5 6 
#
# 1 0.004878 -0.001469 -0.002314 0.000000 -0.000454 0.000000
# 2 -0.001469 0.016345 -0.000477 0.000000 0.001816 0.000000
# 3 -0.002314 -0.000477 0.006940 0.000000 0.001340 0.000000
# 4 0.000000 0.000000 0.000000 0.037273 0.000000 0.004092
# 5 -0.000454 0.001816 0.001340 0.000000 0.015082 0.000000
# 6 0.000000 0.000000 0.000000 0.004092 0.000000 0.023791
#
#
# Mechanical properties :
#
#
# Convention : Reuss Voigt Hill
#
# Bulk Modulus (GPa) = 50.90959 83.34306 67.12633
# Shear Modulus (GPa) = 41.88383 52.29048 47.08715
#
# Velocity S-wave (km/s) = 3.87612 4.33097 4.10984
# Velocity P-wave (km/s) = 6.18824 7.40986 6.82643
#
# Compressibility (1/GPa) = 0.01964266
#
# Stress axis : x y z
#
# Youngs Moduli (GPa) = 204.99951 61.17941 144.08759
#
# Poissons Ratio (x) = 0.08990 0.33340
# Poissons Ratio (y) = 0.30122 0.06877
# Poissons Ratio (z) = 0.47434 0.02920
#
# Static dielectric constant tensor:
#      x y z
#    x 5.798560 0.000000 -0.302000 
#    y 0.000000 5.600670 0.000000 
#    z -0.302000 0.000000 5.103780 
# 
# 
# High freq. dielectric constant tensor:
#      x y z
#    x 2.162230 0.000000 -0.008170 
#    y 0.000000 2.146690 0.000000 
#    z -0.008170 0.000000 2.123650 
# 
# From -- ./inp_files/52480.got.cif
#   From: 2010.03.12/outbox.cif.g09.slc.cpg/sg5_27_cif.got.tgz:52480.got - 2010.03.31 09:47:26.
