data_PCOD8048722
_publ_section_title
;
Structure prediction by ZEFSAII (Michael W. Deem and Ramdas Pophale) SiO2 
 PCOD8048722
Probable space group: C 2
;
_chemical_formula_sum "Si O2"
_cell_formula_units_Z 28
_cell_length_a 20.223372
_cell_length_b 9.547649
_cell_length_c 15.624552
_cell_angle_alpha 90.000000
_cell_angle_beta 151.636728
_cell_angle_gamma 90.000000
_cell_volume 1433.198247
_symmetry_space_group_name_H-M "C 2"
_symmetry_group_IT_number 5
_symmetry_cell_setting 'monoclinic'
loop_
_space_group_symop_operation_xyz
x,y,z
-x,y,-z
1/2+x,1/2+y,z
1/2-x,1/2+y,-z
loop_
_atom_site_type_symbol
_atom_site_label
_atom_site_fract_x
_atom_site_fract_y
_atom_site_fract_z
Si Si1 0.462378 0.388690 0.091768
Si Si2 0.618561 0.211038 0.566429
Si Si3 0.526083 0.091442 0.127069
Si Si4 0.314325 0.626541 0.397626
Si Si5 0.275500 0.433709 0.721785
Si Si6 0.766690 0.432819 0.840589
Si Si7 0.539118 0.435196 0.717251
O O1 0.475601 0.222582 0.125494
O O2 0.603201 0.447172 0.210029
O O3 0.435186 0.454463 0.153206
O O4 0.333598 0.429666 0.884630
O O5 0.500000 0.178979 0.500000
O O6 0.742853 0.295855 0.755108
O O7 0.557363 0.302712 0.418476
O O8 0.676002 0.066495 0.594690
O O9 0.691951 0.063763 0.321363
O O10 0.500000 0.143690 0.000000
O O11 0.433472 0.954469 0.045189
O O12 0.314112 0.794355 0.397331
O O13 0.292380 0.568634 0.276516
O O14 0.463165 0.577206 0.601126
O O15 0.688841 0.421675 0.842322
#
# Coordination Sequence:
#
# PCOD8048722 Si02
#       7
#     4   4   4   4   4   4   4
#     4  10  19  37  57  79 113 146 181 229 276 323
#     4   9  20  37  56  81 115 147 177 230 283 327
#     4   9  15  34  62  79  98 147 195 222 260 333
#     4   9  17  34  61  84 102 146 196 224 267 333
#     4  10  19  37  59  78 110 150 185 221 279 335
#     4   9  17  36  57  79 109 149 185 218 277 336
#     4  10  21  35  57  84 115 142 181 237 275 319
#
# _framework density 19.536724
#
# number of rings (size 3 to 8) (size 9 to 14) (size 15 to 20)
#    0.000    2.571    4.286    1.286    0.000    3.429 
#   18.000    0.000    3.143    0.000    0.000    0.000 
#    0.000    0.000    0.000    0.000    0.000    0.000 
#
# Total GULP energy -173545.088499 kJ/mol
# GULP energy per Si atom -12396.077750 kJ/mol
# Density = 1.949226 g / cm^3
# Si number density = 19.536724 Si / 1000 Ang^3
#
#
#
# Elastic Constant Matrix: (Units=GPa)
#
#
# Indices 1 2 3 4 5 6 
#
# 1 99.2750 33.6163 29.3623 0.0000 -10.4373 0.0000
# 2 33.6163 110.8452 33.7318 0.0000 15.3915 0.0000
# 3 29.3623 33.7318 49.8179 0.0000 6.5677 0.0000
# 4 0.0000 0.0000 0.0000 25.5834 0.0000 9.0863
# 5 -10.4373 15.3915 6.5677 0.0000 23.2721 0.0000
# 6 0.0000 0.0000 0.0000 9.0863 0.0000 19.5889
#
#
#
# Elastic Compliance Matrix: (Units=1/GPa)
#
#
# Indices 1 2 3 4 5 6 
#
# 1 0.014785 -0.003707 -0.007688 0.000000 0.011252 0.000000
# 2 -0.003707 0.013027 -0.005485 0.000000 -0.008730 0.000000
# 3 -0.007688 -0.005485 0.029388 0.000000 -0.008114 0.000000
# 4 0.000000 0.000000 0.000000 0.046797 0.000000 -0.021707
# 5 0.011252 -0.008730 -0.008114 0.000000 0.056080 0.000000
# 6 0.000000 0.000000 0.000000 -0.021707 0.000000 0.061118
#
#
# Mechanical properties :
#
#
# Convention : Reuss Voigt Hill
#
# Bulk Modulus (GPa) = 42.66041 50.37321 46.51681
# Shear Modulus (GPa) = 19.02820 24.57073 21.79947
#
# Velocity S-wave (km/s) = 3.12424 3.55021 3.34401
# Velocity P-wave (km/s) = 5.90744 6.53033 6.22668
#
# Compressibility (1/GPa) = 0.02344094
#
# Stress axis : x y z
#
# Youngs Moduli (GPa) = 67.63635 76.76255 34.02779
#
# Poissons Ratio (x) = 0.28454 0.26159
# Poissons Ratio (y) = 0.25072 0.18664
# Poissons Ratio (z) = 0.51996 0.42104
#
# Static dielectric constant tensor:
#      x y z
#    x 3.389870 0.000000 0.235370 
#    y 0.000000 3.402900 0.000000 
#    z 0.235370 0.000000 3.446640 
# 
# 
# High freq. dielectric constant tensor:
#      x y z
#    x 1.749490 0.000000 0.017180 
#    y 0.000000 1.747610 0.000000 
#    z 0.017180 0.000000 1.738050 
# 
# From -- ./inp_files/62745.got.cif
#   From: 2010.03.12/outbox.cif.g09.slc.cpg/sg5_32_cif.got.tgz:62745.got - 2010.03.31 09:47:26.
