data_PCOD8048466
_publ_section_title
;
Structure prediction by ZEFSAII (Michael W. Deem and Ramdas Pophale) SiO2 
 PCOD8048466
Probable space group: C 2
;
_chemical_formula_sum "Si O2"
_cell_formula_units_Z 28
_cell_length_a 27.072530
_cell_length_b 8.957278
_cell_length_c 8.145839
_cell_angle_alpha 90.000000
_cell_angle_beta 43.627972
_cell_angle_gamma 90.000000
_cell_volume 1362.927701
_symmetry_space_group_name_H-M "C 2"
_symmetry_group_IT_number 5
_symmetry_cell_setting 'monoclinic'
loop_
_space_group_symop_operation_xyz
x,y,z
-x,y,-z
1/2+x,1/2+y,z
1/2-x,1/2+y,-z
loop_
_atom_site_type_symbol
_atom_site_label
_atom_site_fract_x
_atom_site_fract_y
_atom_site_fract_z
Si Si1 0.681292 0.037460 0.063842
Si Si2 0.226152 0.696198 0.383381
Si Si3 0.542559 0.726215 0.043640
Si Si4 0.684474 0.347490 0.172519
Si Si5 0.875242 0.106600 0.860225
Si Si6 0.440688 0.876403 0.515650
Si Si7 0.823697 0.422151 0.286660
O O1 0.698029 0.213047 0.012032
O O2 0.616510 0.011392 0.350434
O O3 0.659435 0.976535 0.938424
O O4 0.748199 0.955061 0.980364
O O5 0.171579 0.775996 0.385404
O O6 0.186216 0.560291 0.567729
O O7 0.251803 0.819670 0.455546
O O8 0.295743 0.637334 0.118818
O O9 0.567632 0.610711 0.125512
O O10 0.481530 0.843534 0.248907
O O11 0.500000 0.639042 0.000000
O O12 0.610222 0.820348 0.813323
O O13 0.620787 0.448808 0.247776
O O14 0.896246 0.231500 0.679772
O O15 0.500000 0.926750 0.500000
#
# Coordination Sequence:
#
# PCOD8048466 Si02
#       7
#     4   4   4   4   4   4   4
#     4  11  20  37  61  94 122 168 212 261 316 379
#     4  10  21  38  58  95 134 159 200 262 332 383
#     4  10  22  40  66  89 120 172 221 262 318 377
#     4  11  21  36  62  93 128 159 211 262 324 378
#     4  10  20  41  58  93 124 165 217 261 317 382
#     4  10  18  40  64  83 123 167 222 259 293 389
#     4  10  22  39  58  95 129 165 205 260 330 375
#
# _framework density 20.544008000000002
#
# number of rings (size 3 to 8) (size 9 to 14) (size 15 to 20)
#    0.000    1.714    7.143    0.000    4.000    0.000 
#   12.857    2.143    0.000    0.857    0.000    0.000 
#    0.000    0.000    0.000    0.000    0.000    0.000 
#
# Total GULP energy -173446.552918 kJ/mol
# GULP energy per Si atom -12389.039494 kJ/mol
# Density = 2.049725 g / cm^3
# Si number density = 20.544008 Si / 1000 Ang^3
#
#
#
# Elastic Constant Matrix: (Units=GPa)
#
#
# Indices 1 2 3 4 5 6 
#
# 1 130.9237 56.4166 15.1728 0.0000 1.6362 0.0000
# 2 56.4166 121.6017 20.2727 0.0000 -5.2889 0.0000
# 3 15.1728 20.2727 58.9177 0.0000 -6.1937 0.0000
# 4 0.0000 0.0000 0.0000 24.3546 0.0000 11.6845
# 5 1.6362 -5.2889 -6.1937 0.0000 11.4228 0.0000
# 6 0.0000 0.0000 0.0000 11.6845 0.0000 38.1433
#
#
#
# Elastic Compliance Matrix: (Units=1/GPa)
#
#
# Indices 1 2 3 4 5 6 
#
# 1 0.009791 -0.004490 -0.001424 0.000000 -0.004253 0.000000
# 2 -0.004490 0.010854 -0.002102 0.000000 0.004529 0.000000
# 3 -0.001424 -0.002102 0.019069 0.000000 0.009570 0.000000
# 4 0.000000 0.000000 0.000000 0.048134 0.000000 -0.014745
# 5 -0.004253 0.004529 0.009570 0.000000 0.095439 0.000000
# 6 0.000000 0.000000 0.000000 -0.014745 0.000000 0.030734
#
#
# Mechanical properties :
#
#
# Convention : Reuss Voigt Hill
#
# Bulk Modulus (GPa) = 42.22627 55.01858 48.62243
# Shear Modulus (GPa) = 21.01306 29.42288 25.21797
#
# Velocity S-wave (km/s) = 3.20164 3.78853 3.50738
# Velocity P-wave (km/s) = 5.85372 6.78058 6.33413
#
# Compressibility (1/GPa) = 0.02368194
#
# Stress axis : x y z
#
# Youngs Moduli (GPa) = 102.13425 92.12996 52.44155
#
# Poissons Ratio (x) = 0.41368 0.07465
# Poissons Ratio (y) = 0.45860 0.11025
# Poissons Ratio (z) = 0.14539 0.19369
#
# Static dielectric constant tensor:
#      x y z
#    x 4.068700 0.000000 0.025520 
#    y 0.000000 3.857820 0.000000 
#    z 0.025520 0.000000 3.659550 
# 
# 
# High freq. dielectric constant tensor:
#      x y z
#    x 1.813530 0.000000 0.001520 
#    y 0.000000 1.788220 0.000000 
#    z 0.001520 0.000000 1.775280 
# 
# From -- ./inp_files/26779.got.cif
#   From: 2010.03.12/outbox.cif.g09.slc.cpg/sg5_14_cif.got.tgz:26779.got - 2010.03.31 09:47:26.
