data_PCOD8048943
_publ_section_title
;
Structure prediction by ZEFSAII (Michael W. Deem and Ramdas Pophale) SiO2 
 PCOD8048943
Probable space group: C 2
;
_chemical_formula_sum "Si O2"
_cell_formula_units_Z 28
_cell_length_a 8.761457
_cell_length_b 33.164322
_cell_length_c 5.099518
_cell_angle_alpha 90.000000
_cell_angle_beta 69.939377
_cell_angle_gamma 90.000000
_cell_volume 1391.857832
_symmetry_space_group_name_H-M "C 2"
_symmetry_group_IT_number 5
_symmetry_cell_setting 'monoclinic'
loop_
_space_group_symop_operation_xyz
x,y,z
-x,y,-z
1/2+x,1/2+y,z
1/2-x,1/2+y,-z
loop_
_atom_site_type_symbol
_atom_site_label
_atom_site_fract_x
_atom_site_fract_y
_atom_site_fract_z
Si Si1 0.805850 0.325670 0.590963
Si Si2 0.111197 0.745679 0.683446
Si Si3 0.808744 0.115915 0.112997
Si Si4 0.108065 0.450123 0.184882
Si Si5 0.890823 0.538579 0.807810
Si Si6 0.192703 0.371344 0.915353
Si Si7 0.193218 0.164485 0.383378
O O1 0.728789 0.283341 0.560797
O O2 0.740041 0.339317 0.913672
O O3 0.000000 0.321748 0.500000
O O4 0.743537 0.358733 0.410156
O O5 0.227649 0.707957 0.650227
O O6 0.000000 0.738249 0.500000
O O7 0.000000 0.753330 0.000000
O O8 0.754379 0.070257 0.096637
O O9 0.745029 0.135616 0.419237
O O10 0.743264 0.144079 0.919281
O O11 0.000000 0.114660 0.000000
O O12 0.187921 0.493802 0.198589
O O13 0.236668 0.415761 0.010925
O O14 0.000000 0.434870 0.500000
O O15 0.000000 0.459978 0.000000
O O16 0.000000 0.550936 0.500000
O O17 0.000000 0.541331 0.000000
O O18 0.000000 0.370659 0.000000
O O19 0.000000 0.170191 0.500000
#
# Coordination Sequence:
#
# PCOD8048943 Si02
#       7
#     4   4   4   4   4   4   4
#     4  10  20  35  56  79 103 138 180 219 260 313
#     4  12  25  39  56  81 111 141 172 219 275 324
#     4  10  21  37  57  80 108 142 179 221 266 314
#     4   9  16  28  47  78 112 138 173 224 267 301
#     4  10  20  32  52  81 113 144 176 219 268 315
#     4   9  16  29  52  79 104 134 178 223 258 300
#     4  10  22  40  59  78 104 141 183 223 262 313
#
# _framework density 20.116994999999999
#
# number of rings (size 3 to 8) (size 9 to 14) (size 15 to 20)
#    0.000    2.000    0.000    5.143    0.000    3.429 
#    0.000    5.714    0.000    2.571    0.000    0.000 
#    0.000    0.000    0.000    0.000    0.000    0.000 
#
# Total GULP energy -173485.218268 kJ/mol
# GULP energy per Si atom -12391.801305 kJ/mol
# Density = 2.007121 g / cm^3
# Si number density = 20.116995 Si / 1000 Ang^3
#
#
#
# Elastic Constant Matrix: (Units=GPa)
#
#
# Indices 1 2 3 4 5 6 
#
# 1 30.3689 39.5291 35.6407 0.0000 15.3882 0.0000
# 2 39.5291 159.5320 35.1486 0.0000 7.4085 0.0000
# 3 35.6407 35.1486 117.3002 0.0000 31.6622 0.0000
# 4 0.0000 0.0000 0.0000 34.1653 0.0000 1.4150
# 5 15.3882 7.4085 31.6622 0.0000 22.4939 0.0000
# 6 0.0000 0.0000 0.0000 1.4150 0.0000 32.9491
#
#
#
# Elastic Compliance Matrix: (Units=1/GPa)
#
#
# Indices 1 2 3 4 5 6 
#
# 1 0.089140 -0.017811 -0.011081 0.000000 -0.039518 0.000000
# 2 -0.017811 0.010284 -0.000072 0.000000 0.008898 0.000000
# 3 -0.011081 -0.000072 0.015903 0.000000 -0.014781 0.000000
# 4 0.000000 0.000000 0.000000 0.029322 0.000000 -0.001259
# 5 -0.039518 0.008898 -0.014781 0.000000 0.089366 0.000000
# 6 0.000000 0.000000 0.000000 -0.001259 0.000000 0.030404
#
#
# Mechanical properties :
#
#
# Convention : Reuss Voigt Hill
#
# Bulk Modulus (GPa) = 17.42141 58.64865 38.03503
# Shear Modulus (GPa) = 14.64221 31.04719 22.84470
#
# Velocity S-wave (km/s) = 2.70080 3.93279 3.37351
# Velocity P-wave (km/s) = 4.29006 7.05971 5.84141
#
# Compressibility (1/GPa) = 0.05740063
#
# Stress axis : x y z
#
# Youngs Moduli (GPa) = 11.21835 97.23759 62.88006
#
# Poissons Ratio (x) = 1.73187 0.69675
# Poissons Ratio (y) = 0.19981 0.00452
# Poissons Ratio (z) = 0.12431 0.00699
#
# Static dielectric constant tensor:
#      x y z
#    x 3.325890 0.000000 0.337440 
#    y 0.000000 4.015180 0.000000 
#    z 0.337440 0.000000 4.031790 
# 
# 
# High freq. dielectric constant tensor:
#      x y z
#    x 1.747460 0.000000 0.032610 
#    y 0.000000 1.804310 0.000000 
#    z 0.032610 0.000000 1.796850 
# 
# From -- ./inp_files/3763.got.cif
#   From: 2010.03.12/outbox.cif.g09.slc.cpg/sg5_2_cif.got.tgz:3763.got - 2010.03.31 09:47:26.
