data_PCOD8048125
_publ_section_title
;
Structure prediction by ZEFSAII (Michael W. Deem and Ramdas Pophale) SiO2 
 PCOD8048125
Probable space group: C 2
;
_chemical_formula_sum "Si O2"
_cell_formula_units_Z 28
_cell_length_a 13.417735
_cell_length_b 12.919385
_cell_length_c 23.383782
_cell_angle_alpha 90.000000
_cell_angle_beta 22.210830
_cell_angle_gamma 90.000000
_cell_volume 1532.306847
_symmetry_space_group_name_H-M "C 2"
_symmetry_group_IT_number 5
_symmetry_cell_setting 'monoclinic'
loop_
_space_group_symop_operation_xyz
x,y,z
-x,y,-z
1/2+x,1/2+y,z
1/2-x,1/2+y,-z
loop_
_atom_site_type_symbol
_atom_site_label
_atom_site_fract_x
_atom_site_fract_y
_atom_site_fract_z
Si Si1 0.219131 0.658020 0.179070
Si Si2 0.614443 0.739519 0.664752
Si Si3 0.697271 0.945712 0.147826
Si Si4 0.299444 0.365304 0.861079
Si Si5 0.303423 0.240871 0.686725
Si Si6 0.959353 0.433583 0.894321
Si Si7 0.742137 0.063406 0.831945
O O1 0.077579 0.548400 0.242241
O O2 0.064516 0.757305 0.232179
O O3 0.249822 0.666617 0.231156
O O4 0.500000 0.646556 0.000000
O O5 0.475168 0.850169 0.739409
O O6 0.660792 0.697612 0.705091
O O7 0.440529 0.659007 0.720672
O O8 0.886565 0.753223 0.487249
O O9 0.677579 0.967576 0.090918
O O10 0.000000 0.921374 0.000000
O O11 0.411098 0.466865 0.769355
O O12 0.278653 0.384262 0.940322
O O13 0.000000 0.356667 0.000000
O O14 0.191255 0.352564 0.760824
O O15 0.107355 0.532417 0.843446
O O16 0.500000 0.099003 0.000000
#
# Coordination Sequence:
#
# PCOD8048125 Si02
#       7
#     4   4   4   4   4   4   4
#     4  10  17  33  56  80 104 139 185 230 265 318
#     4  10  22  35  52  85 111 150 176 222 277 324
#     4  10  22  35  51  86 115 137 179 232 286 317
#     4   8  14  30  54  82  93 134 185 223 254 315
#     4  10  19  36  58  75 112 149 188 213 266 339
#     4   9  17  35  57  79 104 146 182 223 272 326
#     4   9  17  32  57  79 103 136 189 226 261 319
#
# _framework density 18.273102000000002
#
# number of rings (size 3 to 8) (size 9 to 14) (size 15 to 20)
#    0.000    2.857    4.286    0.429    0.000    5.714 
#    2.571    0.000    0.000    0.000    0.000    0.000 
#    0.000    0.000    0.000    0.000    0.000    0.000 
#
# Total GULP energy -173457.701067 kJ/mol
# GULP energy per Si atom -12389.835790 kJ/mol
# Density = 1.823151 g / cm^3
# Si number density = 18.273102 Si / 1000 Ang^3
#
#
#
# Elastic Constant Matrix: (Units=GPa)
#
#
# Indices 1 2 3 4 5 6 
#
# 1 123.4805 47.2176 39.1888 -0.0073 12.0540 -0.1997
# 2 47.2176 116.4780 26.3373 0.1864 -1.7337 0.5270
# 3 39.1888 26.3373 59.7432 3.2028 3.7322 10.2191
# 4 -0.0073 0.1864 3.2028 9.0596 -0.6326 3.1166
# 5 12.0540 -1.7337 3.7322 -0.6326 24.3610 -1.8823
# 6 -0.1997 0.5270 10.2191 3.1166 -1.8823 52.9313
#
#
#
# Elastic Compliance Matrix: (Units=1/GPa)
#
#
# Indices 1 2 3 4 5 6 
#
# 1 0.011904 -0.003506 -0.006203 0.001575 -0.005071 0.001004
# 2 -0.003506 0.010659 -0.002705 0.000782 0.002964 0.000462
# 3 -0.006203 -0.002705 0.023139 -0.006798 -0.001162 -0.004105
# 4 0.001575 0.000782 -0.006798 0.114810 0.002886 -0.005347
# 5 -0.005071 0.002964 -0.001162 0.002886 0.044144 0.001576
# 6 0.001004 0.000462 -0.004105 -0.005347 0.001576 0.020055
#
#
# Mechanical properties :
#
#
# Convention : Reuss Voigt Hill
#
# Bulk Modulus (GPa) = 47.90560 58.35436 53.12998
# Shear Modulus (GPa) = 19.49346 29.73425 24.61385
#
# Velocity S-wave (km/s) = 3.26971 4.03825 3.67413
# Velocity P-wave (km/s) = 6.36616 7.33125 6.86568
#
# Compressibility (1/GPa) = 0.02087439
#
# Stress axis : x y z
#
# Youngs Moduli (GPa) = 84.00348 93.81749 43.21754
#
# Poissons Ratio (x) = 0.32890 0.26806
# Poissons Ratio (y) = 0.29450 0.11692
# Poissons Ratio (z) = 0.52104 0.25382
#
# Static dielectric constant tensor:
#      x y z
#    x 3.561600 0.000420 0.348480 
#    y 0.000420 4.274300 0.004460 
#    z 0.348480 0.004460 2.809680 
# 
# 
# High freq. dielectric constant tensor:
#      x y z
#    x 1.701640 0.000000 0.022480 
#    y 0.000000 1.713630 0.000010 
#    z 0.022480 0.000010 1.670940 
# 
# From -- ./inp_files/65289.got.cif
#   From: 2010.03.12/outbox.cif.g09.slc.cpg/sg5_33_cif.got.tgz:65289.got - 2010.03.31 09:47:26.
