data_PCOD8048368
_publ_section_title
;
Structure prediction by ZEFSAII (Michael W. Deem and Ramdas Pophale) SiO2 
 PCOD8048368
Probable space group: C 2
;
_chemical_formula_sum "Si O2"
_cell_formula_units_Z 30
_cell_length_a 16.187344
_cell_length_b 9.455348
_cell_length_c 10.406573
_cell_angle_alpha 90.000000
_cell_angle_beta 66.910819
_cell_angle_gamma 90.000000
_cell_volume 1465.208312
_symmetry_space_group_name_H-M "C 2"
_symmetry_group_IT_number 5
_symmetry_cell_setting 'monoclinic'
loop_
_space_group_symop_operation_xyz
x,y,z
-x,y,-z
1/2+x,1/2+y,z
1/2-x,1/2+y,-z
loop_
_atom_site_type_symbol
_atom_site_label
_atom_site_fract_x
_atom_site_fract_y
_atom_site_fract_z
Si Si1 0.822646 0.890160 0.189172
Si Si2 0.627749 0.662423 0.692556
Si Si3 0.000000 0.751931 0.000000
Si Si4 0.747817 0.235649 0.015749
Si Si5 0.404430 0.026558 0.918063
Si Si6 0.195379 0.175946 0.372186
Si Si7 0.927261 0.243090 0.780801
Si Si8 0.697441 0.911495 0.797908
O O1 0.765541 0.807401 0.333655
O O2 0.829646 0.054631 0.227818
O O3 0.925141 0.844594 0.113409
O O4 0.775577 0.848451 0.083142
O O5 0.664546 0.625018 0.529990
O O6 0.519120 0.659914 0.755430
O O7 0.661679 0.820584 0.700604
O O8 0.970531 0.657670 0.895719
O O9 0.692311 0.091693 0.060953
O O10 0.735634 0.317228 0.156624
O O11 0.851715 0.190066 0.928357
O O12 0.439534 0.914020 0.791857
O O13 0.390891 0.953104 0.065657
O O14 0.106261 0.213822 0.343987
O O15 0.249043 0.048728 0.275251
#
# Coordination Sequence:
#
# PCOD8048368 Si02
#       8
#     4   4   2   4   4   4   4   4
#     4  10  23  40  64  94 127 163 204 261 319 363
#     4  12  26  39  64  95 128 164 217 256 290 378
#     4  10  18  36  62  92 132 148 200 272 322 354
#     4   9  21  38  65  91 128 158 200 262 322 375
#     4  10  19  38  62  94 127 156 197 265 321 371
#     4  11  23  47  61  84 133 178 205 245 310 379
#     4  10  22  38  66  91 123 162 212 253 315 351
#     4  11  22  38  66  91 120 168 208 248 318 368
#
# _framework density 20.474905
#
# number of rings (size 3 to 8) (size 9 to 14) (size 15 to 20)
#    0.000    1.600    4.000    2.000    5.600    5.867 
#    0.000    0.000    0.000    0.000    0.000    0.000 
#    0.000    0.000    0.000    0.000    0.000    0.000 
#
# Total GULP energy -185888.378157 kJ/mol
# GULP energy per Si atom -12392.558544 kJ/mol
# Density = 2.042830 g / cm^3
# Si number density = 20.474905 Si / 1000 Ang^3
#
#
#
# Elastic Constant Matrix: (Units=GPa)
#
#
# Indices 1 2 3 4 5 6 
#
# 1 72.6902 25.3368 31.7403 0.0000 -12.0725 0.0000
# 2 25.3368 88.1130 22.3820 0.0000 -0.9143 0.0000
# 3 31.7403 22.3820 64.0513 0.0000 2.4711 0.0000
# 4 0.0000 0.0000 0.0000 20.9847 0.0000 8.6806
# 5 -12.0725 -0.9143 2.4711 0.0000 29.7990 0.0000
# 6 0.0000 0.0000 0.0000 8.6806 0.0000 30.7015
#
#
#
# Elastic Compliance Matrix: (Units=1/GPa)
#
#
# Indices 1 2 3 4 5 6 
#
# 1 0.020512 -0.003440 -0.009308 0.000000 0.008976 0.000000
# 2 -0.003440 0.013048 -0.002825 0.000000 -0.000759 0.000000
# 3 -0.009308 -0.002825 0.021430 0.000000 -0.005635 0.000000
# 4 0.000000 0.000000 0.000000 0.053966 0.000000 -0.015258
# 5 0.008976 -0.000759 -0.005635 0.000000 0.037639 0.000000
# 6 0.000000 0.000000 0.000000 -0.015258 0.000000 0.036886
#
#
# Mechanical properties :
#
#
# Convention : Reuss Voigt Hill
#
# Bulk Modulus (GPa) = 41.94435 42.64142 42.29289
# Shear Modulus (GPa) = 22.46430 25.99008 24.22719
#
# Velocity S-wave (km/s) = 3.31594 3.56668 3.44359
# Velocity P-wave (km/s) = 5.93218 6.15085 6.04251
#
# Compressibility (1/GPa) = 0.02384111
#
# Stress axis : x y z
#
# Youngs Moduli (GPa) = 48.75299 76.63917 46.66369
#
# Poissons Ratio (x) = 0.26367 0.43437
# Poissons Ratio (y) = 0.16773 0.13184
# Poissons Ratio (z) = 0.45382 0.21653
#
# Static dielectric constant tensor:
#      x y z
#    x 3.849050 0.000000 -0.020310 
#    y 0.000000 3.758320 0.000000 
#    z -0.020310 0.000000 3.456340 
# 
# 
# High freq. dielectric constant tensor:
#      x y z
#    x 1.807850 0.000000 -0.001500 
#    y 0.000000 1.808240 0.000000 
#    z -0.001500 0.000000 1.770640 
# 
# From -- ./inp_files/44298.got.cif
#   From: 2010.03.12/outbox.cif.g09.slc.cpg/sg5_23_cif.got.tgz:44298.got - 2010.03.31 09:47:26.
