data_PCOD8048901
_publ_section_title
;
Structure prediction by ZEFSAII (Michael W. Deem and Ramdas Pophale) SiO2 
 PCOD8048901
Probable space group: C 2
;
_chemical_formula_sum "Si O2"
_cell_formula_units_Z 28
_cell_length_a 18.770074
_cell_length_b 8.743377
_cell_length_c 11.069923
_cell_angle_alpha 90.000000
_cell_angle_beta 131.382002
_cell_angle_gamma 90.000000
_cell_volume 1363.124736
_symmetry_space_group_name_H-M "C 2"
_symmetry_group_IT_number 5
_symmetry_cell_setting 'monoclinic'
loop_
_space_group_symop_operation_xyz
x,y,z
-x,y,-z
1/2+x,1/2+y,z
1/2-x,1/2+y,-z
loop_
_atom_site_type_symbol
_atom_site_label
_atom_site_fract_x
_atom_site_fract_y
_atom_site_fract_z
Si Si1 0.690268 0.038770 0.387887
Si Si2 0.901079 0.723443 0.920769
Si Si3 0.979905 0.494063 0.203757
Si Si4 0.324652 0.438665 0.017655
Si Si5 0.254386 0.238307 0.339782
Si Si6 0.653102 0.164694 0.783196
Si Si7 0.426117 0.695041 0.026106
O O1 0.658833 0.169858 0.260650
O O2 0.755371 0.115347 0.563899
O O3 0.593398 0.975413 0.337302
O O4 0.753521 0.908192 0.395026
O O5 0.823140 0.824751 0.901554
O O6 0.939966 0.580870 0.041727
O O7 0.000000 0.814189 0.000000
O O8 0.944622 0.582639 0.284736
O O9 0.943160 0.322412 0.146786
O O10 0.232605 0.545677 0.921037
O O11 0.418935 0.542064 0.099566
O O12 0.334574 0.334527 0.147016
O O13 0.347420 0.197124 0.362193
O O14 0.173369 0.222035 0.150262
O O15 0.500000 0.688778 0.000000
#
# Coordination Sequence:
#
# PCOD8048901 Si02
#       7
#     4   4   4   4   4   4   4
#     4  11  23  40  63  88 129 171 207 263 321 379
#     4   9  18  36  61  91 116 161 212 261 313 373
#     4  10  19  41  67  86 121 167 212 255 316 377
#     4  10  21  32  59  90 127 151 209 279 317 362
#     4  11  24  39  61  91 127 165 211 263 317 378
#     4  10  22  38  57  93 124 168 209 260 321 383
#     4  11  19  38  66  96 120 158 221 266 307 372
#
# _framework density 20.541039000000001
#
# number of rings (size 3 to 8) (size 9 to 14) (size 15 to 20)
#    0.000    1.714    2.857    2.571    6.000    0.571 
#    0.000    0.000    0.000    0.000    0.000    0.000 
#    0.000    0.000    0.000    0.000    0.000    0.000 
#
# Total GULP energy -173452.700229 kJ/mol
# GULP energy per Si atom -12389.478588 kJ/mol
# Density = 2.049429 g / cm^3
# Si number density = 20.541039 Si / 1000 Ang^3
#
#
#
# Elastic Constant Matrix: (Units=GPa)
#
#
# Indices 1 2 3 4 5 6 
#
# 1 101.6879 35.0987 13.7356 0.0000 -22.5252 0.0000
# 2 35.0987 109.7442 25.5475 0.0000 -12.5204 0.0000
# 3 13.7356 25.5475 40.1331 0.0000 -11.3914 0.0000
# 4 0.0000 0.0000 0.0000 13.2759 0.0000 -1.0097
# 5 -22.5252 -12.5204 -11.3914 0.0000 25.9350 0.0000
# 6 0.0000 0.0000 0.0000 -1.0097 0.0000 42.8193
#
#
#
# Elastic Compliance Matrix: (Units=1/GPa)
#
#
# Indices 1 2 3 4 5 6 
#
# 1 0.013082 -0.003124 0.000352 0.000000 0.010008 0.000000
# 2 -0.003124 0.011585 -0.006270 0.000000 0.000126 0.000000
# 3 0.000352 -0.006270 0.032006 0.000000 0.011337 0.000000
# 4 0.000000 0.000000 0.000000 0.075460 0.000000 0.001779
# 5 0.010008 0.000126 0.011337 0.000000 0.052291 0.000000
# 6 0.000000 0.000000 0.000000 0.001779 0.000000 0.023396
#
#
# Mechanical properties :
#
#
# Convention : Reuss Voigt Hill
#
# Bulk Modulus (GPa) = 25.91407 44.48096 35.19752
# Shear Modulus (GPa) = 20.94109 28.21826 24.57968
#
# Velocity S-wave (km/s) = 3.19639 3.71044 3.46296
# Velocity P-wave (km/s) = 5.12500 6.32915 5.75864
#
# Compressibility (1/GPa) = 0.03858907
#
# Stress axis : x y z
#
# Youngs Moduli (GPa) = 76.44268 86.31749 31.24448
#
# Poissons Ratio (x) = 0.26965 -0.01100
# Poissons Ratio (y) = 0.23881 0.19590
# Poissons Ratio (z) = -0.02692 0.54120
#
# Static dielectric constant tensor:
#      x y z
#    x 4.914460 0.000000 -0.159310 
#    y 0.000000 3.880480 0.000000 
#    z -0.159310 0.000000 3.272620 
# 
# 
# High freq. dielectric constant tensor:
#      x y z
#    x 1.819830 0.000000 -0.012040 
#    y 0.000000 1.811570 0.000000 
#    z -0.012040 0.000000 1.760320 
# 
# From -- ./inp_files/46054.got.cif
#   From: 2010.03.12/outbox.cif.g09.slc.cpg/sg5_24_cif.got.tgz:46054.got - 2010.03.31 09:47:26.
