data_PCOD8048594
_publ_section_title
;
Structure prediction by ZEFSAII (Michael W. Deem and Ramdas Pophale) SiO2 
 PCOD8048594
Probable space group: C 2
;
_chemical_formula_sum "Si O2"
_cell_formula_units_Z 30
_cell_length_a 17.285721
_cell_length_b 9.054286
_cell_length_c 30.259595
_cell_angle_alpha 90.000000
_cell_angle_beta 160.346970
_cell_angle_gamma 90.000000
_cell_volume 1592.802149
_symmetry_space_group_name_H-M "C 2"
_symmetry_group_IT_number 5
_symmetry_cell_setting 'monoclinic'
loop_
_space_group_symop_operation_xyz
x,y,z
-x,y,-z
1/2+x,1/2+y,z
1/2-x,1/2+y,-z
loop_
_atom_site_type_symbol
_atom_site_label
_atom_site_fract_x
_atom_site_fract_y
_atom_site_fract_z
Si Si1 0.132166 0.297430 0.910312
Si Si2 0.260125 0.808748 0.158553
Si Si3 0.000000 0.358300 0.000000
Si Si4 0.075687 0.545218 0.814617
Si Si5 0.548821 0.676775 0.103604
Si Si6 0.156057 0.873572 0.196369
Si Si7 0.886855 0.052806 0.168523
Si Si8 0.250774 0.812585 0.345519
O O1 0.008150 0.412479 0.811354
O O2 0.982720 0.294613 0.874229
O O3 0.141207 0.133447 0.893797
O O4 0.387956 0.347113 0.059983
O O5 0.255908 0.780479 0.208855
O O6 0.409105 0.674991 0.218923
O O7 0.371712 0.967061 0.204556
O O8 0.000000 0.805105 0.000000
O O9 0.155136 0.258080 0.117398
O O10 0.163130 0.454225 0.056743
O O11 0.867296 0.660854 0.701688
O O12 0.298770 0.625442 0.953022
O O13 0.699939 0.542496 0.203914
O O14 0.281156 0.826581 0.308705
O O15 0.112993 0.952989 0.289891
O O16 0.500000 0.816837 0.500000
#
# Coordination Sequence:
#
# PCOD8048594 Si02
#       8
#     4   4   2   4   4   4   4   4
#     4  10  19  34  59  91 121 145 187 252 320 349
#     4  11  19  35  62  97 125 146 175 249 334 357
#     4  12  20  28  58  96 126 138 182 250 320 354
#     4  10  21  35  57  86 122 151 193 243 296 357
#     4  11  19  30  56  97 120 144 182 253 317 352
#     4  11  20  35  61  88 123 152 194 245 306 358
#     4  11  21  37  58  95 123 150 187 249 302 365
#     4  12  26  43  59  79 121 175 211 233 269 351
#
# _framework density 18.834731000000001
#
# number of rings (size 3 to 8) (size 9 to 14) (size 15 to 20)
#    0.000    1.067    8.667    0.800    1.867    1.067 
#    0.000    4.000    0.000    0.000    0.000    0.000 
#    0.000    0.000    0.000    0.000    0.000    0.000 
#
# Total GULP energy -185926.198606 kJ/mol
# GULP energy per Si atom -12395.079907 kJ/mol
# Density = 1.879186 g / cm^3
# Si number density = 18.834731 Si / 1000 Ang^3
#
#
#
# Elastic Constant Matrix: (Units=GPa)
#
#
# Indices 1 2 3 4 5 6 
#
# 1 114.6335 34.1479 27.4715 -0.0034 -20.1006 0.0005
# 2 34.1479 103.4608 34.2574 0.0046 -2.5154 -0.0007
# 3 27.4715 34.2574 83.6717 0.0221 -8.2456 -0.0089
# 4 -0.0034 0.0046 0.0221 12.6872 0.0010 3.1500
# 5 -20.1006 -2.5154 -8.2456 0.0010 16.3311 -0.0020
# 6 0.0005 -0.0007 -0.0089 3.1500 -0.0020 30.7040
#
#
#
# Elastic Compliance Matrix: (Units=1/GPa)
#
#
# Indices 1 2 3 4 5 6 
#
# 1 0.012540 -0.003348 -0.001343 0.000006 0.014240 0.000000
# 2 -0.003348 0.012081 -0.004283 0.000003 -0.004422 -0.000001
# 3 -0.001343 -0.004283 0.014647 -0.000027 0.005083 0.000007
# 4 0.000006 0.000003 -0.000027 0.080880 -0.000012 -0.008298
# 5 0.014240 -0.004422 0.005083 -0.000012 0.080645 0.000008
# 6 0.000000 -0.000001 0.000007 -0.008298 0.000008 0.033420
#
#
# Mechanical properties :
#
#
# Convention : Reuss Voigt Hill
#
# Bulk Modulus (GPa) = 46.90461 54.83550 50.87006
# Shear Modulus (GPa) = 19.28512 25.67039 22.47775
#
# Velocity S-wave (km/s) = 3.20334 3.69579 3.45834
# Velocity P-wave (km/s) = 6.21604 6.88397 6.55851
#
# Compressibility (1/GPa) = 0.02131986
#
# Stress axis : x y z
#
# Youngs Moduli (GPa) = 79.74765 82.77380 68.27406
#
# Poissons Ratio (x) = 0.27711 0.09169
# Poissons Ratio (y) = 0.26698 0.29241
# Poissons Ratio (z) = 0.10710 0.35452
#
# Static dielectric constant tensor:
#      x y z
#    x 3.881210 0.000000 -0.131340 
#    y 0.000000 3.983960 -0.000010 
#    z -0.131340 -0.000010 2.758850 
# 
# 
# High freq. dielectric constant tensor:
#      x y z
#    x 1.757710 0.000000 -0.012250 
#    y 0.000000 1.754240 0.000000 
#    z -0.012250 0.000000 1.644040 
# 
# From -- ./inp_files/46010.got.cif
#   From: 2010.03.12/outbox.cif.g09.slc.cpg/sg5_24_cif.got.tgz:46010.got - 2010.03.31 09:47:26.
