data_PCOD8048039
_publ_section_title
;
Structure prediction by ZEFSAII (Michael W. Deem and Ramdas Pophale) SiO2 
 PCOD8048039
Probable space group: C 2
;
_chemical_formula_sum "Si O2"
_cell_formula_units_Z 18
_cell_length_a 7.518938
_cell_length_b 22.425375
_cell_length_c 5.360524
_cell_angle_alpha 90.000000
_cell_angle_beta 54.215791
_cell_angle_gamma 90.000000
_cell_volume 733.237709
_symmetry_space_group_name_H-M "C 2"
_symmetry_group_IT_number 5
_symmetry_cell_setting 'monoclinic'
loop_
_space_group_symop_operation_xyz
x,y,z
-x,y,-z
1/2+x,1/2+y,z
1/2-x,1/2+y,-z
loop_
_atom_site_type_symbol
_atom_site_label
_atom_site_fract_x
_atom_site_fract_y
_atom_site_fract_z
Si Si1 0.361735 0.820410 0.364027
Si Si2 0.000000 0.601296 0.500000
Si Si3 0.359542 0.687840 0.366873
Si Si4 0.760870 0.945007 0.551762
Si Si5 0.717230 0.993069 0.092411
O O1 0.500000 0.830240 0.500000
O O2 0.254716 0.754457 0.463252
O O3 0.183076 0.874142 0.498795
O O4 0.500000 0.824794 0.000000
O O5 0.161344 0.641381 0.531884
O O6 0.135741 0.561435 0.187254
O O7 0.500000 0.675382 0.500000
O O8 0.500000 0.679275 0.000000
O O9 0.856961 0.977478 0.226676
O O10 0.497553 0.951658 0.755631
O O11 0.856298 0.976940 0.727448
#
# Coordination Sequence:
#
# PCOD8048039 Si02
#       5
#     4   2   4   4   4
#     4  10  15  28  49  78 113 139 190 242 281 348
#     4  10  22  42  58  90 128 152 206 244 292 368
#     4  10  24  38  60  91 117 166 197 242 304 352
#     4   9  13  25  43  80 103 132 194 231 272 343
#     4   9  17  25  51  80 102 149 186 231 287 337
#
# _framework density 24.548653000000002
#
# number of rings (size 3 to 8) (size 9 to 14) (size 15 to 20)
#    0.000    2.667    4.444    0.000    0.000    8.000 
#    0.000    0.000    0.000    0.000   23.111    0.000 
#    0.000    0.000    0.000    0.000    0.000    0.000 
#
# Total GULP energy -111514.217990 kJ/mol
# GULP energy per Si atom -12390.468666 kJ/mol
# Density = 2.449278 g / cm^3
# Si number density = 24.548653 Si / 1000 Ang^3
#
#
#
# Elastic Constant Matrix: (Units=GPa)
#
#
# Indices 1 2 3 4 5 6 
#
# 1 153.9378 75.2150 68.0645 0.0000 51.4293 0.0000
# 2 75.2150 232.6898 63.6548 0.0000 17.1415 0.0000
# 3 68.0645 63.6548 155.6712 0.0000 48.7497 0.0000
# 4 0.0000 0.0000 0.0000 4.5008 0.0000 32.5112
# 5 51.4293 17.1415 48.7497 0.0000 49.7675 0.0000
# 6 0.0000 0.0000 0.0000 32.5112 0.0000 4.3722
#
#
#
# Elastic Compliance Matrix: (Units=1/GPa)
#
#
# Indices 1 2 3 4 5 6 
#
# 1 0.011646 -0.002811 -0.000688 0.000000 -0.010392 0.000000
# 2 -0.002811 0.005522 -0.001938 0.000000 0.002900 0.000000
# 3 -0.000688 -0.001938 0.010220 0.000000 -0.008633 0.000000
# 4 0.000000 0.000000 0.000000 -0.004215 0.000000 0.031342
# 5 -0.010392 0.002900 -0.008633 0.000000 0.038290 0.000000
# 6 0.000000 0.000000 0.000000 0.031342 0.000000 -0.004339
#
#
# Mechanical properties :
#
#
# Convention : Reuss Voigt Hill
#
# Bulk Modulus (GPa) = 60.54696 106.24082 83.39389
# Shear Modulus (GPa) = 68.02485 34.08574 51.05530
#
# Velocity S-wave (km/s) = 5.26976 3.73030 4.56539
# Velocity P-wave (km/s) = 7.85778 7.86925 7.86352
#
# Compressibility (1/GPa) = 0.01651611
#
# Stress axis : x y z
#
# Youngs Moduli (GPa) = 85.86894 181.07981 97.84354
#
# Poissons Ratio (x) = 0.50893 0.06733
# Poissons Ratio (y) = 0.24134 0.18957
# Poissons Ratio (z) = 0.05909 0.35084
#
# Static dielectric constant tensor:
#      x y z
#    x 4.763400 0.000000 0.970680 
#    y 0.000000 4.772530 0.000000 
#    z 0.970680 0.000000 5.134100 
# 
# 
# High freq. dielectric constant tensor:
#      x y z
#    x 1.991070 0.000000 0.027670 
#    y 0.000000 1.980320 0.000000 
#    z 0.027670 0.000000 1.984540 
# 
# From -- ./inp_files/2668.got.cif
#   From: 2010.03.12/outbox.cif.g09.slc.cpg/sg5_2_cif.got.tgz:2668.got - 2010.03.31 09:47:26.
