data_PCOD8048133
_publ_section_title
;
Structure prediction by ZEFSAII (Michael W. Deem and Ramdas Pophale) SiO2 
 PCOD8048133
Probable space group: C 2
;
_chemical_formula_sum "Si O2"
_cell_formula_units_Z 24
_cell_length_a 15.560928
_cell_length_b 9.076948
_cell_length_c 14.205626
_cell_angle_alpha 90.000000
_cell_angle_beta 40.628218
_cell_angle_gamma 90.000000
_cell_volume 1306.518248
_symmetry_space_group_name_H-M "C 2"
_symmetry_group_IT_number 5
_symmetry_cell_setting 'monoclinic'
loop_
_space_group_symop_operation_xyz
x,y,z
-x,y,-z
1/2+x,1/2+y,z
1/2-x,1/2+y,-z
loop_
_atom_site_type_symbol
_atom_site_label
_atom_site_fract_x
_atom_site_fract_y
_atom_site_fract_z
Si Si1 0.374003 0.551500 0.163081
Si Si2 0.894318 0.709275 0.159203
Si Si3 0.196798 0.022368 0.573589
Si Si4 0.860792 0.045463 0.587359
Si Si5 0.884789 0.725986 0.654658
Si Si6 0.577790 0.215899 0.655480
O O1 0.363086 0.377327 0.158321
O O2 0.383411 0.583364 0.268080
O O3 0.244518 0.627055 0.226439
O O4 0.500000 0.613161 0.000000
O O5 0.757803 0.623505 0.260026
O O6 0.962165 0.680921 0.204259
O O7 0.000000 0.640952 0.000000
O O8 0.141996 0.082899 0.520957
O O9 0.349096 0.076983 0.455123
O O10 0.186708 0.846117 0.574578
O O11 0.000000 0.115183 0.500000
O O12 0.852218 0.872911 0.621703
O O13 0.000000 0.642100 0.500000
O O14 0.946026 0.761417 0.707395
#
# Coordination Sequence:
#
# PCOD8048133 Si02
#       6
#     4   4   4   4   4   4
#     4  10  21  36  55  77 113 144 173 217 272 320
#     4   9  21  39  53  75 112 146 172 213 274 322
#     4  10  17  34  55  78 103 141 173 218 266 311
#     4  10  19  34  58  79 104 135 181 227 260 307
#     4  11  19  36  57  84 104 134 186 227 259 309
#     4  10  19  34  58  78 106 140 179 221 262 313
#
# _framework density 18.369433999999998
#
# number of rings (size 3 to 8) (size 9 to 14) (size 15 to 20)
#    0.000    2.000    5.000    0.000    0.000    1.333 
#    6.000    0.000    0.000    0.000    0.000    0.000 
#    0.000    0.000    0.000    0.000    0.000    0.000 
#
# Total GULP energy -148678.926901 kJ/mol
# GULP energy per Si atom -12389.910575 kJ/mol
# Density = 1.832762 g / cm^3
# Si number density = 18.369434 Si / 1000 Ang^3
#
#
#
# Elastic Constant Matrix: (Units=GPa)
#
#
# Indices 1 2 3 4 5 6 
#
# 1 110.2545 35.9595 68.6834 0.0000 -3.8256 0.0000
# 2 35.9595 46.8982 46.7669 0.0000 -6.4879 0.0000
# 3 68.6834 46.7669 171.1456 0.0000 0.7456 0.0000
# 4 0.0000 0.0000 0.0000 26.6111 0.0000 -4.7209
# 5 -3.8256 -6.4879 0.7456 0.0000 30.4110 0.0000
# 6 0.0000 0.0000 0.0000 -4.7209 0.0000 23.6595
#
#
#
# Elastic Compliance Matrix: (Units=1/GPa)
#
#
# Indices 1 2 3 4 5 6 
#
# 1 0.013512 -0.006740 -0.003582 0.000000 0.000350 0.000000
# 2 -0.006740 0.033993 -0.006613 0.000000 0.006566 0.000000
# 3 -0.003582 -0.006613 0.009097 0.000000 -0.002084 0.000000
# 4 0.000000 0.000000 0.000000 0.038957 0.000000 0.007773
# 5 0.000350 0.006566 -0.002084 0.000000 0.034379 0.000000
# 6 0.000000 0.000000 0.000000 0.007773 0.000000 0.043817
#
#
# Mechanical properties :
#
#
# Convention : Reuss Voigt Hill
#
# Bulk Modulus (GPa) = 43.99054 70.12420 57.05737
# Shear Modulus (GPa) = 23.23399 27.92890 25.58145
#
# Velocity S-wave (km/s) = 3.56029 3.90346 3.73582
# Velocity P-wave (km/s) = 6.39535 7.65332 7.05244
#
# Compressibility (1/GPa) = 0.02273216
#
# Stress axis : x y z
#
# Youngs Moduli (GPa) = 74.00926 29.41775 109.92954
#
# Poissons Ratio (x) = 0.19826 0.39381
# Poissons Ratio (y) = 0.49879 0.72694
# Poissons Ratio (z) = 0.26513 0.19453
#
# Static dielectric constant tensor:
#      x y z
#    x 3.522680 0.000000 0.143240 
#    y 0.000000 3.241680 0.000000 
#    z 0.143240 0.000000 3.552640 
# 
# 
# High freq. dielectric constant tensor:
#      x y z
#    x 1.715810 0.000000 0.014200 
#    y 0.000000 1.693330 0.000000 
#    z 0.014200 0.000000 1.705800 
# 
# From -- ./inp_files/23460.got.cif
#   From: 2010.03.12/outbox.cif.g09.slc.cpg/sg5_12_cif.got.tgz:23460.got - 2010.03.31 09:47:26.
