data_PCOD8048561
_publ_section_title
;
Structure prediction by ZEFSAII (Michael W. Deem and Ramdas Pophale) SiO2 
 PCOD8048561
Probable space group: C 2
;
_chemical_formula_sum "Si O2"
_cell_formula_units_Z 28
_cell_length_a 18.316338
_cell_length_b 4.972100
_cell_length_c 16.854180
_cell_angle_alpha 90.000000
_cell_angle_beta 108.924656
_cell_angle_gamma 90.000000
_cell_volume 1451.952543
_symmetry_space_group_name_H-M "C 2"
_symmetry_group_IT_number 5
_symmetry_cell_setting 'monoclinic'
loop_
_space_group_symop_operation_xyz
x,y,z
-x,y,-z
1/2+x,1/2+y,z
1/2-x,1/2+y,-z
loop_
_atom_site_type_symbol
_atom_site_label
_atom_site_fract_x
_atom_site_fract_y
_atom_site_fract_z
Si Si1 0.174204 0.491860 0.041047
Si Si2 0.741736 0.039861 0.547255
Si Si3 0.093380 0.140744 0.370874
Si Si4 0.344708 0.493074 0.069000
Si Si5 0.496640 0.626121 0.820338
Si Si6 0.075077 0.640056 0.472314
Si Si7 0.454897 0.127701 0.901877
O O1 0.265117 0.526908 0.088415
O O2 0.134008 0.554108 0.110742
O O3 0.144555 0.694655 0.961923
O O4 0.153075 0.193015 0.005396
O O5 0.748358 0.725320 0.528096
O O6 0.816671 0.115070 0.627414
O O7 0.655405 0.098714 0.551778
O O8 0.039236 0.079950 0.277902
O O9 0.073865 0.937139 0.435374
O O10 0.075854 0.435601 0.398583
O O11 0.412741 0.556298 0.154569
O O12 0.486387 0.931631 0.844905
O O13 0.458431 0.431661 0.872341
O O14 0.000000 0.594688 0.500000
O O15 0.500000 0.089493 0.000000
#
# Coordination Sequence:
#
# PCOD8048561 Si02
#       7
#     4   4   4   4   4   4   4
#     4  10  20  33  52  72  98 130 188 220 256 310
#     4   8  16  32  54  75 105 137 170 202 249 321
#     4  10  21  36  53  83 111 140 172 214 275 319
#     4  10  19  34  51  73  99 139 168 222 270 310
#     4  12  22  35  55  78 111 140 174 229 276 303
#     4  10  19  36  60  83 104 140 180 212 250 322
#     4  12  21  35  54  79 101 141 190 227 254 311
#
# _framework density 19.284376999999999
#
# number of rings (size 3 to 8) (size 9 to 14) (size 15 to 20)
#    0.000    1.714    2.857    2.571    0.000    0.000 
#    0.000    2.857    0.000    0.000    0.000    0.000 
#    0.000    0.000    0.000    0.000    0.000    0.000 
#
# Total GULP energy -173548.119555 kJ/mol
# GULP energy per Si atom -12396.294254 kJ/mol
# Density = 1.924049 g / cm^3
# Si number density = 19.284377 Si / 1000 Ang^3
#
#
#
# Elastic Constant Matrix: (Units=GPa)
#
#
# Indices 1 2 3 4 5 6 
#
# 1 131.3643 6.3423 43.1045 0.0000 22.4161 0.0001
# 2 6.3423 72.4752 4.8559 -0.0001 0.5194 0.0001
# 3 43.1045 4.8559 82.9149 0.0000 25.8281 0.0000
# 4 0.0000 -0.0001 0.0000 18.7452 0.0000 -0.5788
# 5 22.4161 0.5194 25.8281 0.0000 25.3121 0.0000
# 6 0.0001 0.0001 0.0000 -0.5788 0.0000 28.9383
#
#
#
# Elastic Compliance Matrix: (Units=1/GPa)
#
#
# Indices 1 2 3 4 5 6 
#
# 1 0.009614 -0.000578 -0.003395 0.000000 -0.005038 0.000000
# 2 -0.000578 0.013898 -0.000856 0.000000 0.001100 0.000000
# 3 -0.003395 -0.000856 0.018960 0.000000 -0.016323 0.000000
# 4 0.000000 0.000000 0.000000 0.053380 0.000000 0.001068
# 5 -0.005038 0.001100 -0.016323 0.000000 0.060601 0.000000
# 6 0.000000 0.000000 0.000000 0.001068 0.000000 0.034578
#
#
# Mechanical properties :
#
#
# Convention : Reuss Voigt Hill
#
# Bulk Modulus (GPa) = 30.47449 43.92886 37.20167
# Shear Modulus (GPa) = 23.62654 30.09589 26.86122
#
# Velocity S-wave (km/s) = 3.50403 3.95477 3.73621
# Velocity P-wave (km/s) = 5.67521 6.60928 6.15998
#
# Compressibility (1/GPa) = 0.03281434
#
# Stress axis : x y z
#
# Youngs Moduli (GPa) = 104.01564 71.95347 52.74262
#
# Poissons Ratio (x) = 0.04157 0.17904
# Poissons Ratio (y) = 0.06010 0.04516
# Poissons Ratio (z) = 0.35310 0.06161
#
# Static dielectric constant tensor:
#      x y z
#    x 4.019230 0.000000 0.347500 
#    y 0.000000 3.690270 0.000000 
#    z 0.347500 0.000000 3.062670 
# 
# 
# High freq. dielectric constant tensor:
#      x y z
#    x 1.759160 0.000000 0.034050 
#    y 0.000000 1.775840 0.000000 
#    z 0.034050 0.000000 1.693480 
# 
# From -- ./inp_files/55270.got.cif
#   From: 2010.03.12/outbox.cif.g09.slc.cpg/sg5_28_cif.got.tgz:55270.got - 2010.03.31 09:47:26.
