data_PCOD8048182
_publ_section_title
;
Structure prediction by ZEFSAII (Michael W. Deem and Ramdas Pophale) SiO2 
 PCOD8048182
Probable space group: C 2
;
_chemical_formula_sum "Si O2"
_cell_formula_units_Z 32
_cell_length_a 16.091402
_cell_length_b 23.016103
_cell_length_c 5.309652
_cell_angle_alpha 90.000000
_cell_angle_beta 109.348756
_cell_angle_gamma 90.000000
_cell_volume 1855.421351
_symmetry_space_group_name_H-M "C 2"
_symmetry_group_IT_number 5
_symmetry_cell_setting 'monoclinic'
loop_
_space_group_symop_operation_xyz
x,y,z
-x,y,-z
1/2+x,1/2+y,z
1/2-x,1/2+y,-z
loop_
_atom_site_type_symbol
_atom_site_label
_atom_site_fract_x
_atom_site_fract_y
_atom_site_fract_z
Si Si1 0.223052 0.111050 0.221951
Si Si2 0.896898 0.409455 0.396445
Si Si3 0.736369 0.080994 0.237342
Si Si4 0.602337 0.979787 0.102780
Si Si5 0.401061 0.721726 0.903899
Si Si6 0.339492 0.781756 0.342176
Si Si7 0.666662 0.211631 0.167676
Si Si8 0.598216 0.176428 0.598919
O O1 0.204556 0.071760 0.451298
O O2 0.167416 0.169416 0.166871
O O3 0.328551 0.125484 0.327431
O O4 0.204395 0.071893 0.955011
O O5 0.870779 0.444868 0.620110
O O6 0.840309 0.351105 0.339562
O O7 0.000000 0.393768 0.500000
O O8 0.870775 0.444741 0.120006
O O9 0.713202 0.149070 0.214600
O O10 0.651084 0.041136 0.151341
O O11 0.500000 0.995018 0.000000
O O12 0.387714 0.760674 0.643669
O O13 0.500000 0.696669 0.000000
O O14 0.389096 0.759127 0.143688
O O15 0.238429 0.762360 0.239337
O O16 0.608442 0.217121 0.361954
O O17 0.608351 0.217062 0.856533
O O18 0.500000 0.148632 0.500000
#
# Coordination Sequence:
#
# PCOD8048182 Si02
#       8
#     4   4   4   4   4   4   4   4
#     4  10  19  33  46  76 106 136 174 224 254 333
#     4  10  21  35  50  75 107 143 189 223 253 319
#     4  10  18  32  52  66 104 140 169 216 273 295
#     4  10  21  35  50  75 107 143 189 223 253 319
#     4  12  21  33  53  78 109 148 179 216 281 333
#     4  12  20  37  54  75 112 148 181 228 273 315
#     4  10  19  33  49  75 104 137 174 223 266 324
#     4  10  18  30  47  68 103 137 167 207 261 320
#
# _framework density 17.246755
#
# number of rings (size 3 to 8) (size 9 to 14) (size 15 to 20)
#    0.000    1.500    5.000    3.000    0.000    5.000 
#    0.000    1.250    0.000    0.000    0.000    0.000 
#    0.000   20.000    0.000    0.000    0.000    0.000 
#
# Total GULP energy -198315.866836 kJ/mol
# GULP energy per Si atom -12394.741677 kJ/mol
# Density = 1.720750 g / cm^3
# Si number density = 17.246755 Si / 1000 Ang^3
#
#
#
# Elastic Constant Matrix: (Units=GPa)
#
#
# Indices 1 2 3 4 5 6 
#
# 1 38.6824 15.5149 38.4763 0.0000 -3.5141 0.0000
# 2 15.5149 71.0626 25.9924 0.0000 -6.4070 0.0000
# 3 38.4763 25.9924 139.5446 0.0000 -52.1741 0.0000
# 4 0.0000 0.0000 0.0000 20.8284 0.0000 -0.1621
# 5 -3.5141 -6.4070 -52.1741 0.0000 26.8321 0.0000
# 6 0.0000 0.0000 0.0000 -0.1621 0.0000 20.3401
#
#
#
# Elastic Compliance Matrix: (Units=1/GPa)
#
#
# Indices 1 2 3 4 5 6 
#
# 1 0.085068 -0.004513 -0.069060 0.000000 -0.124221 0.000000
# 2 -0.004513 0.015690 -0.001826 0.000000 -0.000395 0.000000
# 3 -0.069060 -0.001826 0.084265 0.000000 0.154370 0.000000
# 4 0.000000 0.000000 0.000000 0.048014 0.000000 0.000383
# 5 -0.124221 -0.000395 0.154370 0.000000 0.321072 0.000000
# 6 0.000000 0.000000 0.000000 0.000383 0.000000 0.049167
#
#
# Mechanical properties :
#
#
# Convention : Reuss Voigt Hill
#
# Bulk Modulus (GPa) = 29.21719 45.47297 37.34508
# Shear Modulus (GPa) = 6.53184 24.88720 15.70952
#
# Velocity S-wave (km/s) = 1.94821 3.80281 3.02133
# Velocity P-wave (km/s) = 4.69448 6.76056 5.81994
#
# Compressibility (1/GPa) = 0.03422642
#
# Stress axis : x y z
#
# Youngs Moduli (GPa) = 11.75524 63.73672 11.86734
#
# Poissons Ratio (x) = 0.28762 0.81956
# Poissons Ratio (y) = 0.05305 0.02167
# Poissons Ratio (z) = 0.81181 0.11637
#
# Static dielectric constant tensor:
#      x y z
#    x 3.247310 0.000000 -0.698640 
#    y 0.000000 2.837390 0.000000 
#    z -0.698640 0.000000 4.709920 
# 
# 
# High freq. dielectric constant tensor:
#      x y z
#    x 1.642190 0.000000 -0.028480 
#    y 0.000000 1.623110 0.000000 
#    z -0.028480 0.000000 1.702170 
# 
# From -- ./inp_files/7581.got.cif
#   From: 2010.03.12/outbox.cif.g09.slc.cpg/sg5_4_cif.got.tgz:7581.got - 2010.03.31 09:47:26.
