data_PCOD8048895
_publ_section_title
;
Structure prediction by ZEFSAII (Michael W. Deem and Ramdas Pophale) SiO2 
 PCOD8048895
Probable space group: C 2
;
_chemical_formula_sum "Si O2"
_cell_formula_units_Z 28
_cell_length_a 18.361699
_cell_length_b 13.127256
_cell_length_c 9.887340
_cell_angle_alpha 90.000000
_cell_angle_beta 35.282761
_cell_angle_gamma 90.000000
_cell_volume 1376.583390
_symmetry_space_group_name_H-M "C 2"
_symmetry_group_IT_number 5
_symmetry_cell_setting 'monoclinic'
loop_
_space_group_symop_operation_xyz
x,y,z
-x,y,-z
1/2+x,1/2+y,z
1/2-x,1/2+y,-z
loop_
_atom_site_type_symbol
_atom_site_label
_atom_site_fract_x
_atom_site_fract_y
_atom_site_fract_z
Si Si1 0.918112 0.142880 0.006743
Si Si2 0.746772 0.970867 0.348442
Si Si3 0.530357 0.972639 0.310646
Si Si4 0.329595 0.763396 0.890851
Si Si5 0.781963 0.058649 0.832320
Si Si6 0.872229 0.893909 0.895208
Si Si7 0.388775 0.476070 0.398074
O O1 0.868339 0.226962 0.980055
O O2 0.010932 0.059207 0.803504
O O3 0.000000 0.198664 0.000000
O O4 0.794349 0.086301 0.252355
O O5 0.595580 0.966085 0.588155
O O6 0.799365 0.934822 0.414454
O O7 0.797001 0.897864 0.152429
O O8 0.500000 0.026307 0.500000
O O9 0.583232 0.860675 0.271239
O O10 0.632030 0.043420 0.080422
O O11 0.334190 0.674109 0.770925
O O12 0.183950 0.801777 0.108696
O O13 0.807409 0.020788 0.643024
O O14 0.855072 0.998606 0.838179
O O15 0.022858 0.880837 0.688327
#
# Coordination Sequence:
#
# PCOD8048895 Si02
#       7
#     4   4   4   4   4   4   4
#     4   9  19  37  62  91 118 158 202 249 306 361
#     4  10  19  41  62  84 121 165 195 241 313 365
#     4  11  22  39  62  89 119 161 203 242 310 361
#     4  11  21  36  66  92 114 159 210 250 293 358
#     4  11  22  38  62  90 119 152 204 258 291 356
#     4  10  20  37  63  90 116 160 202 241 305 355
#     4  10  21  36  65  87 121 157 199 250 306 353
#
# _framework density 20.340212000000001
#
# number of rings (size 3 to 8) (size 9 to 14) (size 15 to 20)
#    0.000    1.714    5.714    1.714    2.000    0.571 
#    5.143    8.571    9.429    0.000    0.000    0.000 
#    0.000    0.000    0.000    0.000    0.000    0.000 
#
# Total GULP energy -173487.786409 kJ/mol
# GULP energy per Si atom -12391.984744 kJ/mol
# Density = 2.029392 g / cm^3
# Si number density = 20.340212 Si / 1000 Ang^3
#
#
#
# Elastic Constant Matrix: (Units=GPa)
#
#
# Indices 1 2 3 4 5 6 
#
# 1 171.8400 32.7671 47.5458 0.0000 -11.4456 0.0000
# 2 32.7671 51.7227 14.0546 0.0000 -0.6433 0.0000
# 3 47.5458 14.0546 88.8586 0.0000 -5.1715 0.0000
# 4 0.0000 0.0000 0.0000 9.0941 0.0000 -0.7299
# 5 -11.4456 -0.6433 -5.1715 0.0000 32.2351 0.0000
# 6 0.0000 0.0000 0.0000 -0.7299 0.0000 33.7976
#
#
#
# Elastic Compliance Matrix: (Units=1/GPa)
#
#
# Indices 1 2 3 4 5 6 
#
# 1 0.007627 -0.003897 -0.003343 0.000000 0.002094 0.000000
# 2 -0.003897 0.022194 -0.001494 0.000000 -0.001181 0.000000
# 3 -0.003343 -0.001494 0.013332 0.000000 0.000922 0.000000
# 4 0.000000 0.000000 0.000000 0.110152 0.000000 0.002379
# 5 0.002094 -0.001181 0.000922 0.000000 0.031890 0.000000
# 6 0.000000 0.000000 0.000000 0.002379 0.000000 0.029639
#
#
# Mechanical properties :
#
#
# Convention : Reuss Voigt Hill
#
# Bulk Modulus (GPa) = 38.93198 55.68405 47.30801
# Shear Modulus (GPa) = 20.75860 29.56227 25.16043
#
# Velocity S-wave (km/s) = 3.19810 3.81647 3.52089
# Velocity P-wave (km/s) = 5.72879 6.84517 6.31171
#
# Compressibility (1/GPa) = 0.02568582
#
# Stress axis : x y z
#
# Youngs Moduli (GPa) = 131.11538 45.05697 75.00577
#
# Poissons Ratio (x) = 0.17560 0.25072
# Poissons Ratio (y) = 0.51101 0.11204
# Poissons Ratio (z) = 0.43827 0.06730
#
# Static dielectric constant tensor:
#      x y z
#    x 4.152440 0.000000 -0.100950 
#    y 0.000000 3.404970 0.000000 
#    z -0.100950 0.000000 3.623980 
# 
# 
# High freq. dielectric constant tensor:
#      x y z
#    x 1.818330 0.000000 -0.006000 
#    y 0.000000 1.754230 0.000000 
#    z -0.006000 0.000000 1.783110 
# 
# From -- ./inp_files/27686.got.cif
#   From: 2010.03.12/outbox.cif.g09.slc.cpg/sg5_14_cif.got.tgz:27686.got - 2010.03.31 09:47:26.
