data_PCOD8048595
_publ_section_title
;
Structure prediction by ZEFSAII (Michael W. Deem and Ramdas Pophale) SiO2 
 PCOD8048595
Probable space group: C 2
;
_chemical_formula_sum "Si O2"
_cell_formula_units_Z 32
_cell_length_a 25.143103
_cell_length_b 13.432255
_cell_length_c 8.994479
_cell_angle_alpha 90.000000
_cell_angle_beta 149.353845
_cell_angle_gamma 90.000000
_cell_volume 1548.417074
_symmetry_space_group_name_H-M "C 2"
_symmetry_group_IT_number 5
_symmetry_cell_setting 'monoclinic'
loop_
_space_group_symop_operation_xyz
x,y,z
-x,y,-z
1/2+x,1/2+y,z
1/2-x,1/2+y,-z
loop_
_atom_site_type_symbol
_atom_site_label
_atom_site_fract_x
_atom_site_fract_y
_atom_site_fract_z
Si Si1 0.822220 0.973170 0.772661
Si Si2 0.139356 0.049904 0.450728
Si Si3 0.192076 0.412030 0.704237
Si Si4 0.010257 0.856754 0.181616
Si Si5 0.901780 0.147981 0.158925
Si Si6 0.775566 0.601664 0.049706
Si Si7 0.473375 0.757161 0.775553
Si Si8 0.387961 0.294317 0.294943
O O1 0.711872 0.940545 0.578698
O O2 0.802177 0.022804 0.563444
O O3 0.890538 0.871142 0.944830
O O4 0.881786 0.047922 0.023687
O O5 0.087977 0.158069 0.325221
O O6 0.048620 0.970313 0.253153
O O7 0.219806 0.046509 0.779353
O O8 0.161871 0.514190 0.715517
O O9 0.099980 0.332065 0.494176
O O10 0.299663 0.371656 0.034519
O O11 0.091328 0.797184 0.477808
O O12 0.000000 0.799296 0.000000
O O13 0.000000 0.130656 0.500000
O O14 0.928632 0.234394 0.100470
O O15 0.802342 0.165635 0.028619
O O16 0.856744 0.681576 0.178627
O O17 0.500000 0.806524 0.000000
O O18 0.500000 0.325518 0.500000
#
# Coordination Sequence:
#
# PCOD8048595 Si02
#       8
#     4   4   4   4   4   4   4   4
#     4  10  20  34  58  97 120 159 204 271 319 360
#     4  11  18  37  65  94 129 152 215 279 323 366
#     4  11  24  41  64  94 131 170 221 255 320 395
#     4  10  19  34  59  94 125 155 206 270 321 364
#     4  11  19  34  62  90 122 159 208 272 319 361
#     4  11  24  41  63  97 129 164 217 268 326 387
#     4  12  22  41  65  96 129 170 213 273 324 383
#     4  12  23  41  65  93 129 171 209 265 322 388
#
# _framework density 20.666264999999999
#
# number of rings (size 3 to 8) (size 9 to 14) (size 15 to 20)
#    0.000    1.000    7.500    0.375    1.750    0.000 
#    4.500    6.250    0.000    0.000    0.000    0.000 
#    0.000    0.000    0.000    0.000    0.000    0.000 
#
# Total GULP energy -198258.778919 kJ/mol
# GULP energy per Si atom -12391.173682 kJ/mol
# Density = 2.061923 g / cm^3
# Si number density = 20.666265 Si / 1000 Ang^3
#
#
#
# Elastic Constant Matrix: (Units=GPa)
#
#
# Indices 1 2 3 4 5 6 
#
# 1 69.7846 3.7993 19.7827 0.0000 -23.0172 0.0000
# 2 3.7993 58.5607 11.4225 0.0000 2.6921 0.0000
# 3 19.7827 11.4225 61.6856 0.0000 -13.5809 0.0000
# 4 0.0000 0.0000 0.0000 27.9853 0.0000 -2.4071
# 5 -23.0172 2.6921 -13.5809 0.0000 28.6458 0.0000
# 6 0.0000 0.0000 0.0000 -2.4071 0.0000 19.7790
#
#
#
# Elastic Compliance Matrix: (Units=1/GPa)
#
#
# Indices 1 2 3 4 5 6 
#
# 1 0.020166 -0.001429 -0.002909 0.000000 0.014959 0.000000
# 2 -0.001429 0.018155 -0.003944 0.000000 -0.004724 0.000000
# 3 -0.002909 -0.003944 0.019474 0.000000 0.007266 0.000000
# 4 0.000000 0.000000 0.000000 0.036111 0.000000 0.004395
# 5 0.014959 -0.004724 0.007266 0.000000 0.050817 0.000000
# 6 0.000000 0.000000 0.000000 0.004395 0.000000 0.051094
#
#
# Mechanical properties :
#
#
# Convention : Reuss Voigt Hill
#
# Bulk Modulus (GPa) = 24.25281 28.89334 26.57307
# Shear Modulus (GPa) = 22.11163 25.61708 23.86436
#
# Velocity S-wave (km/s) = 3.27454 3.52456 3.40185
# Velocity P-wave (km/s) = 5.10468 5.52943 5.32130
#
# Compressibility (1/GPa) = 0.04123233
#
# Stress axis : x y z
#
# Youngs Moduli (GPa) = 49.58781 55.08015 51.34998
#
# Poissons Ratio (x) = 0.07868 0.14940
# Poissons Ratio (y) = 0.07084 0.20251
# Poissons Ratio (z) = 0.14427 0.21722
#
# Static dielectric constant tensor:
#      x y z
#    x 4.276320 0.000000 -0.323750 
#    y 0.000000 3.422400 0.000000 
#    z -0.323750 0.000000 3.787890 
# 
# 
# High freq. dielectric constant tensor:
#      x y z
#    x 1.816790 0.000000 -0.024690 
#    y 0.000000 1.782140 0.000000 
#    z -0.024690 0.000000 1.790520 
# 
# From -- ./inp_files/31093.got.cif
#   From: 2010.03.12/outbox.cif.g09.slc.cpg/sg5_16_cif.got.tgz:31093.got - 2010.03.31 09:47:26.
