data_PCOD8048844
_publ_section_title
;
Structure prediction by ZEFSAII (Michael W. Deem and Ramdas Pophale) SiO2 
 PCOD8048844
Probable space group: C 2
;
_chemical_formula_sum "Si O2"
_cell_formula_units_Z 30
_cell_length_a 24.121168
_cell_length_b 8.685891
_cell_length_c 12.497192
_cell_angle_alpha 90.000000
_cell_angle_beta 34.169816
_cell_angle_gamma 90.000000
_cell_volume 1470.581326
_symmetry_space_group_name_H-M "C 2"
_symmetry_group_IT_number 5
_symmetry_cell_setting 'monoclinic'
loop_
_space_group_symop_operation_xyz
x,y,z
-x,y,-z
1/2+x,1/2+y,z
1/2-x,1/2+y,-z
loop_
_atom_site_type_symbol
_atom_site_label
_atom_site_fract_x
_atom_site_fract_y
_atom_site_fract_z
Si Si1 0.671521 0.653140 0.473145
Si Si2 0.709754 0.048233 0.220733
Si Si3 0.606964 0.705481 0.805033
Si Si4 0.355456 0.305708 0.063695
Si Si5 0.000000 0.910779 0.000000
Si Si6 0.967919 0.333063 0.437473
Si Si7 0.742725 0.353949 0.275180
Si Si8 0.148787 0.535473 0.079369
O O1 0.657151 0.735239 0.610715
O O2 0.772303 0.724155 0.267866
O O3 0.570728 0.690803 0.570303
O O4 0.679284 0.465895 0.454917
O O5 0.685193 0.212776 0.313005
O O6 0.707148 0.062060 0.096634
O O7 0.815015 0.972852 0.088235
O O8 0.622941 0.944925 0.402228
O O9 0.594657 0.519272 0.823043
O O10 0.672112 0.773983 0.793808
O O11 0.500000 0.782911 0.000000
O O12 0.458874 0.312287 0.965360
O O13 0.381289 0.202512 0.918647
O O14 0.000000 0.263936 0.500000
O O15 0.055079 0.424929 0.241207
O O16 0.779034 0.456940 0.119514
#
# Coordination Sequence:
#
# PCOD8048844 Si02
#       8
#     4   4   4   4   2   4   4   4
#     4  10  23  39  59  89 119 162 207 246 309 362
#     4  10  19  39  64  85 122 159 199 257 305 367
#     4  10  22  38  59  83 119 155 202 251 301 358
#     4  10  21  40  60  89 123 160 205 249 307 371
#     4  10  22  40  54  84 124 158 198 248 310 354
#     4   9  20  39  60  85 125 157 198 252 305 360
#     4  11  22  38  60  91 115 158 207 246 308 367
#     4  10  21  38  60  94 119 157 203 253 312 367
#
# _framework density 20.400096000000001
#
# number of rings (size 3 to 8) (size 9 to 14) (size 15 to 20)
#    0.400    1.600    1.333    1.600    1.867    2.133 
#    9.600    3.333    0.000    0.000    0.000    0.000 
#    0.000    0.000    0.000    0.000    0.000    0.000 
#
# Total GULP energy -185847.646302 kJ/mol
# GULP energy per Si atom -12389.843087 kJ/mol
# Density = 2.035366 g / cm^3
# Si number density = 20.400096 Si / 1000 Ang^3
#
#
#
# Elastic Constant Matrix: (Units=GPa)
#
#
# Indices 1 2 3 4 5 6 
#
# 1 133.7233 42.9384 19.0980 0.0000 -0.1178 0.0000
# 2 42.9384 86.8691 3.8010 -0.0001 -1.3229 0.0000
# 3 19.0980 3.8010 58.0111 0.0000 9.6070 0.0000
# 4 0.0000 -0.0001 0.0000 7.5557 0.0000 9.8515
# 5 -0.1178 -1.3229 9.6070 0.0000 24.6090 0.0000
# 6 0.0000 0.0000 0.0000 9.8515 0.0000 29.0437
#
#
#
# Elastic Compliance Matrix: (Units=1/GPa)
#
#
# Indices 1 2 3 4 5 6 
#
# 1 0.009334 -0.004471 -0.002937 0.000000 0.000951 0.000000
# 2 -0.004471 0.013708 0.000487 0.000000 0.000526 0.000000
# 3 -0.002937 0.000487 0.019427 0.000000 -0.007572 0.000000
# 4 0.000000 0.000000 0.000000 0.237300 0.000000 -0.080491
# 5 0.000951 0.000526 -0.007572 0.000000 0.043624 0.000000
# 6 0.000000 0.000000 0.000000 -0.080491 0.000000 0.061733
#
#
# Mechanical properties :
#
#
# Convention : Reuss Voigt Hill
#
# Bulk Modulus (GPa) = 34.93298 45.58648 40.25973
# Shear Modulus (GPa) = 12.23953 26.42608 19.33280
#
# Velocity S-wave (km/s) = 2.45209 3.60306 3.08178
# Velocity P-wave (km/s) = 5.01778 6.30112 5.69571
#
# Compressibility (1/GPa) = 0.02862624
#
# Stress axis : x y z
#
# Youngs Moduli (GPa) = 107.13495 72.94958 51.47415
#
# Poissons Ratio (x) = 0.32613 0.15120
# Poissons Ratio (y) = 0.47897 -0.02505
# Poissons Ratio (z) = 0.31471 -0.03550
#
# Static dielectric constant tensor:
#      x y z
#    x 3.961310 0.000000 0.166660 
#    y 0.000000 3.958220 0.000000 
#    z 0.166660 0.000000 3.620350 
# 
# 
# High freq. dielectric constant tensor:
#      x y z
#    x 1.807770 0.000000 0.010540 
#    y 0.000000 1.792950 0.000000 
#    z 0.010540 0.000000 1.784180 
# 
# From -- ./inp_files/41991.got.cif
#   From: 2010.03.12/outbox.cif.g09.slc.cpg/sg5_21_cif.got.tgz:41991.got - 2010.03.31 09:47:26.
