data_PCOD8048975
_publ_section_title
;
Structure prediction by ZEFSAII (Michael W. Deem and Ramdas Pophale) SiO2 
 PCOD8048975
Probable space group: C 2
;
_chemical_formula_sum "Si O2"
_cell_formula_units_Z 26
_cell_length_a 9.904145
_cell_length_b 9.839954
_cell_length_c 25.100431
_cell_angle_alpha 90.000000
_cell_angle_beta 143.662664
_cell_angle_gamma 90.000000
_cell_volume 1449.464587
_symmetry_space_group_name_H-M "C 2"
_symmetry_group_IT_number 5
_symmetry_cell_setting 'monoclinic'
loop_
_space_group_symop_operation_xyz
x,y,z
-x,y,-z
1/2+x,1/2+y,z
1/2-x,1/2+y,-z
loop_
_atom_site_type_symbol
_atom_site_label
_atom_site_fract_x
_atom_site_fract_y
_atom_site_fract_z
Si Si1 0.350689 0.042190 0.240101
Si Si2 0.824560 0.043030 0.339736
Si Si3 0.500000 0.423286 0.500000
Si Si4 0.945693 0.270024 0.660020
Si Si5 0.328665 0.760115 0.740215
Si Si6 0.917142 0.082417 0.030195
Si Si7 0.760415 0.800118 0.950080
O O1 0.568653 0.086682 0.274473
O O2 0.324218 0.149116 0.279208
O O3 0.132326 0.036909 0.133224
O O4 0.379083 0.893712 0.274974
O O5 0.939502 0.156541 0.339899
O O6 0.971627 0.020948 0.439946
O O7 0.812526 0.900721 0.304154
O O8 0.719084 0.327716 0.559797
O O9 0.876936 0.208233 0.695595
O O10 0.568160 0.782211 0.844998
O O11 0.771796 0.199609 0.010974
O O12 0.000000 0.140112 0.000000
O O13 0.753670 0.953068 0.970110
O O14 0.000000 0.764987 0.000000
#
# Coordination Sequence:
#
# PCOD8048975 Si02
#       7
#     4   4   2   4   4   4   4
#     4   9  20  36  52  76 107 135 171 215 253 297
#     4  10  20  36  58  77 100 136 170 205 254 308
#     4   8  20  36  52  80 110 124 160 216 256 300
#     4  10  20  36  58  77 100 136 170 205 254 308
#     4   9  20  36  52  76 107 135 171 215 253 297
#     4  10  20  34  52  75 105 139 174 214 256 297
#     4  10  20  34  52  75 105 139 174 214 256 297
#
# _framework density 17.937659
#
# number of rings (size 3 to 8) (size 9 to 14) (size 15 to 20)
#    0.000    2.769    0.000    3.692    0.000   11.692 
#    0.000    6.154    0.000    0.000    0.000    0.000 
#    0.000    0.000    0.000    0.000    0.000    0.000 
#
# Total GULP energy -161186.659212 kJ/mol
# GULP energy per Si atom -12398.973786 kJ/mol
# Density = 1.789683 g / cm^3
# Si number density = 17.937659 Si / 1000 Ang^3
#
#
#
# Elastic Constant Matrix: (Units=GPa)
#
#
# Indices 1 2 3 4 5 6 
#
# 1 98.5389 74.5595 15.9533 0.0000 -15.3941 0.0000
# 2 74.5595 87.1891 11.1268 0.0000 -14.2782 0.0000
# 3 15.9533 11.1268 50.9891 0.0000 -11.9582 0.0000
# 4 0.0000 0.0000 0.0000 14.6979 0.0000 -10.0745
# 5 -15.3941 -14.2782 -11.9582 0.0000 19.5205 0.0000
# 6 0.0000 0.0000 0.0000 -10.0745 0.0000 37.9861
#
#
#
# Elastic Compliance Matrix: (Units=1/GPa)
#
#
# Indices 1 2 3 4 5 6 
#
# 1 0.029663 -0.024369 -0.003103 0.000000 0.003667 0.000000
# 2 -0.024369 0.033073 0.001838 0.000000 0.006099 0.000000
# 3 -0.003103 0.001838 0.023266 0.000000 0.013150 0.000000
# 4 0.000000 0.000000 0.000000 0.083153 0.000000 0.022054
# 5 0.003667 0.006099 0.013150 0.000000 0.066636 0.000000
# 6 0.000000 0.000000 0.000000 0.022054 0.000000 0.032174
#
#
# Mechanical properties :
#
#
# Convention : Reuss Voigt Hill
#
# Bulk Modulus (GPa) = 28.79173 48.88846 38.84009
# Shear Modulus (GPa) = 15.11434 23.44607 19.28020
#
# Velocity S-wave (km/s) = 2.90591 3.61929 3.28204
# Velocity P-wave (km/s) = 5.22924 6.69175 6.00518
#
# Compressibility (1/GPa) = 0.03473220
#
# Stress axis : x y z
#
# Youngs Moduli (GPa) = 33.71254 30.23617 42.98154
#
# Poissons Ratio (x) = 0.73684 0.13337
# Poissons Ratio (y) = 0.82155 -0.07899
# Poissons Ratio (z) = 0.10461 -0.05557
#
# Static dielectric constant tensor:
#      x y z
#    x 3.331000 0.000000 -0.097370 
#    y 0.000000 3.286790 0.000000 
#    z -0.097370 0.000000 3.448840 
# 
# 
# High freq. dielectric constant tensor:
#      x y z
#    x 1.691060 0.000000 -0.005630 
#    y 0.000000 1.689280 0.000000 
#    z -0.005630 0.000000 1.710890 
# 
# From -- ./inp_files/52109.got.cif
#   From: 2010.03.12/outbox.cif.g09.slc.cpg/sg5_27_cif.got.tgz:52109.got - 2010.03.31 09:47:26.
