data_PCOD8048298
_publ_section_title
;
Structure prediction by ZEFSAII (Michael W. Deem and Ramdas Pophale) SiO2 
 PCOD8048298
Probable space group: C 2
;
_chemical_formula_sum "Si O2"
_cell_formula_units_Z 28
_cell_length_a 20.292218
_cell_length_b 13.447923
_cell_length_c 10.494036
_cell_angle_alpha 90.000000
_cell_angle_beta 147.594135
_cell_angle_gamma 90.000000
_cell_volume 1534.693853
_symmetry_space_group_name_H-M "C 2"
_symmetry_group_IT_number 5
_symmetry_cell_setting 'monoclinic'
loop_
_space_group_symop_operation_xyz
x,y,z
-x,y,-z
1/2+x,1/2+y,z
1/2-x,1/2+y,-z
loop_
_atom_site_type_symbol
_atom_site_label
_atom_site_fract_x
_atom_site_fract_y
_atom_site_fract_z
Si Si1 0.729155 0.534620 0.821465
Si Si2 0.343861 0.723842 0.141801
Si Si3 0.940055 0.698763 0.705620
Si Si4 0.504747 0.010849 0.655745
Si Si5 0.375953 0.321717 0.370521
Si Si6 0.595838 0.801968 0.495351
Si Si7 0.308849 0.186208 0.750415
O O1 0.674545 0.611646 0.836415
O O2 0.640147 0.440599 0.659675
O O3 0.751750 0.587227 0.721614
O O4 0.856163 0.490921 0.078077
O O5 0.474578 0.731816 0.281705
O O6 0.351939 0.797999 0.275269
O O7 0.233741 0.758572 0.871758
O O8 0.888137 0.790898 0.539014
O O9 0.849824 0.668635 0.673115
O O10 0.942469 0.603969 0.619696
O O11 0.076297 0.725393 0.978156
O O12 0.500000 0.030459 0.500000
O O13 0.430389 0.915212 0.580725
O O14 0.500000 0.292103 0.500000
O O15 0.701704 0.768211 0.571343
#
# Coordination Sequence:
#
# PCOD8048298 Si02
#       7
#     4   4   4   4   4   4   4
#     4  10  21  34  57  84 115 146 186 227 280 340
#     4  10  20  36  54  87 116 144 178 228 290 329
#     4  10  22  38  56  78 115 146 190 233 272 331
#     4  11  18  34  58  87 108 144 185 232 276 333
#     4  12  22  34  56  91 114 140 184 238 283 322
#     4  10  18  34  62  78 110 148 189 221 274 342
#     4   9  21  40  57  76 107 160 186 223 281 331
#
# _framework density 18.244679999999999
#
# number of rings (size 3 to 8) (size 9 to 14) (size 15 to 20)
#    0.000    1.714    2.857    3.857    4.000    1.143 
#    0.000    0.714    0.000    0.000    0.000    0.000 
#    0.000    0.000    0.000    0.000    0.000    0.000 
#
# Total GULP energy -173595.953305 kJ/mol
# GULP energy per Si atom -12399.710950 kJ/mol
# Density = 1.820315 g / cm^3
# Si number density = 18.244680 Si / 1000 Ang^3
#
#
#
# Elastic Constant Matrix: (Units=GPa)
#
#
# Indices 1 2 3 4 5 6 
#
# 1 117.5059 49.3333 47.0547 0.0000 9.3248 0.0000
# 2 49.3333 124.6395 48.1356 0.0000 1.6424 0.0000
# 3 47.0547 48.1356 87.6126 0.0000 3.3943 0.0000
# 4 0.0000 0.0000 0.0000 32.5461 0.0000 9.5305
# 5 9.3248 1.6424 3.3943 0.0000 27.3126 0.0000
# 6 0.0000 0.0000 0.0000 9.5305 0.0000 22.3997
#
#
#
# Elastic Compliance Matrix: (Units=1/GPa)
#
#
# Indices 1 2 3 4 5 6 
#
# 1 0.011832 -0.002837 -0.004669 0.000000 -0.003289 0.000000
# 2 -0.002837 0.010864 -0.004479 0.000000 0.000872 0.000000
# 3 -0.004669 -0.004479 0.016389 0.000000 -0.000174 0.000000
# 4 0.000000 0.000000 0.000000 0.035099 0.000000 -0.014934
# 5 -0.003289 0.000872 -0.000174 0.000000 0.037705 0.000000
# 6 0.000000 0.000000 0.000000 -0.014934 0.000000 0.050997
#
#
# Mechanical properties :
#
#
# Convention : Reuss Voigt Hill
#
# Bulk Modulus (GPa) = 66.15573 68.75614 67.45594
# Shear Modulus (GPa) = 26.05608 28.80062 27.42835
#
# Velocity S-wave (km/s) = 3.78318 3.97744 3.88153
# Velocity P-wave (km/s) = 7.44462 7.67208 7.55920
#
# Compressibility (1/GPa) = 0.01511585
#
# Stress axis : x y z
#
# Youngs Moduli (GPa) = 84.51891 92.04433 61.01675
#
# Poissons Ratio (x) = 0.26111 0.28486
# Poissons Ratio (y) = 0.23976 0.27331
# Poissons Ratio (z) = 0.39458 0.41229
#
# Static dielectric constant tensor:
#      x y z
#    x 3.339960 0.000000 0.193900 
#    y 0.000000 3.375840 0.000000 
#    z 0.193900 0.000000 3.470420 
# 
# 
# High freq. dielectric constant tensor:
#      x y z
#    x 1.695970 0.000000 0.015000 
#    y 0.000000 1.706160 0.000000 
#    z 0.015000 0.000000 1.709860 
# 
# From -- ./inp_files/27728.got.cif
#   From: 2010.03.12/outbox.cif.g09.slc.cpg/sg5_14_cif.got.tgz:27728.got - 2010.03.31 09:47:26.
