data_PCOD8048772
_publ_section_title
;
Structure prediction by ZEFSAII (Michael W. Deem and Ramdas Pophale) SiO2 
 PCOD8048772
Probable space group: C 2
;
_chemical_formula_sum "Si O2"
_cell_formula_units_Z 32
_cell_length_a 23.467833
_cell_length_b 13.621112
_cell_length_c 9.208332
_cell_angle_alpha 90.000000
_cell_angle_beta 30.034011
_cell_angle_gamma 90.000000
_cell_volume 1473.271343
_symmetry_space_group_name_H-M "C 2"
_symmetry_group_IT_number 5
_symmetry_cell_setting 'monoclinic'
loop_
_space_group_symop_operation_xyz
x,y,z
-x,y,-z
1/2+x,1/2+y,z
1/2-x,1/2+y,-z
loop_
_atom_site_type_symbol
_atom_site_label
_atom_site_fract_x
_atom_site_fract_y
_atom_site_fract_z
Si Si1 0.501671 0.527110 0.657396
Si Si2 0.515780 0.746435 0.627781
Si Si3 0.758938 0.542678 0.704965
Si Si4 0.205474 0.333173 0.406722
Si Si5 0.868841 0.771448 0.814868
Si Si6 0.282283 0.746284 0.316019
Si Si7 0.199467 0.898150 0.294830
Si Si8 0.133463 0.546115 0.213655
O O1 0.500000 0.481033 0.500000
O O2 0.560503 0.634496 0.519810
O O3 0.581622 0.456620 0.575182
O O4 0.376839 0.534008 0.996782
O O5 0.500000 0.789213 0.500000
O O6 0.607002 0.812262 0.508302
O O7 0.398562 0.748399 0.971821
O O8 0.806397 0.446888 0.514680
O O9 0.787607 0.644759 0.559293
O O10 0.814115 0.537815 0.741797
O O11 0.195228 0.257920 0.562583
O O12 0.327002 0.322069 0.056688
O O13 0.798701 0.816119 0.835544
O O14 0.844517 0.656651 0.886531
O O15 0.000000 0.794183 0.500000
O O16 0.211006 0.840442 0.420736
O O17 0.302392 0.973486 0.038005
O O18 0.000000 0.520042 0.500000
#
# Coordination Sequence:
#
# PCOD8048772 Si02
#       8
#     4   4   4   4   4   4   4   4
#     4  10  19  37  67 100 123 161 225 289 324 373
#     4  10  23  41  71 101 129 175 231 277 324 394
#     4  11  23  43  65  96 135 173 224 281 335 395
#     4  12  24  42  70  97 138 179 218 273 349 401
#     4  11  23  41  67  95 129 174 228 274 323 392
#     4  11  27  43  64 100 142 175 216 278 343 407
#     4  12  21  39  68  97 128 173 228 275 325 397
#     4  11  24  39  65 103 132 170 228 282 323 392
#
# _framework density 21.720372000000001
#
# number of rings (size 3 to 8) (size 9 to 14) (size 15 to 20)
#    0.000    1.000    3.750    3.000    3.500    2.000 
#    0.000    3.750    0.000    0.000    0.000    0.000 
#    0.000    0.000    0.000    0.000    0.000    0.000 
#
# Total GULP energy -198419.417129 kJ/mol
# GULP energy per Si atom -12401.213571 kJ/mol
# Density = 2.167094 g / cm^3
# Si number density = 21.720372 Si / 1000 Ang^3
#
#
#
# Elastic Constant Matrix: (Units=GPa)
#
#
# Indices 1 2 3 4 5 6 
#
# 1 114.7201 54.5478 45.1491 0.0000 -3.4750 0.0000
# 2 54.5478 144.8198 22.3460 0.0000 -14.2372 0.0000
# 3 45.1491 22.3460 67.7904 0.0000 -9.7710 0.0000
# 4 0.0000 0.0000 0.0000 27.8774 0.0000 -3.1317
# 5 -3.4750 -14.2372 -9.7710 0.0000 39.1410 0.0000
# 6 0.0000 0.0000 0.0000 -3.1317 0.0000 32.9607
#
#
#
# Elastic Compliance Matrix: (Units=1/GPa)
#
#
# Indices 1 2 3 4 5 6 
#
# 1 0.013859 -0.004186 -0.008187 0.000000 -0.002336 0.000000
# 2 -0.004186 0.008714 0.000331 0.000000 0.002881 0.000000
# 3 -0.008187 0.000331 0.020754 0.000000 0.004575 0.000000
# 4 0.000000 0.000000 0.000000 0.036258 0.000000 0.003445
# 5 -0.002336 0.002881 0.004575 0.000000 0.027531 0.000000
# 6 0.000000 0.000000 0.000000 0.003445 0.000000 0.030666
#
#
# Mechanical properties :
#
#
# Convention : Reuss Voigt Hill
#
# Bulk Modulus (GPa) = 51.96860 63.49068 57.72964
# Shear Modulus (GPa) = 29.71214 33.68163 31.69689
#
# Velocity S-wave (km/s) = 3.70258 3.94216 3.82424
# Velocity P-wave (km/s) = 6.50053 7.07214 6.79235
#
# Compressibility (1/GPa) = 0.01924239
#
# Stress axis : x y z
#
# Youngs Moduli (GPa) = 72.15710 114.75632 48.18331
#
# Poissons Ratio (x) = 0.48042 0.39446
# Poissons Ratio (y) = 0.30208 -0.01595
# Poissons Ratio (z) = 0.59073 -0.03798
#
# Static dielectric constant tensor:
#      x y z
#    x 3.809400 0.000000 -0.231280 
#    y 0.000000 4.505110 0.000000 
#    z -0.231280 0.000000 3.660310 
# 
# 
# High freq. dielectric constant tensor:
#      x y z
#    x 1.839700 0.000000 -0.020980 
#    y 0.000000 1.884510 0.000000 
#    z -0.020980 0.000000 1.830310 
# 
# From -- ./inp_files/31044.got.cif
#   From: 2010.03.12/outbox.cif.g09.slc.cpg/sg5_16_cif.got.tgz:31044.got - 2010.03.31 09:47:26.
