data_PCOD8048842
_publ_section_title
;
Structure prediction by ZEFSAII (Michael W. Deem and Ramdas Pophale) SiO2 
 PCOD8048842
Probable space group: C 2
;
_chemical_formula_sum "Si O2"
_cell_formula_units_Z 32
_cell_length_a 14.586687
_cell_length_b 8.037238
_cell_length_c 23.572921
_cell_angle_alpha 90.000000
_cell_angle_beta 149.069947
_cell_angle_gamma 90.000000
_cell_volume 1420.471829
_symmetry_space_group_name_H-M "C 2"
_symmetry_group_IT_number 5
_symmetry_cell_setting 'monoclinic'
loop_
_space_group_symop_operation_xyz
x,y,z
-x,y,-z
1/2+x,1/2+y,z
1/2-x,1/2+y,-z
loop_
_atom_site_type_symbol
_atom_site_label
_atom_site_fract_x
_atom_site_fract_y
_atom_site_fract_z
Si Si1 0.699139 0.689290 0.612778
Si Si2 0.988526 0.254708 0.725447
Si Si3 0.780968 0.484068 0.543554
Si Si4 0.203705 0.512254 0.994036
Si Si5 0.468348 0.388812 0.223440
Si Si6 0.021296 0.763971 0.656386
Si Si7 0.335482 0.358010 0.957166
Si Si8 0.330686 0.896219 0.751466
O O1 0.500000 0.761501 0.500000
O O2 0.737801 0.590061 0.576084
O O3 0.835825 0.841054 0.696799
O O4 0.723890 0.563899 0.678616
O O5 0.885236 0.314072 0.614740
O O6 0.871478 0.284884 0.719025
O O7 0.169452 0.361201 0.826432
O O8 0.030061 0.061949 0.742499
O O9 0.915405 0.599792 0.578159
O O10 0.605347 0.427661 0.417120
O O11 0.318565 0.389306 0.095378
O O12 0.179331 0.691453 0.010931
O O13 0.311523 0.511042 0.990092
O O14 0.007783 0.436714 0.881193
O O15 0.423020 0.251385 0.247542
O O16 0.203423 0.778065 0.719596
O O17 0.500000 0.369285 0.000000
#
# Coordination Sequence:
#
# PCOD8048842 Si02
#       8
#     4   4   4   4   4   4   4   4
#     4  10  19  39  63  91 122 172 212 265 341 398
#     4   9  21  42  59  90 131 161 220 277 326 406
#     4  10  21  40  61  87 130 163 214 283 325 412
#     4  10  22  42  66  98 137 168 233 282 323 420
#     4  10  22  39  60  91 133 166 212 279 328 397
#     4  11  22  38  61  93 120 174 219 265 349 399
#     4  10  22  43  69  97 132 185 219 278 348 392
#     4  10  21  38  66  90 124 173 215 273 337 395
#
# _framework density 22.527726000000001
#
# number of rings (size 3 to 8) (size 9 to 14) (size 15 to 20)
#    0.000    2.000    1.250    1.500    3.500    1.000 
#   13.500    0.625    0.000    0.000    0.000    0.000 
#    0.000    0.000    0.000    0.000    0.000    0.000 
#
# Total GULP energy -198236.988516 kJ/mol
# GULP energy per Si atom -12389.811782 kJ/mol
# Density = 2.247645 g / cm^3
# Si number density = 22.527726 Si / 1000 Ang^3
#
#
#
# Elastic Constant Matrix: (Units=GPa)
#
#
# Indices 1 2 3 4 5 6 
#
# 1 116.6581 14.1201 41.5971 0.0000 26.9061 0.0000
# 2 14.1201 34.2033 8.7327 0.0000 4.1039 0.0000
# 3 41.5971 8.7327 138.2913 0.0002 9.9255 0.0000
# 4 0.0000 0.0000 0.0002 28.7939 0.0000 0.5266
# 5 26.9061 4.1039 9.9255 0.0000 35.0327 0.0000
# 6 0.0000 0.0000 0.0000 0.5266 0.0000 29.1025
#
#
#
# Elastic Compliance Matrix: (Units=1/GPa)
#
#
# Indices 1 2 3 4 5 6 
#
# 1 0.011764 -0.003204 -0.002771 0.000000 -0.007875 0.000000
# 2 -0.003204 0.030903 -0.000923 0.000000 -0.000898 0.000000
# 3 -0.002771 -0.000923 0.008128 0.000000 -0.000066 0.000000
# 4 0.000000 0.000000 0.000000 0.034741 0.000000 -0.000629
# 5 -0.007875 -0.000898 -0.000066 0.000000 0.034717 0.000000
# 6 0.000000 0.000000 0.000000 -0.000629 0.000000 0.034373
#
#
# Mechanical properties :
#
#
# Convention : Reuss Voigt Hill
#
# Bulk Modulus (GPa) = 27.02847 46.45029 36.73938
# Shear Modulus (GPa) = 27.66170 33.56601 30.61385
#
# Velocity S-wave (km/s) = 3.50794 3.86422 3.69038
# Velocity P-wave (km/s) = 5.33211 6.36974 5.87388
#
# Compressibility (1/GPa) = 0.03699803
#
# Stress axis : x y z
#
# Youngs Moduli (GPa) = 85.00338 32.35913 123.03619
#
# Poissons Ratio (x) = 0.10369 0.34094
# Poissons Ratio (y) = 0.27237 0.11359
# Poissons Ratio (z) = 0.23555 0.02987
#
# Static dielectric constant tensor:
#      x y z
#    x 3.900690 0.000000 -0.003860 
#    y 0.000000 4.004690 0.000000 
#    z -0.003860 0.000000 4.360710 
# 
# 
# High freq. dielectric constant tensor:
#      x y z
#    x 1.869110 0.000000 -0.004690 
#    y 0.000000 1.878620 0.000000 
#    z -0.004690 0.000000 1.906100 
# 
# From -- ./inp_files/68783.got.cif
#   From: 2010.03.12/outbox.cif.g09.slc.cpg/sg5_35_cif.got.tgz:68783.got - 2010.03.31 09:47:26.
