data_PCOD8048610
_publ_section_title
;
Structure prediction by ZEFSAII (Michael W. Deem and Ramdas Pophale) SiO2 
 PCOD8048610
Probable space group: C 2
;
_chemical_formula_sum "Si O2"
_cell_formula_units_Z 28
_cell_length_a 5.105599
_cell_length_b 21.212101
_cell_length_c 12.514479
_cell_angle_alpha 90.000000
_cell_angle_beta 101.008448
_cell_angle_gamma 90.000000
_cell_volume 1330.384837
_symmetry_space_group_name_H-M "C 2"
_symmetry_group_IT_number 5
_symmetry_cell_setting 'monoclinic'
loop_
_space_group_symop_operation_xyz
x,y,z
-x,y,-z
1/2+x,1/2+y,z
1/2-x,1/2+y,-z
loop_
_atom_site_type_symbol
_atom_site_label
_atom_site_fract_x
_atom_site_fract_y
_atom_site_fract_z
Si Si1 0.502843 0.264260 0.794142
Si Si2 0.440996 0.517453 0.876276
Si Si3 0.726317 0.907976 0.447222
Si Si4 0.468519 0.823045 0.116083
Si Si5 0.771785 0.766731 0.545095
Si Si6 0.771174 0.649034 0.067864
Si Si7 0.415831 0.952402 0.795626
O O1 0.787468 0.296321 0.793909
O O2 0.328422 0.268228 0.674290
O O3 0.565424 0.193743 0.838867
O O4 0.323993 0.302319 0.866023
O O5 0.363719 0.590945 0.879249
O O6 0.700995 0.502357 0.824605
O O7 0.192867 0.487125 0.795849
O O8 0.500000 0.490742 0.000000
O O9 0.500000 0.941924 0.500000
O O10 0.743017 0.834744 0.483940
O O11 0.678095 0.916993 0.318449
O O12 0.000000 0.942457 0.500000
O O13 0.508411 0.898075 0.114524
O O14 0.500000 0.795865 0.000000
O O15 0.500000 0.729124 0.500000
O O16 0.000000 0.728571 0.500000
O O17 0.500000 0.683133 0.000000
O O18 0.000000 0.626966 0.000000
#
# Coordination Sequence:
#
# PCOD8048610 Si02
#       7
#     4   4   4   4   4   4   4
#     4  12  23  39  62  90 126 166 209 259 320 387
#     4  11  23  41  62  89 124 167 215 263 313 374
#     4  10  19  35  56  83 117 156 202 249 305 374
#     4  12  23  35  55  91 132 162 194 250 326 398
#     4  10  20  36  56  83 117 157 204 248 304 375
#     4  11  23  42  66  92 126 170 221 268 315 380
#     4  12  23  38  61  90 125 166 212 259 318 386
#
# _framework density 21.046541000000001
#
# number of rings (size 3 to 8) (size 9 to 14) (size 15 to 20)
#    0.000    0.857    0.000   11.571    0.000    0.000 
#    0.000    0.000    0.000    3.429    0.000    0.000 
#    0.000    0.000    0.000    0.000    0.000    0.000 
#
# Total GULP energy -173439.576040 kJ/mol
# GULP energy per Si atom -12388.541146 kJ/mol
# Density = 2.099864 g / cm^3
# Si number density = 21.046541 Si / 1000 Ang^3
#
#
#
# Elastic Constant Matrix: (Units=GPa)
#
#
# Indices 1 2 3 4 5 6 
#
# 1 160.4502 29.2641 27.6521 0.0000 8.1952 0.0000
# 2 29.2641 91.6387 26.5307 0.0000 1.2197 0.0000
# 3 27.6521 26.5307 117.2828 0.0000 10.9322 0.0000
# 4 0.0000 0.0000 0.0000 21.6094 0.0000 2.0442
# 5 8.1952 1.2197 10.9322 0.0000 42.5317 0.0000
# 6 0.0000 0.0000 0.0000 2.0442 0.0000 23.8905
#
#
#
# Elastic Compliance Matrix: (Units=1/GPa)
#
#
# Indices 1 2 3 4 5 6 
#
# 1 0.006808 -0.001843 -0.001097 0.000000 -0.000977 0.000000
# 2 -0.001843 0.012181 -0.002379 0.000000 0.000617 0.000000
# 3 -0.001097 -0.002379 0.009525 0.000000 -0.002169 0.000000
# 4 0.000000 0.000000 0.000000 0.046654 0.000000 -0.003992
# 5 -0.000977 0.000617 -0.002169 0.000000 0.024240 0.000000
# 6 0.000000 0.000000 0.000000 -0.003992 0.000000 0.042199
#
#
# Mechanical properties :
#
#
# Convention : Reuss Voigt Hill
#
# Bulk Modulus (GPa) = 55.93905 59.58505 57.76205
# Shear Modulus (GPa) = 31.60481 36.66799 34.13640
#
# Velocity S-wave (km/s) = 3.87933 4.17854 4.03171
# Velocity P-wave (km/s) = 6.83389 7.18699 7.01266
#
# Compressibility (1/GPa) = 0.01787660
#
# Stress axis : x y z
#
# Youngs Moduli (GPa) = 146.89418 82.09187 104.98419
#
# Poissons Ratio (x) = 0.15132 0.11517
# Poissons Ratio (y) = 0.27078 0.24971
# Poissons Ratio (z) = 0.16114 0.19526
#
# Static dielectric constant tensor:
#      x y z
#    x 1.398370 0.000000 0.180310 
#    y 0.000000 3.473220 0.000000 
#    z 0.180310 0.000000 3.731410 
# 
# 
# High freq. dielectric constant tensor:
#      x y z
#    x 1.863380 0.000000 0.012760 
#    y 0.000000 1.782220 0.000000 
#    z 0.012760 0.000000 1.818430 
# 
# From -- ./inp_files/33990.got.cif
#   From: 2010.03.12/outbox.cif.g09.slc.cpg/sg5_17_cif.got.tgz:33990.got - 2010.03.31 09:47:26.
