data_PCOD8048229
_publ_section_title
;
Structure prediction by ZEFSAII (Michael W. Deem and Ramdas Pophale) SiO2 
 PCOD8048229
Probable space group: C 2
;
_chemical_formula_sum "Si O2"
_cell_formula_units_Z 28
_cell_length_a 19.984779
_cell_length_b 16.182017
_cell_length_c 12.413596
_cell_angle_alpha 90.000000
_cell_angle_beta 159.033830
_cell_angle_gamma 90.000000
_cell_volume 1436.448853
_symmetry_space_group_name_H-M "C 2"
_symmetry_group_IT_number 5
_symmetry_cell_setting 'monoclinic'
loop_
_space_group_symop_operation_xyz
x,y,z
-x,y,-z
1/2+x,1/2+y,z
1/2-x,1/2+y,-z
loop_
_atom_site_type_symbol
_atom_site_label
_atom_site_fract_x
_atom_site_fract_y
_atom_site_fract_z
Si Si1 0.916502 0.402190 0.490737
Si Si2 0.941459 0.183941 0.738337
Si Si3 0.946293 0.369295 0.080516
Si Si4 0.851821 0.215548 0.371934
Si Si5 0.544522 0.235937 0.190652
Si Si6 0.195471 0.898811 0.514335
Si Si7 0.573124 0.513442 0.995907
O O1 0.818816 0.312715 0.348183
O O2 0.000000 0.415601 0.500000
O O3 0.067615 0.400473 0.816319
O O4 0.781362 0.479687 0.300599
O O5 0.934529 0.169430 0.599656
O O6 0.731847 0.179758 0.474108
O O7 0.040779 0.270396 0.913511
O O8 0.069676 0.112793 0.982588
O O9 0.130429 0.409016 0.304627
O O10 0.762663 0.397874 0.739757
O O11 0.000000 0.198817 0.500000
O O12 0.635019 0.186961 0.026324
O O13 0.577351 0.317551 0.309906
O O14 0.500000 0.260236 0.000000
O O15 0.060146 0.977280 0.298092
O O16 0.500000 0.481798 0.000000
#
# Coordination Sequence:
#
# PCOD8048229 Si02
#       7
#     4   4   4   4   4   4   4
#     4  10  20  38  62  84 116 159 200 230 283 359
#     4   9  21  34  55  83 116 145 191 245 288 336
#     4   9  19  37  57  83 113 151 192 243 286 334
#     4   9  17  35  62  83 110 159 200 228 278 358
#     4   9  16  32  56  86 111 152 192 236 283 347
#     4  10  18  32  59  83 114 140 193 243 290 326
#     4  12  22  36  58  88 115 151 191 241 301 345
#
# _framework density 19.492514
#
# number of rings (size 3 to 8) (size 9 to 14) (size 15 to 20)
#    0.000    2.286    2.857    1.286    4.000    0.000 
#    7.714    3.571    0.000    0.000    0.000    0.000 
#    0.000    0.000    0.000    0.000    0.000    0.000 
#
# Total GULP energy -173515.930646 kJ/mol
# GULP energy per Si atom -12393.995046 kJ/mol
# Density = 1.944815 g / cm^3
# Si number density = 19.492514 Si / 1000 Ang^3
#
#
#
# Elastic Constant Matrix: (Units=GPa)
#
#
# Indices 1 2 3 4 5 6 
#
# 1 111.8715 22.2659 47.0998 0.0000 -9.1903 0.0000
# 2 22.2659 71.1046 32.3583 0.0000 -1.1454 0.0000
# 3 47.0998 32.3583 100.4700 0.0000 -18.9476 0.0000
# 4 0.0000 0.0000 0.0000 30.8413 0.0000 0.4922
# 5 -9.1903 -1.1454 -18.9476 0.0000 28.4649 0.0000
# 6 0.0000 0.0000 0.0000 0.4922 0.0000 69.2875
#
#
#
# Elastic Compliance Matrix: (Units=1/GPa)
#
#
# Indices 1 2 3 4 5 6 
#
# 1 0.011245 -0.001348 -0.004760 0.000000 0.000408 0.000000
# 2 -0.001348 0.016913 -0.005454 0.000000 -0.003385 0.000000
# 3 -0.004760 -0.005454 0.015564 0.000000 0.008604 0.000000
# 4 0.000000 0.000000 0.000000 0.032428 0.000000 -0.000230
# 5 0.000408 -0.003385 0.008604 0.000000 0.040853 0.000000
# 6 0.000000 0.000000 0.000000 -0.000230 0.000000 0.014434
#
#
# Mechanical properties :
#
#
# Convention : Reuss Voigt Hill
#
# Bulk Modulus (GPa) = 48.54962 54.09935 51.32448
# Shear Modulus (GPa) = 30.97360 37.83354 34.40357
#
# Velocity S-wave (km/s) = 3.99055 4.41037 4.20570
# Velocity P-wave (km/s) = 6.79658 7.33140 7.06905
#
# Compressibility (1/GPa) = 0.02059749
#
# Stress axis : x y z
#
# Youngs Moduli (GPa) = 88.92933 59.12515 64.25141
#
# Poissons Ratio (x) = 0.07972 0.30586
# Poissons Ratio (y) = 0.11990 0.35040
# Poissons Ratio (z) = 0.42334 0.32244
#
# Static dielectric constant tensor:
#      x y z
#    x -1.655630 0.000000 -2.048420 
#    y 0.000000 3.215180 0.000000 
#    z -2.048420 0.000000 2.917680 
# 
# 
# High freq. dielectric constant tensor:
#      x y z
#    x 1.740780 0.000000 -0.014620 
#    y 0.000000 1.729310 0.000000 
#    z -0.014620 0.000000 1.760440 
# 
# From -- ./inp_files/46635.got.cif
#   From: 2010.03.12/outbox.cif.g09.slc.cpg/sg5_24_cif.got.tgz:46635.got - 2010.03.31 09:47:26.
