data_PCOD8048782
_publ_section_title
;
Structure prediction by ZEFSAII (Michael W. Deem and Ramdas Pophale) SiO2 
 PCOD8048782
Probable space group: C 2
;
_chemical_formula_sum "Si O2"
_cell_formula_units_Z 24
_cell_length_a 17.591383
_cell_length_b 14.047806
_cell_length_c 10.607350
_cell_angle_alpha 90.000000
_cell_angle_beta 151.156741
_cell_angle_gamma 90.000000
_cell_volume 1264.550944
_symmetry_space_group_name_H-M "C 2"
_symmetry_group_IT_number 5
_symmetry_cell_setting 'monoclinic'
loop_
_space_group_symop_operation_xyz
x,y,z
-x,y,-z
1/2+x,1/2+y,z
1/2-x,1/2+y,-z
loop_
_atom_site_type_symbol
_atom_site_label
_atom_site_fract_x
_atom_site_fract_y
_atom_site_fract_z
Si Si1 0.338675 0.117500 0.695393
Si Si2 0.412590 0.843439 0.241350
Si Si3 0.133948 0.946907 0.948365
Si Si4 0.675286 0.953466 0.517806
Si Si5 0.896607 0.820448 0.726238
Si Si6 0.011404 0.137870 0.366787
O O1 0.293228 0.043623 0.522696
O O2 0.373483 0.210320 0.660525
O O3 0.193754 0.133353 0.583112
O O4 0.500000 0.086591 0.000000
O O5 0.500000 0.832031 0.500000
O O6 0.428509 0.737816 0.201755
O O7 0.235924 0.881798 0.000931
O O8 0.493844 0.929303 0.281516
O O9 0.225202 0.966197 0.210485
O O10 0.089517 0.050255 0.832571
O O11 0.978116 0.882198 0.735464
O O12 0.727326 0.862868 0.511759
O O13 0.000000 0.828818 0.000000
O O14 0.000000 0.129223 0.500000
#
# Coordination Sequence:
#
# PCOD8048782 Si02
#       6
#     4   4   4   4   4   4
#     4  11  23  36  59  88 116 149 191 237 283 338
#     4   9  20  36  59  84 113 152 191 227 279 347
#     4  10  21  38  62  84 111 152 191 237 280 336
#     4  10  19  38  59  84 111 147 198 232 275 333
#     4   9  18  34  58  82 108 148 193 225 275 335
#     4  11  23  38  57  86 119 150 188 236 290 337
#
# _framework density 18.97907
#
# number of rings (size 3 to 8) (size 9 to 14) (size 15 to 20)
#    0.000    2.000    3.333    0.000    9.333    0.000 
#    0.000    3.333    0.000    0.000    0.000    0.000 
#    0.000    0.000    0.000    0.000    0.000    0.000 
#
# Total GULP energy -148666.567113 kJ/mol
# GULP energy per Si atom -12388.880593 kJ/mol
# Density = 1.893587 g / cm^3
# Si number density = 18.979070 Si / 1000 Ang^3
#
#
#
# Elastic Constant Matrix: (Units=GPa)
#
#
# Indices 1 2 3 4 5 6 
#
# 1 98.8224 48.9185 32.2032 0.0000 19.6937 0.0000
# 2 48.9185 117.3391 31.8538 0.0000 4.6983 0.0000
# 3 32.2032 31.8538 54.9606 0.0000 15.7246 0.0000
# 4 0.0000 0.0000 0.0000 20.2082 0.0000 4.6779
# 5 19.6937 4.6983 15.7246 0.0000 21.8048 0.0000
# 6 0.0000 0.0000 0.0000 4.6779 0.0000 39.3195
#
#
#
# Elastic Compliance Matrix: (Units=1/GPa)
#
#
# Indices 1 2 3 4 5 6 
#
# 1 0.015996 -0.005388 -0.003085 0.000000 -0.011062 0.000000
# 2 -0.005388 0.012045 -0.005637 0.000000 0.006336 0.000000
# 3 -0.003085 -0.005637 0.027876 0.000000 -0.016102 0.000000
# 4 0.000000 0.000000 0.000000 0.050886 0.000000 -0.006054
# 5 -0.011062 0.006336 -0.016102 0.000000 0.066099 0.000000
# 6 0.000000 0.000000 0.000000 -0.006054 0.000000 0.026153
#
#
# Mechanical properties :
#
#
# Convention : Reuss Voigt Hill
#
# Bulk Modulus (GPa) = 36.10413 55.23036 45.66725
# Shear Modulus (GPa) = 21.14091 26.80962 23.97527
#
# Velocity S-wave (km/s) = 3.34114 3.76252 3.55808
# Velocity P-wave (km/s) = 5.82656 6.93103 6.40266
#
# Compressibility (1/GPa) = 0.02769766
#
# Stress axis : x y z
#
# Youngs Moduli (GPa) = 62.51487 83.02060 35.87292
#
# Poissons Ratio (x) = 0.44735 0.11066
# Poissons Ratio (y) = 0.33686 0.20220
# Poissons Ratio (z) = 0.19285 0.46796
#
# Static dielectric constant tensor:
#      x y z
#    x 3.655770 0.000000 0.461050 
#    y 0.000000 3.993070 0.000000 
#    z 0.461050 0.000000 3.340730 
# 
# 
# High freq. dielectric constant tensor:
#      x y z
#    x 1.737050 0.000000 0.034900 
#    y 0.000000 1.755860 0.000000 
#    z 0.034900 0.000000 1.707220 
# 
# From -- ./inp_files/19444.got.cif
#   From: 2010.03.12/outbox.cif.g09.slc.cpg/sg5_10_cif.got.tgz:19444.got - 2010.03.31 09:47:26.
