data_PCOD8048386
_publ_section_title
;
Structure prediction by ZEFSAII (Michael W. Deem and Ramdas Pophale) SiO2 
 PCOD8048386
Probable space group: C 2
;
_chemical_formula_sum "Si O2"
_cell_formula_units_Z 24
_cell_length_a 15.970749
_cell_length_b 9.413049
_cell_length_c 11.237453
_cell_angle_alpha 90.000000
_cell_angle_beta 124.938803
_cell_angle_gamma 90.000000
_cell_volume 1384.880960
_symmetry_space_group_name_H-M "C 2"
_symmetry_group_IT_number 5
_symmetry_cell_setting 'monoclinic'
loop_
_space_group_symop_operation_xyz
x,y,z
-x,y,-z
1/2+x,1/2+y,z
1/2-x,1/2+y,-z
loop_
_atom_site_type_symbol
_atom_site_label
_atom_site_fract_x
_atom_site_fract_y
_atom_site_fract_z
Si Si1 0.387206 0.586120 0.392617
Si Si2 0.795642 0.527676 0.261874
Si Si3 0.665583 0.825125 0.489090
Si Si4 0.239091 0.820178 0.681365
Si Si5 0.066454 0.325637 0.757772
Si Si6 0.392952 0.684702 0.958264
O O1 0.500000 0.520948 0.500000
O O2 0.343696 0.661693 0.475997
O O3 0.312783 0.457038 0.301525
O O4 0.393106 0.703510 0.295859
O O5 0.789744 0.422295 0.369352
O O6 0.830084 0.681909 0.341705
O O7 0.872505 0.469927 0.224030
O O8 0.685487 0.550369 0.105761
O O9 0.747037 0.835040 0.448978
O O10 0.551425 0.869201 0.355882
O O11 0.351260 0.802516 0.831014
O O12 0.093768 0.267812 0.908636
O O13 0.500000 0.623204 0.000000
#
# Coordination Sequence:
#
# PCOD8048386 Si02
#       6
#     4   4   4   4   4   4
#     4   9  20  33  55  79 109 143 179 223 277 322
#     4   9  21  32  57  84 107 142 187 227 267 321
#     4  10  18  37  57  81 106 149 178 227 269 335
#     4  10  20  32  55  84 108 142 185 227 269 321
#     4  10  19  37  57  77 112 143 184 219 279 330
#     4  10  21  36  54  80 106 151 180 220 275 336
#
# _framework density 17.330009
#
# number of rings (size 3 to 8) (size 9 to 14) (size 15 to 20)
#    1.000    1.333    1.667    2.500    2.333    1.333 
#    0.000    0.000    0.000    6.000    0.000    0.000 
#    0.000    0.000    0.000    0.000    0.000    0.000 
#
# Total GULP energy -148662.827244 kJ/mol
# GULP energy per Si atom -12388.568937 kJ/mol
# Density = 1.729056 g / cm^3
# Si number density = 17.330009 Si / 1000 Ang^3
#
#
#
# Elastic Constant Matrix: (Units=GPa)
#
#
# Indices 1 2 3 4 5 6 
#
# 1 75.6595 50.2711 24.5281 0.0000 -0.2913 0.0000
# 2 50.2711 84.1563 23.8075 0.0000 11.3800 0.0000
# 3 24.5281 23.8075 82.1310 0.0000 -0.1975 0.0000
# 4 0.0000 0.0000 0.0000 18.7585 0.0000 5.7805
# 5 -0.2913 11.3800 -0.1975 0.0000 30.9952 0.0000
# 6 0.0000 0.0000 0.0000 5.7805 0.0000 28.2748
#
#
#
# Elastic Compliance Matrix: (Units=1/GPa)
#
#
# Indices 1 2 3 4 5 6 
#
# 1 0.023406 -0.013860 -0.002960 0.000000 0.005290 0.000000
# 2 -0.013860 0.021899 -0.002228 0.000000 -0.008185 0.000000
# 3 -0.002960 -0.002228 0.013708 0.000000 0.000878 0.000000
# 4 0.000000 0.000000 0.000000 0.056893 0.000000 -0.011631
# 5 0.005290 -0.008185 0.000878 0.000000 0.035323 0.000000
# 6 0.000000 0.000000 0.000000 -0.011631 0.000000 0.037745
#
#
# Mechanical properties :
#
#
# Convention : Reuss Voigt Hill
#
# Bulk Modulus (GPa) = 47.80861 48.79558 48.30209
# Shear Modulus (GPa) = 21.36367 25.16173 23.26270
#
# Velocity S-wave (km/s) = 3.51487 3.81454 3.66777
# Velocity P-wave (km/s) = 6.64225 6.90063 6.77267
#
# Compressibility (1/GPa) = 0.02091673
#
# Stress axis : x y z
#
# Youngs Moduli (GPa) = 42.72436 45.66440 72.95179
#
# Poissons Ratio (x) = 0.63289 0.21593
# Poissons Ratio (y) = 0.59214 0.16257
# Poissons Ratio (z) = 0.12646 0.10176
#
# Static dielectric constant tensor:
#      x y z
#    x 3.204970 0.000000 -0.063200 
#    y 0.000000 3.073960 0.000000 
#    z -0.063200 0.000000 3.209140 
# 
# 
# High freq. dielectric constant tensor:
#      x y z
#    x 1.667140 0.000000 -0.006850 
#    y 0.000000 1.656320 0.000000 
#    z -0.006850 0.000000 1.666080 
# 
# From -- ./inp_files/44008.got.cif
#   From: 2010.03.12/outbox.cif.g09.slc.cpg/sg5_23_cif.got.tgz:44008.got - 2010.03.31 09:47:26.
