data_PCOD8048726
_publ_section_title
;
Structure prediction by ZEFSAII (Michael W. Deem and Ramdas Pophale) SiO2 
 PCOD8048726
Probable space group: C 2
;
_chemical_formula_sum "Si O2"
_cell_formula_units_Z 24
_cell_length_a 17.672626
_cell_length_b 15.717071
_cell_length_c 10.251405
_cell_angle_alpha 90.000000
_cell_angle_beta 154.995551
_cell_angle_gamma 90.000000
_cell_volume 1203.584716
_symmetry_space_group_name_H-M "C 2"
_symmetry_group_IT_number 5
_symmetry_cell_setting 'monoclinic'
loop_
_space_group_symop_operation_xyz
x,y,z
-x,y,-z
1/2+x,1/2+y,z
1/2-x,1/2+y,-z
loop_
_atom_site_type_symbol
_atom_site_label
_atom_site_fract_x
_atom_site_fract_y
_atom_site_fract_z
Si Si1 0.406417 0.917080 0.685170
Si Si2 0.604311 0.739467 0.043632
Si Si3 0.458663 0.326802 0.575832
Si Si4 0.746155 0.484382 0.687698
Si Si5 0.937695 0.157530 0.550221
Si Si6 0.182283 0.332472 0.701864
O O1 0.260208 0.943266 0.564305
O O2 0.314831 0.909062 0.399988
O O3 0.499893 0.827501 0.859744
O O4 0.563102 0.988284 0.938638
O O5 0.809760 0.762341 0.403874
O O6 0.500000 0.692259 0.000000
O O7 0.598235 0.680615 0.903222
O O8 0.500000 0.287394 0.500000
O O9 0.384709 0.422063 0.438387
O O10 0.639935 0.337845 0.937720
O O11 0.669953 0.578658 0.560420
O O12 0.808996 0.239566 0.350375
O O13 0.000000 0.137476 0.500000
O O14 0.000000 0.340797 0.500000
#
# Coordination Sequence:
#
# PCOD8048726 Si02
#       6
#     4   4   4   4   4   4
#     4   9  18  38  60  82 120 160 203 244 296 362
#     4  10  19  41  62  84 121 162 204 249 296 363
#     4  11  20  36  65  88 115 164 206 248 307 359
#     4  10  19  37  58  86 119 163 193 244 312 361
#     4  10  21  38  60  86 122 158 197 251 305 364
#     4  10  21  38  61  91 118 153 210 258 293 367
#
# _framework density 19.940432000000001
#
# number of rings (size 3 to 8) (size 9 to 14) (size 15 to 20)
#    0.000    2.000    3.333    4.500    0.000    0.667 
#    9.000    0.000    0.000    4.000    0.000    0.000 
#    0.000    0.000    0.000    0.000    0.000    0.000 
#
# Total GULP energy -148677.945230 kJ/mol
# GULP energy per Si atom -12389.828769 kJ/mol
# Density = 1.989505 g / cm^3
# Si number density = 19.940432 Si / 1000 Ang^3
#
#
#
# Elastic Constant Matrix: (Units=GPa)
#
#
# Indices 1 2 3 4 5 6 
#
# 1 125.2870 38.3194 67.3209 0.0000 -6.4903 0.0000
# 2 38.3194 78.7935 23.5639 0.0000 0.3778 0.0000
# 3 67.3209 23.5639 139.7276 0.0000 -12.5981 0.0000
# 4 0.0000 0.0000 0.0000 21.3770 0.0000 -1.2651
# 5 -6.4903 0.3778 -12.5981 0.0000 32.6918 0.0000
# 6 0.0000 0.0000 0.0000 -1.2651 0.0000 22.7036
#
#
#
# Elastic Compliance Matrix: (Units=1/GPa)
#
#
# Indices 1 2 3 4 5 6 
#
# 1 0.012037 -0.004355 -0.005019 0.000000 0.000506 0.000000
# 2 -0.004355 0.014977 -0.000540 0.000000 -0.001246 0.000000
# 3 -0.005019 -0.000540 0.009922 0.000000 0.002833 0.000000
# 4 0.000000 0.000000 0.000000 0.046934 0.000000 0.002615
# 5 0.000506 -0.001246 0.002833 0.000000 0.031795 0.000000
# 6 0.000000 0.000000 0.000000 0.002615 0.000000 0.044192
#
#
# Mechanical properties :
#
#
# Convention : Reuss Voigt Hill
#
# Bulk Modulus (GPa) = 58.45613 66.91293 62.68453
# Shear Modulus (GPa) = 26.97057 29.66140 28.31598
#
# Velocity S-wave (km/s) = 3.68170 3.86100 3.77241
# Velocity P-wave (km/s) = 6.88856 7.31476 7.10485
#
# Compressibility (1/GPa) = 0.01710685
#
# Stress axis : x y z
#
# Youngs Moduli (GPa) = 83.07706 66.76968 100.79059
#
# Poissons Ratio (x) = 0.29080 0.50590
# Poissons Ratio (y) = 0.36182 0.05439
# Poissons Ratio (z) = 0.41699 0.03603
#
# Static dielectric constant tensor:
#      x y z
#    x 3.917940 0.000000 -0.145940 
#    y 0.000000 3.405490 0.000000 
#    z -0.145940 0.000000 3.675910 
# 
# 
# High freq. dielectric constant tensor:
#      x y z
#    x 1.785470 0.000000 -0.002770 
#    y 0.000000 1.747000 0.000000 
#    z -0.002770 0.000000 1.769120 
# 
# From -- ./inp_files/27904.got.cif
#   From: 2010.03.12/outbox.cif.g09.slc.cpg/sg5_14_cif.got.tgz:27904.got - 2010.03.31 09:47:26.
