data_PCOD8048889
_publ_section_title
;
Structure prediction by ZEFSAII (Michael W. Deem and Ramdas Pophale) SiO2 
 PCOD8048889
Probable space group: C 2
;
_chemical_formula_sum "Si O2"
_cell_formula_units_Z 30
_cell_length_a 11.775487
_cell_length_b 10.511864
_cell_length_c 17.140300
_cell_angle_alpha 90.000000
_cell_angle_beta 139.211442
_cell_angle_gamma 90.000000
_cell_volume 1386.019556
_symmetry_space_group_name_H-M "C 2"
_symmetry_group_IT_number 5
_symmetry_cell_setting 'monoclinic'
loop_
_space_group_symop_operation_xyz
x,y,z
-x,y,-z
1/2+x,1/2+y,z
1/2-x,1/2+y,-z
loop_
_atom_site_type_symbol
_atom_site_label
_atom_site_fract_x
_atom_site_fract_y
_atom_site_fract_z
Si Si1 0.661919 0.851820 0.860679
Si Si2 0.202056 0.598783 0.788235
Si Si3 0.840964 0.713375 0.631968
Si Si4 0.838136 0.421062 0.374005
Si Si5 0.500000 0.194177 0.000000
Si Si6 0.982594 0.217055 0.636348
Si Si7 0.554174 0.825120 0.108748
Si Si8 0.286439 0.061952 0.759250
O O1 0.841154 0.784789 0.937163
O O2 0.499795 0.793547 0.726374
O O3 0.618335 0.821398 0.927650
O O4 0.685785 0.002169 0.853219
O O5 0.236917 0.517472 0.727955
O O6 0.370518 0.688017 0.877569
O O7 0.033803 0.690593 0.699363
O O8 0.812490 0.860103 0.648195
O O9 0.714514 0.688201 0.491569
O O10 0.803135 0.610252 0.679504
O O11 0.922739 0.297040 0.380786
O O12 0.000000 0.492641 0.500000
O O13 0.445517 0.115663 0.894881
O O14 0.097692 0.088632 0.699296
O O15 0.694534 0.909334 0.229289
O O16 0.500000 0.893763 0.000000
#
# Coordination Sequence:
#
# PCOD8048889 Si02
#       8
#     4   4   4   4   2   4   4   4
#     4  10  23  46  68  94 136 170 230 284 330 402
#     4  11  24  42  63  99 129 175 223 267 338 394
#     4  10  19  40  70  93 133 173 215 276 334 396
#     4   8  17  38  63  92 130 166 213 270 322 391
#     4  10  22  42  74  94 118 186 226 272 346 386
#     4   8  18  39  69  98 122 176 222 268 339 398
#     4  12  27  44  61  99 141 174 225 286 330 396
#     4  10  19  41  64  93 131 170 221 277 332 390
#
# _framework density 21.644715999999999
#
# number of rings (size 3 to 8) (size 9 to 14) (size 15 to 20)
#    0.000    2.133    2.000    2.000    2.800    1.067 
#   12.000    1.333    0.000    0.000    0.000    0.000 
#    0.000    0.000    0.000    0.000    0.000    0.000 
#
# Total GULP energy -185860.023166 kJ/mol
# GULP energy per Si atom -12390.668211 kJ/mol
# Density = 2.159545 g / cm^3
# Si number density = 21.644716 Si / 1000 Ang^3
#
#
#
# Elastic Constant Matrix: (Units=GPa)
#
#
# Indices 1 2 3 4 5 6 
#
# 1 100.5214 41.5474 39.3705 0.0000 -2.2639 0.0000
# 2 41.5474 75.6009 23.8940 0.0000 5.7474 0.0000
# 3 39.3705 23.8940 96.1643 0.0001 -7.2292 0.0000
# 4 0.0000 0.0000 0.0001 23.5103 0.0000 6.0857
# 5 -2.2639 5.7474 -7.2292 0.0000 29.9377 0.0000
# 6 0.0000 0.0000 0.0000 6.0857 0.0000 28.4831
#
#
#
# Elastic Compliance Matrix: (Units=1/GPa)
#
#
# Indices 1 2 3 4 5 6 
#
# 1 0.014356 -0.006695 -0.004110 0.000000 0.001378 0.000000
# 2 -0.006695 0.017888 -0.002037 0.000000 -0.004432 0.000000
# 3 -0.004110 -0.002037 0.012827 0.000000 0.003177 0.000000
# 4 0.000000 0.000000 0.000000 0.045025 0.000000 -0.009620
# 5 0.001378 -0.004432 0.003177 0.000000 0.035125 0.000000
# 6 0.000000 0.000000 0.000000 -0.009620 0.000000 0.037164
#
#
# Mechanical properties :
#
#
# Convention : Reuss Voigt Hill
#
# Bulk Modulus (GPa) = 51.58422 53.54562 52.56492
# Shear Modulus (GPa) = 25.70286 27.55121 26.62704
#
# Velocity S-wave (km/s) = 3.44973 3.57162 3.51121
# Velocity P-wave (km/s) = 6.30488 6.46535 6.38562
#
# Compressibility (1/GPa) = 0.01938577
#
# Stress axis : x y z
#
# Youngs Moduli (GPa) = 69.65530 55.90491 77.96304
#
# Poissons Ratio (x) = 0.37431 0.32046
# Poissons Ratio (y) = 0.46637 0.15878
# Poissons Ratio (z) = 0.28631 0.11385
#
# Static dielectric constant tensor:
#      x y z
#    x 3.733670 0.000000 -0.212760 
#    y 0.000000 3.817520 0.000000 
#    z -0.212760 0.000000 4.412600 
# 
# 
# High freq. dielectric constant tensor:
#      x y z
#    x 1.835090 0.000000 -0.007750 
#    y 0.000000 1.839960 0.000000 
#    z -0.007750 0.000000 1.849640 
# 
# From -- ./inp_files/60494.got.cif
#   From: 2010.03.12/outbox.cif.g09.slc.cpg/sg5_31_cif.got.tgz:60494.got - 2010.03.31 09:47:26.
