data_PCOD8048517
_publ_section_title
;
Structure prediction by ZEFSAII (Michael W. Deem and Ramdas Pophale) SiO2 
 PCOD8048517
Probable space group: C 2
;
_chemical_formula_sum "Si O2"
_cell_formula_units_Z 26
_cell_length_a 11.848829
_cell_length_b 8.020066
_cell_length_c 15.370080
_cell_angle_alpha 90.000000
_cell_angle_beta 63.916762
_cell_angle_gamma 90.000000
_cell_volume 1311.841588
_symmetry_space_group_name_H-M "C 2"
_symmetry_group_IT_number 5
_symmetry_cell_setting 'monoclinic'
loop_
_space_group_symop_operation_xyz
x,y,z
-x,y,-z
1/2+x,1/2+y,z
1/2-x,1/2+y,-z
loop_
_atom_site_type_symbol
_atom_site_label
_atom_site_fract_x
_atom_site_fract_y
_atom_site_fract_z
Si Si1 0.449736 0.959160 0.842354
Si Si2 0.000000 0.283136 0.000000
Si Si3 0.190826 0.033596 0.847987
Si Si4 0.585987 0.554785 0.599580
Si Si5 0.318561 0.772069 0.295081
Si Si6 0.174681 0.083193 0.383586
Si Si7 0.096438 0.791367 0.742938
O O1 0.452916 0.913908 0.943202
O O2 0.534405 0.814764 0.770949
O O3 0.305303 0.948796 0.860967
O O4 0.502983 0.140160 0.796630
O O5 0.112595 0.158420 0.935966
O O6 0.242804 0.142455 0.750806
O O7 0.106540 0.889335 0.831474
O O8 0.679561 0.688968 0.610845
O O9 0.659194 0.508522 0.486387
O O10 0.455546 0.640152 0.614844
O O11 0.548638 0.406465 0.679186
O O12 0.232731 0.930964 0.311001
O O13 0.268236 0.237099 0.340664
#
# Coordination Sequence:
#
# PCOD8048517 Si02
#       7
#     4   2   4   4   4   4   4
#     4  10  21  38  57  77 105 137 171 216 265 312
#     4  10  24  38  54  82 104 130 174 220 264 314
#     4  10  21  38  57  77 105 137 171 216 265 312
#     4  10  19  32  52  78 108 141 176 214 254 299
#     4   9  19  35  52  76 108 138 174 215 257 307
#     4  10  19  32  52  78 108 141 176 214 254 299
#     4  10  21  35  55  80 104 140 179 209 255 314
#
# _framework density 19.819465000000001
#
# number of rings (size 3 to 8) (size 9 to 14) (size 15 to 20)
#    0.000    2.154    0.000    2.769    0.000    3.077 
#    0.000    3.077    0.000   14.769    0.000    0.000 
#    0.000    0.000    0.000    0.000    0.000    0.000 
#
# Total GULP energy -161065.634202 kJ/mol
# GULP energy per Si atom -12389.664169 kJ/mol
# Density = 1.977436 g / cm^3
# Si number density = 19.819465 Si / 1000 Ang^3
#
#
#
# Elastic Constant Matrix: (Units=GPa)
#
#
# Indices 1 2 3 4 5 6 
#
# 1 78.8652 11.3754 33.4930 0.0000 11.5880 0.0000
# 2 11.3754 58.5532 14.6600 0.0000 11.0329 0.0000
# 3 33.4930 14.6600 79.3714 0.0000 16.4539 0.0000
# 4 0.0000 0.0000 0.0000 33.6714 0.0000 -0.0717
# 5 11.5880 11.0329 16.4539 0.0000 28.3411 0.0000
# 6 0.0000 0.0000 0.0000 -0.0717 0.0000 27.9554
#
#
#
# Elastic Compliance Matrix: (Units=1/GPa)
#
#
# Indices 1 2 3 4 5 6 
#
# 1 0.015721 -0.001092 -0.005898 0.000000 -0.002579 0.000000
# 2 -0.001092 0.018844 -0.001809 0.000000 -0.005839 0.000000
# 3 -0.005898 -0.001809 0.016798 0.000000 -0.006636 0.000000
# 4 0.000000 0.000000 0.000000 0.029699 0.000000 0.000076
# 5 -0.002579 -0.005839 -0.006636 0.000000 0.042465 0.000000
# 6 0.000000 0.000000 0.000000 0.000076 0.000000 0.035771
#
#
# Mechanical properties :
#
#
# Convention : Reuss Voigt Hill
#
# Bulk Modulus (GPa) = 29.61650 37.31629 33.46639
# Shear Modulus (GPa) = 26.57457 28.47768 27.52612
#
# Velocity S-wave (km/s) = 3.66571 3.79470 3.73076
# Velocity P-wave (km/s) = 5.73517 6.16998 5.95654
#
# Compressibility (1/GPa) = 0.03376497
#
# Stress axis : x y z
#
# Youngs Moduli (GPa) = 63.60959 53.06791 59.53232
#
# Poissons Ratio (x) = 0.05793 0.35110
# Poissons Ratio (y) = 0.06944 0.10772
# Poissons Ratio (z) = 0.37515 0.09602
#
# Static dielectric constant tensor:
#      x y z
#    x 3.467440 0.000000 0.097720 
#    y 0.000000 3.554200 0.000000 
#    z 0.097720 0.000000 3.661540 
# 
# 
# High freq. dielectric constant tensor:
#      x y z
#    x 1.769950 0.000000 0.009920 
#    y 0.000000 1.773800 0.000000 
#    z 0.009920 0.000000 1.772530 
# 
# From -- ./inp_files/50081.got.cif
#   From: 2010.03.12/outbox.cif.g09.slc.cpg/sg5_26_cif.got.tgz:50081.got - 2010.03.31 09:47:26.
