data_PCOD8048037
_publ_section_title
;
Structure prediction by ZEFSAII (Michael W. Deem and Ramdas Pophale) SiO2 
 PCOD8048037
Probable space group: C 2
;
_chemical_formula_sum "Si O2"
_cell_formula_units_Z 22
_cell_length_a 28.992700
_cell_length_b 5.278275
_cell_length_c 12.799486
_cell_angle_alpha 90.000000
_cell_angle_beta 151.610759
_cell_angle_gamma 90.000000
_cell_volume 931.292908
_symmetry_space_group_name_H-M "C 2"
_symmetry_group_IT_number 5
_symmetry_cell_setting 'monoclinic'
loop_
_space_group_symop_operation_xyz
x,y,z
-x,y,-z
1/2+x,1/2+y,z
1/2-x,1/2+y,-z
loop_
_atom_site_type_symbol
_atom_site_label
_atom_site_fract_x
_atom_site_fract_y
_atom_site_fract_z
Si Si1 0.117726 0.430680 0.224497
Si Si2 0.989733 0.904625 0.261351
Si Si3 0.000000 0.719675 0.500000
Si Si4 0.704485 0.016977 0.954301
Si Si5 0.094486 0.933209 0.263383
Si Si6 0.127707 0.405815 0.008338
O O1 0.156435 0.681400 0.360824
O O2 0.161484 0.422634 0.195064
O O3 0.158217 0.180263 0.362949
O O4 0.000000 0.425150 0.000000
O O5 0.026726 0.902427 0.455043
O O6 0.073859 0.952816 0.345444
O O7 0.952322 0.623034 0.163365
O O8 0.910482 0.123809 0.091203
O O9 0.909670 0.536995 0.297105
O O10 0.753685 0.286839 0.029773
O O11 0.715043 0.957808 0.099706
O O12 0.000000 0.928609 0.000000
#
# Coordination Sequence:
#
# PCOD8048037 Si02
#       6
#     4   4   2   4   4   4
#     4  10  15  26  45  81 119 148 197 262 299 363
#     4  11  19  32  52  86 124 160 200 261 307 370
#     4  10  26  42  66  94 132 168 220 262 320 384
#     4  11  25  44  64  92 130 173 218 264 316 380
#     4  10  15  25  46  77 121 151 194 257 305 356
#     4  11  19  32  56  83 123 161 202 260 314 366
#
# _framework density 23.623073000000002
#
# number of rings (size 3 to 8) (size 9 to 14) (size 15 to 20)
#    0.000    1.455    7.273    2.182    0.000    6.545 
#    0.000    0.000    0.000    0.000    0.000    5.091 
#    0.000    0.000    0.000    0.000    0.000    0.000 
#
# Total GULP energy -136315.092508 kJ/mol
# GULP energy per Si atom -12392.281137 kJ/mol
# Density = 2.356931 g / cm^3
# Si number density = 23.623073 Si / 1000 Ang^3
#
#
#
# Elastic Constant Matrix: (Units=GPa)
#
#
# Indices 1 2 3 4 5 6 
#
# 1 206.6344 60.6224 39.2655 0.0000 -47.3348 0.0000
# 2 60.6224 190.5076 21.8519 0.0000 -16.8530 0.0000
# 3 39.2655 21.8519 38.2575 0.0000 -12.8619 0.0000
# 4 0.0000 0.0000 0.0000 9.5389 0.0000 -11.4991
# 5 -47.3348 -16.8530 -12.8619 0.0000 43.9798 0.0000
# 6 0.0000 0.0000 0.0000 -11.4991 0.0000 41.1596
#
#
#
# Elastic Compliance Matrix: (Units=1/GPa)
#
#
# Indices 1 2 3 4 5 6 
#
# 1 0.007586 -0.001295 -0.004955 0.000000 0.006219 0.000000
# 2 -0.001295 0.005911 -0.001945 0.000000 0.000302 0.000000
# 3 -0.004955 -0.001945 0.033595 0.000000 0.003747 0.000000
# 4 0.000000 0.000000 0.000000 0.158069 0.000000 0.044161
# 5 0.006219 0.000302 0.003747 0.000000 0.030642 0.000000
# 6 0.000000 0.000000 0.000000 0.044161 0.000000 0.036633
#
#
# Mechanical properties :
#
#
# Convention : Reuss Voigt Hill
#
# Bulk Modulus (GPa) = 32.57272 75.43101 54.00186
# Shear Modulus (GPa) = 16.71898 39.84631 28.28264
#
# Velocity S-wave (km/s) = 2.66322 4.11147 3.46388
# Velocity P-wave (km/s) = 4.82447 7.38507 6.23758
#
# Compressibility (1/GPa) = 0.03070054
#
# Stress axis : x y z
#
# Youngs Moduli (GPa) = 131.82816 169.17045 29.76652
#
# Poissons Ratio (x) = 0.21914 0.14749
# Poissons Ratio (y) = 0.17077 0.05790
# Poissons Ratio (z) = 0.65319 0.32909
#
# Static dielectric constant tensor:
#      x y z
#    x 4.882900 0.000000 -0.498610 
#    y 0.000000 5.663470 0.000000 
#    z -0.498610 0.000000 3.622210 
# 
# 
# High freq. dielectric constant tensor:
#      x y z
#    x 1.959020 0.000000 -0.022190 
#    y 0.000000 1.964580 0.000000 
#    z -0.022190 0.000000 1.872460 
# 
# From -- ./inp_files/48244.got.cif
#   From: 2010.03.12/outbox.cif.g09.slc.cpg/sg5_25_cif.got.tgz:48244.got - 2010.03.31 09:47:26.
