data_PCOD8048951
_publ_section_title
;
Structure prediction by ZEFSAII (Michael W. Deem and Ramdas Pophale) SiO2 
 PCOD8048951
Probable space group: C 2
;
_chemical_formula_sum "Si O2"
_cell_formula_units_Z 26
_cell_length_a 19.964957
_cell_length_b 10.020433
_cell_length_c 8.204177
_cell_angle_alpha 90.000000
_cell_angle_beta 129.328120
_cell_angle_gamma 90.000000
_cell_volume 1269.599189
_symmetry_space_group_name_H-M "C 2"
_symmetry_group_IT_number 5
_symmetry_cell_setting 'monoclinic'
loop_
_space_group_symop_operation_xyz
x,y,z
-x,y,-z
1/2+x,1/2+y,z
1/2-x,1/2+y,-z
loop_
_atom_site_type_symbol
_atom_site_label
_atom_site_fract_x
_atom_site_fract_y
_atom_site_fract_z
Si Si1 0.764747 0.884700 0.830129
Si Si2 0.151806 0.171520 0.516156
Si Si3 0.047480 0.796441 0.911706
Si Si4 0.705834 0.666597 0.233149
Si Si5 0.000000 0.800931 0.500000
Si Si6 0.814285 0.906261 0.264111
Si Si7 0.525029 0.607226 0.859259
O O1 0.681488 0.793184 0.674356
O O2 0.754269 0.017837 0.706126
O O3 0.848795 0.795830 0.906558
O O4 0.766002 0.929513 0.019443
O O5 0.177852 0.201653 0.371582
O O6 0.047187 0.165574 0.374813
O O7 0.199306 0.035008 0.644083
O O8 0.016048 0.718397 0.696076
O O9 0.018040 0.947972 0.836598
O O10 0.000000 0.736843 0.000000
O O11 0.776539 0.773755 0.289009
O O12 0.622582 0.662326 0.979892
O O13 0.084088 0.892927 0.611473
O O14 0.500000 0.653996 0.000000
#
# Coordination Sequence:
#
# PCOD8048951 Si02
#       7
#     4   4   4   4   2   4   4
#     4  10  22  36  55  91 121 155 195 251 305 350
#     4  11  20  36  65  88 117 157 203 243 300 355
#     4   9  17  32  55  81 116 147 202 242 283 350
#     4  10  21  37  62  88 122 154 197 249 299 360
#     4  10  20  32  58  86 112 156 198 244 292 346
#     4  11  22  38  59  90 123 154 203 248 295 362
#     4   8  16  32  56  84 110 149 197 240 286 355
#
# _framework density 20.478904
#
# number of rings (size 3 to 8) (size 9 to 14) (size 15 to 20)
#    0.000    2.154    1.538    2.769    2.154    0.000 
#    0.000    0.000   10.154    0.923    0.000    0.000 
#    0.000    0.000    0.000    0.000    0.000    0.000 
#
# Total GULP energy -161090.075401 kJ/mol
# GULP energy per Si atom -12391.544262 kJ/mol
# Density = 2.043229 g / cm^3
# Si number density = 20.478904 Si / 1000 Ang^3
#
#
#
# Elastic Constant Matrix: (Units=GPa)
#
#
# Indices 1 2 3 4 5 6 
#
# 1 75.3164 25.5073 34.8647 0.0000 -3.4809 0.0000
# 2 25.5073 70.0395 41.1021 0.0000 20.0950 0.0000
# 3 34.8647 41.1021 115.7514 0.0000 8.8877 0.0000
# 4 0.0000 0.0000 0.0000 28.5539 0.0000 1.0078
# 5 -3.4809 20.0950 8.8877 0.0000 35.9592 0.0000
# 6 0.0000 0.0000 0.0000 1.0078 0.0000 18.5682
#
#
#
# Elastic Compliance Matrix: (Units=1/GPa)
#
#
# Indices 1 2 3 4 5 6 
#
# 1 0.017161 -0.005834 -0.003542 0.000000 0.005797 0.000000
# 2 -0.005834 0.023120 -0.005522 0.000000 -0.012120 0.000000
# 3 -0.003542 -0.005522 0.011678 0.000000 -0.000143 0.000000
# 4 0.000000 0.000000 0.000000 0.035089 0.000000 -0.001905
# 5 0.005797 -0.012120 -0.000143 0.000000 0.035179 0.000000
# 6 0.000000 0.000000 0.000000 -0.001905 0.000000 0.053959
#
#
# Mechanical properties :
#
#
# Convention : Reuss Voigt Hill
#
# Bulk Modulus (GPa) = 45.12168 51.56173 48.34171
# Shear Modulus (GPa) = 23.43351 27.25848 25.34600
#
# Velocity S-wave (km/s) = 3.38638 3.65232 3.52186
# Velocity P-wave (km/s) = 6.11320 6.55885 6.33994
#
# Compressibility (1/GPa) = 0.02216229
#
# Stress axis : x y z
#
# Youngs Moduli (GPa) = 58.27213 43.25223 85.63135
#
# Poissons Ratio (x) = 0.25234 0.30334
# Poissons Ratio (y) = 0.33996 0.47285
# Poissons Ratio (z) = 0.20642 0.23883
#
# Static dielectric constant tensor:
#      x y z
#    x 3.864480 0.000000 -0.064730 
#    y 0.000000 3.169470 0.000000 
#    z -0.064730 0.000000 4.166390 
# 
# 
# High freq. dielectric constant tensor:
#      x y z
#    x 1.798990 0.000000 -0.005610 
#    y 0.000000 1.741530 0.000000 
#    z -0.005610 0.000000 1.817790 
# 
# From -- ./inp_files/26521.got.cif
#   From: 2010.03.12/outbox.cif.g09.slc.cpg/sg5_14_cif.got.tgz:26521.got - 2010.03.31 09:47:26.
