data_PCOD8048773
_publ_section_title
;
Structure prediction by ZEFSAII (Michael W. Deem and Ramdas Pophale) SiO2 
 PCOD8048773
Probable space group: C 2
;
_chemical_formula_sum "Si O2"
_cell_formula_units_Z 26
_cell_length_a 8.396337
_cell_length_b 20.577478
_cell_length_c 8.788825
_cell_angle_alpha 90.000000
_cell_angle_beta 50.463886
_cell_angle_gamma 90.000000
_cell_volume 1171.097575
_symmetry_space_group_name_H-M "C 2"
_symmetry_group_IT_number 5
_symmetry_cell_setting 'monoclinic'
loop_
_space_group_symop_operation_xyz
x,y,z
-x,y,-z
1/2+x,1/2+y,z
1/2-x,1/2+y,-z
loop_
_atom_site_type_symbol
_atom_site_label
_atom_site_fract_x
_atom_site_fract_y
_atom_site_fract_z
Si Si1 0.869298 0.324360 0.436010
Si Si2 0.500000 0.404339 0.500000
Si Si3 0.958431 0.725852 0.348029
Si Si4 0.362265 0.748946 0.942752
Si Si5 0.704912 0.004423 0.798281
Si Si6 0.939962 0.125415 0.713777
Si Si7 0.364105 0.084073 0.449172
O O1 0.673367 0.365438 0.492002
O O2 0.766660 0.256097 0.554342
O O3 0.000000 0.354177 0.500000
O O4 0.033526 0.311995 0.199464
O O5 0.378455 0.448732 0.695671
O O6 0.960577 0.648808 0.309689
O O7 0.000000 0.738554 0.500000
O O8 0.131697 0.763510 0.143279
O O9 0.344490 0.691952 0.830080
O O10 0.500000 0.725010 0.000000
O O11 0.777428 0.067967 0.846866
O O12 0.663199 0.024880 0.649608
O O13 0.500000 0.975785 0.000000
O O14 0.000000 0.127382 0.500000
O O15 0.155425 0.107141 0.663015
O O16 0.500000 0.054711 0.500000
#
# Coordination Sequence:
#
# PCOD8048773 Si02
#       7
#     4   2   4   4   4   4   4
#     4  12  27  46  71 100 136 187 241 289 343 411
#     4  12  26  52  70  92 142 188 246 292 340 390
#     4  11  21  40  64 103 145 177 216 280 351 423
#     4  12  21  38  70 104 143 180 216 280 363 423
#     4  11  24  44  70  97 130 184 231 284 346 414
#     4  10  20  39  63 100 140 175 222 275 348 421
#     4  10  19  37  67 100 141 175 216 279 355 416
#
# _framework density 22.201395000000002
#
# number of rings (size 3 to 8) (size 9 to 14) (size 15 to 20)
#    0.000    0.923    6.154    2.308    2.154    3.077 
#    0.000    0.000    0.000    0.000    0.000    0.000 
#    0.000    0.000    0.000    0.000    0.000    0.000 
#
# Total GULP energy -161134.446416 kJ/mol
# GULP energy per Si atom -12394.957417 kJ/mol
# Density = 2.215086 g / cm^3
# Si number density = 22.201395 Si / 1000 Ang^3
#
#
#
# Elastic Constant Matrix: (Units=GPa)
#
#
# Indices 1 2 3 4 5 6 
#
# 1 120.9903 35.7060 26.5170 0.0000 -7.8491 0.0000
# 2 35.7060 73.3224 32.9477 0.0000 2.7639 0.0000
# 3 26.5170 32.9477 134.5646 0.0000 -31.0108 0.0000
# 4 0.0000 0.0000 0.0000 20.7908 0.0000 -11.3725
# 5 -7.8491 2.7639 -31.0108 0.0000 31.4973 0.0000
# 6 0.0000 0.0000 0.0000 -11.3725 0.0000 36.2691
#
#
#
# Elastic Compliance Matrix: (Units=1/GPa)
#
#
# Indices 1 2 3 4 5 6 
#
# 1 0.009911 -0.004879 -0.000117 0.000000 0.002782 0.000000
# 2 -0.004879 0.018835 -0.005577 0.000000 -0.008359 0.000000
# 3 -0.000117 -0.005577 0.011546 0.000000 0.011827 0.000000
# 4 0.000000 0.000000 0.000000 0.058056 0.000000 0.018204
# 5 0.002782 -0.008359 0.011827 0.000000 0.044820 0.000000
# 6 0.000000 0.000000 0.000000 0.018204 0.000000 0.033280
#
#
# Mechanical properties :
#
#
# Convention : Reuss Voigt Hill
#
# Bulk Modulus (GPa) = 52.22885 57.69098 54.95991
# Shear Modulus (GPa) = 24.51278 33.29186 28.90232
#
# Velocity S-wave (km/s) = 3.32642 3.87659 3.61199
# Velocity P-wave (km/s) = 6.19108 6.78815 6.49648
#
# Compressibility (1/GPa) = 0.01914651
#
# Stress axis : x y z
#
# Youngs Moduli (GPa) = 100.89705 53.09209 86.61301
#
# Poissons Ratio (x) = 0.25902 0.01016
# Poissons Ratio (y) = 0.49224 0.48302
# Poissons Ratio (z) = 0.01184 0.29608
#
# Static dielectric constant tensor:
#      x y z
#    x 4.398190 0.000000 -0.380190 
#    y 0.000000 3.866140 0.000000 
#    z -0.380190 0.000000 4.041370 
# 
# 
# High freq. dielectric constant tensor:
#      x y z
#    x 1.883700 0.000000 -0.020560 
#    y 0.000000 1.848180 0.000000 
#    z -0.020560 0.000000 1.866900 
# 
# From -- ./inp_files/17006.got.cif
#   From: 2010.03.12/outbox.cif.g09.slc.cpg/sg5_9_cif.got.tgz:17006.got - 2010.03.31 09:47:26.
