data_PCOD8048628
_publ_section_title
;
Structure prediction by ZEFSAII (Michael W. Deem and Ramdas Pophale) SiO2 
 PCOD8048628
Probable space group: C 2
;
_chemical_formula_sum "Si O2"
_cell_formula_units_Z 20
_cell_length_a 9.355948
_cell_length_b 22.471414
_cell_length_c 8.091360
_cell_angle_alpha 90.000000
_cell_angle_beta 147.590341
_cell_angle_gamma 90.000000
_cell_volume 911.757821
_symmetry_space_group_name_H-M "C 2"
_symmetry_group_IT_number 5
_symmetry_cell_setting 'monoclinic'
loop_
_space_group_symop_operation_xyz
x,y,z
-x,y,-z
1/2+x,1/2+y,z
1/2-x,1/2+y,-z
loop_
_atom_site_type_symbol
_atom_site_label
_atom_site_fract_x
_atom_site_fract_y
_atom_site_fract_z
Si Si1 0.544815 0.126470 0.852473
Si Si2 0.918964 0.363480 0.107806
Si Si3 0.748035 0.749410 0.858342
Si Si4 0.457172 0.560240 0.654345
Si Si5 0.421721 0.429331 0.734814
O O1 0.260551 0.109312 0.496059
O O2 0.500000 0.113648 0.000000
O O3 0.642517 0.194361 0.924663
O O4 0.765903 0.081637 0.994191
O O5 0.154626 0.392061 0.444449
O O6 0.850835 0.299713 0.115999
O O7 0.000000 0.353264 0.000000
O O8 0.662393 0.406054 0.856151
O O9 0.500000 0.728396 0.500000
O O10 0.000000 0.774248 0.000000
O O11 0.500000 0.556663 0.500000
O O12 0.364743 0.497339 0.634838
O O13 0.500000 0.421082 0.000000
#
# Coordination Sequence:
#
# PCOD8048628 Si02
#       5
#     4   4   4   4   4
#     4   9  18  33  58  88 117 155 201 244 296 362
#     4  12  25  42  64  93 126 166 210 259 315 372
#     4  11  21  38  64  93 124 162 208 256 304 367
#     4  10  19  35  59  87 119 157 201 248 297 360
#     4  12  25  42  64  93 127 166 209 259 315 373
#
# _framework density 21.935651
#
# number of rings (size 3 to 8) (size 9 to 14) (size 15 to 20)
#    0.000    1.200    0.000    9.600    0.000    1.600 
#    0.000    1.000    0.000    7.200    0.000    0.000 
#    0.000    0.000    0.000    0.000    0.000    0.000 
#
# Total GULP energy -123987.665797 kJ/mol
# GULP energy per Si atom -12398.766580 kJ/mol
# Density = 2.188572 g / cm^3
# Si number density = 21.935651 Si / 1000 Ang^3
#
#
#
# Elastic Constant Matrix: (Units=GPa)
#
#
# Indices 1 2 3 4 5 6 
#
# 1 67.7613 59.1956 19.9984 0.0000 16.5149 0.0000
# 2 59.1956 168.7764 59.1836 0.0000 14.6619 0.0000
# 3 19.9984 59.1836 102.2065 0.0000 29.2506 0.0000
# 4 0.0000 0.0000 0.0000 43.1210 0.0000 8.1860
# 5 16.5149 14.6619 29.2506 0.0000 32.4635 0.0000
# 6 0.0000 0.0000 0.0000 8.1860 0.0000 -26.6995
#
#
#
# Elastic Compliance Matrix: (Units=1/GPa)
#
#
# Indices 1 2 3 4 5 6 
#
# 1 0.024154 -0.008748 0.003672 0.000000 -0.011646 0.000000
# 2 -0.008748 0.010615 -0.005843 0.000000 0.004921 0.000000
# 3 0.003672 -0.005843 0.016478 0.000000 -0.014076 0.000000
# 4 0.000000 0.000000 0.000000 0.021915 0.000000 0.006719
# 5 -0.011646 0.004921 -0.014076 0.000000 0.047188 0.000000
# 6 0.000000 0.000000 0.000000 0.006719 0.000000 -0.035394
#
#
# Mechanical properties :
#
#
# Convention : Reuss Voigt Hill
#
# Bulk Modulus (GPa) = 34.00351 68.38883 51.19617
# Shear Modulus (GPa) = 42.88305 23.13478 33.00892
#
# Velocity S-wave (km/s) = 4.42628 3.25108 3.88339
# Velocity P-wave (km/s) = 6.45428 6.73331 6.59527
#
# Compressibility (1/GPa) = 0.02940873
#
# Stress axis : x y z
#
# Youngs Moduli (GPa) = 41.40089 94.20990 60.68871
#
# Poissons Ratio (x) = 0.82412 -0.22286
# Poissons Ratio (y) = 0.36216 0.35462
# Poissons Ratio (z) = -0.15203 0.55049
#
# Static dielectric constant tensor:
#      x y z
#    x 3.753960 0.000000 0.474010 
#    y 0.000000 3.981250 0.000000 
#    z 0.474010 0.000000 4.464470 
# 
# 
# High freq. dielectric constant tensor:
#      x y z
#    x 1.840010 0.000000 0.033170 
#    y 0.000000 1.873930 0.000000 
#    z 0.033170 0.000000 1.874400 
# 
# From -- ./inp_files/17263.got.cif
#   From: 2010.03.12/outbox.cif.g09.slc.cpg/sg5_9_cif.got.tgz:17263.got - 2010.03.31 09:47:26.
