data_PCOD8048464
_publ_section_title
;
Structure prediction by ZEFSAII (Michael W. Deem and Ramdas Pophale) SiO2 
 PCOD8048464
Probable space group: C 2
;
_chemical_formula_sum "Si O2"
_cell_formula_units_Z 28
_cell_length_a 20.195384
_cell_length_b 10.314273
_cell_length_c 14.899313
_cell_angle_alpha 90.000000
_cell_angle_beta 150.735595
_cell_angle_gamma 90.000000
_cell_volume 1517.135029
_symmetry_space_group_name_H-M "C 2"
_symmetry_group_IT_number 5
_symmetry_cell_setting 'monoclinic'
loop_
_space_group_symop_operation_xyz
x,y,z
-x,y,-z
1/2+x,1/2+y,z
1/2-x,1/2+y,-z
loop_
_atom_site_type_symbol
_atom_site_label
_atom_site_fract_x
_atom_site_fract_y
_atom_site_fract_z
Si Si1 0.231217 0.174780 0.639106
Si Si2 0.554256 0.809424 0.900089
Si Si3 0.069834 0.199962 0.724404
Si Si4 0.686074 0.065024 0.076494
Si Si5 0.500000 0.622767 0.000000
Si Si6 0.725030 0.979992 0.643431
Si Si7 0.500000 0.910652 0.500000
Si Si8 0.101385 0.548162 0.318040
O O1 0.074810 0.129121 0.458250
O O2 0.307633 0.129669 0.818596
O O3 0.237869 0.328801 0.635347
O O4 0.296070 0.108164 0.630681
O O5 0.597004 0.738845 0.859069
O O6 0.520283 0.707908 0.936219
O O7 0.417800 0.894034 0.723216
O O8 0.675846 0.907837 0.073480
O O9 0.071906 0.325043 0.662207
O O10 0.186184 0.100201 0.833532
O O11 0.546971 0.116824 0.864767
O O12 0.371199 0.530898 0.841583
O O13 0.666199 0.064844 0.492267
O O14 0.618930 0.999301 0.599671
#
# Coordination Sequence:
#
# PCOD8048464 Si02
#       8
#     4   4   4   4   2   4   2   4
#     4  11  19  37  63  94 122 156 215 251 297 371
#     4  10  23  41  60  89 125 166 198 254 316 357
#     4  11  19  38  65  88 123 157 205 255 302 362
#     4  10  20  37  67  85 117 169 205 245 307 363
#     4  12  26  40  62  90 132 162 206 258 310 366
#     4  11  24  38  65  91 124 168 200 258 313 361
#     4  10  18  40  62  88 130 152 200 258 304 360
#     4  10  22  39  61  85 124 162 203 253 305 360
#
# _framework density 18.455839000000001
#
# number of rings (size 3 to 8) (size 9 to 14) (size 15 to 20)
#    0.857    0.571    5.714    2.143    2.000    2.286 
#    0.000    1.429    9.429    0.000    0.000    0.000 
#    0.000    0.000    0.000    0.000    0.000    0.000 
#
# Total GULP energy -173538.991119 kJ/mol
# GULP energy per Si atom -12395.642223 kJ/mol
# Density = 1.841383 g / cm^3
# Si number density = 18.455839 Si / 1000 Ang^3
#
#
#
# Elastic Constant Matrix: (Units=GPa)
#
#
# Indices 1 2 3 4 5 6 
#
# 1 161.3344 51.4803 62.1170 0.0000 8.0557 0.0000
# 2 51.4803 53.7612 28.9714 0.0000 9.1745 0.0000
# 3 62.1170 28.9714 119.2775 0.0000 14.3990 0.0000
# 4 0.0000 0.0000 0.0000 -2.1819 0.0000 5.6138
# 5 8.0557 9.1745 14.3990 0.0000 40.2626 0.0000
# 6 0.0000 0.0000 0.0000 5.6138 0.0000 41.3600
#
#
#
# Elastic Compliance Matrix: (Units=1/GPa)
#
#
# Indices 1 2 3 4 5 6 
#
# 1 0.009976 -0.007894 -0.003401 0.000000 0.001019 0.000000
# 2 -0.007894 0.028038 -0.002214 0.000000 -0.004018 0.000000
# 3 -0.003401 -0.002214 0.011026 0.000000 -0.002758 0.000000
# 4 0.000000 0.000000 0.000000 -0.339690 0.000000 0.046106
# 5 0.001019 -0.004018 -0.002758 0.000000 0.026535 0.000000
# 6 0.000000 0.000000 0.000000 0.046106 0.000000 0.017920
#
#
# Mechanical properties :
#
#
# Convention : Reuss Voigt Hill
#
# Bulk Modulus (GPa) = 45.40911 68.83451 57.12181
# Shear Modulus (GPa) = -23.60302 28.67511 2.53604
#
# Velocity S-wave (km/s) = -3.58004 3.94600 1.17350
# Velocity P-wave (km/s) = 2.75113 7.62489 5.73183
#
# Compressibility (1/GPa) = 0.02202201
#
# Stress axis : x y z
#
# Youngs Moduli (GPa) = 100.24503 35.66535 90.69732
#
# Poissons Ratio (x) = 0.28153 0.30844
# Poissons Ratio (y) = 0.79129 0.20085
# Poissons Ratio (z) = 0.34091 0.07898
#
# Static dielectric constant tensor:
#      x y z
#    x 3.777850 0.000000 0.313430 
#    y 0.000000 3.170190 0.000000 
#    z 0.313430 0.000000 3.899740 
# 
# 
# High freq. dielectric constant tensor:
#      x y z
#    x 1.730460 0.000000 -0.002800 
#    y 0.000000 1.689290 0.000000 
#    z -0.002800 0.000000 1.721000 
# 
# From -- ./inp_files/56956.got.cif
#   From: 2010.03.12/outbox.cif.g09.slc.cpg/sg5_29_cif.got.tgz:56956.got - 2010.03.31 09:47:26.
