data_PCOD8048538
_publ_section_title
;
Structure prediction by ZEFSAII (Michael W. Deem and Ramdas Pophale) SiO2 
 PCOD8048538
Probable space group: C 2
;
_chemical_formula_sum "Si O2"
_cell_formula_units_Z 24
_cell_length_a 31.640237
_cell_length_b 7.979137
_cell_length_c 4.888291
_cell_angle_alpha 90.000000
_cell_angle_beta 107.796441
_cell_angle_gamma 90.000000
_cell_volume 1175.052671
_symmetry_space_group_name_H-M "C 2"
_symmetry_group_IT_number 5
_symmetry_cell_setting 'monoclinic'
loop_
_space_group_symop_operation_xyz
x,y,z
-x,y,-z
1/2+x,1/2+y,z
1/2-x,1/2+y,-z
loop_
_atom_site_type_symbol
_atom_site_label
_atom_site_fract_x
_atom_site_fract_y
_atom_site_fract_z
Si Si1 0.858062 0.088820 0.257338
Si Si2 0.274907 0.162303 0.412753
Si Si3 0.954689 0.084368 0.486343
Si Si4 0.641535 0.354130 0.243165
Si Si5 0.045137 0.859734 0.010949
Si Si6 0.726086 0.790360 0.817813
O O1 0.907466 0.172443 0.318140
O O2 0.821749 0.234744 0.160471
O O3 0.855424 0.010601 0.550473
O O4 0.848415 0.936371 0.030591
O O5 0.323442 0.210284 0.618681
O O6 0.241229 0.168405 0.601886
O O7 0.275695 0.976657 0.298166
O O8 0.260130 0.286564 0.139762
O O9 0.000000 0.190356 0.500000
O O10 0.955740 0.028949 0.804014
O O11 0.956916 0.914327 0.308202
O O12 0.592338 0.267009 0.156351
O O13 0.000000 0.754122 0.000000
#
# Coordination Sequence:
#
# PCOD8048538 Si02
#       6
#     4   4   4   4   4   4
#     4  10  19  33  53  77 105 135 171 213 257 304
#     4  12  24  38  55  77 106 139 177 218 263 312
#     4   8  14  25  44  72 101 128 162 205 248 294
#     4  10  19  33  53  77 105 135 171 213 257 304
#     4   8  14  25  44  72 101 128 162 205 248 294
#     4  12  24  38  55  77 106 139 177 218 263 312
#
# _framework density 20.424616
#
# number of rings (size 3 to 8) (size 9 to 14) (size 15 to 20)
#    0.000    2.000    0.000    6.000    0.000    0.000 
#    0.000    0.000    0.000    0.000    0.000   28.000 
#    0.000    0.000    0.000    0.000    0.000    0.000 
#
# Total GULP energy -148660.596401 kJ/mol
# GULP energy per Si atom -12388.383033 kJ/mol
# Density = 2.037813 g / cm^3
# Si number density = 20.424616 Si / 1000 Ang^3
#
#
#
# Elastic Constant Matrix: (Units=GPa)
#
#
# Indices 1 2 3 4 5 6 
#
# 1 179.7045 46.8373 47.1120 0.0000 34.5690 0.0000
# 2 46.8373 49.2572 15.7483 0.0000 15.6096 0.0000
# 3 47.1120 15.7483 95.1171 0.0000 12.6605 0.0000
# 4 0.0000 0.0000 0.0000 21.7718 0.0000 -2.9101
# 5 34.5690 15.6096 12.6605 0.0000 41.0521 0.0000
# 6 0.0000 0.0000 0.0000 -2.9101 0.0000 16.0339
#
#
#
# Elastic Compliance Matrix: (Units=1/GPa)
#
#
# Indices 1 2 3 4 5 6 
#
# 1 0.008653 -0.006040 -0.002734 0.000000 -0.004147 0.000000
# 2 -0.006040 0.028019 -0.000945 0.000000 -0.005276 0.000000
# 3 -0.002734 -0.000945 0.012169 0.000000 -0.001091 0.000000
# 4 0.000000 0.000000 0.000000 0.047073 0.000000 0.008544
# 5 -0.004147 -0.005276 -0.001091 0.000000 0.030194 0.000000
# 6 0.000000 0.000000 0.000000 0.008544 0.000000 0.063918
#
#
# Mechanical properties :
#
#
# Convention : Reuss Voigt Hill
#
# Bulk Modulus (GPa) = 34.00955 60.38598 47.19777
# Shear Modulus (GPa) = 22.80324 30.06365 26.43344
#
# Velocity S-wave (km/s) = 3.34497 3.84074 3.60140
# Velocity P-wave (km/s) = 5.62191 7.02124 6.36018
#
# Compressibility (1/GPa) = 0.02940350
#
# Stress axis : x y z
#
# Youngs Moduli (GPa) = 115.56080 35.68992 82.17395
#
# Poissons Ratio (x) = 0.21557 0.22467
# Poissons Ratio (y) = 0.69799 0.07766
# Poissons Ratio (z) = 0.31595 0.03373
#
# Static dielectric constant tensor:
#      x y z
#    x 4.524350 0.000000 0.205180 
#    y 0.000000 2.808260 0.000000 
#    z 0.205180 0.000000 4.100880 
# 
# 
# High freq. dielectric constant tensor:
#      x y z
#    x 1.835100 0.000000 0.005600 
#    y 0.000000 1.697130 0.000000 
#    z 0.005600 0.000000 1.831790 
# 
# From -- ./inp_files/11112.got.cif
#   From: 2010.03.12/outbox.cif.g09.slc.cpg/sg5_6_cif.got.tgz:11112.got - 2010.03.31 09:47:26.
