data_PCOD8048149
_publ_section_title
;
Structure prediction by ZEFSAII (Michael W. Deem and Ramdas Pophale) SiO2 
 PCOD8048149
Probable space group: C 2
;
_chemical_formula_sum "Si O2"
_cell_formula_units_Z 24
_cell_length_a 15.839658
_cell_length_b 8.443785
_cell_length_c 9.629338
_cell_angle_alpha 90.000000
_cell_angle_beta 108.099642
_cell_angle_gamma 90.000000
_cell_volume 1224.163973
_symmetry_space_group_name_H-M "C 2"
_symmetry_group_IT_number 5
_symmetry_cell_setting 'monoclinic'
loop_
_space_group_symop_operation_xyz
x,y,z
-x,y,-z
1/2+x,1/2+y,z
1/2-x,1/2+y,-z
loop_
_atom_site_type_symbol
_atom_site_label
_atom_site_fract_x
_atom_site_fract_y
_atom_site_fract_z
Si Si1 0.772978 0.143670 0.079314
Si Si2 0.777900 0.814383 0.673951
Si Si3 0.589928 0.697658 0.085600
Si Si4 0.738196 0.688017 0.360021
Si Si5 0.969356 0.853808 0.842518
Si Si6 0.344929 0.311569 0.182636
O O1 0.773383 0.249066 0.218328
O O2 0.779570 0.959439 0.120110
O O3 0.858674 0.183526 0.032212
O O4 0.683947 0.176679 0.943548
O O5 0.734781 0.732075 0.518530
O O6 0.882679 0.769012 0.733623
O O7 0.763897 0.000725 0.659617
O O8 0.653564 0.769982 0.237724
O O9 0.558154 0.530147 0.130292
O O10 0.500000 0.796447 0.000000
O O11 0.827327 0.752973 0.331001
O O12 0.050797 0.851734 0.775049
O O13 0.000000 0.765216 0.000000
#
# Coordination Sequence:
#
# PCOD8048149 Si02
#       6
#     4   4   4   4   4   4
#     4  11  19  33  63  89 116 153 194 245 289 347
#     4  11  22  40  62  82 124 155 199 243 296 348
#     4   9  17  35  61  87 109 145 206 237 270 352
#     4  10  23  38  61  87 117 157 199 243 297 350
#     4  10  17  36  62  88 112 153 202 236 273 369
#     4  11  20  35  63  88 117 152 203 238 295 344
#
# _framework density 19.605218000000001
#
# number of rings (size 3 to 8) (size 9 to 14) (size 15 to 20)
#    0.000    1.667    5.000    3.000    0.000    0.667 
#    0.000    0.833   36.667    0.000    0.000    0.000 
#    0.000    0.000    0.000    0.000    0.000    0.000 
#
# Total GULP energy -148700.538073 kJ/mol
# GULP energy per Si atom -12391.711506 kJ/mol
# Density = 1.956060 g / cm^3
# Si number density = 19.605218 Si / 1000 Ang^3
#
#
#
# Elastic Constant Matrix: (Units=GPa)
#
#
# Indices 1 2 3 4 5 6 
#
# 1 142.5939 27.5476 49.6399 0.0000 -5.0450 0.0000
# 2 27.5476 48.4179 5.3021 0.0000 1.9383 0.0000
# 3 49.6399 5.3021 102.3580 0.0000 -4.7896 0.0000
# 4 0.0000 0.0000 0.0000 30.6645 0.0000 -4.8464
# 5 -5.0450 1.9383 -4.7896 0.0000 31.3322 0.0000
# 6 0.0000 0.0000 0.0000 -4.8464 0.0000 25.2266
#
#
#
# Elastic Compliance Matrix: (Units=1/GPa)
#
#
# Indices 1 2 3 4 5 6 
#
# 1 0.009516 -0.004991 -0.004301 0.000000 0.001184 0.000000
# 2 -0.004991 0.023455 0.001108 0.000000 -0.002085 0.000000
# 3 -0.004301 0.001108 0.011847 0.000000 0.001050 0.000000
# 4 0.000000 0.000000 0.000000 0.033632 0.000000 0.006461
# 5 0.001184 -0.002085 0.001050 0.000000 0.032396 0.000000
# 6 0.000000 0.000000 0.000000 0.006461 0.000000 0.040882
#
#
# Mechanical properties :
#
#
# Convention : Reuss Voigt Hill
#
# Bulk Modulus (GPa) = 35.14872 50.92767 43.03819
# Shear Modulus (GPa) = 28.15622 31.50334 29.82978
#
# Velocity S-wave (km/s) = 3.79378 4.01295 3.90490
# Velocity P-wave (km/s) = 6.09570 6.89236 6.50623
#
# Compressibility (1/GPa) = 0.02845053
#
# Stress axis : x y z
#
# Youngs Moduli (GPa) = 105.08330 42.63457 84.40760
#
# Poissons Ratio (x) = 0.21278 0.36305
# Poissons Ratio (y) = 0.52444 -0.09350
# Poissons Ratio (z) = 0.45198 -0.04723
#
# Static dielectric constant tensor:
#      x y z
#    x 4.087130 0.000000 0.380360 
#    y 0.000000 3.388900 0.000000 
#    z 0.380360 0.000000 3.963950 
# 
# 
# High freq. dielectric constant tensor:
#      x y z
#    x 1.768470 0.000000 -0.004360 
#    y 0.000000 1.737060 0.000000 
#    z -0.004360 0.000000 1.762210 
# 
# From -- ./inp_files/22849.got.cif
#   From: 2010.03.12/outbox.cif.g09.slc.cpg/sg5_12_cif.got.tgz:22849.got - 2010.03.31 09:47:26.
