data_PCOD8048803
_publ_section_title
;
Structure prediction by ZEFSAII (Michael W. Deem and Ramdas Pophale) SiO2 
 PCOD8048803
Probable space group: C 2
;
_chemical_formula_sum "Si O2"
_cell_formula_units_Z 32
_cell_length_a 19.596615
_cell_length_b 9.135964
_cell_length_c 25.926693
_cell_angle_alpha 90.000000
_cell_angle_beta 19.617180
_cell_angle_gamma 90.000000
_cell_volume 1558.396365
_symmetry_space_group_name_H-M "C 2"
_symmetry_group_IT_number 5
_symmetry_cell_setting 'monoclinic'
loop_
_space_group_symop_operation_xyz
x,y,z
-x,y,-z
1/2+x,1/2+y,z
1/2-x,1/2+y,-z
loop_
_atom_site_type_symbol
_atom_site_label
_atom_site_fract_x
_atom_site_fract_y
_atom_site_fract_z
Si Si1 0.214796 0.714630 0.874913
Si Si2 0.116224 0.411206 0.330292
Si Si3 0.822213 0.813747 0.350134
Si Si4 0.310020 0.708351 0.166095
Si Si5 0.037422 0.916317 0.299309
Si Si6 0.460688 0.257541 0.145763
Si Si7 0.790108 0.450562 0.261815
Si Si8 0.642012 0.495905 0.473725
O O1 0.348955 0.833630 0.749574
O O2 0.352278 0.572214 0.784499
O O3 0.000000 0.674172 0.000000
O O4 0.156315 0.794138 0.971066
O O5 0.174770 0.580831 0.286018
O O6 0.250852 0.328477 0.276286
O O7 0.880521 0.409209 0.514520
O O8 0.939131 0.873252 0.315774
O O9 0.981334 0.820513 0.188952
O O10 0.755107 0.646711 0.402899
O O11 0.197767 0.794719 0.200892
O O12 0.371521 0.814142 0.170372
O O13 0.500000 0.640020 0.000000
O O14 0.860012 0.914484 0.469653
O O15 0.453212 0.080456 0.147843
O O16 0.743803 0.402961 0.354427
O O17 0.593171 0.521778 0.374377
#
# Coordination Sequence:
#
# PCOD8048803 Si02
#       8
#     4   4   4   4   4   4   4   4
#     4  10  19  38  67  86 107 158 210 243 289 362
#     4  11  21  37  62  87 122 156 195 250 301 355
#     4  11  22  37  60  88 120 156 197 246 298 356
#     4  11  22  37  58  91 124 153 197 255 309 350
#     4  11  22  37  62  85 121 157 203 245 297 368
#     4  10  19  38  63  86 110 155 206 248 287 357
#     4   9  17  34  62  83 108 147 205 255 287 343
#     4   9  17  36  58  84 111 153 201 240 295 351
#
# _framework density 20.533929000000001
#
# number of rings (size 3 to 8) (size 9 to 14) (size 15 to 20)
#    0.000    1.750    2.500    4.875    1.750    0.000 
#    9.000    2.500    2.750    0.000    0.000    0.000 
#    0.000    0.000    0.000    0.000    0.000    0.000 
#
# Total GULP energy -198297.532610 kJ/mol
# GULP energy per Si atom -12393.595788 kJ/mol
# Density = 2.048719 g / cm^3
# Si number density = 20.533929 Si / 1000 Ang^3
#
#
#
# Elastic Constant Matrix: (Units=GPa)
#
#
# Indices 1 2 3 4 5 6 
#
# 1 120.2338 36.1794 34.7509 0.0197 33.9716 -0.0174
# 2 36.1794 85.1257 18.5644 0.1846 9.4579 0.0022
# 3 34.7509 18.5644 62.0860 0.1605 25.1451 -0.0310
# 4 0.0197 0.1846 0.1605 20.6063 -0.0105 4.9827
# 5 33.9716 9.4579 25.1451 -0.0105 29.4659 -0.0038
# 6 -0.0174 0.0022 -0.0310 4.9827 -0.0038 26.6310
#
#
#
# Elastic Compliance Matrix: (Units=1/GPa)
#
#
# Indices 1 2 3 4 5 6 
#
# 1 0.013676 -0.004098 -0.000881 0.000023 -0.013700 0.000002
# 2 -0.004098 0.013826 -0.002989 -0.000098 0.002838 0.000011
# 3 -0.000881 -0.002989 0.025511 -0.000196 -0.019796 0.000063
# 4 0.000023 -0.000098 -0.000196 0.050831 0.000189 -0.009511
# 5 -0.013700 0.002838 -0.019796 0.000189 0.065714 -0.000058
# 6 0.000002 0.000011 0.000063 -0.009511 -0.000058 0.039330
#
#
# Mechanical properties :
#
#
# Convention : Reuss Voigt Hill
#
# Bulk Modulus (GPa) = 26.97143 49.60387 38.28765
# Shear Modulus (GPa) = 21.08072 27.20402 24.14237
#
# Velocity S-wave (km/s) = 3.20758 3.64377 3.43261
# Velocity P-wave (km/s) = 5.18475 6.47397 5.86489
#
# Compressibility (1/GPa) = 0.03707627
#
# Stress axis : x y z
#
# Youngs Moduli (GPa) = 73.12236 72.32780 39.19822
#
# Poissons Ratio (x) = 0.29641 0.03452
# Poissons Ratio (y) = 0.29967 0.11718
# Poissons Ratio (z) = 0.06440 0.21622
#
# Static dielectric constant tensor:
#      x y z
#    x 3.753130 0.000060 0.535070 
#    y 0.000060 3.540200 0.000230 
#    z 0.535070 0.000230 3.862710 
# 
# 
# High freq. dielectric constant tensor:
#      x y z
#    x 1.787510 0.000000 0.037610 
#    y 0.000000 1.786610 0.000010 
#    z 0.037610 0.000010 1.800670 
# 
# From -- ./inp_files/71070.got.cif
#   From: 2010.03.12/outbox.cif.g09.slc.cpg/sg5_36_cif.got.tgz:71070.got - 2010.03.31 09:47:26.
