data_PCOD8048982
_publ_section_title
;
Structure prediction by ZEFSAII (Michael W. Deem and Ramdas Pophale) SiO2 
 PCOD8048982
Probable space group: C 2
;
_chemical_formula_sum "Si O2"
_cell_formula_units_Z 30
_cell_length_a 13.651908
_cell_length_b 23.607202
_cell_length_c 13.397405
_cell_angle_alpha 90.000000
_cell_angle_beta 158.367201
_cell_angle_gamma 90.000000
_cell_volume 1591.771548
_symmetry_space_group_name_H-M "C 2"
_symmetry_group_IT_number 5
_symmetry_cell_setting 'monoclinic'
loop_
_space_group_symop_operation_xyz
x,y,z
-x,y,-z
1/2+x,1/2+y,z
1/2-x,1/2+y,-z
loop_
_atom_site_type_symbol
_atom_site_label
_atom_site_fract_x
_atom_site_fract_y
_atom_site_fract_z
Si Si1 0.223142 0.771970 0.786765
Si Si2 0.000000 0.256736 0.500000
Si Si3 0.344572 0.315479 0.680562
Si Si4 0.958041 0.039349 0.572300
Si Si5 0.851445 0.357738 0.083540
Si Si6 0.546746 0.974389 0.925373
Si Si7 0.986457 0.701162 0.718242
Si Si8 0.051939 0.165144 0.719872
O O1 0.101959 0.713736 0.717943
O O2 0.000000 0.796571 0.500000
O O3 0.500000 0.754659 0.000000
O O4 0.280401 0.820211 0.920954
O O5 0.761355 0.298959 0.308782
O O6 0.086076 0.216132 0.672786
O O7 0.491681 0.260389 0.779738
O O8 0.092970 0.331767 0.374736
O O9 0.583923 0.362217 0.900818
O O10 0.985609 0.106752 0.603491
O O11 0.000000 0.020367 0.500000
O O12 0.671716 0.015611 0.331805
O O13 0.182899 0.006762 0.846669
O O14 0.950236 0.417001 0.134093
O O15 0.500000 0.963739 0.000000
O O16 0.688873 0.677137 0.431443
O O17 0.178605 0.658884 0.961662
#
# Coordination Sequence:
#
# PCOD8048982 Si02
#       8
#     4   2   4   4   4   4   4   4
#     4  11  20  32  51  73 105 139 178 211 256 315
#     4  10  20  34  54  80 108 154 166 220 268 326
#     4  10  21  34  51  76 111 138 189 209 257 330
#     4  10  20  35  50  80 104 140 181 217 251 333
#     4  11  21  36  51  76 108 148 177 223 258 307
#     4  10  21  34  53  74 109 138 183 223 261 303
#     4  10  21  33  48  76 106 141 169 217 250 326
#     4  11  20  34  53  74 113 143 172 204 279 317
#
# _framework density 18.846926
#
# number of rings (size 3 to 8) (size 9 to 14) (size 15 to 20)
#    0.000    1.600    0.667    7.600    0.000    6.400 
#    0.000    0.000    0.000    0.000    0.000    0.000 
#   70.000    0.000    0.000    0.000    0.000    0.000 
#
# Total GULP energy -185865.085715 kJ/mol
# GULP energy per Si atom -12391.005714 kJ/mol
# Density = 1.880403 g / cm^3
# Si number density = 18.846926 Si / 1000 Ang^3
#
#
#
# Elastic Constant Matrix: (Units=GPa)
#
#
# Indices 1 2 3 4 5 6 
#
# 1 79.4590 33.0104 33.8588 0.0001 22.6819 0.0020
# 2 33.0104 75.5315 38.5545 0.0007 0.9589 0.0010
# 3 33.8588 38.5545 135.5544 -0.0050 13.3551 0.0059
# 4 0.0001 0.0007 -0.0050 28.9443 0.0001 6.7221
# 5 22.6819 0.9589 13.3551 0.0001 23.0982 0.0014
# 6 0.0020 0.0010 0.0059 6.7221 0.0014 17.6820
#
#
#
# Elastic Compliance Matrix: (Units=1/GPa)
#
#
# Indices 1 2 3 4 5 6 
#
# 1 0.023058 -0.009304 -0.000976 0.000000 -0.021692 0.000000
# 2 -0.009304 0.019331 -0.004237 -0.000001 0.010783 0.000001
# 3 -0.000976 -0.004237 0.009241 0.000003 -0.004208 -0.000003
# 4 0.000000 -0.000001 0.000003 0.037895 -0.000001 -0.014406
# 5 -0.021692 0.010783 -0.004208 -0.000001 0.066580 -0.000002
# 6 0.000000 0.000001 -0.000003 -0.014406 -0.000002 0.062031
#
#
# Mechanical properties :
#
#
# Convention : Reuss Voigt Hill
#
# Bulk Modulus (GPa) = 44.25383 55.71026 49.98205
# Shear Modulus (GPa) = 19.63073 26.28632 22.95853
#
# Velocity S-wave (km/s) = 3.23087 3.73866 3.49400
# Velocity P-wave (km/s) = 6.11961 6.94696 6.54637
#
# Compressibility (1/GPa) = 0.02259691
#
# Stress axis : x y z
#
# Youngs Moduli (GPa) = 43.36822 51.72939 108.21845
#
# Poissons Ratio (x) = 0.48128 0.10564
# Poissons Ratio (y) = 0.40349 0.45849
# Poissons Ratio (z) = 0.04233 0.21916
#
# Static dielectric constant tensor:
#      x y z
#    x 4.075180 -0.000040 0.476790 
#    y -0.000040 3.288910 -0.000020 
#    z 0.476790 -0.000020 3.769660 
# 
# 
# High freq. dielectric constant tensor:
#      x y z
#    x 1.710670 0.000000 0.021420 
#    y 0.000000 1.702970 0.000000 
#    z 0.021420 0.000000 1.754280 
# 
# From -- ./inp_files/54994.got.cif
#   From: 2010.03.12/outbox.cif.g09.slc.cpg/sg5_28_cif.got.tgz:54994.got - 2010.03.31 09:47:26.
