data_PCOD8048468
_publ_section_title
;
Structure prediction by ZEFSAII (Michael W. Deem and Ramdas Pophale) SiO2 
 PCOD8048468
Probable space group: C 2
;
_chemical_formula_sum "Si O2"
_cell_formula_units_Z 24
_cell_length_a 9.922934
_cell_length_b 14.993010
_cell_length_c 9.402544
_cell_angle_alpha 90.000000
_cell_angle_beta 119.601514
_cell_angle_gamma 90.000000
_cell_volume 1216.283576
_symmetry_space_group_name_H-M "C 2"
_symmetry_group_IT_number 5
_symmetry_cell_setting 'monoclinic'
loop_
_space_group_symop_operation_xyz
x,y,z
-x,y,-z
1/2+x,1/2+y,z
1/2-x,1/2+y,-z
loop_
_atom_site_type_symbol
_atom_site_label
_atom_site_fract_x
_atom_site_fract_y
_atom_site_fract_z
Si Si1 0.830079 0.087370 0.970918
Si Si2 0.673798 0.057689 0.604576
Si Si3 0.378402 0.431032 0.219499
Si Si4 0.210991 0.913289 0.519308
Si Si5 0.588105 0.239655 0.898359
Si Si6 0.868132 0.725766 0.539856
O O1 0.736679 0.039178 0.793991
O O2 0.739817 0.175535 0.978855
O O3 0.000000 0.113534 0.000000
O O4 0.836197 0.014855 0.098987
O O5 0.500000 0.096539 0.500000
O O6 0.750408 0.147688 0.576554
O O7 0.664850 0.971635 0.500475
O O8 0.550032 0.446947 0.367657
O O9 0.268140 0.429869 0.301067
O O10 0.360400 0.338659 0.123806
O O11 0.242912 0.810858 0.494368
O O12 0.459577 0.196310 0.728713
O O13 0.500000 0.247122 0.000000
O O14 0.000000 0.764482 0.500000
#
# Coordination Sequence:
#
# PCOD8048468 Si02
#       6
#     4   4   4   4   4   4
#     4  12  23  39  62  97 129 155 204 267 312 355
#     4  11  22  39  63  89 126 165 206 252 310 372
#     4  10  21  39  64  88 120 166 207 247 310 373
#     4  10  19  38  65  88 117 164 213 246 295 377
#     4  11  23  40  65  90 123 169 212 248 305 381
#     4  10  18  40  65  81 114 174 210 238 306 381
#
# _framework density 19.732240000000001
#
# number of rings (size 3 to 8) (size 9 to 14) (size 15 to 20)
#    0.000    1.333    8.333    0.500    4.667    0.000 
#    0.000    4.167    3.667    0.000    0.000    0.000 
#    0.000    0.000    0.000    0.000    0.000    0.000 
#
# Total GULP energy -148681.326722 kJ/mol
# GULP energy per Si atom -12390.110560 kJ/mol
# Density = 1.968733 g / cm^3
# Si number density = 19.732240 Si / 1000 Ang^3
#
#
#
# Elastic Constant Matrix: (Units=GPa)
#
#
# Indices 1 2 3 4 5 6 
#
# 1 54.2759 35.1870 37.1233 0.0000 -11.0979 0.0000
# 2 35.1870 150.9779 55.6864 0.0000 -7.2402 0.0000
# 3 37.1233 55.6864 139.9423 0.0000 -13.1449 0.0000
# 4 0.0000 0.0000 0.0000 40.4380 0.0000 -1.8863
# 5 -11.0979 -7.2402 -13.1449 0.0000 23.0399 0.0000
# 6 0.0000 0.0000 0.0000 -1.8863 0.0000 19.4201
#
#
#
# Elastic Compliance Matrix: (Units=1/GPa)
#
#
# Indices 1 2 3 4 5 6 
#
# 1 0.025806 -0.003955 -0.004460 0.000000 0.008643 0.000000
# 2 -0.003955 0.008380 -0.002343 0.000000 -0.000608 0.000000
# 3 -0.004460 -0.002343 0.009499 0.000000 0.002535 0.000000
# 4 0.000000 0.000000 0.000000 0.024842 0.000000 0.002413
# 5 0.008643 -0.000608 0.002535 0.000000 0.048821 0.000000
# 6 0.000000 0.000000 0.000000 0.002413 0.000000 0.051727
#
#
# Mechanical properties :
#
#
# Convention : Reuss Voigt Hill
#
# Bulk Modulus (GPa) = 45.10555 66.79884 55.95220
# Shear Modulus (GPa) = 25.25489 31.05956 28.15723
#
# Velocity S-wave (km/s) = 3.58142 3.97174 3.78162
# Velocity P-wave (km/s) = 6.32539 7.41344 6.89092
#
# Compressibility (1/GPa) = 0.02217022
#
# Stress axis : x y z
#
# Youngs Moduli (GPa) = 38.75043 119.33030 105.27097
#
# Poissons Ratio (x) = 0.47193 0.46953
# Poissons Ratio (y) = 0.15325 0.24661
# Poissons Ratio (z) = 0.17283 0.27955
#
# Static dielectric constant tensor:
#      x y z
#    x 3.531040 0.000000 -0.383020 
#    y 0.000000 3.629900 0.000000 
#    z -0.383020 0.000000 4.012330 
# 
# 
# High freq. dielectric constant tensor:
#      x y z
#    x 1.725150 0.000000 -0.013960 
#    y 0.000000 1.786920 0.000000 
#    z -0.013960 0.000000 1.781050 
# 
# From -- ./inp_files/20163.got.cif
#   From: 2010.03.12/outbox.cif.g09.slc.cpg/sg5_11_cif.got.tgz:20163.got - 2010.03.31 09:47:26.
