data_PCOD8048434
_publ_section_title
;
Structure prediction by ZEFSAII (Michael W. Deem and Ramdas Pophale) SiO2 
 PCOD8048434
Probable space group: C 2
;
_chemical_formula_sum "Si O2"
_cell_formula_units_Z 20
_cell_length_a 9.854962
_cell_length_b 10.041809
_cell_length_c 11.956715
_cell_angle_alpha 90.000000
_cell_angle_beta 55.566535
_cell_angle_gamma 90.000000
_cell_volume 975.930041
_symmetry_space_group_name_H-M "C 2"
_symmetry_group_IT_number 5
_symmetry_cell_setting 'monoclinic'
loop_
_space_group_symop_operation_xyz
x,y,z
-x,y,-z
1/2+x,1/2+y,z
1/2-x,1/2+y,-z
loop_
_atom_site_type_symbol
_atom_site_label
_atom_site_fract_x
_atom_site_fract_y
_atom_site_fract_z
Si Si1 0.023338 0.015750 0.162534
Si Si2 0.244202 0.029524 0.262301
Si Si3 0.000000 0.840500 0.500000
Si Si4 0.287441 0.634393 0.109889
Si Si5 0.000000 0.376765 0.000000
Si Si6 0.939074 0.733144 0.296893
O O1 0.868448 0.106524 0.195008
O O2 0.116547 0.076976 0.226320
O O3 0.960896 0.868338 0.217815
O O4 0.157447 0.015450 0.999066
O O5 0.281444 0.157440 0.321438
O O6 0.153412 0.922172 0.381009
O O7 0.415458 0.969884 0.133495
O O8 0.081004 0.754023 0.561208
O O9 0.352678 0.776684 0.029269
O O10 0.093738 0.635988 0.208539
#
# Coordination Sequence:
#
# PCOD8048434 Si02
#       6
#     4   4   2   4   2   4
#     4   9  21  38  58  98 125 158 205 255 309 372
#     4  11  22  42  68  89 128 165 214 255 318 365
#     4  10  24  44  58  92 132 168 210 258 310 372
#     4  10  21  38  64  96 134 155 200 262 318 368
#     4  10  18  38  66  94 118 170 192 260 320 360
#     4  11  23  42  65  89 126 173 206 263 307 377
#
# _framework density 20.493272000000001
#
# number of rings (size 3 to 8) (size 9 to 14) (size 15 to 20)
#    0.000    2.000    4.000    1.200    0.000    8.000 
#    3.600    0.000    0.000    0.000    0.000    0.000 
#    0.000    0.000    0.000    0.000    0.000    0.000 
#
# Total GULP energy -123909.760924 kJ/mol
# GULP energy per Si atom -12390.976092 kJ/mol
# Density = 2.044663 g / cm^3
# Si number density = 20.493272 Si / 1000 Ang^3
#
#
#
# Elastic Constant Matrix: (Units=GPa)
#
#
# Indices 1 2 3 4 5 6 
#
# 1 118.7602 52.0652 21.9105 0.0000 25.4002 0.0000
# 2 52.0652 79.7016 30.7067 0.0000 25.5997 0.0000
# 3 21.9105 30.7067 93.1972 0.0000 12.1476 0.0000
# 4 0.0000 0.0000 0.0000 26.0823 0.0000 10.6237
# 5 25.4002 25.5997 12.1476 0.0000 36.6117 0.0000
# 6 0.0000 0.0000 0.0000 10.6237 0.0000 35.3255
#
#
#
# Elastic Compliance Matrix: (Units=1/GPa)
#
#
# Indices 1 2 3 4 5 6 
#
# 1 0.012183 -0.006700 -0.000173 0.000000 -0.003710 0.000000
# 2 -0.006700 0.021457 -0.004332 0.000000 -0.008917 0.000000
# 3 -0.000173 -0.004332 0.012320 0.000000 -0.000939 0.000000
# 4 0.000000 0.000000 0.000000 0.043692 0.000000 -0.013140
# 5 -0.003710 -0.008917 -0.000939 0.000000 0.036434 0.000000
# 6 0.000000 0.000000 0.000000 -0.013140 0.000000 0.032260
#
#
# Mechanical properties :
#
#
# Convention : Reuss Voigt Hill
#
# Bulk Modulus (GPa) = 42.46383 55.66930 49.06656
# Shear Modulus (GPa) = 26.51002 32.06900 29.28951
#
# Velocity S-wave (km/s) = 3.60056 3.96012 3.78461
# Velocity P-wave (km/s) = 6.16857 6.93784 6.56448
#
# Compressibility (1/GPa) = 0.02354945
#
# Stress axis : x y z
#
# Youngs Moduli (GPa) = 82.08000 46.60453 81.16673
#
# Poissons Ratio (x) = 0.31227 0.01404
# Poissons Ratio (y) = 0.54997 0.35163
# Poissons Ratio (z) = 0.01420 0.20190
#
# Static dielectric constant tensor:
#      x y z
#    x 3.787310 0.000000 0.181470 
#    y 0.000000 3.571360 0.000000 
#    z 0.181470 0.000000 3.809550 
# 
# 
# High freq. dielectric constant tensor:
#      x y z
#    x 1.804820 0.000000 0.002940 
#    y 0.000000 1.788590 0.000000 
#    z 0.002940 0.000000 1.790900 
# 
# From -- ./inp_files/38052.got.cif
#   From: 2010.03.12/outbox.cif.g09.slc.cpg/sg5_20_cif.got.tgz:38052.got - 2010.03.31 09:47:26.
