data_PCOD8048451
_publ_section_title
;
Structure prediction by ZEFSAII (Michael W. Deem and Ramdas Pophale) SiO2 
 PCOD8048451
Probable space group: C 2
;
_chemical_formula_sum "Si O2"
_cell_formula_units_Z 30
_cell_length_a 9.675411
_cell_length_b 15.552701
_cell_length_c 9.678588
_cell_angle_alpha 90.000000
_cell_angle_beta 67.387462
_cell_angle_gamma 90.000000
_cell_volume 1344.461216
_symmetry_space_group_name_H-M "C 2"
_symmetry_group_IT_number 5
_symmetry_cell_setting 'monoclinic'
loop_
_space_group_symop_operation_xyz
x,y,z
-x,y,-z
1/2+x,1/2+y,z
1/2-x,1/2+y,-z
loop_
_atom_site_type_symbol
_atom_site_label
_atom_site_fract_x
_atom_site_fract_y
_atom_site_fract_z
Si Si1 0.515013 0.824730 0.292204
Si Si2 0.361935 0.000439 0.751841
Si Si3 0.000000 0.768028 0.000000
Si Si4 0.138575 0.953831 0.618665
Si Si5 0.698664 0.478097 0.279921
Si Si6 0.736381 0.774867 0.435873
Si Si7 0.273723 0.875297 0.003117
Si Si8 0.600815 0.132322 0.742535
O O1 0.618969 0.769784 0.355195
O O2 0.346063 0.791030 0.383577
O O3 0.518343 0.925893 0.336661
O O4 0.581880 0.819325 0.108646
O O5 0.447792 0.089247 0.747749
O O6 0.755586 0.013199 0.327179
O O7 0.272540 0.966997 0.921841
O O8 0.075750 0.708111 0.858889
O O9 0.878731 0.826770 0.970744
O O10 0.149041 0.852106 0.649188
O O11 0.196527 0.959505 0.441373
O O12 0.970944 0.987640 0.709023
O O13 0.782377 0.400585 0.162748
O O14 0.791863 0.564847 0.221527
O O15 0.818937 0.682380 0.416044
#
# Coordination Sequence:
#
# PCOD8048451 Si02
#       8
#     4   4   2   4   4   4   4   4
#     4   8  18  35  64  95 126 182 229 263 330 433
#     4   9  20  41  67  96 132 180 239 269 350 410
#     4  12  22  42  70 102 138 182 244 280 372 400
#     4  10  22  44  65  98 130 189 232 283 338 442
#     4  11  24  39  66 103 143 171 238 286 356 402
#     4  10  18  39  66  94 131 171 235 279 340 404
#     4  10  20  41  66  97 128 185 225 278 328 439
#     4  12  23  37  67 109 137 175 228 311 344 405
#
# _framework density 22.313769000000001
#
# number of rings (size 3 to 8) (size 9 to 14) (size 15 to 20)
#    0.800    1.067    1.333    3.200    0.000    3.733 
#    0.000    5.333    0.000   11.200    0.000    0.000 
#    0.000    0.000    0.000    0.000    0.000    0.000 
#
# Total GULP energy -185838.665060 kJ/mol
# GULP energy per Si atom -12389.244337 kJ/mol
# Density = 2.226298 g / cm^3
# Si number density = 22.313769 Si / 1000 Ang^3
#
#
#
# Elastic Constant Matrix: (Units=GPa)
#
#
# Indices 1 2 3 4 5 6 
#
# 1 85.1244 45.1763 24.6539 0.0000 -12.0459 0.0000
# 2 45.1763 100.6116 25.7231 0.0000 -9.0500 0.0000
# 3 24.6539 25.7231 119.7362 0.0000 -9.4433 0.0000
# 4 0.0000 0.0000 0.0000 31.6272 0.0000 -12.9047
# 5 -12.0459 -9.0500 -9.4433 0.0000 31.2349 0.0000
# 6 0.0000 0.0000 0.0000 -12.9047 0.0000 47.4634
#
#
#
# Elastic Compliance Matrix: (Units=1/GPa)
#
#
# Indices 1 2 3 4 5 6 
#
# 1 0.016230 -0.006521 -0.001635 0.000000 0.003875 0.000000
# 2 -0.006521 0.013319 -0.001447 0.000000 0.000907 0.000000
# 3 -0.001635 -0.001447 0.009134 0.000000 0.001712 0.000000
# 4 0.000000 0.000000 0.000000 0.035564 0.000000 0.009669
# 5 0.003875 0.000907 0.001712 0.000000 0.034290 0.000000
# 6 0.000000 0.000000 0.000000 0.009669 0.000000 0.023698
#
#
# Mechanical properties :
#
#
# Convention : Reuss Voigt Hill
#
# Bulk Modulus (GPa) = 51.34367 55.17543 53.25955
# Shear Modulus (GPa) = 31.65878 36.05970 33.85924
#
# Velocity S-wave (km/s) = 3.77078 4.02435 3.89963
# Velocity P-wave (km/s) = 6.48215 6.80989 6.64804
#
# Compressibility (1/GPa) = 0.01947660
#
# Stress axis : x y z
#
# Youngs Moduli (GPa) = 61.61323 75.08203 109.47771
#
# Poissons Ratio (x) = 0.48961 0.17903
# Poissons Ratio (y) = 0.40178 0.15843
# Poissons Ratio (z) = 0.10076 0.10865
#
# Static dielectric constant tensor:
#      x y z
#    x 3.897060 0.000000 -0.244200 
#    y 0.000000 3.820020 0.000000 
#    z -0.244200 0.000000 4.269920 
# 
# 
# High freq. dielectric constant tensor:
#      x y z
#    x 1.866830 0.000000 -0.016810 
#    y 0.000000 1.848830 0.000000 
#    z -0.016810 0.000000 1.888610 
# 
# From -- ./inp_files/39840.got.cif
#   From: 2010.03.12/outbox.cif.g09.slc.cpg/sg5_20_cif.got.tgz:39840.got - 2010.03.31 09:47:26.
