data_PCOD8048180
_publ_section_title
;
Structure prediction by ZEFSAII (Michael W. Deem and Ramdas Pophale) SiO2 
 PCOD8048180
Probable space group: C 2
;
_chemical_formula_sum "Si O2"
_cell_formula_units_Z 32
_cell_length_a 9.160359
_cell_length_b 14.886134
_cell_length_c 15.314667
_cell_angle_alpha 90.000000
_cell_angle_beta 53.263484
_cell_angle_gamma 90.000000
_cell_volume 1673.587364
_symmetry_space_group_name_H-M "C 2"
_symmetry_group_IT_number 5
_symmetry_cell_setting 'monoclinic'
loop_
_space_group_symop_operation_xyz
x,y,z
-x,y,-z
1/2+x,1/2+y,z
1/2-x,1/2+y,-z
loop_
_atom_site_type_symbol
_atom_site_label
_atom_site_fract_x
_atom_site_fract_y
_atom_site_fract_z
Si Si1 0.334266 0.695650 0.000002
Si Si2 0.928610 0.176051 0.236816
Si Si3 0.384365 0.384180 0.786093
Si Si4 0.794354 0.535432 0.377798
Si Si5 0.956555 0.384180 0.213911
Si Si6 0.097765 0.676051 0.236820
Si Si7 0.049931 0.035432 0.622208
Si Si8 0.172244 0.876706 0.999998
O O1 0.426832 0.639181 0.888255
O O2 0.212629 0.772058 0.000001
O O3 0.500000 0.738006 0.000000
O O4 0.203341 0.639179 0.111750
O O5 0.967020 0.281069 0.241285
O O6 0.723684 0.161945 0.276323
O O7 0.951553 0.123360 0.317659
O O8 0.188403 0.395643 0.811593
O O9 0.449582 0.281068 0.758714
O O10 0.535996 0.444820 0.684156
O O11 0.368327 0.420065 0.891001
O O12 0.904315 0.444820 0.315850
O O13 0.736137 0.530725 0.500004
O O14 0.619372 0.544636 0.380636
O O15 0.913140 0.623359 0.317668
O O16 0.150332 0.420067 0.109002
O O17 0.000000 0.891666 0.000000
#
# Coordination Sequence:
#
# PCOD8048180 Si02
#       8
#     4   4   4   4   4   4   4   4
#     4   8  16  33  54  77 108 142 172 203 253 323
#     4   9  18  34  57  81 105 135 171 215 263 311
#     4   9  19  37  57  76 105 144 177 207 256 321
#     4  10  22  38  54  75 104 139 181 223 260 305
#     4   9  19  37  57  76 105 144 177 207 256 321
#     4   9  18  34  57  81 105 135 171 215 263 311
#     4  10  22  38  54  75 104 139 181 223 260 305
#     4  10  18  29  52  85 112 132 166 217 265 307
#
# _framework density 19.120604
#
# number of rings (size 3 to 8) (size 9 to 14) (size 15 to 20)
#    0.000    2.750    0.000    2.625    0.000    7.500 
#    0.000    5.000    0.000    0.000    0.000    0.000 
#    0.000    0.000    0.000    0.000    0.000    0.000 
#
# Total GULP energy -198322.015046 kJ/mol
# GULP energy per Si atom -12395.125940 kJ/mol
# Density = 1.907709 g / cm^3
# Si number density = 19.120604 Si / 1000 Ang^3
#
#
#
# Elastic Constant Matrix: (Units=GPa)
#
#
# Indices 1 2 3 4 5 6 
#
# 1 52.0947 30.7240 52.7533 -0.0001 -3.6047 0.0001
# 2 30.7240 82.0857 70.7394 0.0000 -2.4074 0.0000
# 3 52.7533 70.7394 189.4876 -0.0002 -4.6610 0.0002
# 4 -0.0001 0.0000 -0.0002 32.4711 0.0001 -0.2872
# 5 -3.6047 -2.4074 -4.6610 0.0001 29.6932 -0.0001
# 6 0.0001 0.0000 0.0002 -0.2872 -0.0001 27.7170
#
#
#
# Elastic Compliance Matrix: (Units=1/GPa)
#
#
# Indices 1 2 3 4 5 6 
#
# 1 0.028520 -0.005625 -0.005788 0.000000 0.002098 0.000000
# 2 -0.005625 0.019075 -0.005555 0.000000 -0.000008 0.000000
# 3 -0.005788 -0.005555 0.008969 0.000000 0.000255 0.000000
# 4 0.000000 0.000000 0.000000 0.030799 0.000000 0.000319
# 5 0.002098 -0.000008 0.000255 0.000000 0.033972 0.000000
# 6 0.000000 0.000000 0.000000 0.000319 0.000000 0.036082
#
#
# Mechanical properties :
#
#
# Convention : Reuss Voigt Hill
#
# Bulk Modulus (GPa) = 44.19566 70.23347 57.21457
# Shear Modulus (GPa) = 25.13865 29.27303 27.20584
#
# Velocity S-wave (km/s) = 3.62987 3.91700 3.77617
# Velocity P-wave (km/s) = 6.38218 7.56761 7.00004
#
# Compressibility (1/GPa) = 0.02262665
#
# Stress axis : x y z
#
# Youngs Moduli (GPa) = 35.06302 52.42492 111.49459
#
# Poissons Ratio (x) = 0.29489 0.64538
# Poissons Ratio (y) = 0.19723 0.61938
# Poissons Ratio (z) = 0.20296 0.29123
#
# Static dielectric constant tensor:
#      x y z
#    x 3.289130 0.000000 -0.036030 
#    y 0.000000 3.246900 0.000000 
#    z -0.036030 0.000000 3.888470 
# 
# 
# High freq. dielectric constant tensor:
#      x y z
#    x 1.729040 0.000000 -0.001420 
#    y 0.000000 1.724450 0.000000 
#    z -0.001420 0.000000 1.752620 
# 
# From -- ./inp_files/50931.got.cif
#   From: 2010.03.12/outbox.cif.g09.slc.cpg/sg5_26_cif.got.tgz:50931.got - 2010.03.31 09:47:26.
