data_PCOD8048026
_publ_section_title
;
Structure prediction by ZEFSAII (Michael W. Deem and Ramdas Pophale) SiO2 
 PCOD8048026
Probable space group: P 21
;
_chemical_formula_sum "Si O2"
_cell_formula_units_Z 8
_cell_length_a 9.690377
_cell_length_b 7.566013
_cell_length_c 8.232999
_cell_angle_alpha 90.000000
_cell_angle_beta 31.296883
_cell_angle_gamma 90.000000
_cell_volume 313.565654
_symmetry_space_group_name_H-M "P 21"
_symmetry_group_IT_number 4
_symmetry_cell_setting 'monoclinic'
loop_
_space_group_symop_operation_xyz
x,y,z
-x,1/2+y,-z
loop_
_atom_site_type_symbol
_atom_site_label
_atom_site_fract_x
_atom_site_fract_y
_atom_site_fract_z
Si Si1 0.952683 0.039160 0.139278
Si Si2 0.651404 0.234898 0.682313
Si Si3 0.458954 0.055936 0.412868
Si Si4 0.676819 0.371899 0.006109
O O1 0.906306 0.205444 0.308131
O O2 0.668716 0.006108 0.341979
O O3 0.171845 0.075864 0.783560
O O4 0.052672 0.883925 0.159591
O O5 0.500604 0.403038 0.760480
O O6 0.464423 0.061626 0.874569
O O7 0.755534 0.284097 0.756102
O O8 0.488041 0.242847 0.296499
#
# Coordination Sequence:
#
# PCOD8048026 Si02
#       4
#     2   2   2   2
#     4  12  30  52  86 122 160 218 274 340 404 480
#     4  12  29  54  83 121 168 219 271 336 415 488
#     4  12  30  54  84 120 168 214 282 336 402 494
#     4  12  29  54  83 121 168 219 271 336 415 488
#
# _framework density 25.513000000000002
#
# number of rings (size 3 to 8) (size 9 to 14) (size 15 to 20)
#    0.000    0.000    5.000    1.500   14.000    4.000 
#    0.000    0.000    0.000    0.000    0.000    0.000 
#    0.000    0.000    0.000    0.000    0.000    0.000 
#
# Total GULP energy -99163.671840 kJ/mol
# GULP energy per Si atom -12395.458980 kJ/mol
# Density = 2.545493 g / cm^3
# Si number density = 25.513000 Si / 1000 Ang^3
#
#
#
# Elastic Constant Matrix: (Units=GPa)
#
#
# Indices 1 2 3 4 5 6 
#
# 1 128.6484 35.0140 22.6025 0.0000 27.6664 0.0000
# 2 35.0140 122.6685 6.3780 0.0000 -0.6314 0.0000
# 3 22.6025 6.3780 70.9131 0.0000 -6.5662 0.0000
# 4 0.0000 0.0000 0.0000 22.3392 0.0000 -5.9916
# 5 27.6664 -0.6314 -6.5662 0.0000 28.6575 0.0000
# 6 0.0000 0.0000 0.0000 -5.9916 0.0000 34.0468
#
#
#
# Elastic Compliance Matrix: (Units=1/GPa)
#
#
# Indices 1 2 3 4 5 6 
#
# 1 0.012355 -0.003342 -0.004852 0.000000 -0.013113 0.000000
# 2 -0.003342 0.009094 0.000577 0.000000 0.003559 0.000000
# 3 -0.004852 0.000577 0.016379 0.000000 0.008449 0.000000
# 4 0.000000 0.000000 0.000000 0.046982 0.000000 0.008268
# 5 -0.013113 0.003559 0.008449 0.000000 0.049569 0.000000
# 6 0.000000 0.000000 0.000000 0.008268 0.000000 0.030826
#
#
# Mechanical properties :
#
#
# Convention : Reuss Voigt Hill
#
# Bulk Modulus (GPa) = 44.25849 50.02433 47.14141
# Shear Modulus (GPa) = 26.59999 34.22441 30.41220
#
# Velocity S-wave (km/s) = 3.23244 3.66655 3.45632
# Velocity P-wave (km/s) = 5.59613 6.12983 5.86905
#
# Compressibility (1/GPa) = 0.02259453
#
# Stress axis : x y z
#
# Youngs Moduli (GPa) = 80.93837 109.95941 61.05510
#
# Poissons Ratio (x) = 0.36747 0.29622
# Poissons Ratio (y) = 0.27048 -0.03521
# Poissons Ratio (z) = 0.39268 -0.06342
#
# Static dielectric constant tensor:
#      x y z
#    x 5.081580 0.000000 0.167710 
#    y 0.000000 4.827270 0.000000 
#    z 0.167710 0.000000 4.568350 
# 
# 
# High freq. dielectric constant tensor:
#      x y z
#    x 2.037800 0.000000 0.015060 
#    y 0.000000 2.032500 0.000000 
#    z 0.015060 0.000000 2.015410 
# 
# From -- ./inp_files/4482.got.cif
#   From: 2010.03.12/outbox.cif.g09.slc.cpg/sg4_3_cif.got.tgz:4482.got - 2010.03.31 09:31:35.
