data_PCOD8048353
_publ_section_title
;
Structure prediction by ZEFSAII (Michael W. Deem and Ramdas Pophale) SiO2 
 PCOD8048353
Probable space group: C 2
;
_chemical_formula_sum "Si O2"
_cell_formula_units_Z 26
_cell_length_a 24.549410
_cell_length_b 8.286442
_cell_length_c 6.994006
_cell_angle_alpha 90.000000
_cell_angle_beta 64.588289
_cell_angle_gamma 90.000000
_cell_volume 1285.114937
_symmetry_space_group_name_H-M "C 2"
_symmetry_group_IT_number 5
_symmetry_cell_setting 'monoclinic'
loop_
_space_group_symop_operation_xyz
x,y,z
-x,y,-z
1/2+x,1/2+y,z
1/2-x,1/2+y,-z
loop_
_atom_site_type_symbol
_atom_site_label
_atom_site_fract_x
_atom_site_fract_y
_atom_site_fract_z
Si Si1 0.000000 0.583390 0.000000
Si Si2 0.819085 0.817526 0.297899
Si Si3 0.658898 0.086899 0.077670
Si Si4 0.114091 0.373168 0.817185
Si Si5 0.207227 0.525104 0.405376
Si Si6 0.450770 0.286668 0.727549
Si Si7 0.929654 0.015366 0.055604
O O1 0.054663 0.471156 0.849793
O O2 0.982088 0.697820 0.855828
O O3 0.802552 0.705335 0.501733
O O4 0.774605 0.969444 0.354571
O O5 0.887558 0.882608 0.229162
O O6 0.811733 0.715351 0.112763
O O7 0.702323 0.028422 0.182014
O O8 0.601921 0.170539 0.270355
O O9 0.640035 0.931547 0.981752
O O10 0.160842 0.399332 0.573022
O O11 0.099029 0.187034 0.862554
O O12 0.500000 0.328256 0.500000
O O13 0.425068 0.459953 0.839852
O O14 0.000000 0.010657 0.000000
#
# Coordination Sequence:
#
# PCOD8048353 Si02
#       7
#     2   4   4   4   4   4   4
#     4  10  18  36  58  84 124 156 200 254 298 350
#     4  10  24  40  63  92 120 161 206 247 312 362
#     4   9  22  39  61  90 120 156 203 255 306 354
#     4  10  21  39  60  91 121 161 203 247 305 358
#     4  11  22  43  67  90 121 160 203 254 304 372
#     4  10  20  35  59  86 117 163 202 243 303 363
#     4  11  22  40  60  87 130 162 199 258 297 353
#
# _framework density 20.231652
#
# number of rings (size 3 to 8) (size 9 to 14) (size 15 to 20)
#    0.000    1.846    1.538    2.769    2.154    3.692 
#    2.769    2.308    0.000    0.000    0.000    0.000 
#    0.000    0.000    0.000    0.000    0.000    0.000 
#
# Total GULP energy -161133.795241 kJ/mol
# GULP energy per Si atom -12394.907326 kJ/mol
# Density = 2.018560 g / cm^3
# Si number density = 20.231652 Si / 1000 Ang^3
#
#
#
# Elastic Constant Matrix: (Units=GPa)
#
#
# Indices 1 2 3 4 5 6 
#
# 1 94.9492 30.0457 21.3446 0.0000 -6.6916 0.0000
# 2 30.0457 113.2805 23.0118 0.0000 -1.1509 0.0000
# 3 21.3446 23.0118 64.0291 0.0000 -5.3764 0.0000
# 4 0.0000 0.0000 0.0000 25.0006 0.0000 -14.1038
# 5 -6.6916 -1.1509 -5.3764 0.0000 28.6142 0.0000
# 6 0.0000 0.0000 0.0000 -14.1038 0.0000 23.8053
#
#
#
# Elastic Compliance Matrix: (Units=1/GPa)
#
#
# Indices 1 2 3 4 5 6 
#
# 1 0.012172 -0.002610 -0.002936 0.000000 0.002190 0.000000
# 2 -0.002610 0.010084 -0.002816 0.000000 -0.000734 0.000000
# 3 -0.002936 -0.002816 0.017823 0.000000 0.002549 0.000000
# 4 0.000000 0.000000 0.000000 0.060079 0.000000 0.035595
# 5 0.002190 -0.000734 0.002549 0.000000 0.035909 0.000000
# 6 0.000000 0.000000 0.000000 0.035595 0.000000 0.063096
#
#
# Mechanical properties :
#
#
# Convention : Reuss Voigt Hill
#
# Bulk Modulus (GPa) = 42.81543 46.78478 44.80010
# Shear Modulus (GPa) = 22.35413 28.67446 25.51430
#
# Velocity S-wave (km/s) = 3.32762 3.76880 3.55506
# Velocity P-wave (km/s) = 5.99772 6.48947 6.24843
#
# Compressibility (1/GPa) = 0.02335607
#
# Stress axis : x y z
#
# Youngs Moduli (GPa) = 82.15506 99.16281 56.10838
#
# Poissons Ratio (x) = 0.25880 0.16472
# Poissons Ratio (y) = 0.21441 0.15800
# Poissons Ratio (z) = 0.24119 0.27923
#
# Static dielectric constant tensor:
#      x y z
#    x 3.734280 0.000000 -0.223830 
#    y 0.000000 3.786420 0.000000 
#    z -0.223830 0.000000 3.912360 
# 
# 
# High freq. dielectric constant tensor:
#      x y z
#    x 1.789590 0.000000 -0.019520 
#    y 0.000000 1.793820 0.000000 
#    z -0.019520 0.000000 1.783400 
# 
# From -- ./inp_files/11114.got.cif
#   From: 2010.03.12/outbox.cif.g09.slc.cpg/sg5_6_cif.got.tgz:11114.got - 2010.03.31 09:47:26.
