data_PCOD8048172
_publ_section_title
;
Structure prediction by ZEFSAII (Michael W. Deem and Ramdas Pophale) SiO2 
 PCOD8048172
Probable space group: C 2
;
_chemical_formula_sum "Si O2"
_cell_formula_units_Z 28
_cell_length_a 16.305484
_cell_length_b 18.144363
_cell_length_c 5.307134
_cell_angle_alpha 90.000000
_cell_angle_beta 109.496032
_cell_angle_gamma 90.000000
_cell_volume 1480.105509
_symmetry_space_group_name_H-M "C 2"
_symmetry_group_IT_number 5
_symmetry_cell_setting 'monoclinic'
loop_
_space_group_symop_operation_xyz
x,y,z
-x,y,-z
1/2+x,1/2+y,z
1/2-x,1/2+y,-z
loop_
_atom_site_type_symbol
_atom_site_label
_atom_site_fract_x
_atom_site_fract_y
_atom_site_fract_z
Si Si1 0.599738 0.786360 0.105120
Si Si2 0.824920 0.256296 0.317750
Si Si3 0.500000 0.998394 0.500000
Si Si4 0.865860 0.720274 0.902235
Si Si5 0.500000 0.094165 0.000000
Si Si6 0.096113 0.809408 0.557212
Si Si7 0.816579 0.429737 0.297245
Si Si8 0.743305 0.913553 0.264290
O O1 0.618433 0.738112 0.375142
O O2 0.662048 0.856996 0.168640
O O3 0.500000 0.812871 0.000000
O O4 0.620129 0.737441 0.877481
O O5 0.737201 0.208077 0.237387
O O6 0.797551 0.342260 0.289759
O O7 0.511340 0.046529 0.262335
O O8 0.418479 0.944594 0.386571
O O9 0.902816 0.769510 0.712110
O O10 0.881810 0.754045 0.194183
O O11 0.913042 0.642013 0.941121
O O12 0.163118 0.876319 0.627164
O O13 0.000000 0.842293 0.500000
O O14 0.772297 0.464006 0.503805
O O15 0.766225 0.462145 0.000224
#
# Coordination Sequence:
#
# PCOD8048172 Si02
#       8
#     4   4   2   4   2   4   4   4
#     4  10  18  26  45  72 113 135 177 210 286 375
#     4  10  19  32  50  78 102 147 184 235 308 325
#     4  12  26  40  54  86 118 176 202 224 284 362
#     4  12  20  37  54  77 112 153 199 250 276 350
#     4  12  26  40  56  80 122 170 216 220 280 358
#     4  12  19  33  53  82 111 149 186 242 311 352
#     4  10  20  34  53  72 116 140 191 241 269 357
#     4  10  19  31  48  80 106 147 181 226 307 351
#
# _framework density 18.917570999999999
#
# number of rings (size 3 to 8) (size 9 to 14) (size 15 to 20)
#    0.000    1.143    7.143    2.143    8.000    0.000 
#    0.000    0.000    0.000    0.000    0.000    0.000 
#    0.000   22.857    0.000    0.000    0.000    0.000 
#
# Total GULP energy -173516.814099 kJ/mol
# GULP energy per Si atom -12394.058150 kJ/mol
# Density = 1.887451 g / cm^3
# Si number density = 18.917571 Si / 1000 Ang^3
#
#
#
# Elastic Constant Matrix: (Units=GPa)
#
#
# Indices 1 2 3 4 5 6 
#
# 1 116.3134 10.5743 30.2478 0.0000 3.2487 0.0000
# 2 10.5743 22.3665 8.5300 0.0000 1.7470 0.0000
# 3 30.2478 8.5300 140.8725 0.0000 -29.8785 0.0000
# 4 0.0000 0.0000 0.0000 18.9077 0.0000 -0.8733
# 5 3.2487 1.7470 -29.8785 0.0000 47.8641 0.0000
# 6 0.0000 0.0000 0.0000 -0.8733 0.0000 19.1152
#
#
#
# Elastic Compliance Matrix: (Units=1/GPa)
#
#
# Indices 1 2 3 4 5 6 
#
# 1 0.009555 -0.003510 -0.002247 0.000000 -0.001923 0.000000
# 2 -0.003510 0.047703 -0.002828 0.000000 -0.003268 0.000000
# 3 -0.002247 -0.002828 0.008998 0.000000 0.005873 0.000000
# 4 0.000000 0.000000 0.000000 0.053000 0.000000 0.002421
# 5 -0.001923 -0.003268 0.005873 0.000000 0.024808 0.000000
# 6 0.000000 0.000000 0.000000 0.002421 0.000000 0.052425
#
#
# Mechanical properties :
#
#
# Convention : Reuss Voigt Hill
#
# Bulk Modulus (GPa) = 20.37258 42.02852 31.20055
# Shear Modulus (GPa) = 21.73718 32.52407 27.13063
#
# Velocity S-wave (km/s) = 3.39344 4.15088 3.79113
# Velocity P-wave (km/s) = 5.11335 6.72592 5.97430
#
# Compressibility (1/GPa) = 0.04908559
#
# Stress axis : x y z
#
# Youngs Moduli (GPa) = 104.66183 20.96306 111.13786
#
# Poissons Ratio (x) = 0.07358 0.24971
# Poissons Ratio (y) = 0.36737 0.31430
# Poissons Ratio (z) = 0.23516 0.05928
#
# Static dielectric constant tensor:
#      x y z
#    x 3.922270 0.000000 -0.734200 
#    y 0.000000 2.768530 0.000000 
#    z -0.734200 0.000000 5.553420 
# 
# 
# High freq. dielectric constant tensor:
#      x y z
#    x 1.748190 0.000000 -0.016230 
#    y 0.000000 1.643170 0.000000 
#    z -0.016230 0.000000 1.779000 
# 
# From -- ./inp_files/7242.got.cif
#   From: 2010.03.12/outbox.cif.g09.slc.cpg/sg5_4_cif.got.tgz:7242.got - 2010.03.31 09:47:26.
