data_PCOD8049607
_publ_section_title
;
Structure prediction by ZEFSAII (Michael W. Deem and Ramdas Pophale) SiO2 
 PCOD8049607
Probable space group: C 2
;
_chemical_formula_sum "Si O2"
_cell_formula_units_Z 26
_cell_length_a 8.072394
_cell_length_b 10.123411
_cell_length_c 19.952403
_cell_angle_alpha 90.000000
_cell_angle_beta 46.970996
_cell_angle_gamma 90.000000
_cell_volume 1191.919096
_symmetry_space_group_name_H-M "C 2"
_symmetry_group_IT_number 5
_symmetry_cell_setting 'monoclinic'
loop_
_space_group_symop_operation_xyz
x,y,z
-x,y,-z
1/2+x,1/2+y,z
1/2-x,1/2+y,-z
loop_
_atom_site_type_symbol
_atom_site_label
_atom_site_fract_x
_atom_site_fract_y
_atom_site_fract_z
Si Si1 0.039091 0.864620 0.607679
Si Si2 0.952618 0.116582 0.934200
Si Si3 0.216386 0.104613 0.488103
Si Si4 0.097848 0.724602 0.220637
Si Si5 0.625118 0.349394 0.838952
Si Si6 0.926168 0.456264 0.318751
Si Si7 0.500000 0.210553 0.000000
O O1 0.009592 0.821207 0.693188
O O2 0.794694 0.875482 0.641664
O O3 0.180792 0.751428 0.526649
O O4 0.153642 0.012400 0.570281
O O5 0.126089 0.226354 0.855094
O O6 0.686021 0.135020 0.993441
O O7 0.011210 0.990218 0.874779
O O8 0.000000 0.099031 0.000000
O O9 0.000000 0.123566 0.500000
O O10 0.403952 0.016655 0.398904
O O11 0.037203 0.766588 0.163053
O O12 0.991377 0.578063 0.252649
O O13 0.872329 0.350602 0.736775
O O14 0.649331 0.293714 0.907078
#
# Coordination Sequence:
#
# PCOD8049607 Si02
#       7
#     4   4   4   4   4   4   2
#     4  10  20  41  67  94 130 175 219 277 335 399
#     4  11  23  42  63  96 133 171 227 279 325 397
#     4   9  20  39  62  94 131 173 216 276 337 389
#     4  10  22  41  64  92 133 173 218 278 332 393
#     4  11  23  41  63  91 129 172 217 280 337 391
#     4   9  21  40  62  88 128 168 217 274 332 397
#     4  12  24  38  66  94 124 178 222 268 344 392
#
# _framework density 21.813561
#
# number of rings (size 3 to 8) (size 9 to 14) (size 15 to 20)
#    0.000    1.846    2.308    0.923    0.000    6.154 
#    0.000   17.692    0.000    0.000    0.000    0.000 
#    0.000    0.000    0.000    0.000    0.000    0.000 
#
# Total GULP energy -161054.304253 kJ/mol
# GULP energy per Si atom -12388.792635 kJ/mol
# Density = 2.176391 g / cm^3
# Si number density = 21.813561 Si / 1000 Ang^3
#
#
#
# Elastic Constant Matrix: (Units=GPa)
#
#
# Indices 1 2 3 4 5 6 
#
# 1 112.8999 44.8560 36.0922 0.0000 -15.8356 0.0000
# 2 44.8560 79.3143 24.1573 0.0000 -10.9059 0.0000
# 3 36.0922 24.1573 82.0540 -0.0004 -16.1377 0.0000
# 4 0.0000 0.0000 -0.0004 33.6329 0.0001 -1.3625
# 5 -15.8356 -10.9059 -16.1377 0.0001 39.2692 0.0000
# 6 0.0000 0.0000 0.0000 -1.3625 0.0000 28.6431
#
#
#
# Elastic Compliance Matrix: (Units=1/GPa)
#
#
# Indices 1 2 3 4 5 6 
#
# 1 0.012524 -0.005763 -0.003409 0.000000 0.002049 0.000000
# 2 -0.005763 0.016706 -0.002098 0.000000 0.001454 0.000000
# 3 -0.003409 -0.002098 0.015143 0.000000 0.004266 0.000000
# 4 0.000000 0.000000 0.000000 0.029790 0.000000 0.001417
# 5 0.002049 0.001454 0.004266 0.000000 0.028448 0.000000
# 6 0.000000 0.000000 0.000000 0.001417 0.000000 0.034980
#
#
# Mechanical properties :
#
#
# Convention : Reuss Voigt Hill
#
# Bulk Modulus (GPa) = 45.80044 53.83102 49.81573
# Shear Modulus (GPa) = 29.86686 31.58657 30.72672
#
# Velocity S-wave (km/s) = 3.70427 3.80942 3.75721
# Velocity P-wave (km/s) = 6.27195 6.63930 6.45824
#
# Compressibility (1/GPa) = 0.02183385
#
# Stress axis : x y z
#
# Youngs Moduli (GPa) = 79.84423 59.85842 66.03624
#
# Poissons Ratio (x) = 0.34496 0.22514
# Poissons Ratio (y) = 0.46014 0.13852
# Poissons Ratio (z) = 0.27221 0.12556
#
# Static dielectric constant tensor:
#      x y z
#    x 3.843580 0.000000 -0.392050 
#    y 0.000000 3.992680 0.000000 
#    z -0.392050 0.000000 4.384600 
# 
# 
# High freq. dielectric constant tensor:
#      x y z
#    x 1.840310 0.000000 -0.014910 
#    y 0.000000 1.849090 0.000000 
#    z -0.014910 0.000000 1.876250 
# 
# From -- ./inp_files/64388.got.cif
#   From: 2010.03.12/outbox.cif.g09.slc.cpg/sg5_33_cif.got.tgz:64388.got - 2010.03.31 09:47:26.
