data_PCOD8049268
_publ_section_title
;
Structure prediction by ZEFSAII (Michael W. Deem and Ramdas Pophale) SiO2 
 PCOD8049268
Probable space group: C 2
;
_chemical_formula_sum "Si O2"
_cell_formula_units_Z 28
_cell_length_a 7.925445
_cell_length_b 14.935741
_cell_length_c 11.513950
_cell_angle_alpha 90.000000
_cell_angle_beta 109.513787
_cell_angle_gamma 90.000000
_cell_volume 1284.648459
_symmetry_space_group_name_H-M "C 2"
_symmetry_group_IT_number 5
_symmetry_cell_setting 'monoclinic'
loop_
_space_group_symop_operation_xyz
x,y,z
-x,y,-z
1/2+x,1/2+y,z
1/2-x,1/2+y,-z
loop_
_atom_site_type_symbol
_atom_site_label
_atom_site_fract_x
_atom_site_fract_y
_atom_site_fract_z
Si Si1 0.000000 0.649040 0.000000
Si Si2 0.977083 0.137780 0.680154
Si Si3 0.292607 0.147805 0.581909
Si Si4 0.500000 0.002773 0.500000
Si Si5 0.000488 0.776563 0.779442
Si Si6 0.297778 0.458979 0.729309
Si Si7 0.791361 0.061497 0.936328
Si Si8 0.118052 0.245608 0.135985
O O1 0.965257 0.712470 0.881861
O O2 0.170621 0.580449 0.023061
O O3 0.822706 0.172596 0.557968
O O4 0.001832 0.219786 0.779209
O O5 0.164347 0.123554 0.659553
O O6 0.926665 0.041651 0.723000
O O7 0.414970 0.062458 0.582452
O O8 0.422021 0.229782 0.645692
O O9 0.648081 0.940976 0.596490
O O10 0.208236 0.807958 0.804891
O O11 0.903274 0.869465 0.777042
O O12 0.207722 0.485183 0.833221
O O13 0.776850 0.154572 0.866326
O O14 0.000000 0.036783 0.000000
O O15 0.000000 0.279981 0.000000
#
# Coordination Sequence:
#
# PCOD8049268 Si02
#       8
#     2   4   4   2   4   4   4   4
#     4  10  22  38  64  94 122 168 230 252 320 396
#     4   9  20  39  64  91 122 168 219 251 307 394
#     4  10  20  37  65  93 120 166 217 256 307 387
#     4  10  20  42  64  86 126 172 214 252 312 394
#     4  11  23  36  63  94 125 163 205 276 323 365
#     4  10  22  40  61  89 130 161 205 270 323 367
#     4   9  19  37  66  87 121 170 209 256 311 390
#     4   9  19  38  62  89 122 167 211 257 310 389
#
# _framework density 21.795846000000001
#
# number of rings (size 3 to 8) (size 9 to 14) (size 15 to 20)
#    0.000    2.286    0.000    3.429    9.000    1.143 
#    0.000   10.000    3.143    0.000    0.000    0.000 
#    0.000    0.000    0.000    0.000    0.000    0.000 
#
# Total GULP energy -173436.001160 kJ/mol
# GULP energy per Si atom -12388.285797 kJ/mol
# Density = 2.174624 g / cm^3
# Si number density = 21.795846 Si / 1000 Ang^3
#
#
#
# Elastic Constant Matrix: (Units=GPa)
#
#
# Indices 1 2 3 4 5 6 
#
# 1 134.5817 35.4464 49.3125 0.0000 -2.6947 0.0000
# 2 35.4464 56.1794 43.0003 0.0000 10.8934 0.0000
# 3 49.3125 43.0003 106.9570 0.0000 0.0693 0.0000
# 4 0.0000 0.0000 0.0000 15.1718 0.0000 4.2441
# 5 -2.6947 10.8934 0.0693 0.0000 37.8028 0.0000
# 6 0.0000 0.0000 0.0000 4.2441 0.0000 21.9269
#
#
#
# Elastic Compliance Matrix: (Units=1/GPa)
#
#
# Indices 1 2 3 4 5 6 
#
# 1 0.009604 -0.004405 -0.002658 0.000000 0.001959 0.000000
# 2 -0.004405 0.029977 -0.010015 0.000000 -0.008934 0.000000
# 3 -0.002658 -0.010015 0.014600 0.000000 0.002670 0.000000
# 4 0.000000 0.000000 0.000000 0.069685 0.000000 -0.013488
# 5 0.001959 -0.008934 0.002670 0.000000 0.029162 0.000000
# 6 0.000000 0.000000 0.000000 -0.013488 0.000000 0.048217
#
#
# Mechanical properties :
#
#
# Convention : Reuss Voigt Hill
#
# Bulk Modulus (GPa) = 49.93869 61.47073 55.70471
# Shear Modulus (GPa) = 20.65460 26.31087 23.48274
#
# Velocity S-wave (km/s) = 3.08171 3.47818 3.28593
# Velocity P-wave (km/s) = 5.96862 6.66292 6.32530
#
# Compressibility (1/GPa) = 0.02002455
#
# Stress axis : x y z
#
# Youngs Moduli (GPa) = 104.12566 33.35845 68.49343
#
# Poissons Ratio (x) = 0.14693 0.18208
# Poissons Ratio (y) = 0.45864 0.68599
# Poissons Ratio (z) = 0.27680 0.33410
#
# Static dielectric constant tensor:
#      x y z
#    x 4.287090 0.000000 -0.097430 
#    y 0.000000 3.495420 0.000000 
#    z -0.097430 0.000000 4.154480 
# 
# 
# High freq. dielectric constant tensor:
#      x y z
#    x 1.865310 0.000000 0.006160 
#    y 0.000000 1.809370 0.000000 
#    z 0.006160 0.000000 1.870310 
# 
# From -- ./inp_files/36221.got.cif
#   From: 2010.03.12/outbox.cif.g09.slc.cpg/sg5_19_cif.got.tgz:36221.got - 2010.03.31 09:47:26.
