data_PCOD8049092
_publ_section_title
;
Structure prediction by ZEFSAII (Michael W. Deem and Ramdas Pophale) SiO2 
 PCOD8049092
Probable space group: C 2
;
_chemical_formula_sum "Si O2"
_cell_formula_units_Z 22
_cell_length_a 12.377373
_cell_length_b 12.361735
_cell_length_c 15.186416
_cell_angle_alpha 90.000000
_cell_angle_beta 153.157794
_cell_angle_gamma 90.000000
_cell_volume 1049.190984
_symmetry_space_group_name_H-M "C 2"
_symmetry_group_IT_number 5
_symmetry_cell_setting 'monoclinic'
loop_
_space_group_symop_operation_xyz
x,y,z
-x,y,-z
1/2+x,1/2+y,z
1/2-x,1/2+y,-z
loop_
_atom_site_type_symbol
_atom_site_label
_atom_site_fract_x
_atom_site_fract_y
_atom_site_fract_z
Si Si1 0.873589 0.185130 0.184127
Si Si2 0.009549 0.663672 0.240469
Si Si3 0.236010 0.878743 0.339528
Si Si4 0.633914 0.493735 0.443687
Si Si5 0.902947 0.762019 0.522380
Si Si6 0.500000 0.337364 0.000000
O O1 0.732117 0.265604 0.145208
O O2 0.918826 0.079501 0.277125
O O3 0.122045 0.238126 0.332819
O O4 0.724734 0.152443 0.989279
O O5 0.187669 0.754913 0.331780
O O6 0.143342 0.548395 0.343123
O O7 0.940813 0.701200 0.289514
O O8 0.500000 0.892402 0.500000
O O9 0.063034 0.909716 0.131207
O O10 0.200213 0.961729 0.392365
O O11 0.550204 0.390650 0.438348
O O12 0.000000 0.719076 0.500000
#
# Coordination Sequence:
#
# PCOD8049092 Si02
#       6
#     4   4   4   4   4   2
#     4  10  22  40  59  83 114 148 189 231 278 333
#     4   9  21  39  57  80 113 150 188 231 276 328
#     4  10  20  36  58  82 113 148 187 233 278 329
#     4  10  21  36  57  86 114 144 188 233 279 331
#     4  10  22  39  58  82 116 152 184 227 281 336
#     4  10  20  38  62  82 110 150 188 234 278 324
#
# _framework density 20.968537000000001
#
# number of rings (size 3 to 8) (size 9 to 14) (size 15 to 20)
#    0.000    2.182    0.000    3.273    0.000   13.091 
#    0.000    0.000    0.000    0.000    0.000    0.000 
#    0.000    0.000    0.000    0.000    0.000    0.000 
#
# Total GULP energy -136372.793172 kJ/mol
# GULP energy per Si atom -12397.526652 kJ/mol
# Density = 2.092081 g / cm^3
# Si number density = 20.968537 Si / 1000 Ang^3
#
#
#
# Elastic Constant Matrix: (Units=GPa)
#
#
# Indices 1 2 3 4 5 6 
#
# 1 77.1005 -26.7835 11.3126 -0.0029 -4.8351 -0.0173
# 2 -26.7835 39.3916 11.0318 0.0226 -2.6981 -0.0271
# 3 11.3126 11.0318 108.2153 0.0348 -16.4665 -0.0127
# 4 -0.0029 0.0226 0.0348 20.7680 0.0191 -17.5756
# 5 -4.8351 -2.6981 -16.4665 0.0191 43.2571 -0.0116
# 6 -0.0173 -0.0271 -0.0127 -17.5756 -0.0116 7.3682
#
#
#
# Elastic Compliance Matrix: (Units=1/GPa)
#
#
# Indices 1 2 3 4 5 6 
#
# 1 0.018130 0.013282 -0.002988 -0.000066 0.001718 -0.000067
# 2 0.013282 0.035879 -0.004755 -0.000101 0.001912 -0.000083
# 3 -0.002988 -0.004755 0.010553 0.000017 0.003387 0.000038
# 4 -0.000066 -0.000101 0.000017 -0.047269 -0.000017 -0.112752
# 5 0.001718 0.001912 0.003387 -0.000017 0.024718 0.000016
# 6 -0.000067 -0.000083 0.000038 -0.112752 0.000016 -0.133232
#
#
# Mechanical properties :
#
#
# Convention : Reuss Voigt Hill
#
# Bulk Modulus (GPa) = 13.22055 23.98101 18.60078
# Shear Modulus (GPa) = -64.86387 29.55510 -17.65439
#
# Velocity S-wave (km/s) = -5.56786 3.75840 -2.90478
# Velocity P-wave (km/s) = 5.91744 5.50414 1.53631
#
# Compressibility (1/GPa) = 0.07563980
#
# Stress axis : x y z
#
# Youngs Moduli (GPa) = 55.15729 27.87122 94.75753
#
# Poissons Ratio (x) = -0.37017 0.28312
# Poissons Ratio (y) = -0.73257 0.45057
# Poissons Ratio (z) = 0.16480 0.13253
#
# Static dielectric constant tensor:
#      x y z
#    x 3.843090 -0.000020 -0.429090 
#    y -0.000020 3.786300 0.000030 
#    z -0.429090 0.000030 3.991730 
# 
# 
# High freq. dielectric constant tensor:
#      x y z
#    x 1.819670 0.000000 -0.023660 
#    y 0.000000 1.813930 0.000000 
#    z -0.023660 0.000000 1.826730 
# 
# From -- ./inp_files/39051.got.cif
#   From: 2010.03.12/outbox.cif.g09.slc.cpg/sg5_20_cif.got.tgz:39051.got - 2010.03.31 09:47:26.
