data_PCOD8049564
_publ_section_title
;
Structure prediction by ZEFSAII (Michael W. Deem and Ramdas Pophale) SiO2 
 PCOD8049564
Probable space group: C 2
;
_chemical_formula_sum "Si O2"
_cell_formula_units_Z 32
_cell_length_a 13.823733
_cell_length_b 18.565600
_cell_length_c 10.757623
_cell_angle_alpha 90.000000
_cell_angle_beta 148.830095
_cell_angle_gamma 90.000000
_cell_volume 1428.980040
_symmetry_space_group_name_H-M "C 2"
_symmetry_group_IT_number 5
_symmetry_cell_setting 'monoclinic'
loop_
_space_group_symop_operation_xyz
x,y,z
-x,y,-z
1/2+x,1/2+y,z
1/2-x,1/2+y,-z
loop_
_atom_site_type_symbol
_atom_site_label
_atom_site_fract_x
_atom_site_fract_y
_atom_site_fract_z
Si Si1 0.694149 0.559250 0.991214
Si Si2 0.781939 0.705615 0.230830
Si Si3 0.489974 0.946294 0.350385
Si Si4 0.892569 0.741943 0.990846
Si Si5 0.780957 0.094901 0.256135
Si Si6 0.589331 0.795743 0.824294
Si Si7 0.256010 0.207792 0.476954
Si Si8 0.226817 0.041349 0.493986
O O1 0.772679 0.564204 0.937296
O O2 0.489223 0.525164 0.769123
O O3 0.702938 0.635541 0.071877
O O4 0.824228 0.501394 0.197944
O O5 0.687843 0.719116 0.260838
O O6 0.000000 0.697218 0.500000
O O7 0.724332 0.774847 0.087113
O O8 0.500000 0.912996 0.500000
O O9 0.450131 0.880838 0.212003
O O10 0.661323 0.988689 0.474352
O O11 0.032791 0.734723 0.263157
O O12 0.835546 0.668155 0.856667
O O13 0.704145 0.780851 0.824609
O O14 0.000000 0.786584 0.000000
O O15 0.728059 0.036914 0.307155
O O16 0.000000 0.113279 0.500000
O O17 0.397772 0.749312 0.608791
O O18 0.264043 0.123664 0.506127
#
# Coordination Sequence:
#
# PCOD8049564 Si02
#       8
#     4   4   4   4   4   4   4   4
#     4  11  23  45  75 106 144 187 239 309 360 430
#     4  12  22  45  77 110 143 186 253 304 365 440
#     4  12  30  48  69 102 147 195 243 300 378 447
#     4  12  24  39  72 106 140 187 241 299 360 433
#     4  10  20  40  71 110 145 180 238 300 359 428
#     4  12  28  49  67 105 152 193 239 305 374 444
#     4  12  24  42  76 108 140 188 243 310 362 429
#     4  11  23  44  73 108 140 189 247 295 366 434
#
# _framework density 22.393597
#
# number of rings (size 3 to 8) (size 9 to 14) (size 15 to 20)
#    0.000    0.500    5.000    3.750    1.750    2.500 
#    4.500    0.625    0.000    0.000    0.000    0.000 
#    0.000    0.000    0.000    0.000    0.000    0.000 
#
# Total GULP energy -198301.341718 kJ/mol
# GULP energy per Si atom -12393.833857 kJ/mol
# Density = 2.234263 g / cm^3
# Si number density = 22.393597 Si / 1000 Ang^3
#
#
#
# Elastic Constant Matrix: (Units=GPa)
#
#
# Indices 1 2 3 4 5 6 
#
# 1 149.7596 53.9041 35.5595 0.0000 3.2201 0.0000
# 2 53.9041 97.7348 27.1195 0.0000 5.9265 0.0000
# 3 35.5595 27.1195 80.3431 0.0000 -0.2551 0.0000
# 4 0.0000 0.0000 0.0000 24.4987 0.0000 -4.8787
# 5 3.2201 5.9265 -0.2551 0.0000 44.0434 0.0000
# 6 0.0000 0.0000 0.0000 -4.8787 0.0000 19.9604
#
#
#
# Elastic Compliance Matrix: (Units=1/GPa)
#
#
# Indices 1 2 3 4 5 6 
#
# 1 0.008757 -0.004136 -0.002480 0.000000 -0.000098 0.000000
# 2 -0.004136 0.013348 -0.002680 0.000000 -0.001509 0.000000
# 3 -0.002480 -0.002680 0.014451 0.000000 0.000626 0.000000
# 4 0.000000 0.000000 0.000000 0.042907 0.000000 0.010487
# 5 -0.000098 -0.001509 0.000626 0.000000 0.022919 0.000000
# 6 0.000000 0.000000 0.000000 0.010487 0.000000 0.052663
#
#
# Mechanical properties :
#
#
# Convention : Reuss Voigt Hill
#
# Bulk Modulus (GPa) = 55.66573 62.33374 58.99973
# Shear Modulus (GPa) = 27.83600 31.78411 29.81006
#
# Velocity S-wave (km/s) = 3.52949 3.77150 3.65250
# Velocity P-wave (km/s) = 6.44373 6.84555 6.64767
#
# Compressibility (1/GPa) = 0.01796438
#
# Stress axis : x y z
#
# Youngs Moduli (GPa) = 114.19523 74.91846 69.19987
#
# Poissons Ratio (x) = 0.30983 0.17162
# Poissons Ratio (y) = 0.47227 0.18545
# Poissons Ratio (z) = 0.28322 0.20077
#
# Static dielectric constant tensor:
#      x y z
#    x 4.668150 0.000000 -0.199480 
#    y 0.000000 3.614280 0.000000 
#    z -0.199480 0.000000 4.430960 
# 
# 
# High freq. dielectric constant tensor:
#      x y z
#    x 1.908990 0.000000 0.003420 
#    y 0.000000 1.834220 0.000000 
#    z 0.003420 0.000000 1.903870 
# 
# From -- ./inp_files/43377.got.cif
#   From: 2010.03.12/outbox.cif.g09.slc.cpg/sg5_22_cif.got.tgz:43377.got - 2010.03.31 09:47:26.
