data_PCOD8049915
_publ_section_title
;
Structure prediction by ZEFSAII (Michael W. Deem and Ramdas Pophale) SiO2 
 PCOD8049915
Probable space group: C 2
;
_chemical_formula_sum "Si O2"
_cell_formula_units_Z 28
_cell_length_a 21.483376
_cell_length_b 8.170976
_cell_length_c 24.487774
_cell_angle_alpha 90.000000
_cell_angle_beta 162.495545
_cell_angle_gamma 90.000000
_cell_volume 1292.928956
_symmetry_space_group_name_H-M "C 2"
_symmetry_group_IT_number 5
_symmetry_cell_setting 'monoclinic'
loop_
_space_group_symop_operation_xyz
x,y,z
-x,y,-z
1/2+x,1/2+y,z
1/2-x,1/2+y,-z
loop_
_atom_site_type_symbol
_atom_site_label
_atom_site_fract_x
_atom_site_fract_y
_atom_site_fract_z
Si Si1 0.981816 0.639250 0.080247
Si Si2 0.560687 0.762439 0.704618
Si Si3 0.980819 0.127002 0.748742
Si Si4 0.590971 0.261679 0.864827
Si Si5 0.627838 0.600182 0.657370
Si Si6 0.824934 0.330262 0.892831
Si Si7 0.027583 0.627860 0.349483
O O1 0.174870 0.689530 0.204242
O O2 0.012978 0.668949 0.170769
O O3 0.809567 0.763844 0.913401
O O4 0.924974 0.446003 0.023620
O O5 0.498327 0.622935 0.697032
O O6 0.497951 0.719996 0.589443
O O7 0.463506 0.932039 0.641932
O O8 0.741726 0.184343 0.559134
O O9 0.030981 0.951404 0.816340
O O10 0.156444 0.247631 0.921325
O O11 0.481858 0.183246 0.721039
O O12 0.500000 0.534261 0.500000
O O13 0.679753 0.442294 0.735193
O O14 0.680861 0.188014 0.795759
O O15 0.000000 0.251052 0.000000
#
# Coordination Sequence:
#
# PCOD8049915 Si02
#       7
#     4   4   4   4   4   4   4
#     4   9  20  40  66  89 124 168 216 253 315 380
#     4  10  22  40  59  92 126 167 207 258 320 370
#     4  11  25  42  64  98 130 169 217 258 323 383
#     4  11  22  42  66  96 130 170 209 266 319 376
#     4  10  21  38  64  89 122 169 216 257 308 381
#     4   9  21  45  64  93 124 167 216 261 324 372
#     4  12  24  41  68  95 132 166 211 269 320 384
#
# _framework density 21.656255999999999
#
# number of rings (size 3 to 8) (size 9 to 14) (size 15 to 20)
#    0.000    1.714    0.000    6.429    4.000    1.143 
#   10.286    0.714    0.000    0.000    0.000    0.000 
#    0.000    0.000    0.000    0.000    0.000    0.000 
#
# Total GULP energy -173461.431898 kJ/mol
# GULP energy per Si atom -12390.102278 kJ/mol
# Density = 2.160697 g / cm^3
# Si number density = 21.656256 Si / 1000 Ang^3
#
#
#
# Elastic Constant Matrix: (Units=GPa)
#
#
# Indices 1 2 3 4 5 6 
#
# 1 97.1942 38.1312 24.2751 0.0157 -10.8164 -0.0037
# 2 38.1312 60.1943 20.4845 0.0643 -3.0598 -0.0065
# 3 24.2751 20.4845 100.7689 0.1949 -3.7853 0.0105
# 4 0.0157 0.0643 0.1949 18.1043 0.0067 4.3120
# 5 -10.8164 -3.0598 -3.7853 0.0067 31.6045 -0.0036
# 6 -0.0037 -0.0065 0.0105 4.3120 -0.0036 30.8424
#
#
#
# Elastic Compliance Matrix: (Units=1/GPa)
#
#
# Indices 1 2 3 4 5 6 
#
# 1 0.014420 -0.008383 -0.001622 0.000034 0.003929 -0.000004
# 2 -0.008383 0.022774 -0.002647 -0.000047 -0.000981 0.000011
# 3 -0.001622 -0.002647 0.010871 -0.000109 0.000491 0.000011
# 4 0.000034 -0.000047 -0.000109 0.057140 -0.000019 -0.007988
# 5 0.003929 -0.000981 0.000491 -0.000019 0.032950 0.000007
# 6 -0.000004 0.000011 0.000011 -0.007988 0.000007 0.033540
#
#
# Mechanical properties :
#
#
# Convention : Reuss Voigt Hill
#
# Bulk Modulus (GPa) = 43.93402 47.10432 45.51917
# Shear Modulus (GPa) = 24.43977 27.79470 26.11723
#
# Velocity S-wave (km/s) = 3.36301 3.58641 3.47650
# Velocity P-wave (km/s) = 5.95070 6.24083 6.09749
#
# Compressibility (1/GPa) = 0.02276140
#
# Stress axis : x y z
#
# Youngs Moduli (GPa) = 69.34896 43.90960 91.98648
#
# Poissons Ratio (x) = 0.36809 0.14921
# Poissons Ratio (y) = 0.58134 0.24348
# Poissons Ratio (z) = 0.11249 0.11622
#
# Static dielectric constant tensor:
#      x y z
#    x 4.308970 0.000030 -0.016210 
#    y 0.000030 3.562280 -0.000080 
#    z -0.016210 -0.000080 4.312920 
# 
# 
# High freq. dielectric constant tensor:
#      x y z
#    x 1.858290 0.000000 0.003400 
#    y 0.000000 1.816520 -0.000010 
#    z 0.003400 -0.000010 1.860590 
# 
# From -- ./inp_files/69454.got.cif
#   From: 2010.03.12/outbox.cif.g09.slc.cpg/sg5_35_cif.got.tgz:69454.got - 2010.03.31 09:47:26.
