data_PCOD8049970
_publ_section_title
;
Structure prediction by ZEFSAII (Michael W. Deem and Ramdas Pophale) SiO2 
 PCOD8049970
Probable space group: C 2
;
_chemical_formula_sum "Si O2"
_cell_formula_units_Z 26
_cell_length_a 10.912417
_cell_length_b 9.604366
_cell_length_c 22.858903
_cell_angle_alpha 90.000000
_cell_angle_beta 32.840241
_cell_angle_gamma 90.000000
_cell_volume 1299.222083
_symmetry_space_group_name_H-M "C 2"
_symmetry_group_IT_number 5
_symmetry_cell_setting 'monoclinic'
loop_
_space_group_symop_operation_xyz
x,y,z
-x,y,-z
1/2+x,1/2+y,z
1/2-x,1/2+y,-z
loop_
_atom_site_type_symbol
_atom_site_label
_atom_site_fract_x
_atom_site_fract_y
_atom_site_fract_z
Si Si1 0.500000 0.175681 0.500000
Si Si2 0.500000 0.234032 0.000000
Si Si3 0.395811 0.554675 0.274934
Si Si4 0.500000 0.645500 0.500000
Si Si5 0.708568 0.794995 0.308334
Si Si6 0.664528 0.905235 0.622533
Si Si7 0.667249 0.065392 0.826254
Si Si8 0.483175 0.833183 0.820661
O O1 0.639355 0.078346 0.400082
O O2 0.324133 0.277776 0.537478
O O3 0.515099 0.130528 0.938454
O O4 0.711753 0.338360 0.922783
O O5 0.411212 0.398718 0.244668
O O6 0.573003 0.559924 0.257267
O O7 0.452872 0.668726 0.201894
O O8 0.565029 0.744750 0.420865
O O9 0.290330 0.551319 0.561922
O O10 0.560423 0.891157 0.324686
O O11 0.835258 0.666560 0.228158
O O12 0.606477 0.895114 0.714418
O O13 0.567002 0.916654 0.844734
#
# Coordination Sequence:
#
# PCOD8049970 Si02
#       8
#     2   2   4   2   4   4   4   4
#     4   9  17  38  54  86 122 168 214 246 308 374
#     4  10  22  42  70 100 120 170 218 272 338 374
#     4  10  23  39  61  95 128 173 215 260 322 378
#     4  11  25  36  60 102 130 174 216 256 320 374
#     4  12  23  39  63  94 132 169 217 264 310 386
#     4  10  21  39  62  89 129 174 213 261 317 374
#     4  11  23  45  67  93 134 162 218 275 322 391
#     4  10  21  46  69  90 130 172 210 275 331 381
#
# _framework density 20.011975
#
# number of rings (size 3 to 8) (size 9 to 14) (size 15 to 20)
#    0.000    1.538    6.154    0.462    2.154    4.923 
#    0.000    0.000    0.000    0.000    0.000    0.000 
#    0.000    0.000    0.000    0.000    0.000    0.000 
#
# Total GULP energy -161160.069765 kJ/mol
# GULP energy per Si atom -12396.928443 kJ/mol
# Density = 1.996643 g / cm^3
# Si number density = 20.011975 Si / 1000 Ang^3
#
#
#
# Elastic Constant Matrix: (Units=GPa)
#
#
# Indices 1 2 3 4 5 6 
#
# 1 62.0501 48.7195 29.9536 -0.0002 8.3103 0.0000
# 2 48.7195 117.8474 29.7828 0.0001 0.8235 0.0000
# 3 29.9536 29.7828 92.9786 0.0005 -2.7300 0.0000
# 4 -0.0002 0.0001 0.0005 15.5899 0.0002 1.7785
# 5 8.3103 0.8235 -2.7300 0.0002 33.1291 0.0000
# 6 0.0000 0.0000 0.0000 1.7785 0.0000 44.7668
#
#
#
# Elastic Compliance Matrix: (Units=1/GPa)
#
#
# Indices 1 2 3 4 5 6 
#
# 1 0.027747 -0.009910 -0.005976 0.000001 -0.007206 0.000000
# 2 -0.009910 0.012780 -0.000839 0.000000 0.002099 0.000000
# 3 -0.005976 -0.000839 0.013025 -0.000001 0.002593 0.000000
# 4 0.000001 0.000000 -0.000001 0.064436 -0.000001 -0.002560
# 5 -0.007206 0.002099 0.002593 -0.000001 0.032154 0.000000
# 6 0.000000 0.000000 0.000000 -0.002560 0.000000 0.022440
#
#
# Mechanical properties :
#
#
# Convention : Reuss Voigt Hill
#
# Bulk Modulus (GPa) = 49.74851 54.42086 52.08469
# Shear Modulus (GPa) = 23.50349 29.65854 26.58101
#
# Velocity S-wave (km/s) = 3.43077 3.85390 3.64848
# Velocity P-wave (km/s) = 6.37236 6.85978 6.62056
#
# Compressibility (1/GPa) = 0.02010110
#
# Stress axis : x y z
#
# Youngs Moduli (GPa) = 36.03962 78.24679 76.77317
#
# Poissons Ratio (x) = 0.77546 0.45880
# Poissons Ratio (y) = 0.35717 0.06444
# Poissons Ratio (z) = 0.21537 0.06568
#
# Static dielectric constant tensor:
#      x y z
#    x 3.497290 0.000000 -0.021710 
#    y 0.000000 3.669000 0.000000 
#    z -0.021710 0.000000 3.682330 
# 
# 
# High freq. dielectric constant tensor:
#      x y z
#    x 1.764730 0.000000 -0.005030 
#    y 0.000000 1.784680 0.000000 
#    z -0.005030 0.000000 1.778540 
# 
# From -- ./inp_files/47278.got.cif
#   From: 2010.03.12/outbox.cif.g09.slc.cpg/sg5_24_cif.got.tgz:47278.got - 2010.03.31 09:47:26.
