data_PCOD8049724
_publ_section_title
;
Structure prediction by ZEFSAII (Michael W. Deem and Ramdas Pophale) SiO2 
 PCOD8049724
Probable space group: C 2
;
_chemical_formula_sum "Si O2"
_cell_formula_units_Z 30
_cell_length_a 16.789088
_cell_length_b 13.905045
_cell_length_c 11.761200
_cell_angle_alpha 90.000000
_cell_angle_beta 31.231717
_cell_angle_gamma 90.000000
_cell_volume 1423.640259
_symmetry_space_group_name_H-M "C 2"
_symmetry_group_IT_number 5
_symmetry_cell_setting 'monoclinic'
loop_
_space_group_symop_operation_xyz
x,y,z
-x,y,-z
1/2+x,1/2+y,z
1/2-x,1/2+y,-z
loop_
_atom_site_type_symbol
_atom_site_label
_atom_site_fract_x
_atom_site_fract_y
_atom_site_fract_z
Si Si1 0.616636 0.802490 0.444449
Si Si2 0.663268 0.108444 0.265033
Si Si3 0.874405 0.490658 0.900412
Si Si4 0.174720 0.101479 0.310327
Si Si5 0.325986 0.479055 0.247844
Si Si6 0.883085 0.269638 0.919511
Si Si7 0.500000 0.834577 0.000000
Si Si8 0.187831 0.491882 0.649289
O O1 0.500000 0.854461 0.500000
O O2 0.700855 0.716431 0.274580
O O3 0.734600 0.880321 0.342541
O O4 0.521461 0.750148 0.662654
O O5 0.500000 0.155198 0.500000
O O6 0.622549 0.016868 0.235841
O O7 0.756288 0.068607 0.261487
O O8 0.751256 0.188444 0.080661
O O9 0.825466 0.379008 0.969370
O O10 0.034836 0.517204 0.765131
O O11 0.750364 0.556404 0.109163
O O12 0.000000 0.072339 0.500000
O O13 0.251999 0.068615 0.333901
O O14 0.321233 0.489720 0.390813
O O15 0.500000 0.462843 0.000000
O O16 0.945837 0.262204 0.970132
O O17 0.644557 0.897292 0.775953
#
# Coordination Sequence:
#
# PCOD8049724 Si02
#       8
#     4   4   4   4   4   4   2   4
#     4  11  23  46  68  97 139 183 226 283 346 407
#     4  12  25  44  68 104 142 180 227 285 349 413
#     4  11  22  46  70  92 137 188 223 276 343 416
#     4  11  24  39  71 103 132 173 230 285 340 402
#     4  12  27  43  69 103 141 182 226 288 347 404
#     4  11  23  42  71  96 131 185 231 276 346 407
#     4  10  20  44  70  92 132 188 224 278 342 406
#     4  11  21  45  68  97 131 180 224 275 344 403
#
# _framework density 21.072738000000001
#
# number of rings (size 3 to 8) (size 9 to 14) (size 15 to 20)
#    0.000    0.800    6.667    2.800    4.667    1.600 
#    0.000    1.333    0.000    0.000    0.000    0.000 
#    0.000    0.000    0.000    0.000    0.000    0.000 
#
# Total GULP energy -185858.109927 kJ/mol
# GULP energy per Si atom -12390.540662 kJ/mol
# Density = 2.102478 g / cm^3
# Si number density = 21.072738 Si / 1000 Ang^3
#
#
#
# Elastic Constant Matrix: (Units=GPa)
#
#
# Indices 1 2 3 4 5 6 
#
# 1 86.9451 12.2397 6.7882 0.0001 2.3619 -0.0002
# 2 12.2397 89.7760 30.3867 0.0000 -8.1752 -0.0001
# 3 6.7882 30.3867 113.3838 0.0001 -5.4896 -0.0002
# 4 0.0001 0.0000 0.0001 37.4570 0.0000 3.8562
# 5 2.3619 -8.1752 -5.4896 0.0000 29.9032 0.0000
# 6 -0.0002 -0.0001 -0.0002 3.8562 0.0000 25.5721
#
#
#
# Elastic Compliance Matrix: (Units=1/GPa)
#
#
# Indices 1 2 3 4 5 6 
#
# 1 0.011796 -0.001624 -0.000341 0.000000 -0.001438 0.000000
# 2 -0.001624 0.012705 -0.003162 0.000000 0.003021 0.000000
# 3 -0.000341 -0.003162 0.009733 0.000000 0.000949 0.000000
# 4 0.000000 0.000000 0.000000 0.027118 0.000000 -0.004089
# 5 -0.001438 0.003021 0.000949 0.000000 0.034555 0.000000
# 6 0.000000 0.000000 0.000000 -0.004089 0.000000 0.039722
#
#
# Mechanical properties :
#
#
# Convention : Reuss Voigt Hill
#
# Bulk Modulus (GPa) = 41.69722 43.21489 42.45606
# Shear Modulus (GPa) = 32.49371 34.63247 33.56309
#
# Velocity S-wave (km/s) = 3.93106 4.05837 3.99523
# Velocity P-wave (km/s) = 6.35882 6.52016 6.44000
#
# Compressibility (1/GPa) = 0.02398241
#
# Stress axis : x y z
#
# Youngs Moduli (GPa) = 84.77612 78.70629 102.74055
#
# Poissons Ratio (x) = 0.12781 0.03500
# Poissons Ratio (y) = 0.13766 0.32482
# Poissons Ratio (z) = 0.02888 0.24883
#
# Static dielectric constant tensor:
#      x y z
#    x 4.025220 0.000000 0.259920 
#    y 0.000000 3.661770 0.000000 
#    z 0.259920 0.000000 4.062230 
# 
# 
# High freq. dielectric constant tensor:
#      x y z
#    x 1.838200 0.000000 0.022720 
#    y 0.000000 1.817370 0.000000 
#    z 0.022720 0.000000 1.831990 
# 
# From -- ./inp_files/44902.got.cif
#   From: 2010.03.12/outbox.cif.g09.slc.cpg/sg5_23_cif.got.tgz:44902.got - 2010.03.31 09:47:26.
