data_PCOD8049816
_publ_section_title
;
Structure prediction by ZEFSAII (Michael W. Deem and Ramdas Pophale) SiO2 
 PCOD8049816
Probable space group: C 2
;
_chemical_formula_sum "Si O2"
_cell_formula_units_Z 32
_cell_length_a 14.644775
_cell_length_b 12.307892
_cell_length_c 14.670610
_cell_angle_alpha 90.000000
_cell_angle_beta 142.669870
_cell_angle_gamma 90.000000
_cell_volume 1603.535184
_symmetry_space_group_name_H-M "C 2"
_symmetry_group_IT_number 5
_symmetry_cell_setting 'monoclinic'
loop_
_space_group_symop_operation_xyz
x,y,z
-x,y,-z
1/2+x,1/2+y,z
1/2-x,1/2+y,-z
loop_
_atom_site_type_symbol
_atom_site_label
_atom_site_fract_x
_atom_site_fract_y
_atom_site_fract_z
Si Si1 0.371424 0.548340 0.605038
Si Si2 0.370052 0.833608 0.966530
Si Si3 0.360003 0.027971 0.081680
Si Si4 0.627285 0.688971 0.856215
Si Si5 0.529901 0.352916 0.630018
Si Si6 0.884957 0.888177 0.774248
Si Si7 0.780319 0.880869 0.891092
Si Si8 0.897607 0.689154 0.666564
O O1 0.457997 0.662232 0.691150
O O2 0.457002 0.466956 0.604147
O O3 0.340625 0.489428 0.676428
O O4 0.213977 0.588831 0.439443
O O5 0.208758 0.849892 0.790594
O O6 0.500000 0.798880 0.000000
O O7 0.359339 0.739607 0.032850
O O8 0.425496 0.943615 0.060110
O O9 0.461142 0.133680 0.172704
O O10 0.333989 0.969058 0.157994
O O11 0.201841 0.070075 0.917189
O O12 0.705936 0.762936 0.842419
O O13 0.500000 0.338060 0.500000
O O14 0.448547 0.252570 0.616152
O O15 0.800074 0.906573 0.801260
O O16 0.829862 0.776085 0.684258
O O17 0.064550 0.883624 0.929581
#
# Coordination Sequence:
#
# PCOD8049816 Si02
#       8
#     4   4   4   4   4   4   4   4
#     4  11  24  41  63  88 127 166 196 249 313 368
#     4  11  25  39  65  96 122 159 213 259 299 367
#     4  11  20  41  63  88 121 159 206 250 303 354
#     4  11  20  41  63  88 121 159 206 250 303 354
#     4  11  25  43  59  92 134 159 202 262 308 360
#     4  10  21  40  60  92 121 151 204 251 305 352
#     4  10  21  36  66  92 117 151 202 263 291 352
#     4  11  24  41  63  88 127 166 196 249 313 368
#
# _framework density 19.955907
#
# number of rings (size 3 to 8) (size 9 to 14) (size 15 to 20)
#    0.000    1.250    5.000    1.500    3.500    7.000 
#    0.000    1.250    0.000    0.000    0.000    0.000 
#    0.000    0.000    0.000    0.000    0.000    0.000 
#
# Total GULP energy -198416.813645 kJ/mol
# GULP energy per Si atom -12401.050853 kJ/mol
# Density = 1.991049 g / cm^3
# Si number density = 19.955907 Si / 1000 Ang^3
#
#
#
# Elastic Constant Matrix: (Units=GPa)
#
#
# Indices 1 2 3 4 5 6 
#
# 1 46.2087 -7.9254 17.5255 0.0000 12.5001 0.0000
# 2 -7.9254 64.0220 14.0422 0.0000 10.8003 0.0000
# 3 17.5255 14.0422 69.0053 0.0000 0.6460 0.0000
# 4 0.0000 0.0000 0.0000 38.3215 0.0000 5.5736
# 5 12.5001 10.8003 0.6460 0.0000 23.3959 0.0000
# 6 0.0000 0.0000 0.0000 5.5736 0.0000 12.1800
#
#
#
# Elastic Compliance Matrix: (Units=1/GPa)
#
#
# Indices 1 2 3 4 5 6 
#
# 1 0.033282 0.010120 -0.010305 0.000000 -0.022169 0.000000
# 2 0.010120 0.020840 -0.006672 0.000000 -0.014843 0.000000
# 3 -0.010305 -0.006672 0.018391 0.000000 0.008078 0.000000
# 4 0.000000 0.000000 0.000000 0.027956 0.000000 -0.012793
# 5 -0.022169 -0.014843 0.008078 0.000000 0.061216 0.000000
# 6 0.000000 0.000000 0.000000 -0.012793 0.000000 0.087956
#
#
# Mechanical properties :
#
#
# Convention : Reuss Voigt Hill
#
# Bulk Modulus (GPa) = 17.00697 25.16895 21.08796
# Shear Modulus (GPa) = 17.67076 25.15238 21.41157
#
# Velocity S-wave (km/s) = 2.97895 3.55406 3.27914
# Velocity P-wave (km/s) = 4.51364 5.42968 4.99271
#
# Compressibility (1/GPa) = 0.05879943
#
# Stress axis : x y z
#
# Youngs Moduli (GPa) = 30.04632 47.98516 54.37493
#
# Poissons Ratio (x) = -0.48561 0.56031
# Poissons Ratio (y) = -0.30407 0.36279
# Poissons Ratio (z) = 0.30961 0.32016
#
# Static dielectric constant tensor:
#      x y z
#    x 3.527570 0.000000 -0.003970 
#    y 0.000000 3.610900 0.000000 
#    z -0.003970 0.000000 3.507470 
# 
# 
# High freq. dielectric constant tensor:
#      x y z
#    x 1.773980 0.000000 -0.001600 
#    y 0.000000 1.791020 0.000000 
#    z -0.001600 0.000000 1.773230 
# 
# From -- ./inp_files/54569.got.cif
#   From: 2010.03.12/outbox.cif.g09.slc.cpg/sg5_28_cif.got.tgz:54569.got - 2010.03.31 09:47:26.
