data_PCOD8049822
_publ_section_title
;
Structure prediction by ZEFSAII (Michael W. Deem and Ramdas Pophale) SiO2 
 PCOD8049822
Probable space group: C 2
;
_chemical_formula_sum "Si O2"
_cell_formula_units_Z 30
_cell_length_a 15.401769
_cell_length_b 9.557002
_cell_length_c 20.496762
_cell_angle_alpha 90.000000
_cell_angle_beta 28.763820
_cell_angle_gamma 90.000000
_cell_volume 1451.788536
_symmetry_space_group_name_H-M "C 2"
_symmetry_group_IT_number 5
_symmetry_cell_setting 'monoclinic'
loop_
_space_group_symop_operation_xyz
x,y,z
-x,y,-z
1/2+x,1/2+y,z
1/2-x,1/2+y,-z
loop_
_atom_site_type_symbol
_atom_site_label
_atom_site_fract_x
_atom_site_fract_y
_atom_site_fract_z
Si Si1 0.591658 0.741300 0.537030
Si Si2 0.965346 0.706028 0.613362
Si Si3 0.306658 0.507634 0.723579
Si Si4 0.029441 0.488438 0.141252
Si Si5 0.368023 0.487689 0.831611
Si Si6 0.390595 0.748083 0.326112
Si Si7 0.986470 0.694979 0.275054
Si Si8 0.500000 0.974486 0.500000
O O1 0.438282 0.633312 0.614478
O O2 0.561564 0.794289 0.631129
O O3 0.775915 0.652041 0.412928
O O4 0.608362 0.875235 0.478430
O O5 0.180014 0.712592 0.459396
O O6 0.921994 0.659329 0.715828
O O7 0.881029 0.583113 0.622938
O O8 0.880443 0.856291 0.651897
O O9 0.115568 0.538481 0.816454
O O10 0.280715 0.512861 0.818274
O O11 0.945352 0.368210 0.240593
O O12 0.086912 0.615472 0.150804
O O13 0.210984 0.445596 0.985064
O O14 0.486724 0.617850 0.776138
O O15 0.507350 0.360765 0.738298
#
# Coordination Sequence:
#
# PCOD8049822 Si02
#       8
#     4   4   4   4   4   4   4   2
#     4  10  21  37  56  82 111 143 179 230 283 320
#     4  10  21  37  56  82 111 143 179 230 283 320
#     4  10  22  38  57  81 113 145 183 226 276 331
#     4  12  21  35  58  84 111 148 186 224 266 327
#     4  10  22  39  55  79 113 152 185 219 268 330
#     4  10  21  37  57  79 110 145 185 227 271 325
#     4  10  21  37  57  79 110 145 185 227 271 325
#     4  12  20  30  52  84 112 130 168 222 282 328
#
# _framework density 20.664166000000002
#
# number of rings (size 3 to 8) (size 9 to 14) (size 15 to 20)
#    0.000    1.600    0.000    5.200    0.000    5.867 
#    0.000    0.000    0.000    0.000    0.000   20.533 
#    0.000    0.000    0.000    0.000    0.000    0.000 
#
# Total GULP energy -185946.109239 kJ/mol
# GULP energy per Si atom -12396.407283 kJ/mol
# Density = 2.061713 g / cm^3
# Si number density = 20.664166 Si / 1000 Ang^3
#
#
#
# Elastic Constant Matrix: (Units=GPa)
#
#
# Indices 1 2 3 4 5 6 
#
# 1 65.3809 25.7900 25.4090 0.0029 12.1652 -0.0010
# 2 25.7900 81.7360 13.3542 0.0036 18.2376 -0.0014
# 3 25.4090 13.3542 83.7358 0.0060 7.0177 -0.0020
# 4 0.0029 0.0036 0.0060 26.1841 -0.0022 8.2764
# 5 12.1652 18.2376 7.0177 -0.0022 25.6151 0.0008
# 6 -0.0010 -0.0014 -0.0020 8.2764 0.0008 33.0836
#
#
#
# Elastic Compliance Matrix: (Units=1/GPa)
#
#
# Indices 1 2 3 4 5 6 
#
# 1 0.019846 -0.004347 -0.004911 -0.000001 -0.004985 0.000001
# 2 -0.004347 0.015680 -0.000429 -0.000003 -0.008982 0.000001
# 3 -0.004911 -0.000429 0.013592 -0.000003 -0.001086 0.000001
# 4 -0.000001 -0.000003 -0.000003 0.041470 0.000007 -0.010374
# 5 -0.004985 -0.008982 -0.001086 0.000007 0.048100 -0.000004
# 6 0.000001 0.000001 0.000001 -0.010374 -0.000004 0.032822
#
#
# Mechanical properties :
#
#
# Convention : Reuss Voigt Hill
#
# Bulk Modulus (GPa) = 33.62029 39.99546 36.80787
# Shear Modulus (GPa) = 24.90054 28.06318 26.48186
#
# Velocity S-wave (km/s) = 3.47509 3.68918 3.58374
# Velocity P-wave (km/s) = 5.69270 6.12730 5.91399
#
# Compressibility (1/GPa) = 0.02974394
#
# Stress axis : x y z
#
# Youngs Moduli (GPa) = 50.38834 63.77375 73.57300
#
# Poissons Ratio (x) = 0.27725 0.36132
# Poissons Ratio (y) = 0.21906 0.03155
# Poissons Ratio (z) = 0.24746 0.02734
#
# Static dielectric constant tensor:
#      x y z
#    x 3.921560 0.000000 0.337900 
#    y 0.000000 3.732580 0.000000 
#    z 0.337900 0.000000 3.539750 
# 
# 
# High freq. dielectric constant tensor:
#      x y z
#    x 1.818290 0.000000 0.023890 
#    y 0.000000 1.813740 0.000000 
#    z 0.023890 0.000000 1.787190 
# 
# From -- ./inp_files/66607.got.cif
#   From: 2010.03.12/outbox.cif.g09.slc.cpg/sg5_34_cif.got.tgz:66607.got - 2010.03.31 09:47:26.
