data_PCOD8049295
_publ_section_title
;
Structure prediction by ZEFSAII (Michael W. Deem and Ramdas Pophale) SiO2 
 PCOD8049295
Probable space group: C 2
;
_chemical_formula_sum "Si O2"
_cell_formula_units_Z 30
_cell_length_a 17.223740
_cell_length_b 9.178561
_cell_length_c 18.848041
_cell_angle_alpha 90.000000
_cell_angle_beta 149.494938
_cell_angle_gamma 90.000000
_cell_volume 1512.524031
_symmetry_space_group_name_H-M "C 2"
_symmetry_group_IT_number 5
_symmetry_cell_setting 'monoclinic'
loop_
_space_group_symop_operation_xyz
x,y,z
-x,y,-z
1/2+x,1/2+y,z
1/2-x,1/2+y,-z
loop_
_atom_site_type_symbol
_atom_site_label
_atom_site_fract_x
_atom_site_fract_y
_atom_site_fract_z
Si Si1 0.578973 0.507450 0.495688
Si Si2 0.685570 0.461925 0.375822
Si Si3 0.221701 0.126092 0.799499
Si Si4 0.500000 0.917842 0.000000
Si Si5 0.341431 0.532138 0.103873
Si Si6 0.673454 0.802932 0.634927
Si Si7 0.415448 0.798997 0.084542
Si Si8 0.202506 0.292847 0.408953
O O1 0.500000 0.429306 0.500000
O O2 0.448248 0.561611 0.340441
O O3 0.680292 0.644255 0.602525
O O4 0.672906 0.384003 0.533345
O O5 0.504619 0.455231 0.248929
O O6 0.718245 0.418576 0.319503
O O7 0.787656 0.348289 0.502108
O O8 0.746672 0.623311 0.441041
O O9 0.226627 0.141789 0.888516
O O10 0.234338 0.276391 0.764014
O O11 0.350747 0.016494 0.872068
O O12 0.479914 0.820468 0.055501
O O13 0.356899 0.631601 0.045383
O O14 0.220507 0.404732 0.000321
O O15 0.500000 0.862900 0.500000
O O16 0.541165 0.822385 0.244826
#
# Coordination Sequence:
#
# PCOD8049295 Si02
#       8
#     4   4   4   2   4   4   4   4
#     4   9  17  33  58  82 116 154 197 240 291 351
#     4  11  23  37  62  91 124 156 201 248 303 352
#     4   9  18  36  60  83 113 162 200 232 292 358
#     4  10  20  38  58  86 118 160 202 242 292 362
#     4  10  22  41  62  87 118 161 199 250 293 360
#     4   9  20  35  61  86 119 154 194 248 296 357
#     4  10  23  39  61  85 120 154 204 246 299 351
#     4  11  22  37  59  90 123 159 199 250 297 359
#
# _framework density 19.834395000000001
#
# number of rings (size 3 to 8) (size 9 to 14) (size 15 to 20)
#    0.000    2.400    1.333    2.400    5.600    4.800 
#    0.000    2.667    0.000    0.000    0.000    0.000 
#    0.000    0.000    0.000    0.000    0.000    0.000 
#
# Total GULP energy -185844.135543 kJ/mol
# GULP energy per Si atom -12389.609036 kJ/mol
# Density = 1.978925 g / cm^3
# Si number density = 19.834395 Si / 1000 Ang^3
#
#
#
# Elastic Constant Matrix: (Units=GPa)
#
#
# Indices 1 2 3 4 5 6 
#
# 1 103.9632 36.9303 24.3697 0.0000 4.6485 0.0000
# 2 36.9303 82.9677 37.3231 0.0001 6.7745 0.0000
# 3 24.3697 37.3231 64.4281 0.0000 -2.2266 -0.0001
# 4 0.0000 0.0001 0.0000 14.0260 0.0000 -10.5595
# 5 4.6485 6.7745 -2.2266 0.0000 22.4742 -0.0001
# 6 0.0000 0.0000 -0.0001 -10.5595 -0.0001 39.2071
#
#
#
# Elastic Compliance Matrix: (Units=1/GPa)
#
#
# Indices 1 2 3 4 5 6 
#
# 1 0.011632 -0.004147 -0.002044 0.000000 -0.001358 0.000000
# 2 -0.004147 0.018589 -0.009396 0.000000 -0.005677 0.000000
# 3 -0.002044 -0.009396 0.021925 0.000000 0.005427 0.000000
# 4 0.000000 0.000000 0.000000 0.089429 0.000000 0.024085
# 5 -0.001358 -0.005677 0.005427 0.000000 0.047025 0.000000
# 6 0.000000 0.000000 0.000000 0.024085 0.000000 0.031992
#
#
# Mechanical properties :
#
#
# Convention : Reuss Voigt Hill
#
# Bulk Modulus (GPa) = 47.68457 49.84502 48.76480
# Shear Modulus (GPa) = 19.32304 25.32386 22.32345
#
# Velocity S-wave (km/s) = 3.12463 3.57706 3.35847
# Velocity P-wave (km/s) = 6.09191 6.49966 6.29909
#
# Compressibility (1/GPa) = 0.02097114
#
# Stress axis : x y z
#
# Youngs Moduli (GPa) = 85.97100 53.79456 45.60943
#
# Poissons Ratio (x) = 0.22308 0.09324
# Poissons Ratio (y) = 0.35652 0.42856
# Poissons Ratio (z) = 0.17575 0.50547
#
# Static dielectric constant tensor:
#      x y z
#    x 4.057580 0.000000 -0.284020 
#    y 0.000000 3.444730 0.000000 
#    z -0.284020 0.000000 4.094880 
# 
# 
# High freq. dielectric constant tensor:
#      x y z
#    x 1.791040 0.000000 0.002740 
#    y 0.000000 1.746410 0.000000 
#    z 0.002740 0.000000 1.768360 
# 
# From -- ./inp_files/66610.got.cif
#   From: 2010.03.12/outbox.cif.g09.slc.cpg/sg5_34_cif.got.tgz:66610.got - 2010.03.31 09:47:26.
