data_PCOD8049287
_publ_section_title
;
Structure prediction by ZEFSAII (Michael W. Deem and Ramdas Pophale) SiO2 
 PCOD8049287
Probable space group: C 2
;
_chemical_formula_sum "Si O2"
_cell_formula_units_Z 28
_cell_length_a 13.595841
_cell_length_b 8.280426
_cell_length_c 19.784153
_cell_angle_alpha 90.000000
_cell_angle_beta 145.279458
_cell_angle_gamma 90.000000
_cell_volume 1268.605423
_symmetry_space_group_name_H-M "C 2"
_symmetry_group_IT_number 5
_symmetry_cell_setting 'monoclinic'
loop_
_space_group_symop_operation_xyz
x,y,z
-x,y,-z
1/2+x,1/2+y,z
1/2-x,1/2+y,-z
loop_
_atom_site_type_symbol
_atom_site_label
_atom_site_fract_x
_atom_site_fract_y
_atom_site_fract_z
Si Si1 0.831826 0.972840 0.641981
Si Si2 0.500000 0.499454 0.500000
Si Si3 0.999471 0.580121 0.135096
Si Si4 0.957291 0.486561 0.625004
Si Si5 0.161945 0.318665 0.319322
Si Si6 0.500000 0.901793 0.000000
Si Si7 0.817393 0.270752 0.332455
Si Si8 0.862352 0.752889 0.186336
O O1 0.729601 0.018955 0.515394
O O2 0.727996 0.823152 0.616347
O O3 0.032803 0.921671 0.750433
O O4 0.832697 0.128278 0.692370
O O5 0.351247 0.384738 0.443140
O O6 0.440404 0.614355 0.404529
O O7 0.863907 0.664270 0.112052
O O8 0.079687 0.417548 0.211747
O O9 0.935820 0.516051 0.026356
O O10 0.140617 0.716470 0.196774
O O11 0.100894 0.427162 0.654319
O O12 0.029495 0.648006 0.699152
O O13 0.947515 0.345048 0.674648
O O14 0.667870 0.785549 0.103846
#
# Coordination Sequence:
#
# PCOD8049287 Si02
#       8
#     4   2   4   4   4   2   4   4
#     4  11  22  39  66 102 141 183 214 286 353 430
#     4  10  20  38  54  90 142 180 208 274 330 428
#     4   9  24  48  65  99 131 181 241 296 346 413
#     4  11  22  39  64 103 137 178 221 274 360 426
#     4  10  24  35  63  94 140 175 226 286 342 421
#     4  12  26  50  80  90 142 198 236 304 362 390
#     4  10  21  39  64  94 139 175 226 277 345 422
#     4  10  26  47  69 105 141 175 248 290 343 437
#
# _framework density 22.071480999999999
#
# number of rings (size 3 to 8) (size 9 to 14) (size 15 to 20)
#    0.000    1.714    1.429    1.714    8.000    3.429 
#    5.143    0.000    0.000    0.000    0.000    0.000 
#    0.000    0.000    0.000    0.000    0.000    0.000 
#
# Total GULP energy -173451.987817 kJ/mol
# GULP energy per Si atom -12389.427701 kJ/mol
# Density = 2.202125 g / cm^3
# Si number density = 22.071481 Si / 1000 Ang^3
#
#
#
# Elastic Constant Matrix: (Units=GPa)
#
#
# Indices 1 2 3 4 5 6 
#
# 1 82.1480 21.8312 42.9395 0.0000 10.3605 0.0000
# 2 21.8312 109.5456 34.2426 0.0000 10.8107 0.0000
# 3 42.9395 34.2426 83.5259 0.0000 4.5625 0.0000
# 4 0.0000 0.0000 0.0000 29.6829 0.0000 0.5704
# 5 10.3605 10.8107 4.5625 0.0000 34.3854 0.0000
# 6 0.0000 0.0000 0.0000 0.5704 0.0000 34.2989
#
#
#
# Elastic Compliance Matrix: (Units=1/GPa)
#
#
# Indices 1 2 3 4 5 6 
#
# 1 0.017199 -0.000393 -0.008466 0.000000 -0.003935 0.000000
# 2 -0.000393 0.010743 -0.004053 0.000000 -0.002721 0.000000
# 3 -0.008466 -0.004053 0.017907 0.000000 0.001449 0.000000
# 4 0.000000 0.000000 0.000000 0.033700 0.000000 -0.000560
# 5 -0.003935 -0.002721 0.001449 0.000000 0.030931 0.000000
# 6 0.000000 0.000000 0.000000 -0.000560 0.000000 0.029165
#
#
# Mechanical properties :
#
#
# Convention : Reuss Voigt Hill
#
# Bulk Modulus (GPa) = 49.93894 52.58292 51.26093
# Shear Modulus (GPa) = 29.04552 31.42051 30.23302
#
# Velocity S-wave (km/s) = 3.63157 3.77713 3.70507
# Velocity P-wave (km/s) = 6.34504 6.54965 6.44816
#
# Compressibility (1/GPa) = 0.02002445
#
# Stress axis : x y z
#
# Youngs Moduli (GPa) = 58.14287 93.08810 55.84398
#
# Poissons Ratio (x) = 0.03658 0.47276
# Poissons Ratio (y) = 0.02285 0.22636
# Poissons Ratio (z) = 0.49222 0.37732
#
# Static dielectric constant tensor:
#      x y z
#    x 3.970920 0.000000 0.074890 
#    y 0.000000 3.912050 0.000000 
#    z 0.074890 0.000000 3.744110 
# 
# 
# High freq. dielectric constant tensor:
#      x y z
#    x 1.866210 0.000000 0.006340 
#    y 0.000000 1.875480 0.000000 
#    z 0.006340 0.000000 1.843460 
# 
# From -- ./inp_files/41511.got.cif
#   From: 2010.03.12/outbox.cif.g09.slc.cpg/sg5_21_cif.got.tgz:41511.got - 2010.03.31 09:47:26.
