data_PCOD8049034
_publ_section_title
;
Structure prediction by ZEFSAII (Michael W. Deem and Ramdas Pophale) SiO2 
 PCOD8049034
Probable space group: C 2
;
_chemical_formula_sum "Si O2"
_cell_formula_units_Z 26
_cell_length_a 8.928204
_cell_length_b 10.006529
_cell_length_c 21.275508
_cell_angle_alpha 90.000000
_cell_angle_beta 40.190783
_cell_angle_gamma 90.000000
_cell_volume 1226.627208
_symmetry_space_group_name_H-M "C 2"
_symmetry_group_IT_number 5
_symmetry_cell_setting 'monoclinic'
loop_
_space_group_symop_operation_xyz
x,y,z
-x,y,-z
1/2+x,1/2+y,z
1/2-x,1/2+y,-z
loop_
_atom_site_type_symbol
_atom_site_label
_atom_site_fract_x
_atom_site_fract_y
_atom_site_fract_z
Si Si1 0.486932 0.810980 0.666619
Si Si2 0.205101 0.910588 0.983488
Si Si3 0.658394 0.110744 0.712188
Si Si4 0.765192 0.694385 0.931460
Si Si5 0.067243 0.318903 0.775170
Si Si6 0.500000 0.223108 0.500000
Si Si7 0.951011 0.602590 0.647804
O O1 0.388468 0.688926 0.658340
O O2 0.406032 0.794364 0.765151
O O3 0.769312 0.813446 0.578255
O O4 0.382788 0.946488 0.670839
O O5 0.414760 0.826949 0.886223
O O6 0.281261 0.064197 0.972538
O O7 0.131967 0.828037 0.068643
O O8 0.000000 0.921549 0.000000
O O9 0.422152 0.167459 0.819648
O O10 0.639378 0.125389 0.642750
O O11 0.702928 0.958257 0.719121
O O12 0.500000 0.726069 0.000000
O O13 0.233105 0.194425 0.733764
O O14 0.540245 0.133225 0.549153
#
# Coordination Sequence:
#
# PCOD8049034 Si02
#       7
#     4   4   4   4   4   2   4
#     4  10  22  40  62  84 111 147 188 230 283 343
#     4  10  20  35  56  81 115 154 192 234 278 325
#     4  10  21  37  59  84 114 153 190 230 281 333
#     4  10  21  36  55  84 118 152 193 235 275 324
#     4   9  20  38  56  82 117 150 187 234 281 329
#     4  10  24  40  58  88 116 138 182 240 288 338
#     4  10  22  39  61  84 112 148 184 232 284 340
#
# _framework density 21.196335000000001
#
# number of rings (size 3 to 8) (size 9 to 14) (size 15 to 20)
#    0.000    2.154    0.000    1.846    0.000   12.308 
#    0.000    0.000    0.000    0.923    0.000    0.000 
#    0.000    0.000    0.000    0.000    0.000    0.000 
#
# Total GULP energy -161134.807030 kJ/mol
# GULP energy per Si atom -12394.985156 kJ/mol
# Density = 2.114809 g / cm^3
# Si number density = 21.196335 Si / 1000 Ang^3
#
#
#
# Elastic Constant Matrix: (Units=GPa)
#
#
# Indices 1 2 3 4 5 6 
#
# 1 75.8914 51.0410 24.9612 0.0001 5.1960 0.0000
# 2 51.0410 112.5725 20.8593 0.0000 7.5616 0.0001
# 3 24.9612 20.8593 53.7896 -0.0002 3.6379 -0.0005
# 4 0.0001 0.0000 -0.0002 24.2338 -0.0001 3.8070
# 5 5.1960 7.5616 3.6379 -0.0001 36.9522 0.0002
# 6 0.0000 0.0001 -0.0005 3.8070 0.0002 36.0919
#
#
#
# Elastic Compliance Matrix: (Units=1/GPa)
#
#
# Indices 1 2 3 4 5 6 
#
# 1 0.020875 -0.008228 -0.006455 0.000000 -0.000616 0.000000
# 2 -0.008228 0.012909 -0.001095 0.000000 -0.001377 0.000000
# 3 -0.006455 -0.001095 0.022082 0.000000 -0.001042 0.000000
# 4 0.000000 0.000000 0.000000 0.041960 0.000000 -0.004426
# 5 -0.000616 -0.001377 -0.001042 0.000000 0.027533 0.000000
# 6 0.000000 0.000000 0.000000 -0.004426 0.000000 0.028174
#
#
# Mechanical properties :
#
#
# Convention : Reuss Voigt Hill
#
# Bulk Modulus (GPa) = 41.13365 48.44181 44.78773
# Shear Modulus (GPa) = 25.88105 29.14837 27.51471
#
# Velocity S-wave (km/s) = 3.49809 3.71234 3.60681
# Velocity P-wave (km/s) = 5.98028 6.42485 6.20655
#
# Compressibility (1/GPa) = 0.02431099
#
# Stress axis : x y z
#
# Youngs Moduli (GPa) = 47.90308 77.46562 45.28676
#
# Poissons Ratio (x) = 0.63735 0.29233
# Poissons Ratio (y) = 0.39413 0.04958
# Poissons Ratio (z) = 0.30922 0.08482
#
# Static dielectric constant tensor:
#      x y z
#    x 3.658760 0.000000 0.199880 
#    y 0.000000 3.903010 0.000000 
#    z 0.199880 0.000000 3.861810 
# 
# 
# High freq. dielectric constant tensor:
#      x y z
#    x 1.819770 0.000000 0.009300 
#    y 0.000000 1.837600 0.000000 
#    z 0.009300 0.000000 1.826150 
# 
# From -- ./inp_files/59317.got.cif
#   From: 2010.03.12/outbox.cif.g09.slc.cpg/sg5_30_cif.got.tgz:59317.got - 2010.03.31 09:47:26.
