data_PCOD8049865
_publ_section_title
;
Structure prediction by ZEFSAII (Michael W. Deem and Ramdas Pophale) SiO2 
 PCOD8049865
Probable space group: C 2
;
_chemical_formula_sum "Si O2"
_cell_formula_units_Z 32
_cell_length_a 8.857037
_cell_length_b 22.242077
_cell_length_c 15.201610
_cell_angle_alpha 90.000000
_cell_angle_beta 28.020912
_cell_angle_gamma 90.000000
_cell_volume 1406.891674
_symmetry_space_group_name_H-M "C 2"
_symmetry_group_IT_number 5
_symmetry_cell_setting 'monoclinic'
loop_
_space_group_symop_operation_xyz
x,y,z
-x,y,-z
1/2+x,1/2+y,z
1/2-x,1/2+y,-z
loop_
_atom_site_type_symbol
_atom_site_label
_atom_site_fract_x
_atom_site_fract_y
_atom_site_fract_z
Si Si1 0.368039 0.025480 0.663684
Si Si2 0.373401 0.154114 0.470995
Si Si3 0.127906 0.441307 0.681570
Si Si4 0.630650 0.221175 0.177047
Si Si5 0.123176 0.854728 0.195404
Si Si6 0.746386 0.815710 0.560394
Si Si7 0.747293 0.208902 0.794072
Si Si8 0.742000 0.970586 0.952624
O O1 0.500000 0.010015 0.500000
O O2 0.484522 0.091324 0.635399
O O3 0.482195 0.978161 0.676276
O O4 0.980849 0.025242 0.854655
O O5 0.500000 0.173705 0.500000
O O6 0.459042 0.207378 0.357805
O O7 0.986492 0.152040 0.681263
O O8 0.500000 0.457139 0.500000
O O9 0.060727 0.370684 0.701501
O O10 0.962602 0.456547 0.857282
O O11 0.584879 0.290295 0.168918
O O12 0.454885 0.188504 0.187611
O O13 0.000000 0.202845 0.000000
O O14 0.011034 0.914450 0.200482
O O15 0.951072 0.847943 0.377513
O O16 0.500000 0.870497 0.000000
O O17 0.477433 0.767987 0.667701
O O18 0.000000 0.786829 0.500000
O O19 0.500000 0.217108 0.000000
O O20 0.500000 0.991264 0.000000
#
# Coordination Sequence:
#
# PCOD8049865 Si02
#       8
#     4   4   4   4   4   4   4   4
#     4  11  25  46  74 101 141 190 243 308 362 423
#     4  11  25  50  72 101 142 187 246 308 362 421
#     4  11  24  42  68 107 146 194 240 294 360 434
#     4  11  25  43  68 102 142 186 244 291 359 426
#     4  10  21  37  67 101 148 194 228 288 359 418
#     4  11  23  40  67 101 151 194 235 294 362 432
#     4  12  27  42  71 104 142 190 243 298 363 432
#     4  11  23  44  71 106 152 186 243 291 364 431
#
# _framework density 22.745176000000001
#
# number of rings (size 3 to 8) (size 9 to 14) (size 15 to 20)
#    0.000    1.000    1.250    6.375    7.000    2.000 
#    0.000    7.500    0.000    0.000    0.000    0.000 
#    0.000    0.000    0.000    0.000    0.000    0.000 
#
# Total GULP energy -198269.795425 kJ/mol
# GULP energy per Si atom -12391.862214 kJ/mol
# Density = 2.269341 g / cm^3
# Si number density = 22.745176 Si / 1000 Ang^3
#
#
#
# Elastic Constant Matrix: (Units=GPa)
#
#
# Indices 1 2 3 4 5 6 
#
# 1 160.3751 32.7994 58.3860 0.0239 -13.3655 -0.0274
# 2 32.7994 92.4111 32.8792 0.0107 -19.8455 -0.0492
# 3 58.3860 32.8792 160.6219 0.3158 -2.2851 -0.3821
# 4 0.0239 0.0107 0.3158 31.5147 -0.0992 1.8852
# 5 -13.3655 -19.8455 -2.2851 -0.0992 45.9288 0.0982
# 6 -0.0274 -0.0492 -0.3821 1.8852 0.0982 22.7134
#
#
#
# Elastic Compliance Matrix: (Units=1/GPa)
#
#
# Indices 1 2 3 4 5 6 
#
# 1 0.007541 -0.001514 -0.002411 0.000026 0.001421 -0.000043
# 2 -0.001514 0.013207 -0.002080 0.000036 0.005163 -0.000034
# 3 -0.002411 -0.002080 0.007511 -0.000084 -0.001227 0.000131
# 4 0.000026 0.000036 -0.000084 0.031891 0.000093 -0.002649
# 5 0.001421 0.005163 -0.001227 0.000093 0.024357 -0.000121
# 6 -0.000043 -0.000034 0.000131 -0.002649 -0.000121 0.044249
#
#
# Mechanical properties :
#
#
# Convention : Reuss Voigt Hill
#
# Bulk Modulus (GPa) = 61.53976 73.50414 67.52195
# Shear Modulus (GPa) = 34.20381 39.32095 36.76238
#
# Velocity S-wave (km/s) = 3.88207 4.16235 4.02465
# Velocity P-wave (km/s) = 6.87087 7.44894 7.16574
#
# Compressibility (1/GPa) = 0.01624966
#
# Stress axis : x y z
#
# Youngs Moduli (GPa) = 132.60510 75.71617 133.13593
#
# Poissons Ratio (x) = 0.11460 0.32104
# Poissons Ratio (y) = 0.20071 0.27693
# Poissons Ratio (z) = 0.31976 0.15749
#
# Static dielectric constant tensor:
#      x y z
#    x 4.200080 0.000130 -0.083560 
#    y 0.000130 4.150910 0.000230 
#    z -0.083560 0.000230 4.232980 
# 
# 
# High freq. dielectric constant tensor:
#      x y z
#    x 1.902390 0.000000 0.002230 
#    y 0.000000 1.889180 0.000010 
#    z 0.002230 0.000010 1.910580 
# 
# From -- ./inp_files/51698.got.cif
#   From: 2010.03.12/outbox.cif.g09.slc.cpg/sg5_26_cif.got.tgz:51698.got - 2010.03.31 09:47:26.
