data_PCOD8049331
_publ_section_title
;
Structure prediction by ZEFSAII (Michael W. Deem and Ramdas Pophale) SiO2 
 PCOD8049331
Probable space group: C 2
;
_chemical_formula_sum "Si O2"
_cell_formula_units_Z 30
_cell_length_a 10.330824
_cell_length_b 13.332552
_cell_length_c 11.495850
_cell_angle_alpha 90.000000
_cell_angle_beta 69.588363
_cell_angle_gamma 90.000000
_cell_volume 1483.975720
_symmetry_space_group_name_H-M "C 2"
_symmetry_group_IT_number 5
_symmetry_cell_setting 'monoclinic'
loop_
_space_group_symop_operation_xyz
x,y,z
-x,y,-z
1/2+x,1/2+y,z
1/2-x,1/2+y,-z
loop_
_atom_site_type_symbol
_atom_site_label
_atom_site_fract_x
_atom_site_fract_y
_atom_site_fract_z
Si Si1 0.355694 0.432040 0.216800
Si Si2 0.500000 0.294737 0.000000
Si Si3 0.657378 0.299657 0.410134
Si Si4 0.322293 0.655117 0.218497
Si Si5 0.845629 0.308846 0.573519
Si Si6 0.241974 0.274432 0.974778
Si Si7 0.159597 0.947261 0.207663
Si Si8 0.115444 0.174222 0.228569
O O1 0.305565 0.539965 0.189482
O O2 0.230857 0.396181 0.334595
O O3 0.495811 0.432642 0.246678
O O4 0.381650 0.363105 0.096631
O O5 0.403142 0.233133 0.940183
O O6 0.500000 0.299203 0.500000
O O7 0.685357 0.202068 0.320626
O O8 0.762103 0.288246 0.483092
O O9 0.694443 0.399683 0.323416
O O10 0.345450 0.709483 0.088243
O O11 0.451281 0.667312 0.264766
O O12 0.851059 0.208601 0.650887
O O13 0.000000 0.346779 0.500000
O O14 0.254824 0.389108 0.921128
O O15 0.166838 0.259089 0.121878
O O16 0.191849 0.066246 0.188794
#
# Coordination Sequence:
#
# PCOD8049331 Si02
#       8
#     4   2   4   4   4   4   4   4
#     4  10  21  39  64  92 120 163 212 258 311 378
#     4  10  20  38  62  88 122 162 206 254 320 378
#     4  11  22  42  64  87 126 169 211 257 312 377
#     4  10  23  38  63  94 121 163 211 259 315 378
#     4  12  24  40  63  92 130 166 209 268 313 361
#     4  10  21  37  64  89 125 156 206 265 314 372
#     4   9  22  40  65  91 119 169 216 253 315 386
#     4  11  22  39  65  92 124 166 213 260 316 380
#
# _framework density 20.215962999999999
#
# number of rings (size 3 to 8) (size 9 to 14) (size 15 to 20)
#    0.000    1.600    4.000    0.400    5.600    2.133 
#    0.000    1.333    5.867    0.000    0.000    0.000 
#    0.000    0.000    0.000    0.000    0.000    0.000 
#
# Total GULP energy -185862.802485 kJ/mol
# GULP energy per Si atom -12390.853499 kJ/mol
# Density = 2.016995 g / cm^3
# Si number density = 20.215963 Si / 1000 Ang^3
#
#
#
# Elastic Constant Matrix: (Units=GPa)
#
#
# Indices 1 2 3 4 5 6 
#
# 1 69.7429 26.9439 29.0295 0.0000 9.0567 0.0000
# 2 26.9439 92.2496 31.7263 0.0000 -5.8502 0.0000
# 3 29.0295 31.7263 108.4449 0.0000 -3.9302 0.0000
# 4 0.0000 0.0000 0.0000 17.8370 0.0000 -0.8624
# 5 9.0567 -5.8502 -3.9302 0.0000 46.2653 0.0000
# 6 0.0000 0.0000 0.0000 -0.8624 0.0000 28.4878
#
#
#
# Elastic Compliance Matrix: (Units=1/GPa)
#
#
# Indices 1 2 3 4 5 6 
#
# 1 0.018131 -0.004282 -0.003760 0.000000 -0.004410 0.000000
# 2 -0.004282 0.013134 -0.002614 0.000000 0.002277 0.000000
# 3 -0.003760 -0.002614 0.011041 0.000000 0.001344 0.000000
# 4 0.000000 0.000000 0.000000 0.056145 0.000000 0.001700
# 5 -0.004410 0.002277 0.001344 0.000000 0.022880 0.000000
# 6 0.000000 0.000000 0.000000 0.001700 0.000000 0.035154
#
#
# Mechanical properties :
#
#
# Convention : Reuss Voigt Hill
#
# Bulk Modulus (GPa) = 47.63328 49.53742 48.58535
# Shear Modulus (GPa) = 27.05694 30.70053 28.87873
#
# Velocity S-wave (km/s) = 3.66238 3.90119 3.78367
# Velocity P-wave (km/s) = 6.44184 6.69699 6.57065
#
# Compressibility (1/GPa) = 0.02099373
#
# Stress axis : x y z
#
# Youngs Moduli (GPa) = 55.15555 76.13772 90.56924
#
# Poissons Ratio (x) = 0.32601 0.34058
# Poissons Ratio (y) = 0.23617 0.23672
# Poissons Ratio (z) = 0.20741 0.19900
#
# Static dielectric constant tensor:
#      x y z
#    x 3.847460 0.000000 0.100990 
#    y 0.000000 3.624710 0.000000 
#    z 0.100990 0.000000 3.862520 
# 
# 
# High freq. dielectric constant tensor:
#      x y z
#    x 1.790990 0.000000 0.011810 
#    y 0.000000 1.769260 0.000000 
#    z 0.011810 0.000000 1.798870 
# 
# From -- ./inp_files/39136.got.cif
#   From: 2010.03.12/outbox.cif.g09.slc.cpg/sg5_20_cif.got.tgz:39136.got - 2010.03.31 09:47:26.
