data_PCOD8049702
_publ_section_title
;
Structure prediction by ZEFSAII (Michael W. Deem and Ramdas Pophale) SiO2 
 PCOD8049702
Probable space group: C 2
;
_chemical_formula_sum "Si O2"
_cell_formula_units_Z 18
_cell_length_a 10.007791
_cell_length_b 8.819220
_cell_length_c 8.048001
_cell_angle_alpha 90.000000
_cell_angle_beta 71.332567
_cell_angle_gamma 90.000000
_cell_volume 672.955434
_symmetry_space_group_name_H-M "C 2"
_symmetry_group_IT_number 5
_symmetry_cell_setting 'monoclinic'
loop_
_space_group_symop_operation_xyz
x,y,z
-x,y,-z
1/2+x,1/2+y,z
1/2-x,1/2+y,-z
loop_
_atom_site_type_symbol
_atom_site_label
_atom_site_fract_x
_atom_site_fract_y
_atom_site_fract_z
Si Si1 0.500000 0.668280 0.500000
Si Si2 0.412300 0.603565 0.879468
Si Si3 0.417825 0.110021 0.363956
Si Si4 0.155014 0.452940 0.094795
Si Si5 0.741755 0.394885 0.606501
O O1 0.503548 0.572073 0.673122
O O2 0.365038 0.771826 0.563640
O O3 0.383854 0.780609 0.926678
O O4 0.500000 0.537318 0.000000
O O5 0.258987 0.523219 0.913501
O O6 0.500000 0.070569 0.500000
O O7 0.398048 0.291097 0.357452
O O8 0.508147 0.047276 0.171311
O O9 0.269462 0.013916 0.443366
O O10 0.252665 0.478778 0.219156
#
# Coordination Sequence:
#
# PCOD8049702 Si02
#       5
#     2   4   4   4   4
#     4  10  22  48  68 102 138 192 232 286 360 418
#     4  11  25  46  74  98 150 191 233 299 355 416
#     4  10  21  41  69 103 142 185 235 295 357 420
#     4  10  24  45  65 106 144 182 244 292 350 427
#     4  10  20  43  71  95 147 182 232 302 347 420
#
# _framework density 26.747686000000002
#
# number of rings (size 3 to 8) (size 9 to 14) (size 15 to 20)
#    0.000    1.778    5.556    0.000    6.222    5.333 
#    2.000    0.000    0.000    0.000    0.000    0.000 
#    0.000    0.000    0.000    0.000    0.000    0.000 
#
# Total GULP energy -111554.184306 kJ/mol
# GULP energy per Si atom -12394.909367 kJ/mol
# Density = 2.668681 g / cm^3
# Si number density = 26.747686 Si / 1000 Ang^3
#
#
#
# Elastic Constant Matrix: (Units=GPa)
#
#
# Indices 1 2 3 4 5 6 
#
# 1 38.1928 11.0123 18.3081 0.0000 -13.9032 0.0000
# 2 11.0123 95.4637 9.2008 0.0000 -14.5679 0.0000
# 3 18.3081 9.2008 126.2872 0.0000 -23.3921 0.0000
# 4 0.0000 0.0000 0.0000 35.2359 0.0000 -9.3457
# 5 -13.9032 -14.5679 -23.3921 0.0000 43.6119 0.0000
# 6 0.0000 0.0000 0.0000 -9.3457 0.0000 40.1942
#
#
#
# Elastic Compliance Matrix: (Units=1/GPa)
#
#
# Indices 1 2 3 4 5 6 
#
# 1 0.030963 -0.002132 -0.002928 0.000000 0.007588 0.000000
# 2 -0.002132 0.011187 0.000067 0.000000 0.003093 0.000000
# 3 -0.002928 0.000067 0.009070 0.000000 0.003954 0.000000
# 4 0.000000 0.000000 0.000000 0.030245 0.000000 0.007032
# 5 0.007588 0.003093 0.003954 0.000000 0.028503 0.000000
# 6 0.000000 0.000000 0.000000 0.007032 0.000000 0.026514
#
#
# Mechanical properties :
#
#
# Convention : Reuss Voigt Hill
#
# Bulk Modulus (GPa) = 24.25102 37.44290 30.84696
# Shear Modulus (GPa) = 31.20838 38.56989 34.88914
#
# Velocity S-wave (km/s) = 3.41951 3.80147 3.61554
# Velocity P-wave (km/s) = 4.96759 5.77037 5.38397
#
# Compressibility (1/GPa) = 0.04123537
#
# Stress axis : x y z
#
# Youngs Moduli (GPa) = 32.29614 89.39227 110.24803
#
# Poissons Ratio (x) = 0.19055 0.32280
# Poissons Ratio (y) = 0.06884 -0.00738
# Poissons Ratio (z) = 0.09456 -0.00598
#
# Static dielectric constant tensor:
#      x y z
#    x 4.931570 0.000000 -0.081370 
#    y 0.000000 4.627290 0.000000 
#    z -0.081370 0.000000 5.204810 
# 
# 
# High freq. dielectric constant tensor:
#      x y z
#    x 2.079470 0.000000 -0.018670 
#    y 0.000000 2.066740 0.000000 
#    z -0.018670 0.000000 2.076410 
# 
# From -- ./inp_files/18206.got.cif
#   From: 2010.03.12/outbox.cif.g09.slc.cpg/sg5_10_cif.got.tgz:18206.got - 2010.03.31 09:47:26.
