data_PCOD8049663
_publ_section_title
;
Structure prediction by ZEFSAII (Michael W. Deem and Ramdas Pophale) SiO2 
 PCOD8049663
Probable space group: C 2
;
_chemical_formula_sum "Si O2"
_cell_formula_units_Z 28
_cell_length_a 15.612540
_cell_length_b 9.364406
_cell_length_c 9.570512
_cell_angle_alpha 90.000000
_cell_angle_beta 52.509961
_cell_angle_gamma 90.000000
_cell_volume 1110.231514
_symmetry_space_group_name_H-M "C 2"
_symmetry_group_IT_number 5
_symmetry_cell_setting 'monoclinic'
loop_
_space_group_symop_operation_xyz
x,y,z
-x,y,-z
1/2+x,1/2+y,z
1/2-x,1/2+y,-z
loop_
_atom_site_type_symbol
_atom_site_label
_atom_site_fract_x
_atom_site_fract_y
_atom_site_fract_z
Si Si1 0.097514 0.088330 0.006003
Si Si2 0.787526 0.375055 0.443066
Si Si3 0.313415 0.181195 0.671747
Si Si4 0.232177 0.651911 0.690807
Si Si5 0.106546 0.960880 0.297840
Si Si6 0.475213 0.875066 0.819880
Si Si7 0.500000 0.974091 0.500000
Si Si8 0.000000 0.612324 0.000000
O O1 0.099515 0.254318 0.044308
O O2 0.082519 0.994213 0.159818
O O3 0.214343 0.078661 0.816532
O O4 0.000000 0.043855 0.000000
O O5 0.699599 0.285642 0.446673
O O6 0.765108 0.545071 0.449979
O O7 0.786559 0.305669 0.600381
O O8 0.902013 0.337363 0.260333
O O9 0.355475 0.294730 0.746512
O O10 0.404496 0.070368 0.533201
O O11 0.298026 0.569008 0.745886
O O12 0.107877 0.697632 0.849276
O O13 0.000000 0.982478 0.500000
O O14 0.448884 0.022407 0.922466
O O15 0.457709 0.880041 0.670722
#
# Coordination Sequence:
#
# PCOD8049663 Si02
#       8
#     4   4   4   4   4   4   2   2
#     4  12  25  46  74 100 138 183 237 291 349 413
#     4  10  20  42  68 101 135 181 228 280 343 416
#     4  11  24  47  68  98 144 186 223 284 357 416
#     4  10  22  39  73 101 141 188 233 286 351 420
#     4  11  25  45  72 100 143 183 232 295 353 412
#     4  11  22  43  70 100 128 182 230 280 332 417
#     4  12  28  42  72 102 140 180 234 280 350 424
#     4  10  20  42  70  96 138 182 226 272 348 418
#
# _framework density 25.219965999999999
#
# number of rings (size 3 to 8) (size 9 to 14) (size 15 to 20)
#    0.000    1.143    2.857    4.286    7.000    0.000 
#    0.000    0.000    1.571    3.429    0.000    0.000 
#    0.000    0.000    0.000    0.000    0.000    0.000 
#
# Total GULP energy -173501.513118 kJ/mol
# GULP energy per Si atom -12392.965223 kJ/mol
# Density = 2.516256 g / cm^3
# Si number density = 25.219966 Si / 1000 Ang^3
#
#
#
# Elastic Constant Matrix: (Units=GPa)
#
#
# Indices 1 2 3 4 5 6 
#
# 1 90.2801 10.7693 14.6422 0.0000 -2.8533 0.0000
# 2 10.7693 52.4994 14.4267 0.0000 -5.4291 0.0000
# 3 14.6422 14.4267 82.3705 0.0000 -5.3454 0.0000
# 4 0.0000 0.0000 0.0000 32.8108 0.0000 7.5990
# 5 -2.8533 -5.4291 -5.3454 0.0000 56.4573 0.0000
# 6 0.0000 0.0000 0.0000 7.5990 0.0000 14.9032
#
#
#
# Elastic Compliance Matrix: (Units=1/GPa)
#
#
# Indices 1 2 3 4 5 6 
#
# 1 0.011587 -0.001881 -0.001715 0.000000 0.000242 0.000000
# 2 -0.001881 0.020461 -0.003147 0.000000 0.001575 0.000000
# 3 -0.001715 -0.003147 0.013051 0.000000 0.000846 0.000000
# 4 0.000000 0.000000 0.000000 0.034559 0.000000 -0.017621
# 5 0.000242 0.001575 0.000846 0.000000 0.017956 0.000000
# 6 0.000000 0.000000 0.000000 -0.017621 0.000000 0.076084
#
#
# Mechanical properties :
#
#
# Convention : Reuss Voigt Hill
#
# Bulk Modulus (GPa) = 31.63104 33.86959 32.75032
# Shear Modulus (GPa) = 25.28809 33.18838 29.23824
#
# Velocity S-wave (km/s) = 3.16998 3.63155 3.40859
# Velocity P-wave (km/s) = 5.09585 5.57163 5.33904
#
# Compressibility (1/GPa) = 0.03161451
#
# Stress axis : x y z
#
# Youngs Moduli (GPa) = 86.30583 48.87285 76.62141
#
# Poissons Ratio (x) = 0.09191 0.13137
# Poissons Ratio (y) = 0.16230 0.24114
# Poissons Ratio (z) = 0.14798 0.15381
#
# Static dielectric constant tensor:
#      x y z
#    x 4.758090 0.000000 -0.069470 
#    y 0.000000 4.421740 0.000000 
#    z -0.069470 0.000000 4.369790 
# 
# 
# High freq. dielectric constant tensor:
#      x y z
#    x 2.013580 0.000000 -0.002860 
#    y 0.000000 1.995730 0.000000 
#    z -0.002860 0.000000 2.003700 
# 
# From -- ./inp_files/23816.got.cif
#   From: 2010.03.12/outbox.cif.g09.slc.cpg/sg5_12_cif.got.tgz:23816.got - 2010.03.31 09:47:26.
