data_PCOD8049025
_publ_section_title
;
Structure prediction by ZEFSAII (Michael W. Deem and Ramdas Pophale) SiO2 
 PCOD8049025
Probable space group: C 2
;
_chemical_formula_sum "Si O2"
_cell_formula_units_Z 24
_cell_length_a 30.103961
_cell_length_b 5.063677
_cell_length_c 13.915027
_cell_angle_alpha 90.000000
_cell_angle_beta 35.713501
_cell_angle_gamma 90.000000
_cell_volume 1238.190889
_symmetry_space_group_name_H-M "C 2"
_symmetry_group_IT_number 5
_symmetry_cell_setting 'monoclinic'
loop_
_space_group_symop_operation_xyz
x,y,z
-x,y,-z
1/2+x,1/2+y,z
1/2-x,1/2+y,-z
loop_
_atom_site_type_symbol
_atom_site_label
_atom_site_fract_x
_atom_site_fract_y
_atom_site_fract_z
Si Si1 0.847195 0.611960 0.152073
Si Si2 0.911561 0.007490 0.667365
Si Si3 0.174585 0.520350 0.208491
Si Si4 0.088509 0.112701 0.859261
Si Si5 0.675123 0.281434 0.017592
Si Si6 0.220338 0.212378 0.505052
O O1 0.877304 0.321708 0.124890
O O2 0.756585 0.641838 0.337310
O O3 0.896955 0.821859 0.124680
O O4 0.858261 0.652843 0.019552
O O5 0.865782 0.788895 0.683965
O O6 0.889789 0.963423 0.818378
O O7 0.000000 0.963739 0.500000
O O8 0.888370 0.293164 0.670557
O O9 0.199440 0.552019 0.051585
O O10 0.249859 0.456126 0.137716
O O11 0.130901 0.148048 0.680490
O O12 0.000000 0.161762 0.000000
O O13 0.233873 0.522480 0.500701
#
# Coordination Sequence:
#
# PCOD8049025 Si02
#       6
#     4   4   4   4   4   4
#     4  10  21  33  59  80 105 142 184 228 251 337
#     4  10  20  35  54  77 108 151 184 222 282 327
#     4  10  20  35  57  76 112 148 181 231 275 321
#     4  10  20  36  56  78 113 141 173 218 289 321
#     4  10  21  36  57  83 107 144 197 220 275 314
#     4   8  16  33  51  76 100 136 170 212 270 314
#
# _framework density 19.383116000000001
#
# number of rings (size 3 to 8) (size 9 to 14) (size 15 to 20)
#    1.000    1.333    1.667    1.000    2.333    0.000 
#    0.000    3.333    0.000    0.000    0.000    0.000 
#    0.000    0.000    0.000    0.000    0.000    0.000 
#
# Total GULP energy -148666.997995 kJ/mol
# GULP energy per Si atom -12388.916500 kJ/mol
# Density = 1.933900 g / cm^3
# Si number density = 19.383116 Si / 1000 Ang^3
#
#
#
# Elastic Constant Matrix: (Units=GPa)
#
#
# Indices 1 2 3 4 5 6 
#
# 1 36.8695 -2.9796 19.2076 0.0317 -1.2283 -0.0117
# 2 -2.9796 86.3695 4.8003 -0.0359 -5.3530 -0.0487
# 3 19.2076 4.8003 116.0123 -0.0718 -24.3797 -0.0178
# 4 0.0317 -0.0359 -0.0718 27.7615 -0.0784 -3.6888
# 5 -1.2283 -5.3530 -24.3797 -0.0784 24.1382 -0.0418
# 6 -0.0117 -0.0487 -0.0178 -3.6888 -0.0418 17.0647
#
#
#
# Elastic Compliance Matrix: (Units=1/GPa)
#
#
# Indices 1 2 3 4 5 6 
#
# 1 0.030157 0.001109 -0.005922 -0.000061 -0.004201 -0.000006
# 2 0.001109 0.011781 -0.000140 0.000027 0.002528 0.000046
# 3 -0.005922 -0.000140 0.012106 0.000079 0.011895 0.000054
# 4 -0.000061 0.000027 0.000079 0.037087 0.000217 0.008018
# 5 -0.004201 0.002528 0.011895 0.000217 0.053790 0.000195
# 6 -0.000006 0.000046 0.000054 0.008018 0.000195 0.060334
#
#
# Mechanical properties :
#
#
# Convention : Reuss Voigt Hill
#
# Bulk Modulus (GPa) = 22.65559 31.25643 26.95601
# Shear Modulus (GPa) = 21.75109 28.34108 25.04609
#
# Velocity S-wave (km/s) = 3.35351 3.82796 3.59856
# Velocity P-wave (km/s) = 5.16802 5.97481 5.58600
#
# Compressibility (1/GPa) = 0.04413922
#
# Stress axis : x y z
#
# Youngs Moduli (GPa) = 33.15936 84.88303 82.60567
#
# Poissons Ratio (x) = -0.09415 0.48917
# Poissons Ratio (y) = -0.03678 0.01155
# Poissons Ratio (z) = 0.19636 0.01187
#
# Static dielectric constant tensor:
#      x y z
#    x 2.886000 0.000180 0.059780 
#    y 0.000180 3.654530 0.000200 
#    z 0.059780 0.000200 3.635140 
# 
# 
# High freq. dielectric constant tensor:
#      x y z
#    x 1.688440 0.000010 -0.003660 
#    y 0.000010 1.775010 0.000010 
#    z -0.003660 0.000010 1.757640 
# 
# From -- ./inp_files/43750.got.cif
#   From: 2010.03.12/outbox.cif.g09.slc.cpg/sg5_22_cif.got.tgz:43750.got - 2010.03.31 09:47:26.
