data_PCOD8049499
_publ_section_title
;
Structure prediction by ZEFSAII (Michael W. Deem and Ramdas Pophale) SiO2 
 PCOD8049499
Probable space group: C 2
;
_chemical_formula_sum "Si O2"
_cell_formula_units_Z 26
_cell_length_a 26.183287
_cell_length_b 7.606109
_cell_length_c 17.118861
_cell_angle_alpha 90.000000
_cell_angle_beta 19.888285
_cell_angle_gamma 90.000000
_cell_volume 1159.790791
_symmetry_space_group_name_H-M "C 2"
_symmetry_group_IT_number 5
_symmetry_cell_setting 'monoclinic'
loop_
_space_group_symop_operation_xyz
x,y,z
-x,y,-z
1/2+x,1/2+y,z
1/2-x,1/2+y,-z
loop_
_atom_site_type_symbol
_atom_site_label
_atom_site_fract_x
_atom_site_fract_y
_atom_site_fract_z
Si Si1 0.141189 0.273710 0.239984
Si Si2 0.115853 0.599653 0.730036
Si Si3 0.500000 0.667845 0.000000
Si Si4 0.672218 0.424735 0.271150
Si Si5 0.144667 0.112754 0.068456
Si Si6 0.675900 0.962555 0.797400
Si Si7 0.930779 0.977947 0.247933
O O1 0.247027 0.442958 0.076577
O O2 0.000000 0.320236 0.500000
O O3 0.229683 0.108565 0.151087
O O4 0.091200 0.200219 0.226717
O O5 0.172568 0.624805 0.740031
O O6 0.257111 0.522279 0.481201
O O7 0.054406 0.770182 0.775438
O O8 0.972561 0.469058 0.933115
O O9 0.475674 0.551552 0.958652
O O10 0.652577 0.787615 0.777520
O O11 0.500000 0.388102 0.500000
O O12 0.768584 0.259522 0.105668
O O13 0.680116 0.448285 0.354233
O O14 0.995762 0.050826 0.236317
#
# Coordination Sequence:
#
# PCOD8049499 Si02
#       7
#     4   4   2   4   4   4   4
#     4  11  26  47  72 108 144 195 247 300 368 436
#     4  10  23  40  66  96 140 175 237 278 363 419
#     4  10  20  40  62  94 132 170 230 272 346 412
#     4  11  24  45  75 106 141 190 242 300 369 435
#     4  12  25  48  73 104 149 192 247 306 363 442
#     4  10  21  43  67  97 137 177 217 301 343 419
#     4  12  24  42  65 103 131 189 230 295 355 432
#
# _framework density 22.417835
#
# number of rings (size 3 to 8) (size 9 to 14) (size 15 to 20)
#    0.000    1.231    3.077    4.154    4.308    0.000 
#    0.000    0.000    0.000    0.000    0.000    0.000 
#    0.000    0.000    0.000    0.000    0.000    0.000 
#
# Total GULP energy -161053.650918 kJ/mol
# GULP energy per Si atom -12388.742378 kJ/mol
# Density = 2.236681 g / cm^3
# Si number density = 22.417835 Si / 1000 Ang^3
#
#
#
# Elastic Constant Matrix: (Units=GPa)
#
#
# Indices 1 2 3 4 5 6 
#
# 1 129.0466 12.7454 17.3149 0.0000 -2.3056 -0.0001
# 2 12.7454 93.7025 19.1103 0.0007 0.5105 -0.0004
# 3 17.3149 19.1103 67.7662 0.0004 -0.5892 -0.0002
# 4 0.0000 0.0007 0.0004 24.3078 -0.0001 -0.5693
# 5 -2.3056 0.5105 -0.5892 -0.0001 34.9792 0.0001
# 6 -0.0001 -0.0004 -0.0002 -0.5693 0.0001 32.8240
#
#
#
# Elastic Compliance Matrix: (Units=1/GPa)
#
#
# Indices 1 2 3 4 5 6 
#
# 1 0.008079 -0.000723 -0.001856 0.000000 0.000512 0.000000
# 2 -0.000723 0.011390 -0.003029 0.000000 -0.000265 0.000000
# 3 -0.001856 -0.003029 0.016087 0.000000 0.000193 0.000000
# 4 0.000000 0.000000 0.000000 0.041156 0.000000 0.000714
# 5 0.000512 -0.000265 0.000193 0.000000 0.028629 0.000000
# 6 0.000000 0.000000 0.000000 0.000714 0.000000 0.030478
#
#
# Mechanical properties :
#
#
# Convention : Reuss Voigt Hill
#
# Bulk Modulus (GPa) = 41.08739 43.20626 42.14682
# Shear Modulus (GPa) = 32.22733 34.51185 33.36959
#
# Velocity S-wave (km/s) = 3.79565 3.92788 3.86233
# Velocity P-wave (km/s) = 6.13001 6.31554 6.22347
#
# Compressibility (1/GPa) = 0.02433837
#
# Stress axis : x y z
#
# Youngs Moduli (GPa) = 123.78214 87.79843 62.16278
#
# Poissons Ratio (x) = 0.06349 0.11536
# Poissons Ratio (y) = 0.08952 0.18832
# Poissons Ratio (z) = 0.22971 0.26598
#
# Static dielectric constant tensor:
#      x y z
#    x 4.173390 0.000000 0.123950 
#    y 0.000000 4.138570 0.000000 
#    z 0.123950 0.000000 3.883540 
# 
# 
# High freq. dielectric constant tensor:
#      x y z
#    x 1.890940 0.000000 0.005600 
#    y 0.000000 1.884690 0.000000 
#    z 0.005600 0.000000 1.870080 
# 
# From -- ./inp_files/47863.got.cif
#   From: 2010.03.12/outbox.cif.g09.slc.cpg/sg5_24_cif.got.tgz:47863.got - 2010.03.31 09:47:26.
