data_PCOD8049276
_publ_section_title
;
Structure prediction by ZEFSAII (Michael W. Deem and Ramdas Pophale) SiO2 
 PCOD8049276
Probable space group: C 2
;
_chemical_formula_sum "Si O2"
_cell_formula_units_Z 30
_cell_length_a 15.280115
_cell_length_b 11.936485
_cell_length_c 8.270154
_cell_angle_alpha 90.000000
_cell_angle_beta 113.278534
_cell_angle_gamma 90.000000
_cell_volume 1385.608444
_symmetry_space_group_name_H-M "C 2"
_symmetry_group_IT_number 5
_symmetry_cell_setting 'monoclinic'
loop_
_space_group_symop_operation_xyz
x,y,z
-x,y,-z
1/2+x,1/2+y,z
1/2-x,1/2+y,-z
loop_
_atom_site_type_symbol
_atom_site_label
_atom_site_fract_x
_atom_site_fract_y
_atom_site_fract_z
Si Si1 0.968674 0.435390 0.289653
Si Si2 0.015645 0.190812 0.325341
Si Si3 0.174178 0.694135 0.248064
Si Si4 0.000000 0.580690 0.000000
Si Si5 0.434082 0.494926 0.099140
Si Si6 0.253485 0.922680 0.202616
Si Si7 0.188866 0.041703 0.471626
Si Si8 0.440854 0.340463 0.604143
O O1 0.854871 0.442100 0.196567
O O2 0.000000 0.462426 0.500000
O O3 0.005050 0.315571 0.247837
O O4 0.008882 0.516825 0.179149
O O5 0.120217 0.141878 0.359002
O O6 0.000000 0.208236 0.500000
O O7 0.932858 0.104567 0.211409
O O8 0.240055 0.790258 0.220157
O O9 0.237951 0.587682 0.342811
O O10 0.122850 0.741908 0.370918
O O11 0.094952 0.656648 0.060286
O O12 0.484665 0.385522 0.209482
O O13 0.500000 0.533019 0.000000
O O14 0.326287 0.467231 0.977444
O O15 0.247016 0.990109 0.365248
O O16 0.124206 0.944427 0.505778
O O17 0.500000 0.288571 0.500000
#
# Coordination Sequence:
#
# PCOD8049276 Si02
#       8
#     4   4   4   2   4   4   4   4
#     4  11  26  46  64  96 137 171 214 266 325 392
#     4  10  21  39  64  94 126 167 210 272 319 370
#     4  11  22  41  63  91 128 169 211 266 320 384
#     4  12  28  44  66  90 138 178 206 264 340 386
#     4  11  18  38  66  92 127 159 215 269 314 371
#     4  11  23  40  65  94 124 172 214 269 319 378
#     4  10  20  37  66  91 123 167 217 261 320 378
#     4  10  22  39  64  94 124 166 210 264 322 378
#
# _framework density 21.651139000000001
#
# number of rings (size 3 to 8) (size 9 to 14) (size 15 to 20)
#    0.000    1.333    4.000    4.800    0.933    5.867 
#    0.000    1.333    0.000    0.000    0.000    0.000 
#    0.000    0.000    0.000    0.000    0.000    0.000 
#
# Total GULP energy -185967.612734 kJ/mol
# GULP energy per Si atom -12397.840849 kJ/mol
# Density = 2.160186 g / cm^3
# Si number density = 21.651139 Si / 1000 Ang^3
#
#
#
# Elastic Constant Matrix: (Units=GPa)
#
#
# Indices 1 2 3 4 5 6 
#
# 1 82.9545 16.0696 13.9208 0.0000 13.0519 0.0000
# 2 16.0696 77.6848 27.3724 0.0000 10.6750 0.0000
# 3 13.9208 27.3724 77.7756 0.0000 27.3171 0.0000
# 4 0.0000 0.0000 0.0000 37.3558 0.0000 6.3776
# 5 13.0519 10.6750 27.3171 0.0000 42.6868 0.0000
# 6 0.0000 0.0000 0.0000 6.3776 0.0000 14.5386
#
#
#
# Elastic Compliance Matrix: (Units=1/GPa)
#
#
# Indices 1 2 3 4 5 6 
#
# 1 0.013038 -0.002091 -0.000492 0.000000 -0.003149 0.000000
# 2 -0.002091 0.015037 -0.004930 0.000000 0.000034 0.000000
# 3 -0.000492 -0.004930 0.018310 0.000000 -0.010334 0.000000
# 4 0.000000 0.000000 0.000000 0.028937 0.000000 -0.012694
# 5 -0.003149 0.000034 -0.010334 0.000000 0.030994 0.000000
# 6 0.000000 0.000000 0.000000 -0.012694 0.000000 0.074351
#
#
# Mechanical properties :
#
#
# Convention : Reuss Voigt Hill
#
# Bulk Modulus (GPa) = 31.88735 39.23783 35.56259
# Shear Modulus (GPa) = 24.25468 30.98639 27.62054
#
# Velocity S-wave (km/s) = 3.35064 3.78718 3.57558
# Velocity P-wave (km/s) = 5.45242 6.10621 5.78855
#
# Compressibility (1/GPa) = 0.03136039
#
# Stress axis : x y z
#
# Youngs Moduli (GPa) = 76.70005 66.50050 54.61422
#
# Poissons Ratio (x) = 0.13905 0.02685
# Poissons Ratio (y) = 0.16038 0.26924
# Poissons Ratio (z) = 0.03771 0.32784
#
# Static dielectric constant tensor:
#      x y z
#    x 3.840010 0.000000 0.044090 
#    y 0.000000 4.053540 0.000000 
#    z 0.044090 0.000000 3.900460 
# 
# 
# High freq. dielectric constant tensor:
#      x y z
#    x 1.848540 0.000000 0.010890 
#    y 0.000000 1.852960 0.000000 
#    z 0.010890 0.000000 1.842490 
# 
# From -- ./inp_files/23919.got.cif
#   From: 2010.03.12/outbox.cif.g09.slc.cpg/sg5_12_cif.got.tgz:23919.got - 2010.03.31 09:47:26.
