data_PCOD8049498
_publ_section_title
;
Structure prediction by ZEFSAII (Michael W. Deem and Ramdas Pophale) SiO2 
 PCOD8049498
Probable space group: C 2
;
_chemical_formula_sum "Si O2"
_cell_formula_units_Z 18
_cell_length_a 13.093489
_cell_length_b 12.568689
_cell_length_c 11.303896
_cell_angle_alpha 90.000000
_cell_angle_beta 153.252363
_cell_angle_gamma 90.000000
_cell_volume 837.231371
_symmetry_space_group_name_H-M "C 2"
_symmetry_group_IT_number 5
_symmetry_cell_setting 'monoclinic'
loop_
_space_group_symop_operation_xyz
x,y,z
-x,y,-z
1/2+x,1/2+y,z
1/2-x,1/2+y,-z
loop_
_atom_site_type_symbol
_atom_site_label
_atom_site_fract_x
_atom_site_fract_y
_atom_site_fract_z
Si Si1 0.145352 0.767650 0.533347
Si Si2 0.191871 0.490944 0.351461
Si Si3 0.000000 0.126705 0.500000
Si Si4 0.819718 0.650860 0.031303
Si Si5 0.956771 0.070308 0.832565
O O1 0.315398 0.866986 0.688753
O O2 0.307542 0.669493 0.720864
O O3 0.000000 0.789985 0.500000
O O4 0.987526 0.743357 0.253201
O O5 0.333998 0.553661 0.402252
O O6 0.315016 0.492131 0.604726
O O7 0.947533 0.547276 0.108834
O O8 0.848676 0.194768 0.248027
O O9 0.683750 0.609386 0.003759
O O10 0.000000 0.007310 0.000000
#
# Coordination Sequence:
#
# PCOD8049498 Si02
#       5
#     4   4   2   4   4
#     4  11  21  39  66  99 121 161 218 267 309 372
#     4  10  22  37  63  95 127 163 210 262 314 375
#     4  10  20  40  62  90 128 174 202 254 322 374
#     4  10  22  39  62  95 132 165 210 257 319 373
#     4  10  21  38  60  90 130 169 198 258 322 372
#
# _framework density 21.499433
#
# number of rings (size 3 to 8) (size 9 to 14) (size 15 to 20)
#    0.000    1.778    3.333    0.667    0.000    5.333 
#    0.000    6.667    0.000    2.667    0.000    0.000 
#    0.000    0.000    0.000    0.000    0.000    0.000 
#
# Total GULP energy -111523.551065 kJ/mol
# GULP energy per Si atom -12391.505674 kJ/mol
# Density = 2.145050 g / cm^3
# Si number density = 21.499433 Si / 1000 Ang^3
#
#
#
# Elastic Constant Matrix: (Units=GPa)
#
#
# Indices 1 2 3 4 5 6 
#
# 1 134.7297 13.2566 46.3242 0.0001 -11.5627 -0.0001
# 2 13.2566 56.3886 0.1050 0.0000 0.0373 0.0000
# 3 46.3242 0.1050 89.9402 0.0003 -16.5084 -0.0002
# 4 0.0001 0.0000 0.0003 6.5966 0.0001 16.2867
# 5 -11.5627 0.0373 -16.5084 0.0001 48.5898 -0.0001
# 6 -0.0001 0.0000 -0.0002 16.2867 -0.0001 -19.7413
#
#
#
# Elastic Compliance Matrix: (Units=1/GPa)
#
#
# Indices 1 2 3 4 5 6 
#
# 1 0.009296 -0.002177 -0.004670 0.000000 0.000627 0.000000
# 2 -0.002177 0.018244 0.001069 0.000000 -0.000169 0.000000
# 3 -0.004670 0.001069 0.014204 0.000000 0.003714 0.000000
# 4 0.000000 0.000000 0.000000 0.049917 0.000000 0.041182
# 5 0.000627 -0.000169 0.003714 0.000000 0.021992 0.000000
# 6 0.000000 0.000000 0.000000 0.041182 0.000000 -0.016680
#
#
# Mechanical properties :
#
#
# Convention : Reuss Voigt Hill
#
# Bulk Modulus (GPa) = 33.12618 44.49224 38.80921
# Shear Modulus (GPa) = 42.16107 21.84719 32.00413
#
# Velocity S-wave (km/s) = 4.43316 3.19121 3.86243
# Velocity P-wave (km/s) = 6.45331 5.85815 6.16292
#
# Compressibility (1/GPa) = 0.03018761
#
# Stress axis : x y z
#
# Youngs Moduli (GPa) = 107.57160 54.81237 70.40062
#
# Poissons Ratio (x) = 0.11934 0.32880
# Poissons Ratio (y) = 0.23420 -0.07526
# Poissons Ratio (z) = 0.50240 -0.05860
#
# Static dielectric constant tensor:
#      x y z
#    x 4.506150 0.000000 0.008190 
#    y 0.000000 3.412590 0.000000 
#    z 0.008190 0.000000 4.375120 
# 
# 
# High freq. dielectric constant tensor:
#      x y z
#    x 1.869130 0.000000 -0.007200 
#    y 0.000000 1.791150 0.000000 
#    z -0.007200 0.000000 1.861940 
# 
# From -- ./inp_files/39027.got.cif
#   From: 2010.03.12/outbox.cif.g09.slc.cpg/sg5_20_cif.got.tgz:39027.got - 2010.03.31 09:47:26.
