data_PCOD8049083
_publ_section_title
;
Structure prediction by ZEFSAII (Michael W. Deem and Ramdas Pophale) SiO2 
 PCOD8049083
Probable space group: C 2
;
_chemical_formula_sum "Si O2"
_cell_formula_units_Z 28
_cell_length_a 11.918465
_cell_length_b 8.129270
_cell_length_c 15.137358
_cell_angle_alpha 90.000000
_cell_angle_beta 117.519106
_cell_angle_gamma 90.000000
_cell_volume 1300.694968
_symmetry_space_group_name_H-M "C 2"
_symmetry_group_IT_number 5
_symmetry_cell_setting 'monoclinic'
loop_
_space_group_symop_operation_xyz
x,y,z
-x,y,-z
1/2+x,1/2+y,z
1/2-x,1/2+y,-z
loop_
_atom_site_type_symbol
_atom_site_label
_atom_site_fract_x
_atom_site_fract_y
_atom_site_fract_z
Si Si1 0.000000 0.387270 0.000000
Si Si2 0.039964 0.776956 0.324838
Si Si3 0.320549 0.099933 0.037684
Si Si4 0.500000 0.162257 0.500000
Si Si5 0.405855 0.689484 0.817892
Si Si6 0.927925 0.442622 0.231094
Si Si7 0.280122 0.974976 0.343121
Si Si8 0.101077 0.938797 0.873137
O O1 0.107912 0.278799 0.090804
O O2 0.943639 0.500560 0.053571
O O3 0.017010 0.780888 0.421422
O O4 0.030272 0.589198 0.286472
O O5 0.926699 0.883444 0.237859
O O6 0.176895 0.854529 0.349718
O O7 0.309095 0.020671 0.131520
O O8 0.352058 0.291119 0.048318
O O9 0.208276 0.078431 0.925864
O O10 0.376643 0.044335 0.451406
O O11 0.276102 0.643014 0.722320
O O12 0.472425 0.515149 0.864351
O O13 0.497092 0.790713 0.784566
O O14 0.862536 0.380356 0.298216
#
# Coordination Sequence:
#
# PCOD8049083 Si02
#       8
#     2   4   4   2   4   4   4   4
#     4  10  22  34  56  90 122 172 216 258 316 374
#     4   9  21  42  64  95 121 167 214 266 330 385
#     4  10  20  36  55  87 126 169 211 256 311 379
#     4  10  22  40  68  92 128 160 214 280 332 368
#     4  10  22  39  59  92 127 167 215 261 320 379
#     4   9  20  40  59  89 128 163 209 263 312 381
#     4  10  22  41  67  89 125 170 209 268 330 381
#     4  10  21  39  59  86 134 166 214 257 314 381
#
# _framework density 21.526952999999999
#
# number of rings (size 3 to 8) (size 9 to 14) (size 15 to 20)
#    0.000    2.286    0.000    1.714    8.000    2.857 
#   18.000    2.857    0.000    1.714    0.000    0.000 
#    0.000    0.000    0.000    0.000    0.000    0.000 
#
# Total GULP energy -173442.933615 kJ/mol
# GULP energy per Si atom -12388.780972 kJ/mol
# Density = 2.147796 g / cm^3
# Si number density = 21.526953 Si / 1000 Ang^3
#
#
#
# Elastic Constant Matrix: (Units=GPa)
#
#
# Indices 1 2 3 4 5 6 
#
# 1 64.9167 31.7965 46.0236 0.0000 1.5247 0.0000
# 2 31.7965 85.4664 46.3139 0.0000 1.1986 0.0000
# 3 46.0236 46.3139 131.1993 0.0000 8.5192 0.0000
# 4 0.0000 0.0000 0.0000 32.5334 0.0000 3.7103
# 5 1.5247 1.1986 8.5192 0.0000 39.5099 0.0000
# 6 0.0000 0.0000 0.0000 3.7103 0.0000 25.0112
#
#
#
# Elastic Compliance Matrix: (Units=1/GPa)
#
#
# Indices 1 2 3 4 5 6 
#
# 1 0.022102 -0.004957 -0.006042 0.000000 0.000600 0.000000
# 2 -0.004957 0.015597 -0.003802 0.000000 0.000538 0.000000
# 3 -0.006042 -0.003802 0.011218 0.000000 -0.002070 0.000000
# 4 0.000000 0.000000 0.000000 0.031267 0.000000 -0.004638
# 5 0.000600 0.000538 -0.002070 0.000000 0.025717 0.000000
# 6 0.000000 0.000000 0.000000 -0.004638 0.000000 0.040670
#
#
# Mechanical properties :
#
#
# Convention : Reuss Voigt Hill
#
# Bulk Modulus (GPa) = 51.77313 58.87227 55.32270
# Shear Modulus (GPa) = 27.38042 29.90745 28.64394
#
# Velocity S-wave (km/s) = 3.57026 3.73138 3.65171
# Velocity P-wave (km/s) = 6.41079 6.78025 6.59811
#
# Compressibility (1/GPa) = 0.01931504
#
# Stress axis : x y z
#
# Youngs Moduli (GPa) = 45.24490 64.11327 89.14090
#
# Poissons Ratio (x) = 0.31780 0.53862
# Poissons Ratio (y) = 0.22427 0.33892
# Poissons Ratio (z) = 0.27339 0.24376
#
# Static dielectric constant tensor:
#      x y z
#    x 3.701500 0.000000 0.024750 
#    y 0.000000 3.919770 0.000000 
#    z 0.024750 0.000000 4.214660 
# 
# 
# High freq. dielectric constant tensor:
#      x y z
#    x 1.829990 0.000000 0.006790 
#    y 0.000000 1.839890 0.000000 
#    z 0.006790 0.000000 1.850280 
# 
# From -- ./inp_files/52214.got.cif
#   From: 2010.03.12/outbox.cif.g09.slc.cpg/sg5_27_cif.got.tgz:52214.got - 2010.03.31 09:47:26.
