data_PCOD8049396
_publ_section_title
;
Structure prediction by ZEFSAII (Michael W. Deem and Ramdas Pophale) SiO2 
 PCOD8049396
Probable space group: C 2
;
_chemical_formula_sum "Si O2"
_cell_formula_units_Z 26
_cell_length_a 12.137526
_cell_length_b 8.140667
_cell_length_c 22.889336
_cell_angle_alpha 90.000000
_cell_angle_beta 29.725215
_cell_angle_gamma 90.000000
_cell_volume 1121.413287
_symmetry_space_group_name_H-M "C 2"
_symmetry_group_IT_number 5
_symmetry_cell_setting 'monoclinic'
loop_
_space_group_symop_operation_xyz
x,y,z
-x,y,-z
1/2+x,1/2+y,z
1/2-x,1/2+y,-z
loop_
_atom_site_type_symbol
_atom_site_label
_atom_site_fract_x
_atom_site_fract_y
_atom_site_fract_z
Si Si1 0.547254 0.371150 0.838269
Si Si2 0.827999 0.358276 0.305277
Si Si3 0.980230 0.242219 0.351758
Si Si4 0.106845 0.244181 0.074517
Si Si5 0.977344 0.686052 0.755529
Si Si6 0.551812 0.369873 0.602588
Si Si7 0.000000 0.213599 0.000000
O O1 0.476946 0.558948 0.879107
O O2 0.547334 0.326359 0.769503
O O3 0.790221 0.341897 0.752994
O O4 0.374689 0.256262 0.953693
O O5 0.890444 0.229202 0.326802
O O6 0.584278 0.314838 0.392711
O O7 0.002275 0.358087 0.171897
O O8 0.842219 0.540578 0.326511
O O9 0.811054 0.342317 0.471164
O O10 0.008833 0.059078 0.361008
O O11 0.033093 0.317823 0.044623
O O12 0.971558 0.763480 0.694090
O O13 0.730436 0.612156 0.884499
#
# Coordination Sequence:
#
# PCOD8049396 Si02
#       7
#     4   4   4   4   4   4   2
#     4  11  25  44  72 112 144 196 240 306 369 446
#     4  12  25  48  74 108 144 197 241 309 362 444
#     4  12  28  47  75 106 151 193 253 294 378 430
#     4  11  23  42  72 106 148 186 248 297 378 431
#     4  11  23  45  75 103 151 191 245 299 374 424
#     4  12  27  50  70 108 149 198 245 312 351 447
#     4  10  20  38  70 104 138 190 222 304 356 428
#
# _framework density 23.185029
#
# number of rings (size 3 to 8) (size 9 to 14) (size 15 to 20)
#    0.000    0.615    3.077    5.077    2.154    1.231 
#    2.769    0.000    0.000    0.000    0.000    0.000 
#    0.000    0.000    0.000    0.000    0.000    0.000 
#
# Total GULP energy -161182.939614 kJ/mol
# GULP energy per Si atom -12398.687663 kJ/mol
# Density = 2.313226 g / cm^3
# Si number density = 23.185029 Si / 1000 Ang^3
#
#
#
# Elastic Constant Matrix: (Units=GPa)
#
#
# Indices 1 2 3 4 5 6 
#
# 1 126.9424 29.0695 30.5199 0.0000 -9.2640 -0.0001
# 2 29.0695 89.2379 28.2383 0.0000 -8.8576 0.0000
# 3 30.5199 28.2383 115.0440 -0.0008 -25.9591 -0.0002
# 4 0.0000 0.0000 -0.0008 36.0119 -0.0002 3.0068
# 5 -9.2640 -8.8576 -25.9591 -0.0002 39.7635 0.0000
# 6 -0.0001 0.0000 -0.0002 3.0068 0.0000 27.0507
#
#
#
# Elastic Compliance Matrix: (Units=1/GPa)
#
#
# Indices 1 2 3 4 5 6 
#
# 1 0.008842 -0.002304 -0.001678 0.000000 0.000451 0.000000
# 2 -0.002304 0.012777 -0.002350 0.000000 0.000775 0.000000
# 3 -0.001678 -0.002350 0.011151 0.000000 0.006365 0.000000
# 4 0.000000 0.000000 0.000000 0.028029 0.000000 -0.003116
# 5 0.000451 0.000775 0.006365 0.000000 0.029582 0.000000
# 6 0.000000 0.000000 0.000000 -0.003116 0.000000 0.037314
#
#
# Mechanical properties :
#
#
# Convention : Reuss Voigt Hill
#
# Bulk Modulus (GPa) = 49.74058 56.31995 53.03027
# Shear Modulus (GPa) = 33.99960 36.79167 35.39564
#
# Velocity S-wave (km/s) = 3.83358 3.98788 3.91149
# Velocity P-wave (km/s) = 6.41057 6.74896 6.58194
#
# Compressibility (1/GPa) = 0.02010431
#
# Stress axis : x y z
#
# Youngs Moduli (GPa) = 113.10063 78.26415 89.68124
#
# Poissons Ratio (x) = 0.18035 0.15050
# Poissons Ratio (y) = 0.26063 0.21075
# Poissons Ratio (z) = 0.18981 0.18392
#
# Static dielectric constant tensor:
#      x y z
#    x 4.510680 0.000000 0.065660 
#    y 0.000000 3.805790 0.000000 
#    z 0.065660 0.000000 4.381390 
# 
# 
# High freq. dielectric constant tensor:
#      x y z
#    x 1.933710 0.000000 0.001070 
#    y 0.000000 1.890070 0.000000 
#    z 0.001070 0.000000 1.931490 
# 
# From -- ./inp_files/68253.got.cif
#   From: 2010.03.12/outbox.cif.g09.slc.cpg/sg5_35_cif.got.tgz:68253.got - 2010.03.31 09:47:26.
