data_PCOD8049677
_publ_section_title
;
Structure prediction by ZEFSAII (Michael W. Deem and Ramdas Pophale) SiO2 
 PCOD8049677
Probable space group: C 2
;
_chemical_formula_sum "Si O2"
_cell_formula_units_Z 20
_cell_length_a 12.396227
_cell_length_b 7.907281
_cell_length_c 12.097328
_cell_angle_alpha 90.000000
_cell_angle_beta 38.138242
_cell_angle_gamma 90.000000
_cell_volume 732.294874
_symmetry_space_group_name_H-M "C 2"
_symmetry_group_IT_number 5
_symmetry_cell_setting 'monoclinic'
loop_
_space_group_symop_operation_xyz
x,y,z
-x,y,-z
1/2+x,1/2+y,z
1/2-x,1/2+y,-z
loop_
_atom_site_type_symbol
_atom_site_label
_atom_site_fract_x
_atom_site_fract_y
_atom_site_fract_z
Si Si1 0.882715 0.784490 0.695865
Si Si2 0.000000 0.408356 0.500000
Si Si3 0.617592 0.504184 0.803073
Si Si4 0.431916 0.616004 0.390921
Si Si5 0.947572 0.633623 0.232688
Si Si6 0.500000 0.889464 0.000000
O O1 0.928775 0.663243 0.761965
O O2 0.674005 0.775283 0.837782
O O3 0.000000 0.721065 0.500000
O O4 0.926645 0.981128 0.681722
O O5 0.174379 0.521868 0.336960
O O6 0.023901 0.296859 0.591460
O O7 0.561857 0.627825 0.746943
O O8 0.586080 0.309913 0.800202
O O9 0.500000 0.559043 0.000000
O O10 0.238136 0.553678 0.581258
O O11 0.041440 0.505411 0.073146
#
# Coordination Sequence:
#
# PCOD8049677 Si02
#       6
#     4   2   4   4   4   2
#     4  11  22  44  70 100 135 177 230 273 335 411
#     4  10  20  42  70  88 132 182 206 270 340 378
#     4  10  21  40  67  99 129 168 228 267 323 406
#     4  10  20  43  68  94 133 178 213 276 337 387
#     4  10  22  42  70  97 136 176 224 276 336 396
#     4  12  22  46  72  96 136 186 214 282 340 392
#
# _framework density 27.311402999999999
#
# number of rings (size 3 to 8) (size 9 to 14) (size 15 to 20)
#    0.000    1.600    4.000    1.200    0.000    0.000 
#   12.600    0.000    0.000    0.000    0.000    0.000 
#    0.000    0.000    0.000    0.000    0.000    0.000 
#
# Total GULP energy -124099.757305 kJ/mol
# GULP energy per Si atom -12409.975731 kJ/mol
# Density = 2.724924 g / cm^3
# Si number density = 27.311403 Si / 1000 Ang^3
#
#
#
# Elastic Constant Matrix: (Units=GPa)
#
#
# Indices 1 2 3 4 5 6 
#
# 1 194.5698 72.1517 124.3416 0.0000 -1.5289 0.0000
# 2 72.1517 128.7947 95.0636 0.0000 -11.4387 0.0000
# 3 124.3416 95.0636 219.0995 0.0000 8.5841 0.0000
# 4 0.0000 0.0000 0.0000 56.2818 0.0000 -2.2288
# 5 -1.5289 -11.4387 8.5841 0.0000 58.2838 0.0000
# 6 0.0000 0.0000 0.0000 -2.2288 0.0000 32.6574
#
#
#
# Elastic Compliance Matrix: (Units=1/GPa)
#
#
# Indices 1 2 3 4 5 6 
#
# 1 0.008331 -0.001647 -0.004032 0.000000 0.000489 0.000000
# 2 -0.001647 0.012290 -0.004516 0.000000 0.003034 0.000000
# 3 -0.004032 -0.004516 0.008902 0.000000 -0.002303 0.000000
# 4 0.000000 0.000000 0.000000 0.017816 0.000000 0.001216
# 5 0.000489 0.003034 -0.002303 0.000000 0.018105 0.000000
# 6 0.000000 0.000000 0.000000 0.001216 0.000000 0.030704
#
#
# Mechanical properties :
#
#
# Convention : Reuss Voigt Hill
#
# Bulk Modulus (GPa) = 109.51369 125.06420 117.28894
# Shear Modulus (GPa) = 41.81116 46.17174 43.99145
#
# Velocity S-wave (km/s) = 3.91692 4.11611 4.01775
# Velocity P-wave (km/s) = 7.78727 8.27533 8.03501
#
# Compressibility (1/GPa) = 0.00913128
#
# Stress axis : x y z
#
# Youngs Moduli (GPa) = 120.02940 81.36512 112.32820
#
# Poissons Ratio (x) = 0.13404 0.45296
# Poissons Ratio (y) = 0.19774 0.50733
# Poissons Ratio (z) = 0.48402 0.36748
#
# Static dielectric constant tensor:
#      x y z
#    x 5.117590 0.000000 0.063710 
#    y 0.000000 5.018250 0.000000 
#    z 0.063710 0.000000 5.048430 
# 
# 
# High freq. dielectric constant tensor:
#      x y z
#    x 2.110860 0.000000 0.000440 
#    y 0.000000 2.152010 0.000000 
#    z 0.000440 0.000000 2.106710 
# 
# From -- ./inp_files/39059.got.cif
#   From: 2010.03.12/outbox.cif.g09.slc.cpg/sg5_20_cif.got.tgz:39059.got - 2010.03.31 09:47:26.
