data_PCOD8049720
_publ_section_title
;
Structure prediction by ZEFSAII (Michael W. Deem and Ramdas Pophale) SiO2 
 PCOD8049720
Probable space group: C 2
;
_chemical_formula_sum "Si O2"
_cell_formula_units_Z 16
_cell_length_a 7.130710
_cell_length_b 13.681454
_cell_length_c 8.067505
_cell_angle_alpha 90.000000
_cell_angle_beta 104.270112
_cell_angle_gamma 90.000000
_cell_volume 762.768559
_symmetry_space_group_name_H-M "C 2"
_symmetry_group_IT_number 5
_symmetry_cell_setting 'monoclinic'
loop_
_space_group_symop_operation_xyz
x,y,z
-x,y,-z
1/2+x,1/2+y,z
1/2-x,1/2+y,-z
loop_
_atom_site_type_symbol
_atom_site_label
_atom_site_fract_x
_atom_site_fract_y
_atom_site_fract_z
Si Si1 0.500000 0.086100 0.500000
Si Si2 0.207296 0.230294 0.007780
Si Si3 0.378847 0.465819 0.630170
Si Si4 0.000000 0.042930 0.000000
Si Si5 0.084128 0.756057 0.279377
O O1 0.592534 0.155431 0.380965
O O2 0.671852 0.017326 0.601217
O O3 0.367743 0.273493 0.164207
O O4 0.258267 0.249444 0.829737
O O5 0.000000 0.282035 0.000000
O O6 0.189486 0.113045 0.032244
O O7 0.500000 0.508757 0.500000
O O8 0.489133 0.478236 0.830884
O O9 0.355669 0.349186 0.596137
#
# Coordination Sequence:
#
# PCOD8049720 Si02
#       5
#     2   4   4   2   4
#     4  12  24  46  68 102 142 182 226 292 348 402
#     4   9  20  40  70  98 135 188 221 289 347 398
#     4  12  26  44  70 107 140 183 235 285 345 421
#     4  10  20  44  68  98 138 180 226 280 346 402
#     4  11  22  43  68  99 145 176 234 287 340 418
#
# _framework density 20.976219
#
# number of rings (size 3 to 8) (size 9 to 14) (size 15 to 20)
#    0.750    0.500    3.750    3.000    0.000    2.000 
#    6.750    2.500    0.000    0.000    0.000    0.000 
#    0.000    0.000    0.000    0.000    0.000    0.000 
#
# Total GULP energy -99163.461601 kJ/mol
# GULP energy per Si atom -12395.432700 kJ/mol
# Density = 2.092848 g / cm^3
# Si number density = 20.976219 Si / 1000 Ang^3
#
#
#
# Elastic Constant Matrix: (Units=GPa)
#
#
# Indices 1 2 3 4 5 6 
#
# 1 131.4160 42.2488 45.7431 0.0000 -8.2303 0.0000
# 2 42.2488 119.1178 29.7108 0.0000 7.5873 0.0000
# 3 45.7431 29.7108 117.5000 0.0000 -12.5898 0.0000
# 4 0.0000 0.0000 0.0000 -3.4101 0.0000 0.3259
# 5 -8.2303 7.5873 -12.5898 0.0000 22.2764 0.0000
# 6 0.0000 0.0000 0.0000 0.3259 0.0000 22.2035
#
#
#
# Elastic Compliance Matrix: (Units=1/GPa)
#
#
# Indices 1 2 3 4 5 6 
#
# 1 0.009691 -0.002960 -0.002696 0.000000 0.003065 0.000000
# 2 -0.002960 0.010333 -0.002081 0.000000 -0.005789 0.000000
# 3 -0.002696 -0.002081 0.010704 0.000000 0.005762 0.000000
# 4 0.000000 0.000000 0.000000 -0.292836 0.000000 0.004299
# 5 0.003065 -0.005789 0.005762 0.000000 0.051251 0.000000
# 6 0.000000 0.000000 0.000000 0.004299 0.000000 0.044975
#
#
# Mechanical properties :
#
#
# Convention : Reuss Voigt Hill
#
# Bulk Modulus (GPa) = 65.55513 67.04883 66.30198
# Shear Modulus (GPa) = -34.40585 24.90268 -4.75158
#
# Velocity S-wave (km/s) = -4.05437 3.44930 -1.50670
# Velocity P-wave (km/s) = 3.06639 6.92077 5.35256
#
# Compressibility (1/GPa) = 0.01525434
#
# Stress axis : x y z
#
# Youngs Moduli (GPa) = 103.18354 96.78072 93.42614
#
# Poissons Ratio (x) = 0.28649 0.25188
# Poissons Ratio (y) = 0.30544 0.19438
# Poissons Ratio (z) = 0.27818 0.20136
#
# Static dielectric constant tensor:
#      x y z
#    x 3.708780 0.000000 0.012050 
#    y 0.000000 3.663070 0.000000 
#    z 0.012050 0.000000 4.261300 
# 
# 
# High freq. dielectric constant tensor:
#      x y z
#    x 1.816310 0.000000 -0.013520 
#    y 0.000000 1.817170 0.000000 
#    z -0.013520 0.000000 1.823300 
# 
# From -- ./inp_files/11640.got.cif
#   From: 2010.03.12/outbox.cif.g09.slc.cpg/sg5_6_cif.got.tgz:11640.got - 2010.03.31 09:47:26.
