data_PCOD8049027
_publ_section_title
;
Structure prediction by ZEFSAII (Michael W. Deem and Ramdas Pophale) SiO2 
 PCOD8049027
Probable space group: C 2
;
_chemical_formula_sum "Si O2"
_cell_formula_units_Z 28
_cell_length_a 10.905954
_cell_length_b 10.816051
_cell_length_c 12.953462
_cell_angle_alpha 90.000000
_cell_angle_beta 99.635359
_cell_angle_gamma 90.000000
_cell_volume 1506.426671
_symmetry_space_group_name_H-M "C 2"
_symmetry_group_IT_number 5
_symmetry_cell_setting 'monoclinic'
loop_
_space_group_symop_operation_xyz
x,y,z
-x,y,-z
1/2+x,1/2+y,z
1/2-x,1/2+y,-z
loop_
_atom_site_type_symbol
_atom_site_label
_atom_site_fract_x
_atom_site_fract_y
_atom_site_fract_z
Si Si1 0.714814 0.842690 0.770283
Si Si2 0.665206 0.517301 0.369830
Si Si3 0.459487 0.320677 0.383635
Si Si4 0.415932 0.153437 0.758549
Si Si5 0.481521 0.927110 0.116570
Si Si6 0.953856 0.276295 0.692279
Si Si7 0.717999 0.965147 0.401056
O O1 0.835500 0.758037 0.806596
O O2 0.603446 0.764646 0.697671
O O3 0.746996 0.960104 0.704546
O O4 0.662177 0.897845 0.871178
O O5 0.544907 0.436554 0.371102
O O6 0.618879 0.649522 0.326252
O O7 0.742155 0.527311 0.486349
O O8 0.500000 0.263776 0.500000
O O9 0.478870 0.214699 0.300241
O O10 0.320548 0.373628 0.364884
O O11 0.484951 0.069542 0.852902
O O12 0.315664 0.078165 0.677902
O O13 0.570327 0.836386 0.196717
O O14 0.500000 0.898632 0.000000
O O15 0.901262 0.375070 0.601264
#
# Coordination Sequence:
#
# PCOD8049027 Si02
#       7
#     4   4   4   4   4   4   4
#     4   9  21  38  56  83 110 146 190 233 276 343
#     4  10  20  35  54  82 118 152 185 223 278 332
#     4   9  20  34  52  83 116 152 184 219 268 339
#     4  10  20  38  58  79 115 147 183 233 277 330
#     4   9  21  43  57  83 110 142 196 242 291 329
#     4   9  21  36  56  83 113 152 186 233 275 329
#     4  10  21  32  53  85 116 154 185 217 271 338
#
# _framework density 18.587032000000001
#
# number of rings (size 3 to 8) (size 9 to 14) (size 15 to 20)
#    0.857    1.714    0.000    0.857    8.000    0.571 
#    2.571    0.000    0.000    3.429    0.000    0.000 
#    0.000    0.000    0.000    0.000    0.000    0.000 
#
# Total GULP energy -173470.865738 kJ/mol
# GULP energy per Si atom -12390.776124 kJ/mol
# Density = 1.854473 g / cm^3
# Si number density = 18.587032 Si / 1000 Ang^3
#
#
#
# Elastic Constant Matrix: (Units=GPa)
#
#
# Indices 1 2 3 4 5 6 
#
# 1 57.1990 28.7439 24.9415 0.0000 -18.6069 0.0000
# 2 28.7439 97.1337 38.8331 0.0000 -2.5204 0.0000
# 3 24.9415 38.8331 73.5974 0.0000 -13.3896 0.0000
# 4 0.0000 0.0000 0.0000 20.2123 0.0000 -1.3567
# 5 -18.6069 -2.5204 -13.3896 0.0000 24.1500 0.0000
# 6 0.0000 0.0000 0.0000 -1.3567 0.0000 14.9070
#
#
#
# Elastic Compliance Matrix: (Units=1/GPa)
#
#
# Indices 1 2 3 4 5 6 
#
# 1 0.028494 -0.006975 -0.002352 0.000000 0.019922 0.000000
# 2 -0.006975 0.014919 -0.006898 0.000000 -0.007642 0.000000
# 3 -0.002352 -0.006898 0.019534 0.000000 0.008298 0.000000
# 4 0.000000 0.000000 0.000000 0.049779 0.000000 0.004530
# 5 0.019922 -0.007642 0.008298 0.000000 0.060561 0.000000
# 6 0.000000 0.000000 0.000000 0.004530 0.000000 0.067495
#
#
# Mechanical properties :
#
#
# Convention : Reuss Voigt Hill
#
# Bulk Modulus (GPa) = 32.79011 45.88521 39.33766
# Shear Modulus (GPa) = 17.64314 20.88130 19.26222
#
# Velocity S-wave (km/s) = 3.08428 3.35540 3.22269
# Velocity P-wave (km/s) = 5.51030 6.30491 5.92095
#
# Compressibility (1/GPa) = 0.03049700
#
# Stress axis : x y z
#
# Youngs Moduli (GPa) = 35.09517 67.03012 51.19285
#
# Poissons Ratio (x) = 0.46752 0.12039
# Poissons Ratio (y) = 0.24478 0.35314
# Poissons Ratio (z) = 0.08253 0.46239
#
# Static dielectric constant tensor:
#      x y z
#    x 3.508450 0.000000 -0.108790 
#    y 0.000000 3.438280 0.000000 
#    z -0.108790 0.000000 3.072020 
# 
# 
# High freq. dielectric constant tensor:
#      x y z
#    x 1.725460 0.000000 -0.007310 
#    y 0.000000 1.729560 0.000000 
#    z -0.007310 0.000000 1.681910 
# 
# From -- ./inp_files/38845.got.cif
#   From: 2010.03.12/outbox.cif.g09.slc.cpg/sg5_20_cif.got.tgz:38845.got - 2010.03.31 09:47:26.
