data_PCOD8049492
_publ_section_title
;
Structure prediction by ZEFSAII (Michael W. Deem and Ramdas Pophale) SiO2 
 PCOD8049492
Probable space group: C 2
;
_chemical_formula_sum "Si O2"
_cell_formula_units_Z 28
_cell_length_a 9.779637
_cell_length_b 9.289204
_cell_length_c 23.270645
_cell_angle_alpha 90.000000
_cell_angle_beta 41.844172
_cell_angle_gamma 90.000000
_cell_volume 1410.279362
_symmetry_space_group_name_H-M "C 2"
_symmetry_group_IT_number 5
_symmetry_cell_setting 'monoclinic'
loop_
_space_group_symop_operation_xyz
x,y,z
-x,y,-z
1/2+x,1/2+y,z
1/2-x,1/2+y,-z
loop_
_atom_site_type_symbol
_atom_site_label
_atom_site_fract_x
_atom_site_fract_y
_atom_site_fract_z
Si Si1 0.098421 0.185620 0.673364
Si Si2 0.897075 0.901589 0.896586
Si Si3 0.774825 0.408929 0.590928
Si Si4 0.255578 0.467103 0.820561
Si Si5 0.822289 0.421525 0.710247
Si Si6 0.116245 0.749072 0.314275
Si Si7 0.613559 0.135929 0.023819
O O1 0.257762 0.262095 0.666325
O O2 0.926124 0.093236 0.761220
O O3 0.004332 0.310486 0.664242
O O4 0.221485 0.075613 0.592765
O O5 0.822641 0.778961 0.963014
O O6 0.140851 0.893382 0.812140
O O7 0.785601 0.881520 0.870513
O O8 0.826544 0.053939 0.945103
O O9 0.747112 0.395484 0.668601
O O10 0.617155 0.305132 0.607097
O O11 0.000000 0.367050 0.500000
O O12 0.263283 0.348631 0.768409
O O13 0.032560 0.539786 0.889638
O O14 0.900941 0.582263 0.697721
O O15 0.500000 0.175412 0.000000
#
# Coordination Sequence:
#
# PCOD8049492 Si02
#       7
#     4   4   4   4   4   4   4
#     4  10  21  39  64  92 122 163 200 250 305 365
#     4  11  21  42  58  87 123 162 208 251 301 351
#     4  10  23  44  65  91 124 158 199 252 309 370
#     4  10  20  40  62  83 123 162 205 249 307 356
#     4  11  22  39  64  91 126 160 206 252 301 368
#     4  10  21  38  64  93 118 160 201 252 301 372
#     4  10  24  38  57  86 125 163 203 261 299 353
#
# _framework density 19.854223000000001
#
# number of rings (size 3 to 8) (size 9 to 14) (size 15 to 20)
#    0.000    1.714    5.714    0.000    2.000    5.714 
#    2.571    0.714    0.000    0.000    0.000    0.000 
#    0.000    0.000    0.000    0.000    0.000    0.000 
#
# Total GULP energy -173585.199826 kJ/mol
# GULP energy per Si atom -12398.942845 kJ/mol
# Density = 1.980903 g / cm^3
# Si number density = 19.854223 Si / 1000 Ang^3
#
#
#
# Elastic Constant Matrix: (Units=GPa)
#
#
# Indices 1 2 3 4 5 6 
#
# 1 83.5086 53.3389 11.6377 0.0000 -11.4568 0.0000
# 2 53.3389 101.0805 8.8298 0.0000 5.6980 0.0000
# 3 11.6377 8.8298 64.8590 0.0000 -12.3890 0.0000
# 4 0.0000 0.0000 0.0000 22.1266 0.0000 -3.3929
# 5 -11.4568 5.6980 -12.3890 0.0000 19.7007 0.0000
# 6 0.0000 0.0000 0.0000 -3.3929 0.0000 39.3759
#
#
#
# Elastic Compliance Matrix: (Units=1/GPa)
#
#
# Indices 1 2 3 4 5 6 
#
# 1 0.022501 -0.012954 0.001070 0.000000 0.017505 0.000000
# 2 -0.012954 0.017795 -0.002864 0.000000 -0.014481 0.000000
# 3 0.001070 -0.002864 0.018063 0.000000 0.012810 0.000000
# 4 0.000000 0.000000 0.000000 0.045800 0.000000 0.003946
# 5 0.017505 -0.014481 0.012810 0.000000 0.073183 0.000000
# 6 0.000000 0.000000 0.000000 0.003946 0.000000 0.025736
#
#
# Mechanical properties :
#
#
# Convention : Reuss Voigt Hill
#
# Bulk Modulus (GPa) = 34.64734 44.11787 39.38261
# Shear Modulus (GPa) = 20.64449 27.95012 24.29730
#
# Velocity S-wave (km/s) = 3.22810 3.75609 3.50206
# Velocity P-wave (km/s) = 5.60204 6.40938 6.01926
#
# Compressibility (1/GPa) = 0.02886225
#
# Stress axis : x y z
#
# Youngs Moduli (GPa) = 44.44236 56.19510 55.36214
#
# Poissons Ratio (x) = 0.72793 -0.05922
# Poissons Ratio (y) = 0.57569 0.15858
# Poissons Ratio (z) = -0.04754 0.16097
#
# Static dielectric constant tensor:
#      x y z
#    x 3.464680 0.000000 -0.122960 
#    y 0.000000 3.627080 0.000000 
#    z -0.122960 0.000000 3.589050 
# 
# 
# High freq. dielectric constant tensor:
#      x y z
#    x 1.767010 0.000000 -0.011150 
#    y 0.000000 1.776330 0.000000 
#    z -0.011150 0.000000 1.769950 
# 
# From -- ./inp_files/64368.got.cif
#   From: 2010.03.12/outbox.cif.g09.slc.cpg/sg5_33_cif.got.tgz:64368.got - 2010.03.31 09:47:26.
