data_PCOD8049461
_publ_section_title
;
Structure prediction by ZEFSAII (Michael W. Deem and Ramdas Pophale) SiO2 
 PCOD8049461
Probable space group: C 2
;
_chemical_formula_sum "Si O2"
_cell_formula_units_Z 30
_cell_length_a 15.424132
_cell_length_b 8.932424
_cell_length_c 18.400294
_cell_angle_alpha 90.000000
_cell_angle_beta 33.294900
_cell_angle_gamma 90.000000
_cell_volume 1391.638272
_symmetry_space_group_name_H-M "C 2"
_symmetry_group_IT_number 5
_symmetry_cell_setting 'monoclinic'
loop_
_space_group_symop_operation_xyz
x,y,z
-x,y,-z
1/2+x,1/2+y,z
1/2-x,1/2+y,-z
loop_
_atom_site_type_symbol
_atom_site_label
_atom_site_fract_x
_atom_site_fract_y
_atom_site_fract_z
Si Si1 0.332216 0.876990 0.150734
Si Si2 0.725538 0.375699 0.620508
Si Si3 0.042691 0.376833 0.326367
Si Si4 0.132391 0.848119 0.152400
Si Si5 0.160346 0.624030 0.355909
Si Si6 0.781711 0.698800 0.236548
Si Si7 0.000000 0.917555 0.000000
Si Si8 0.240579 0.514778 0.075669
O O1 0.207363 0.902708 0.174527
O O2 0.278124 0.749147 0.244058
O O3 0.345211 0.030700 0.186566
O O4 0.500000 0.831588 0.000000
O O5 0.554186 0.365852 0.705226
O O6 0.745980 0.533095 0.647879
O O7 0.756592 0.236197 0.652913
O O8 0.854050 0.362292 0.465530
O O9 0.109233 0.512365 0.328245
O O10 0.126451 0.224207 0.295419
O O11 0.094749 0.412002 0.207035
O O12 0.177378 0.678601 0.102976
O O13 0.193551 0.950339 0.044705
O O14 0.000000 0.698327 0.500000
O O15 0.919563 0.812655 0.116316
O O16 0.875366 0.020991 0.044118
#
# Coordination Sequence:
#
# PCOD8049461 Si02
#       8
#     4   4   4   4   4   4   2   4
#     4  12  27  41  63 102 139 169 220 276 331 382
#     4  10  22  45  71  94 123 175 226 266 328 400
#     4   9  20  43  71  91 125 179 219 259 331 405
#     4  12  28  41  66 102 135 172 217 280 327 389
#     4   9  20  43  71  94 124 174 224 262 325 404
#     4  10  20  39  68  96 128 171 216 268 315 393
#     4  10  20  42  70  90 126 180 216 254 332 398
#     4  11  25  44  70  98 133 171 223 270 331 394
#
# _framework density 21.557326
#
# number of rings (size 3 to 8) (size 9 to 14) (size 15 to 20)
#    0.000    1.600    3.333    1.200    8.400    1.067 
#    2.400    1.333    0.000    0.000    0.000    0.000 
#    0.000    0.000    0.000    0.000    0.000    0.000 
#
# Total GULP energy -186025.090388 kJ/mol
# GULP energy per Si atom -12401.672693 kJ/mol
# Density = 2.150826 g / cm^3
# Si number density = 21.557326 Si / 1000 Ang^3
#
#
#
# Elastic Constant Matrix: (Units=GPa)
#
#
# Indices 1 2 3 4 5 6 
#
# 1 63.7872 15.2692 24.7472 0.0000 -21.2312 0.0000
# 2 15.2692 75.3613 45.4228 -0.0001 -18.1864 0.0000
# 3 24.7472 45.4228 154.4666 -0.0008 -27.4525 0.0003
# 4 0.0000 -0.0001 -0.0008 29.0620 0.0002 -0.8017
# 5 -21.2312 -18.1864 -27.4525 0.0002 32.4304 -0.0001
# 6 0.0000 0.0000 0.0003 -0.8017 -0.0001 18.0673
#
#
#
# Elastic Compliance Matrix: (Units=1/GPa)
#
#
# Indices 1 2 3 4 5 6 
#
# 1 0.020210 -0.000629 -0.000900 0.000000 0.012117 0.000000
# 2 -0.000629 0.017175 -0.003898 0.000000 0.005920 0.000000
# 3 -0.000900 -0.003898 0.008559 0.000000 0.004470 0.000000
# 4 0.000000 0.000000 0.000000 0.034451 0.000000 0.001529
# 5 0.012117 0.005920 0.004470 0.000000 0.045872 0.000000
# 6 0.000000 0.000000 0.000000 0.001529 0.000000 0.055416
#
#
# Mechanical properties :
#
#
# Convention : Reuss Voigt Hill
#
# Bulk Modulus (GPa) = 28.49683 51.61039 40.05361
# Shear Modulus (GPa) = 24.48210 29.79033 27.13622
#
# Velocity S-wave (km/s) = 3.37363 3.72144 3.55180
# Velocity P-wave (km/s) = 5.33132 6.51602 5.95321
#
# Compressibility (1/GPa) = 0.03509162
#
# Stress axis : x y z
#
# Youngs Moduli (GPa) = 49.48166 58.22528 116.84151
#
# Poissons Ratio (x) = 0.03660 0.10510
# Poissons Ratio (y) = 0.03110 0.45539
# Poissons Ratio (z) = 0.04451 0.22693
#
# Static dielectric constant tensor:
#      x y z
#    x 3.649220 0.000000 -0.018360 
#    y 0.000000 3.748550 0.000000 
#    z -0.018360 0.000000 4.376680 
# 
# 
# High freq. dielectric constant tensor:
#      x y z
#    x 1.820720 0.000000 -0.002240 
#    y 0.000000 1.834900 0.000000 
#    z -0.002240 0.000000 1.869300 
# 
# From -- ./inp_files/66600.got.cif
#   From: 2010.03.12/outbox.cif.g09.slc.cpg/sg5_34_cif.got.tgz:66600.got - 2010.03.31 09:47:26.
