data_PCOD8049859
_publ_section_title
;
Structure prediction by ZEFSAII (Michael W. Deem and Ramdas Pophale) SiO2 
 PCOD8049859
Probable space group: C 2
;
_chemical_formula_sum "Si O2"
_cell_formula_units_Z 20
_cell_length_a 21.142997
_cell_length_b 9.427124
_cell_length_c 13.004999
_cell_angle_alpha 90.000000
_cell_angle_beta 157.582284
_cell_angle_gamma 90.000000
_cell_volume 988.523360
_symmetry_space_group_name_H-M "C 2"
_symmetry_group_IT_number 5
_symmetry_cell_setting 'monoclinic'
loop_
_space_group_symop_operation_xyz
x,y,z
-x,y,-z
1/2+x,1/2+y,z
1/2-x,1/2+y,-z
loop_
_atom_site_type_symbol
_atom_site_label
_atom_site_fract_x
_atom_site_fract_y
_atom_site_fract_z
Si Si1 0.657567 0.213470 0.176618
Si Si2 0.338905 0.657610 0.862086
Si Si3 0.688292 0.577023 0.399751
Si Si4 0.513177 0.947705 0.839350
Si Si5 0.600156 0.937138 0.550420
O O1 0.784575 0.158133 0.453081
O O2 0.753349 0.325478 0.250775
O O3 0.500000 0.281177 0.000000
O O4 0.596296 0.087217 0.010974
O O5 0.281082 0.673226 0.656449
O O6 0.186728 0.590989 0.698262
O O7 0.491594 0.544209 0.103564
O O8 0.388561 0.812667 0.972880
O O9 0.817102 0.444351 0.580375
O O10 0.525899 0.947133 0.735033
O O11 0.500000 0.890117 0.500000
#
# Coordination Sequence:
#
# PCOD8049859 Si02
#       5
#     4   4   4   4   4
#     4  10  22  39  64  94 123 154 200 253 308 358
#     4  10  21  37  63  89 125 159 196 252 305 354
#     4   9  20  33  62  96 121 148 195 251 309 352
#     4  10  22  40  60  92 124 157 202 251 300 359
#     4  11  25  43  60  87 125 166 207 246 298 365
#
# _framework density 20.232199000000001
#
# number of rings (size 3 to 8) (size 9 to 14) (size 15 to 20)
#    0.000    2.000    2.000    0.000   14.000    1.600 
#    3.600    1.000    0.000    0.000    0.000    0.000 
#    0.000    0.000    0.000    0.000    0.000    0.000 
#
# Total GULP energy -123886.601734 kJ/mol
# GULP energy per Si atom -12388.660173 kJ/mol
# Density = 2.018615 g / cm^3
# Si number density = 20.232199 Si / 1000 Ang^3
#
#
#
# Elastic Constant Matrix: (Units=GPa)
#
#
# Indices 1 2 3 4 5 6 
#
# 1 140.6044 57.2051 54.5535 0.0000 6.9110 0.0000
# 2 57.2051 102.6322 45.9066 0.0000 2.8345 0.0000
# 3 54.5535 45.9066 88.0370 0.0000 -10.4540 0.0000
# 4 0.0000 0.0000 0.0000 30.8865 0.0000 -1.4188
# 5 6.9110 2.8345 -10.4540 0.0000 29.5566 0.0000
# 6 0.0000 0.0000 0.0000 -1.4188 0.0000 20.9140
#
#
#
# Elastic Compliance Matrix: (Units=1/GPa)
#
#
# Indices 1 2 3 4 5 6 
#
# 1 0.010825 -0.003526 -0.005355 0.000000 -0.004087 0.000000
# 2 -0.003526 0.014260 -0.005548 0.000000 -0.002506 0.000000
# 3 -0.005355 -0.005548 0.018562 0.000000 0.008349 0.000000
# 4 0.000000 0.000000 0.000000 0.032478 0.000000 0.002203
# 5 -0.004087 -0.002506 0.008349 0.000000 0.037982 0.000000
# 6 0.000000 0.000000 0.000000 0.002203 0.000000 0.047964
#
#
# Mechanical properties :
#
#
# Convention : Reuss Voigt Hill
#
# Bulk Modulus (GPa) = 67.61948 71.84488 69.73218
# Shear Modulus (GPa) = 25.52865 27.84530 26.68697
#
# Velocity S-wave (km/s) = 3.55601 3.71386 3.63579
# Velocity P-wave (km/s) = 7.09610 7.34694 7.22261
#
# Compressibility (1/GPa) = 0.01478864
#
# Stress axis : x y z
#
# Youngs Moduli (GPa) = 92.37811 70.12807 53.87429
#
# Poissons Ratio (x) = 0.24725 0.28849
# Poissons Ratio (y) = 0.32569 0.29892
# Poissons Ratio (z) = 0.49467 0.38910
#
# Static dielectric constant tensor:
#      x y z
#    x 3.420120 0.000000 -0.227280 
#    y 0.000000 3.543440 0.000000 
#    z -0.227280 0.000000 4.023230 
# 
# 
# High freq. dielectric constant tensor:
#      x y z
#    x 1.759270 0.000000 -0.027010 
#    y 0.000000 1.782510 0.000000 
#    z -0.027010 0.000000 1.806330 
# 
# From -- ./inp_files/52037.got.cif
#   From: 2010.03.12/outbox.cif.g09.slc.cpg/sg5_27_cif.got.tgz:52037.got - 2010.03.31 09:47:26.
