data_PCOD8049460
_publ_section_title
;
Structure prediction by ZEFSAII (Michael W. Deem and Ramdas Pophale) SiO2 
 PCOD8049460
Probable space group: C 2
;
_chemical_formula_sum "Si O2"
_cell_formula_units_Z 28
_cell_length_a 15.999283
_cell_length_b 12.815707
_cell_length_c 8.682386
_cell_angle_alpha 90.000000
_cell_angle_beta 44.972159
_cell_angle_gamma 90.000000
_cell_volume 1258.218448
_symmetry_space_group_name_H-M "C 2"
_symmetry_group_IT_number 5
_symmetry_cell_setting 'monoclinic'
loop_
_space_group_symop_operation_xyz
x,y,z
-x,y,-z
1/2+x,1/2+y,z
1/2-x,1/2+y,-z
loop_
_atom_site_type_symbol
_atom_site_label
_atom_site_fract_x
_atom_site_fract_y
_atom_site_fract_z
Si Si1 0.554461 0.902710 0.761542
Si Si2 0.272513 0.736357 0.401533
Si Si3 0.465124 0.132698 0.222951
Si Si4 0.061790 0.068259 0.677173
Si Si5 0.000000 0.904988 0.000000
Si Si6 0.500000 0.431145 0.500000
Si Si7 0.866317 0.788683 0.911093
Si Si8 0.368320 0.737449 0.932491
O O1 0.684154 0.849720 0.596255
O O2 0.569584 0.017976 0.668837
O O3 0.500000 0.914594 0.000000
O O4 0.463916 0.829501 0.787271
O O5 0.134428 0.720837 0.612471
O O6 0.335715 0.649450 0.422854
O O7 0.304705 0.729060 0.180273
O O8 0.574965 0.174144 0.179760
O O9 0.500000 0.128959 0.000000
O O10 0.085113 0.005723 0.489501
O O11 0.934476 0.126513 0.827730
O O12 0.070436 0.980857 0.796121
O O13 0.095355 0.835124 0.971633
O O14 0.409744 0.363503 0.718150
O O15 0.726774 0.764897 0.076528
#
# Coordination Sequence:
#
# PCOD8049460 Si02
#       8
#     4   4   4   4   2   2   4   4
#     4   8  19  39  63  92 124 167 216 270 339 395
#     4  10  20  39  68  95 130 171 222 277 337 408
#     4  11  23  39  61  93 133 174 217 272 330 399
#     4  10  20  41  69  97 125 171 230 273 337 395
#     4  10  20  40  62  94 132 176 220 272 334 394
#     4  10  24  38  62  92 132 174 222 280 324 396
#     4  11  23  39  61  93 135 174 223 275 334 393
#     4  10  20  40  69  95 128 173 222 279 327 408
#
# _framework density 22.253685999999998
#
# number of rings (size 3 to 8) (size 9 to 14) (size 15 to 20)
#    0.000    2.000    2.143    1.714    0.000    9.143 
#    0.000    0.000    0.000    0.857    0.000    0.000 
#    0.000    0.000    0.000    0.000    0.000    0.000 
#
# Total GULP energy -173503.286246 kJ/mol
# GULP energy per Si atom -12393.091875 kJ/mol
# Density = 2.220304 g / cm^3
# Si number density = 22.253686 Si / 1000 Ang^3
#
#
#
# Elastic Constant Matrix: (Units=GPa)
#
#
# Indices 1 2 3 4 5 6 
#
# 1 125.3870 49.5045 25.6405 0.0000 -6.8809 0.0000
# 2 49.5045 149.0023 23.3614 0.0000 -3.4117 0.0000
# 3 25.6405 23.3614 56.6474 0.0000 -4.9758 0.0000
# 4 0.0000 0.0000 0.0000 16.4309 0.0000 -2.2470
# 5 -6.8809 -3.4117 -4.9758 0.0000 37.2930 0.0000
# 6 0.0000 0.0000 0.0000 -2.2470 0.0000 20.2809
#
#
#
# Elastic Compliance Matrix: (Units=1/GPa)
#
#
# Indices 1 2 3 4 5 6 
#
# 1 0.009764 -0.002716 -0.003200 0.000000 0.001126 0.000000
# 2 -0.002716 0.007934 -0.002047 0.000000 -0.000048 0.000000
# 3 -0.003200 -0.002047 0.020113 0.000000 0.001906 0.000000
# 4 0.000000 0.000000 0.000000 0.061797 0.000000 0.006847
# 5 0.001126 -0.000048 0.001906 0.000000 0.027272 0.000000
# 6 0.000000 0.000000 0.000000 0.006847 0.000000 0.050066
#
#
# Mechanical properties :
#
#
# Convention : Reuss Voigt Hill
#
# Bulk Modulus (GPa) = 45.69548 58.67217 52.18382
# Shear Modulus (GPa) = 24.97905 30.30297 27.64101
#
# Velocity S-wave (km/s) = 3.35396 3.69413 3.52815
# Velocity P-wave (km/s) = 5.96466 6.67966 6.33226
#
# Compressibility (1/GPa) = 0.02188400
#
# Stress axis : x y z
#
# Youngs Moduli (GPa) = 102.41666 126.04664 49.71905
#
# Poissons Ratio (x) = 0.34240 0.15912
# Poissons Ratio (y) = 0.27821 0.10175
# Poissons Ratio (z) = 0.32777 0.25796
#
# Static dielectric constant tensor:
#      x y z
#    x 4.355030 0.000000 0.338390 
#    y 0.000000 4.599000 0.000000 
#    z 0.338390 0.000000 4.006280 
# 
# 
# High freq. dielectric constant tensor:
#      x y z
#    x 1.872490 0.000000 -0.001430 
#    y 0.000000 1.897480 0.000000 
#    z -0.001430 0.000000 1.849450 
# 
# From -- ./inp_files/24597.got.cif
#   From: 2010.03.12/outbox.cif.g09.slc.cpg/sg5_13_cif.got.tgz:24597.got - 2010.03.31 09:47:26.
