data_PCOD8049696
_publ_section_title
;
Structure prediction by ZEFSAII (Michael W. Deem and Ramdas Pophale) SiO2 
 PCOD8049696
Probable space group: C 2
;
_chemical_formula_sum "Si O2"
_cell_formula_units_Z 32
_cell_length_a 10.989260
_cell_length_b 9.262511
_cell_length_c 29.468288
_cell_angle_alpha 90.000000
_cell_angle_beta 150.745353
_cell_angle_gamma 90.000000
_cell_volume 1465.842551
_symmetry_space_group_name_H-M "C 2"
_symmetry_group_IT_number 5
_symmetry_cell_setting 'monoclinic'
loop_
_space_group_symop_operation_xyz
x,y,z
-x,y,-z
1/2+x,1/2+y,z
1/2-x,1/2+y,-z
loop_
_atom_site_type_symbol
_atom_site_label
_atom_site_fract_x
_atom_site_fract_y
_atom_site_fract_z
Si Si1 0.063878 0.850100 0.234164
Si Si2 0.259431 0.051791 0.717198
Si Si3 0.951632 0.955163 0.103427
Si Si4 0.595658 0.217612 0.982484
Si Si5 0.180388 0.083413 0.787845
Si Si6 0.691657 0.126195 0.521168
Si Si7 0.986057 0.393459 0.715756
Si Si8 0.374067 0.929720 0.585410
O O1 0.072756 0.681096 0.250083
O O2 0.346911 0.879718 0.313570
O O3 0.899231 0.882448 0.135645
O O4 0.982243 0.946996 0.249768
O O5 0.338742 0.033408 0.795488
O O6 0.962323 0.068702 0.621765
O O7 0.330559 0.912207 0.711445
O O8 0.245981 0.968908 0.190849
O O9 0.834880 0.114223 0.064194
O O10 0.831066 0.853077 0.025366
O O11 0.500000 0.274597 0.000000
O O12 0.367784 0.126967 0.888117
O O13 0.007359 0.219562 0.716909
O O14 0.500000 0.088007 0.500000
O O15 0.697937 0.297468 0.512530
O O16 0.619612 0.055995 0.449264
O O17 0.814475 0.466203 0.619321
#
# Coordination Sequence:
#
# PCOD8049696 Si02
#       8
#     4   4   4   4   4   4   4   4
#     4  10  20  43  64  87 127 164 208 260 310 381
#     4  11  23  43  65  94 123 170 213 258 319 382
#     4  10  22  43  62  93 130 164 212 266 312 377
#     4  11  22  39  65  95 130 169 211 265 324 369
#     4  11  21  43  67  89 130 168 214 263 315 381
#     4  11  24  43  66  94 128 165 211 265 319 375
#     4  10  23  45  65  92 132 169 213 262 317 383
#     4  10  23  43  64  92 128 166 207 263 320 374
#
# _framework density 21.830448000000001
#
# number of rings (size 3 to 8) (size 9 to 14) (size 15 to 20)
#    0.000    1.500    6.250    0.750    1.750    3.000 
#   11.250    0.000    0.000    0.000    0.000    0.000 
#    0.000    0.000    0.000    0.000    0.000    0.000 
#
# Total GULP energy -198278.128921 kJ/mol
# GULP energy per Si atom -12392.383058 kJ/mol
# Density = 2.178076 g / cm^3
# Si number density = 21.830448 Si / 1000 Ang^3
#
#
#
# Elastic Constant Matrix: (Units=GPa)
#
#
# Indices 1 2 3 4 5 6 
#
# 1 144.7302 66.7707 32.2106 0.0000 -25.9351 0.0000
# 2 66.7707 74.5682 31.9084 0.0000 -10.4653 0.0000
# 3 32.2106 31.9084 69.7374 0.0000 -23.0529 0.0000
# 4 0.0000 0.0000 0.0000 28.2217 0.0000 -5.1041
# 5 -25.9351 -10.4653 -23.0529 0.0000 36.4025 0.0000
# 6 0.0000 0.0000 0.0000 -5.1041 0.0000 44.3911
#
#
#
# Elastic Compliance Matrix: (Units=1/GPa)
#
#
# Indices 1 2 3 4 5 6 
#
# 1 0.013070 -0.011350 0.001462 0.000000 0.006975 0.000000
# 2 -0.011350 0.026532 -0.008915 0.000000 -0.006105 0.000000
# 3 0.001462 -0.008915 0.021805 0.000000 0.012287 0.000000
# 4 0.000000 0.000000 0.000000 0.036186 0.000000 0.004161
# 5 0.006975 -0.006105 0.012287 0.000000 0.038466 0.000000
# 6 0.000000 0.000000 0.000000 0.004161 0.000000 0.023005
#
#
# Mechanical properties :
#
#
# Convention : Reuss Voigt Hill
#
# Bulk Modulus (GPa) = 42.01600 61.20169 51.60884
# Shear Modulus (GPa) = 24.43719 32.34611 28.39165
#
# Velocity S-wave (km/s) = 3.34939 3.85346 3.61023
# Velocity P-wave (km/s) = 5.85202 6.92060 6.40862
#
# Compressibility (1/GPa) = 0.02380046
#
# Stress axis : x y z
#
# Youngs Moduli (GPa) = 76.50932 37.69015 45.86060
#
# Poissons Ratio (x) = 0.42779 -0.06705
# Poissons Ratio (y) = 0.86840 0.40886
# Poissons Ratio (z) = -0.11186 0.33602
#
# Static dielectric constant tensor:
#      x y z
#    x 4.000760 0.000000 -0.199480 
#    y 0.000000 3.812300 0.000000 
#    z -0.199480 0.000000 3.922960 
# 
# 
# High freq. dielectric constant tensor:
#      x y z
#    x 1.865180 0.000000 -0.015120 
#    y 0.000000 1.837440 0.000000 
#    z -0.015120 0.000000 1.858440 
# 
# From -- ./inp_files/71751.got.cif
#   From: 2010.03.12/outbox.cif.g09.slc.cpg/sg5_36_cif.got.tgz:71751.got - 2010.03.31 09:47:26.
