data_PCOD8049105
_publ_section_title
;
Structure prediction by ZEFSAII (Michael W. Deem and Ramdas Pophale) SiO2 
 PCOD8049105
Probable space group: C 2
;
_chemical_formula_sum "Si O2"
_cell_formula_units_Z 16
_cell_length_a 4.985264
_cell_length_b 19.020095
_cell_length_c 9.541906
_cell_angle_alpha 90.000000
_cell_angle_beta 60.584556
_cell_angle_gamma 90.000000
_cell_volume 788.124351
_symmetry_space_group_name_H-M "C 2"
_symmetry_group_IT_number 5
_symmetry_cell_setting 'monoclinic'
loop_
_space_group_symop_operation_xyz
x,y,z
-x,y,-z
1/2+x,1/2+y,z
1/2-x,1/2+y,-z
loop_
_atom_site_type_symbol
_atom_site_label
_atom_site_fract_x
_atom_site_fract_y
_atom_site_fract_z
Si Si1 0.266654 0.017930 0.315110
Si Si2 0.360244 0.315892 0.388590
Si Si3 0.398073 0.444151 0.184713
Si Si4 0.355866 0.161869 0.391537
O O1 0.405019 0.097621 0.269886
O O2 0.000000 0.012784 0.500000
O O3 0.540110 0.965159 0.287232
O O4 0.119394 0.000908 0.202511
O O5 0.500000 0.341567 0.500000
O O6 0.457492 0.369339 0.242540
O O7 0.495473 0.238097 0.311541
O O8 0.000000 0.314514 0.500000
O O9 0.500000 0.437671 0.000000
O O10 0.500000 0.135536 0.500000
O O11 0.000000 0.176378 0.500000
#
# Coordination Sequence:
#
# PCOD8049105 Si02
#       4
#     4   4   4   4
#     4  11  21  38  62  83 108 148 191 231 274 328
#     4  10  20  36  59  82 107 144 188 229 273 327
#     4  12  24  37  54  85 120 149 182 228 278 330
#     4   9  18  33  57  86 107 133 185 240 273 315
#
# _framework density 20.301362999999998
#
# number of rings (size 3 to 8) (size 9 to 14) (size 15 to 20)
#    0.000    1.500    0.000    8.250    0.000    0.000 
#    0.000    2.500    0.000    0.000    0.000    0.000 
#    0.000    0.000    0.000    0.000    0.000    0.000 
#
# Total GULP energy -99166.353196 kJ/mol
# GULP energy per Si atom -12395.794149 kJ/mol
# Density = 2.025516 g / cm^3
# Si number density = 20.301363 Si / 1000 Ang^3
#
#
#
# Elastic Constant Matrix: (Units=GPa)
#
#
# Indices 1 2 3 4 5 6 
#
# 1 147.3346 50.0945 44.4347 0.0000 23.8460 0.0000
# 2 50.0945 160.6096 78.2766 0.0000 25.4695 0.0000
# 3 44.4347 78.2766 91.6375 0.0000 29.5244 0.0000
# 4 0.0000 0.0000 0.0000 9.4368 0.0000 7.1825
# 5 23.8460 25.4695 29.5244 0.0000 34.6949 0.0000
# 6 0.0000 0.0000 0.0000 7.1825 0.0000 35.9947
#
#
#
# Elastic Compliance Matrix: (Units=1/GPa)
#
#
# Indices 1 2 3 4 5 6 
#
# 1 0.008289 -0.001065 -0.002103 0.000000 -0.003126 0.000000
# 2 -0.001065 0.010804 -0.008808 0.000000 0.000296 0.000000
# 3 -0.002103 -0.008808 0.023293 0.000000 -0.011911 0.000000
# 4 0.000000 0.000000 0.000000 0.124944 0.000000 -0.024932
# 5 -0.003126 0.000296 -0.011911 0.000000 0.040890 0.000000
# 6 0.000000 0.000000 0.000000 -0.024932 0.000000 0.032757
#
#
# Mechanical properties :
#
#
# Convention : Reuss Voigt Hill
#
# Bulk Modulus (GPa) = 54.24103 82.79927 68.52015
# Shear Modulus (GPa) = 18.44515 31.14369 24.79442
#
# Velocity S-wave (km/s) = 3.01751 3.92097 3.49853
# Velocity P-wave (km/s) = 6.23831 7.83405 7.08127
#
# Compressibility (1/GPa) = 0.01843623
#
# Stress axis : x y z
#
# Youngs Moduli (GPa) = 120.63475 92.55610 42.93069
#
# Poissons Ratio (x) = 0.09857 0.09026
# Poissons Ratio (y) = 0.12848 0.37813
# Poissons Ratio (z) = 0.25364 0.81522
#
# Static dielectric constant tensor:
#      x y z
#    x 3.972410 0.000000 0.103550 
#    y 0.000000 4.480780 0.000000 
#    z 0.103550 0.000000 3.080300 
# 
# 
# High freq. dielectric constant tensor:
#      x y z
#    x 1.824770 0.000000 0.011640 
#    y 0.000000 1.818330 0.000000 
#    z 0.011640 0.000000 1.727340 
# 
# From -- ./inp_files/11371.got.cif
#   From: 2010.03.12/outbox.cif.g09.slc.cpg/sg5_6_cif.got.tgz:11371.got - 2010.03.31 09:47:26.
