data_PCOD8049225
_publ_section_title
;
Structure prediction by ZEFSAII (Michael W. Deem and Ramdas Pophale) SiO2 
 PCOD8049225
Probable space group: C 2
;
_chemical_formula_sum "Si O2"
_cell_formula_units_Z 30
_cell_length_a 25.932155
_cell_length_b 7.540758
_cell_length_c 13.905951
_cell_angle_alpha 90.000000
_cell_angle_beta 148.037212
_cell_angle_gamma 90.000000
_cell_volume 1439.502073
_symmetry_space_group_name_H-M "C 2"
_symmetry_group_IT_number 5
_symmetry_cell_setting 'monoclinic'
loop_
_space_group_symop_operation_xyz
x,y,z
-x,y,-z
1/2+x,1/2+y,z
1/2-x,1/2+y,-z
loop_
_atom_site_type_symbol
_atom_site_label
_atom_site_fract_x
_atom_site_fract_y
_atom_site_fract_z
Si Si1 0.535612 0.043180 0.913712
Si Si2 0.000000 0.937475 0.500000
Si Si3 0.708673 0.816003 0.170211
Si Si4 0.321377 0.413833 0.522702
Si Si5 0.702363 0.610172 0.818308
Si Si6 0.720665 0.492195 0.055249
Si Si7 0.144484 0.645518 0.266566
Si Si8 0.487757 0.339628 0.274060
O O1 0.427339 0.012607 0.786373
O O2 0.526276 0.148498 0.798296
O O3 0.599526 0.165384 0.088780
O O4 0.591328 0.853619 0.988908
O O5 0.005587 0.808417 0.416162
O O6 0.088837 0.073081 0.644888
O O7 0.753481 0.787595 0.347611
O O8 0.744789 0.649769 0.166560
O O9 0.750136 0.998279 0.191765
O O10 0.256933 0.586009 0.441794
O O11 0.352043 0.331673 0.673317
O O12 0.422111 0.452654 0.626312
O O13 0.718320 0.817561 0.821794
O O14 0.751685 0.557635 0.998192
O O15 0.606529 0.459787 0.887025
#
# Coordination Sequence:
#
# PCOD8049225 Si02
#       8
#     4   2   4   4   4   4   4   4
#     4   9  19  38  62  86 121 165 210 251 312 372
#     4  10  22  38  62  88 132 162 206 254 316 362
#     4  11  21  39  62  91 121 162 206 258 304 375
#     4  10  21  39  60  91 126 159 204 261 317 361
#     4  11  21  41  58  88 125 164 204 261 295 370
#     4  11  23  37  63  88 122 167 212 244 307 366
#     4   9  20  37  60  87 123 163 201 261 314 367
#     4  10  20  37  61  90 122 167 201 256 305 368
#
# _framework density 20.840540000000001
#
# number of rings (size 3 to 8) (size 9 to 14) (size 15 to 20)
#    0.000    1.867    4.000    0.000    0.000    2.133 
#    0.000    7.333    0.000    0.000    0.000    0.000 
#    0.000    0.000    0.000    0.000    0.000    0.000 
#
# Total GULP energy -185912.019964 kJ/mol
# GULP energy per Si atom -12394.134664 kJ/mol
# Density = 2.079311 g / cm^3
# Si number density = 20.840540 Si / 1000 Ang^3
#
#
#
# Elastic Constant Matrix: (Units=GPa)
#
#
# Indices 1 2 3 4 5 6 
#
# 1 104.7375 31.4995 36.9093 0.0000 -6.1134 0.0000
# 2 31.4995 79.4881 23.0354 0.0000 -12.9478 0.0000
# 3 36.9093 23.0354 75.3631 0.0000 -0.6462 0.0000
# 4 0.0000 0.0000 0.0000 23.6263 0.0000 3.0822
# 5 -6.1134 -12.9478 -0.6462 0.0000 42.3204 0.0000
# 6 0.0000 0.0000 0.0000 3.0822 0.0000 32.0963
#
#
#
# Elastic Compliance Matrix: (Units=1/GPa)
#
#
# Indices 1 2 3 4 5 6 
#
# 1 0.012362 -0.003328 -0.005031 0.000000 0.000691 0.000000
# 2 -0.003328 0.015472 -0.003063 0.000000 0.004206 0.000000
# 3 -0.005031 -0.003063 0.016657 0.000000 -0.001410 0.000000
# 4 0.000000 0.000000 0.000000 0.042863 0.000000 -0.004116
# 5 0.000691 0.004206 -0.001410 0.000000 0.024994 0.000000
# 6 0.000000 0.000000 0.000000 -0.004116 0.000000 0.031551
#
#
# Mechanical properties :
#
#
# Convention : Reuss Voigt Hill
#
# Bulk Modulus (GPa) = 46.19687 49.16413 47.68050
# Shear Modulus (GPa) = 28.74220 30.81824 29.78022
#
# Velocity S-wave (km/s) = 3.71772 3.84964 3.78425
# Velocity P-wave (km/s) = 6.37523 6.58798 6.48248
#
# Compressibility (1/GPa) = 0.02164649
#
# Stress axis : x y z
#
# Youngs Moduli (GPa) = 80.89381 64.63181 60.03394
#
# Poissons Ratio (x) = 0.21511 0.30203
# Poissons Ratio (y) = 0.26924 0.18389
# Poissons Ratio (z) = 0.40698 0.19798
#
# Static dielectric constant tensor:
#      x y z
#    x 4.166830 0.000000 0.059980 
#    y 0.000000 3.225830 0.000000 
#    z 0.059980 0.000000 3.969520 
# 
# 
# High freq. dielectric constant tensor:
#      x y z
#    x 1.841580 0.000000 0.004740 
#    y 0.000000 1.763360 0.000000 
#    z 0.004740 0.000000 1.821810 
# 
# From -- ./inp_files/58081.got.cif
#   From: 2010.03.12/outbox.cif.g09.slc.cpg/sg5_30_cif.got.tgz:58081.got - 2010.03.31 09:47:26.
