data_PCOD8049349
_publ_section_title
;
Structure prediction by ZEFSAII (Michael W. Deem and Ramdas Pophale) SiO2 
 PCOD8049349
Probable space group: C 2
;
_chemical_formula_sum "Si O2"
_cell_formula_units_Z 24
_cell_length_a 25.661739
_cell_length_b 5.275765
_cell_length_c 20.763111
_cell_angle_alpha 90.000000
_cell_angle_beta 161.008005
_cell_angle_gamma 90.000000
_cell_volume 914.807278
_symmetry_space_group_name_H-M "C 2"
_symmetry_group_IT_number 5
_symmetry_cell_setting 'monoclinic'
loop_
_space_group_symop_operation_xyz
x,y,z
-x,y,-z
1/2+x,1/2+y,z
1/2-x,1/2+y,-z
loop_
_atom_site_type_symbol
_atom_site_label
_atom_site_fract_x
_atom_site_fract_y
_atom_site_fract_z
Si Si1 0.989517 0.621790 0.331032
Si Si2 0.000000 0.038986 0.500000
Si Si3 0.345992 0.636883 0.196632
Si Si4 0.727466 0.518635 0.434515
Si Si5 0.287285 0.145473 0.295324
Si Si6 0.500000 0.925474 0.000000
Si Si7 0.082387 0.770731 0.979384
O O1 0.140296 0.619015 0.460263
O O2 0.052733 0.595583 0.477759
O O3 0.871364 0.382658 0.180076
O O4 0.886178 0.880691 0.203875
O O5 0.981848 0.186343 0.411527
O O6 0.833811 0.875135 0.302009
O O7 0.161585 0.638516 0.008503
O O8 0.711411 0.748377 0.466488
O O9 0.552651 0.474321 0.198422
O O10 0.233186 0.902533 0.191364
O O11 0.149386 0.238944 0.182076
O O12 0.499859 0.081575 0.066191
#
# Coordination Sequence:
#
# PCOD8049349 Si02
#       7
#     4   2   4   4   4   2   4
#     4  11  25  46  74 110 146 187 243 288 382 433
#     4  10  20  38  64 106 152 184 228 264 390 436
#     4  11  23  42  72 106 151 191 231 301 351 461
#     4  12  30  51  77 104 143 197 262 319 369 434
#     4  11  23  40  68 108 151 186 224 297 360 465
#     4  12  24  38  68 108 150 182 236 294 364 446
#     4  12  26  45  71 111 148 197 249 300 378 432
#
# _framework density 26.235032
#
# number of rings (size 3 to 8) (size 9 to 14) (size 15 to 20)
#    0.000    0.667    1.667    6.500   11.667    0.667 
#    0.000    3.333    0.000    0.000    0.000    0.000 
#    0.000    0.000    0.000    0.000    0.000    0.000 
#
# Total GULP energy -148730.565357 kJ/mol
# GULP energy per Si atom -12394.213780 kJ/mol
# Density = 2.617532 g / cm^3
# Si number density = 26.235032 Si / 1000 Ang^3
#
#
#
# Elastic Constant Matrix: (Units=GPa)
#
#
# Indices 1 2 3 4 5 6 
#
# 1 59.5765 33.6121 31.3242 0.0020 41.0805 -0.0009
# 2 33.6121 183.0851 30.5579 -0.0045 32.6802 0.0016
# 3 31.3242 30.5579 94.2234 -0.0005 22.1016 0.0001
# 4 0.0020 -0.0045 -0.0005 34.1880 0.0007 20.8259
# 5 41.0805 32.6802 22.1016 0.0007 58.5197 -0.0002
# 6 -0.0009 0.0016 0.0001 20.8259 -0.0002 38.9064
#
#
#
# Elastic Compliance Matrix: (Units=1/GPa)
#
#
# Indices 1 2 3 4 5 6 
#
# 1 0.036370 -0.001653 -0.006345 -0.000004 -0.022212 0.000003
# 2 -0.001653 0.006287 -0.001029 0.000002 -0.001962 -0.000001
# 3 -0.006345 -0.001029 0.013031 0.000001 0.000107 -0.000001
# 4 -0.000004 0.000002 0.000001 0.043402 0.000001 -0.023233
# 5 -0.022212 -0.001962 0.000107 0.000001 0.033736 -0.000001
# 6 0.000003 -0.000001 -0.000001 -0.023233 -0.000001 0.038139
#
#
# Mechanical properties :
#
#
# Convention : Reuss Voigt Hill
#
# Bulk Modulus (GPa) = 26.57188 58.65261 42.61224
# Shear Modulus (GPa) = 24.80595 42.41555 33.61075
#
# Velocity S-wave (km/s) = 3.07828 4.02525 3.58318
# Velocity P-wave (km/s) = 4.77334 6.63390 5.77899
#
# Compressibility (1/GPa) = 0.03763377
#
# Stress axis : x y z
#
# Youngs Moduli (GPa) = 27.49526 159.04708 76.74007
#
# Poissons Ratio (x) = 0.26296 0.48689
# Poissons Ratio (y) = 0.04546 0.07899
# Poissons Ratio (z) = 0.17445 0.16370
#
# Static dielectric constant tensor:
#      x y z
#    x 4.529530 0.000000 0.118410 
#    y 0.000000 4.782670 0.000000 
#    z 0.118410 0.000000 4.366940 
# 
# 
# High freq. dielectric constant tensor:
#      x y z
#    x 2.045890 0.000000 0.020950 
#    y 0.000000 2.066570 0.000000 
#    z 0.020950 0.000000 2.052700 
# 
# From -- ./inp_files/69886.got.cif
#   From: 2010.03.12/outbox.cif.g09.slc.cpg/sg5_35_cif.got.tgz:69886.got - 2010.03.31 09:47:26.
