data_PCOD8049614
_publ_section_title
;
Structure prediction by ZEFSAII (Michael W. Deem and Ramdas Pophale) SiO2 
 PCOD8049614
Probable space group: C 2
;
_chemical_formula_sum "Si O2"
_cell_formula_units_Z 22
_cell_length_a 16.050643
_cell_length_b 7.637250
_cell_length_c 8.555137
_cell_angle_alpha 90.000000
_cell_angle_beta 75.455754
_cell_angle_gamma 90.000000
_cell_volume 1015.105379
_symmetry_space_group_name_H-M "C 2"
_symmetry_group_IT_number 5
_symmetry_cell_setting 'monoclinic'
loop_
_space_group_symop_operation_xyz
x,y,z
-x,y,-z
1/2+x,1/2+y,z
1/2-x,1/2+y,-z
loop_
_atom_site_type_symbol
_atom_site_label
_atom_site_fract_x
_atom_site_fract_y
_atom_site_fract_z
Si Si1 0.000000 0.350930 0.000000
Si Si2 0.400173 0.013595 0.527680
Si Si3 0.784034 0.870175 0.829568
Si Si4 0.867057 0.224153 0.293907
Si Si5 0.900924 0.923540 0.509103
Si Si6 0.850660 0.534958 0.890931
O O1 0.067307 0.477321 0.051169
O O2 0.952833 0.229542 0.148163
O O3 0.500000 0.972259 0.500000
O O4 0.386282 0.216674 0.484190
O O5 0.353670 0.962971 0.712138
O O6 0.361974 0.889292 0.413016
O O7 0.717232 0.739937 0.773141
O O8 0.840113 0.985564 0.682138
O O9 0.852899 0.745583 0.884149
O O10 0.737876 0.986898 0.980327
O O11 0.868722 0.036518 0.377443
O O12 0.000000 0.967238 0.500000
#
# Coordination Sequence:
#
# PCOD8049614 Si02
#       6
#     2   4   4   4   4   4
#     4  10  22  42  70  94 124 182 216 254 342 378
#     4  10  20  41  70  92 130 172 216 266 322 387
#     4  10  25  42  63  98 132 168 217 272 330 375
#     4  11  23  42  69  94 128 174 215 270 323 388
#     4  10  24  41  64  96 125 169 221 259 320 389
#     4  10  22  43  62  96 131 167 219 266 321 390
#
# _framework density 21.672626000000001
#
# number of rings (size 3 to 8) (size 9 to 14) (size 15 to 20)
#    0.000    1.818    1.818    0.545    7.636    1.455 
#    6.545    0.909    0.000    0.000    0.000    0.000 
#    0.000    0.000    0.000    0.000    0.000    0.000 
#
# Total GULP energy -136385.351248 kJ/mol
# GULP energy per Si atom -12398.668295 kJ/mol
# Density = 2.162330 g / cm^3
# Si number density = 21.672626 Si / 1000 Ang^3
#
#
#
# Elastic Constant Matrix: (Units=GPa)
#
#
# Indices 1 2 3 4 5 6 
#
# 1 60.3583 16.8746 42.4425 0.0000 -28.6537 0.0000
# 2 16.8746 82.8231 49.5157 0.0000 8.3795 0.0000
# 3 42.4425 49.5157 163.3096 0.0000 -31.4291 0.0000
# 4 0.0000 0.0000 0.0000 44.3376 0.0000 5.6618
# 5 -28.6537 8.3795 -31.4291 0.0000 39.6744 0.0000
# 6 0.0000 0.0000 0.0000 5.6618 0.0000 26.4776
#
#
#
# Elastic Compliance Matrix: (Units=1/GPa)
#
#
# Indices 1 2 3 4 5 6 
#
# 1 0.030276 -0.007750 -0.001175 0.000000 0.022572 0.000000
# 2 -0.007750 0.019145 -0.006662 0.000000 -0.014918 0.000000
# 3 -0.001175 -0.006662 0.010095 0.000000 0.008556 0.000000
# 4 0.000000 0.000000 0.000000 0.023187 0.000000 -0.004958
# 5 0.022572 -0.014918 0.008556 0.000000 0.051436 0.000000
# 6 0.000000 0.000000 0.000000 -0.004958 0.000000 0.038828
#
#
# Mechanical properties :
#
#
# Convention : Reuss Voigt Hill
#
# Bulk Modulus (GPa) = 35.28139 58.23963 46.76051
# Shear Modulus (GPa) = 23.40964 35.27513 29.34238
#
# Velocity S-wave (km/s) = 3.29013 4.03877 3.68352
# Velocity P-wave (km/s) = 5.54507 6.97708 6.30189
#
# Compressibility (1/GPa) = 0.02834355
#
# Stress axis : x y z
#
# Youngs Moduli (GPa) = 33.02940 52.23339 99.05966
#
# Poissons Ratio (x) = 0.40481 0.11635
# Poissons Ratio (y) = 0.25598 0.65989
# Poissons Ratio (z) = 0.03879 0.34796
#
# Static dielectric constant tensor:
#      x y z
#    x 3.954600 0.000000 -0.322870 
#    y 0.000000 3.628670 0.000000 
#    z -0.322870 0.000000 4.297900 
# 
# 
# High freq. dielectric constant tensor:
#      x y z
#    x 1.856680 0.000000 -0.018680 
#    y 0.000000 1.834700 0.000000 
#    z -0.018680 0.000000 1.867160 
# 
# From -- ./inp_files/26257.got.cif
#   From: 2010.03.12/outbox.cif.g09.slc.cpg/sg5_14_cif.got.tgz:26257.got - 2010.03.31 09:47:26.
