data_PCOD8049773
_publ_section_title
;
Structure prediction by ZEFSAII (Michael W. Deem and Ramdas Pophale) SiO2 
 PCOD8049773
Probable space group: C 2
;
_chemical_formula_sum "Si O2"
_cell_formula_units_Z 28
_cell_length_a 5.078433
_cell_length_b 33.205507
_cell_length_c 9.225165
_cell_angle_alpha 90.000000
_cell_angle_beta 64.225415
_cell_angle_gamma 90.000000
_cell_volume 1400.887838
_symmetry_space_group_name_H-M "C 2"
_symmetry_group_IT_number 5
_symmetry_cell_setting 'monoclinic'
loop_
_space_group_symop_operation_xyz
x,y,z
-x,y,-z
1/2+x,1/2+y,z
1/2-x,1/2+y,-z
loop_
_atom_site_type_symbol
_atom_site_label
_atom_site_fract_x
_atom_site_fract_y
_atom_site_fract_z
Si Si1 0.634628 0.612530 0.811354
Si Si2 0.825520 0.426647 0.893127
Si Si3 0.835905 0.485853 0.391001
Si Si4 0.676244 0.835364 0.103531
Si Si5 0.168882 0.276652 0.607117
Si Si6 0.826895 0.186289 0.392345
Si Si7 0.359717 0.064354 0.191217
O O1 0.572455 0.655882 0.755943
O O2 0.470333 0.579622 0.751332
O O3 0.967543 0.597702 0.753637
O O4 0.500000 0.615796 0.000000
O O5 0.798232 0.380743 0.842260
O O6 0.990992 0.449442 0.725340
O O7 0.500000 0.444321 0.000000
O O8 0.000000 0.430371 0.000000
O O9 0.500000 0.473110 0.500000
O O10 0.847454 0.523113 0.279897
O O11 0.000000 0.496902 0.500000
O O12 0.495983 0.807918 0.254240
O O13 0.500000 0.835847 0.000000
O O14 0.000000 0.817180 0.000000
O O15 0.500000 0.291071 0.500000
O O16 0.158771 0.231576 0.676420
O O17 0.000000 0.275053 0.500000
O O18 0.500000 0.173256 0.500000
O O19 0.000000 0.181374 0.500000
O O20 0.500000 0.056535 0.000000
#
# Coordination Sequence:
#
# PCOD8049773 Si02
#       7
#     4   4   4   4   4   4   4
#     4  10  21  37  57  81 107 144 192 234 275 328
#     4  10  22  41  62  83 115 155 188 226 285 344
#     4  12  25  38  58  90 117 144 191 239 280 331
#     4  10  21  38  61  88 113 147 194 235 276 332
#     4  10  21  37  57  84 118 154 187 227 286 342
#     4  10  21  36  55  80 112 149 185 226 282 337
#     4  10  22  39  57  78 111 151 186 227 285 340
#
# _framework density 19.987323
#
# number of rings (size 3 to 8) (size 9 to 14) (size 15 to 20)
#    0.000    1.714    0.000    3.857    0.000    6.857 
#    0.000    2.143    0.000    0.000    0.000    0.000 
#    0.000    0.000    0.000    0.000    0.000    0.000 
#
# Total GULP energy -173587.759086 kJ/mol
# GULP energy per Si atom -12399.125649 kJ/mol
# Density = 1.994183 g / cm^3
# Si number density = 19.987323 Si / 1000 Ang^3
#
#
#
# Elastic Constant Matrix: (Units=GPa)
#
#
# Indices 1 2 3 4 5 6 
#
# 1 146.3732 33.1546 47.1435 0.0000 -14.2274 0.0000
# 2 33.1546 108.3911 64.8835 0.0000 -7.2234 0.0000
# 3 47.1435 64.8835 76.4199 0.0000 -10.5415 0.0000
# 4 0.0000 0.0000 0.0000 39.4079 0.0000 0.2524
# 5 -14.2274 -7.2234 -10.5415 0.0000 33.5481 0.0000
# 6 0.0000 0.0000 0.0000 0.2524 0.0000 27.8566
#
#
#
# Elastic Compliance Matrix: (Units=1/GPa)
#
#
# Indices 1 2 3 4 5 6 
#
# 1 0.008722 0.001058 -0.005998 0.000000 0.002042 0.000000
# 2 0.001058 0.018922 -0.016824 0.000000 -0.000763 0.000000
# 3 -0.005998 -0.016824 0.031588 0.000000 0.003760 0.000000
# 4 0.000000 0.000000 0.000000 0.025377 0.000000 -0.000230
# 5 0.002042 -0.000763 0.003760 0.000000 0.031691 0.000000
# 6 0.000000 0.000000 0.000000 -0.000230 0.000000 0.035900
#
#
# Mechanical properties :
#
#
# Convention : Reuss Voigt Hill
#
# Bulk Modulus (GPa) = 63.66815 69.06085 66.36450
# Shear Modulus (GPa) = 24.88027 32.56271 28.72149
#
# Velocity S-wave (km/s) = 3.53200 4.04067 3.79487
# Velocity P-wave (km/s) = 6.96827 7.50978 7.24409
#
# Compressibility (1/GPa) = 0.01570644
#
# Stress axis : x y z
#
# Youngs Moduli (GPa) = 114.64783 52.84851 31.65741
#
# Poissons Ratio (x) = -0.05593 0.18987
# Poissons Ratio (y) = -0.12134 0.53260
# Poissons Ratio (z) = 0.68762 0.88911
#
# Static dielectric constant tensor:
#      x y z
#    x 4.133330 0.000000 -0.015850 
#    y 0.000000 4.000940 0.000000 
#    z -0.015850 0.000000 3.076250 
# 
# 
# High freq. dielectric constant tensor:
#      x y z
#    x 1.806550 0.000000 0.002430 
#    y 0.000000 1.781690 0.000000 
#    z 0.002430 0.000000 1.771370 
# 
# From -- ./inp_files/13282.got.cif
#   From: 2010.03.12/outbox.cif.g09.slc.cpg/sg5_7_cif.got.tgz:13282.got - 2010.03.31 09:47:26.
