data_PCOD8049230
_publ_section_title
;
Structure prediction by ZEFSAII (Michael W. Deem and Ramdas Pophale) SiO2 
 PCOD8049230
Probable space group: C 2
;
_chemical_formula_sum "Si O2"
_cell_formula_units_Z 28
_cell_length_a 10.343546
_cell_length_b 14.600957
_cell_length_c 18.626140
_cell_angle_alpha 90.000000
_cell_angle_beta 150.471176
_cell_angle_gamma 90.000000
_cell_volume 1386.431439
_symmetry_space_group_name_H-M "C 2"
_symmetry_group_IT_number 5
_symmetry_cell_setting 'monoclinic'
loop_
_space_group_symop_operation_xyz
x,y,z
-x,y,-z
1/2+x,1/2+y,z
1/2-x,1/2+y,-z
loop_
_atom_site_type_symbol
_atom_site_label
_atom_site_fract_x
_atom_site_fract_y
_atom_site_fract_z
Si Si1 0.010938 0.222470 0.174246
Si Si2 0.301052 0.580149 0.630781
Si Si3 0.992466 0.717871 0.303225
Si Si4 0.490091 0.612152 0.574228
Si Si5 0.602279 0.410612 0.794812
Si Si6 0.915135 0.619775 0.127054
Si Si7 0.952895 0.418976 0.098558
O O1 0.040593 0.170760 0.265132
O O2 0.291092 0.211380 0.271163
O O3 0.963004 0.332219 0.158458
O O4 0.768720 0.174933 0.016286
O O5 0.357609 0.555400 0.574670
O O6 0.399559 0.489899 0.719847
O O7 0.000000 0.596304 0.500000
O O8 0.290181 0.696452 0.468763
O O9 0.038791 0.817425 0.293155
O O10 0.858274 0.649237 0.180964
O O11 0.500000 0.560779 0.500000
O O12 0.778115 0.644049 0.739016
O O13 0.772206 0.442308 0.807615
O O14 0.764834 0.387886 0.944104
O O15 0.863411 0.510456 0.096494
#
# Coordination Sequence:
#
# PCOD8049230 Si02
#       7
#     4   4   4   4   4   4   4
#     4  11  22  38  66  91 127 162 217 268 312 375
#     4  12  23  40  66  99 130 166 218 274 318 370
#     4  10  21  41  63  91 126 173 208 259 323 391
#     4  10  23  41  62  91 129 171 208 255 333 383
#     4  10  20  37  64  91 124 163 220 255 315 386
#     4  11  20  37  67  88 126 164 217 252 319 380
#     4  10  20  37  61  97 119 167 212 261 317 385
#
# _framework density 20.195734000000002
#
# number of rings (size 3 to 8) (size 9 to 14) (size 15 to 20)
#    0.000    1.429    5.714    0.429    0.000    2.286 
#    0.000    5.000   12.571    0.000    0.000    0.000 
#    0.000    0.000    0.000    0.000    0.000    0.000 
#
# Total GULP energy -173444.087447 kJ/mol
# GULP energy per Si atom -12388.863389 kJ/mol
# Density = 2.014977 g / cm^3
# Si number density = 20.195734 Si / 1000 Ang^3
#
#
#
# Elastic Constant Matrix: (Units=GPa)
#
#
# Indices 1 2 3 4 5 6 
#
# 1 75.8823 20.4005 21.5187 0.0023 -8.9624 -0.0022
# 2 20.4005 127.1536 37.2286 -0.0005 -9.3856 -0.0031
# 3 21.5187 37.2286 99.6750 -0.0008 10.6486 -0.0100
# 4 0.0023 -0.0005 -0.0008 30.2791 0.0027 2.8600
# 5 -8.9624 -9.3856 10.6486 0.0027 21.4041 -0.0002
# 6 -0.0022 -0.0031 -0.0100 2.8600 -0.0002 23.4277
#
#
#
# Elastic Compliance Matrix: (Units=1/GPa)
#
#
# Indices 1 2 3 4 5 6 
#
# 1 0.015445 -0.000730 -0.003927 -0.000002 0.008101 0.000000
# 2 -0.000730 0.009610 -0.004065 0.000000 0.005930 0.000000
# 3 -0.003927 -0.004065 0.013481 0.000001 -0.010134 0.000005
# 4 -0.000002 0.000000 0.000001 0.033411 -0.000006 -0.004079
# 5 0.008101 0.005930 -0.010134 -0.000006 0.057754 -0.000001
# 6 0.000000 0.000000 0.000005 -0.004079 -0.000001 0.043183
#
#
# Mechanical properties :
#
#
# Convention : Reuss Voigt Hill
#
# Bulk Modulus (GPa) = 47.41329 51.22293 49.31811
# Shear Modulus (GPa) = 25.33453 29.92639 27.63046
#
# Velocity S-wave (km/s) = 3.54566 3.85361 3.70284
# Velocity P-wave (km/s) = 6.34745 6.72449 6.53869
#
# Compressibility (1/GPa) = 0.02109113
#
# Stress axis : x y z
#
# Youngs Moduli (GPa) = 64.74569 104.06262 74.17646
#
# Poissons Ratio (x) = 0.07599 0.29130
# Poissons Ratio (y) = 0.04728 0.30153
# Poissons Ratio (z) = 0.25426 0.42302
#
# Static dielectric constant tensor:
#      x y z
#    x 3.692650 0.000000 -0.057190 
#    y 0.000000 3.573550 0.000000 
#    z -0.057190 0.000000 3.824940 
# 
# 
# High freq. dielectric constant tensor:
#      x y z
#    x 1.768970 0.000000 0.002110 
#    y 0.000000 1.779370 0.000000 
#    z 0.002110 0.000000 1.802280 
# 
# From -- ./inp_files/65315.got.cif
#   From: 2010.03.12/outbox.cif.g09.slc.cpg/sg5_33_cif.got.tgz:65315.got - 2010.03.31 09:47:26.
