data_PCOD8049023
_publ_section_title
;
Structure prediction by ZEFSAII (Michael W. Deem and Ramdas Pophale) SiO2 
 PCOD8049023
Probable space group: C 2
;
_chemical_formula_sum "Si O2"
_cell_formula_units_Z 28
_cell_length_a 11.733756
_cell_length_b 18.535170
_cell_length_c 8.728499
_cell_angle_alpha 90.000000
_cell_angle_beta 49.803189
_cell_angle_gamma 90.000000
_cell_volume 1450.010059
_symmetry_space_group_name_H-M "C 2"
_symmetry_group_IT_number 5
_symmetry_cell_setting 'monoclinic'
loop_
_space_group_symop_operation_xyz
x,y,z
-x,y,-z
1/2+x,1/2+y,z
1/2-x,1/2+y,-z
loop_
_atom_site_type_symbol
_atom_site_label
_atom_site_fract_x
_atom_site_fract_y
_atom_site_fract_z
Si Si1 0.852400 0.815140 0.035767
Si Si2 0.674504 0.933042 0.360425
Si Si3 0.722269 0.994508 0.648051
Si Si4 0.359065 0.540185 0.014186
Si Si5 0.000000 0.092983 0.500000
Si Si6 0.500000 0.085542 0.000000
Si Si7 0.885683 0.926732 0.738623
Si Si8 0.775396 0.164819 0.904267
O O1 0.754877 0.859452 0.241530
O O2 0.754113 0.749760 0.053125
O O3 0.894783 0.862098 0.850427
O O4 0.000000 0.789967 0.000000
O O5 0.500000 0.920945 0.500000
O O6 0.726557 0.952325 0.485429
O O7 0.722023 0.996390 0.204689
O O8 0.870465 0.044538 0.532764
O O9 0.728569 0.936305 0.784142
O O10 0.568278 0.038111 0.801420
O O11 0.407229 0.503625 0.809984
O O12 0.299999 0.622200 0.043536
O O13 0.500000 0.537918 0.000000
O O14 0.073612 0.149280 0.318429
O O15 0.370314 0.134379 0.049339
O O16 0.000000 0.914418 0.500000
#
# Coordination Sequence:
#
# PCOD8049023 Si02
#       8
#     4   4   4   4   2   2   4   4
#     4  11  25  40  60  86 124 167 199 242 300 365
#     4  11  24  39  61  95 125 154 198 254 301 349
#     4  11  20  37  66  92 116 153 201 258 295 349
#     4  11  21  38  66  91 119 152 205 253 298 349
#     4  10  20  34  66  92 108 154 206 248 290 354
#     4  10  20  36  62  90 114 152 206 250 292 348
#     4  11  19  37  64  89 113 154 207 245 294 354
#     4  11  21  40  59  86 120 161 199 242 297 364
#
# _framework density 19.310209
#
# number of rings (size 3 to 8) (size 9 to 14) (size 15 to 20)
#    0.000    1.143    4.286    5.143    3.000    0.000 
#    0.000    3.571    6.286    0.000    0.000    0.000 
#    0.000    0.000    0.000    0.000    0.000    0.000 
#
# Total GULP energy -173468.476388 kJ/mol
# GULP energy per Si atom -12390.605456 kJ/mol
# Density = 1.926626 g / cm^3
# Si number density = 19.310209 Si / 1000 Ang^3
#
#
#
# Elastic Constant Matrix: (Units=GPa)
#
#
# Indices 1 2 3 4 5 6 
#
# 1 88.6325 32.2771 45.4109 0.0000 4.9807 0.0000
# 2 32.2771 123.1250 45.2340 0.0000 5.3023 0.0000
# 3 45.4109 45.2340 100.5105 0.0000 -0.3241 0.0000
# 4 0.0000 0.0000 0.0000 23.3906 0.0000 2.0186
# 5 4.9807 5.3023 -0.3241 0.0000 38.4915 0.0000
# 6 0.0000 0.0000 0.0000 2.0186 0.0000 29.4257
#
#
#
# Elastic Compliance Matrix: (Units=1/GPa)
#
#
# Indices 1 2 3 4 5 6 
#
# 1 0.015101 -0.001646 -0.006088 0.000000 -0.001779 0.000000
# 2 -0.001646 0.009984 -0.003753 0.000000 -0.001194 0.000000
# 3 -0.006088 -0.003753 0.014393 0.000000 0.001426 0.000000
# 4 0.000000 0.000000 0.000000 0.043007 0.000000 -0.002950
# 5 -0.001779 -0.001194 0.001426 0.000000 0.026386 0.000000
# 6 0.000000 0.000000 0.000000 -0.002950 0.000000 0.034186
#
#
# Mechanical properties :
#
#
# Convention : Reuss Voigt Hill
#
# Bulk Modulus (GPa) = 60.58984 62.01244 61.30114
# Shear Modulus (GPa) = 29.14903 30.88461 30.01682
#
# Velocity S-wave (km/s) = 3.88946 4.00358 3.94693
# Velocity P-wave (km/s) = 7.18441 7.31813 7.25158
#
# Compressibility (1/GPa) = 0.01650442
#
# Stress axis : x y z
#
# Youngs Moduli (GPa) = 66.22162 100.16470 69.47594
#
# Poissons Ratio (x) = 0.16482 0.42295
# Poissons Ratio (y) = 0.10897 0.26077
# Poissons Ratio (z) = 0.40314 0.37596
#
# Static dielectric constant tensor:
#      x y z
#    x 3.388520 0.000000 -0.027590 
#    y 0.000000 3.510960 0.000000 
#    z -0.027590 0.000000 3.794450 
# 
# 
# High freq. dielectric constant tensor:
#      x y z
#    x 1.757320 0.000000 -0.004700 
#    y 0.000000 1.730840 0.000000 
#    z -0.004700 0.000000 1.763660 
# 
# From -- ./inp_files/21760.got.cif
#   From: 2010.03.12/outbox.cif.g09.slc.cpg/sg5_11_cif.got.tgz:21760.got - 2010.03.31 09:47:26.
