data_PCOD8049359
_publ_section_title
;
Structure prediction by ZEFSAII (Michael W. Deem and Ramdas Pophale) SiO2 
 PCOD8049359
Probable space group: C 2
;
_chemical_formula_sum "Si O2"
_cell_formula_units_Z 26
_cell_length_a 9.671376
_cell_length_b 15.580559
_cell_length_c 9.065871
_cell_angle_alpha 90.000000
_cell_angle_beta 107.330609
_cell_angle_gamma 90.000000
_cell_volume 1304.076552
_symmetry_space_group_name_H-M "C 2"
_symmetry_group_IT_number 5
_symmetry_cell_setting 'monoclinic'
loop_
_space_group_symop_operation_xyz
x,y,z
-x,y,-z
1/2+x,1/2+y,z
1/2-x,1/2+y,-z
loop_
_atom_site_type_symbol
_atom_site_label
_atom_site_fract_x
_atom_site_fract_y
_atom_site_fract_z
Si Si1 0.700411 0.909870 0.864451
Si Si2 0.000000 0.139939 0.000000
Si Si3 0.036045 0.244497 0.731739
Si Si4 0.000000 0.812724 0.000000
Si Si5 0.490510 0.165706 0.764063
Si Si6 0.500000 0.021319 0.000000
Si Si7 0.742015 0.570849 0.271647
Si Si8 0.703349 0.678176 0.515351
O O1 0.594327 0.839663 0.762261
O O2 0.629985 0.959987 0.982360
O O3 0.856967 0.871788 0.954194
O O4 0.706721 0.973556 0.726378
O O5 0.933786 0.201813 0.102167
O O6 0.121093 0.079300 0.106812
O O7 0.118523 0.182810 0.642036
O O8 0.867384 0.247502 0.623626
O O9 0.013566 0.752581 0.862173
O O10 0.635210 0.141658 0.722744
O O11 0.371602 0.189992 0.603641
O O12 0.442131 0.084398 0.851341
O O13 0.684589 0.587711 0.419819
#
# Coordination Sequence:
#
# PCOD8049359 Si02
#       8
#     4   2   4   2   4   2   4   4
#     4  11  21  39  59  96 123 156 199 265 304 354
#     4  10  20  38  64  92 116 168 204 242 288 386
#     4  10  21  38  65  85 123 156 206 242 304 355
#     4  11  21  36  65  89 126 154 206 259 303 346
#     4  10  20  40  62  86 118 167 204 244 295 375
#     4   9  23  38  61  93 124 158 204 249 309 360
#     4  10  22  37  63  89 123 157 206 246 306 354
#     4  10  21  40  59  87 117 165 200 243 291 377
#
# _framework density 19.937480999999998
#
# number of rings (size 3 to 8) (size 9 to 14) (size 15 to 20)
#    0.000    1.846    1.538    2.308    4.308    1.231 
#   13.846    0.000    0.000    0.000    0.000    0.000 
#    0.000    0.000    0.000    0.000    0.000    0.000 
#
# Total GULP energy -161069.549721 kJ/mol
# GULP energy per Si atom -12389.965363 kJ/mol
# Density = 1.989210 g / cm^3
# Si number density = 19.937481 Si / 1000 Ang^3
#
#
#
# Elastic Constant Matrix: (Units=GPa)
#
#
# Indices 1 2 3 4 5 6 
#
# 1 89.9594 54.4848 31.9052 0.0000 9.1910 0.0000
# 2 54.4848 111.2500 29.4236 0.0000 -10.9199 0.0000
# 3 31.9052 29.4236 91.6036 0.0000 -1.8508 0.0000
# 4 0.0000 0.0000 0.0000 13.9805 0.0000 0.6099
# 5 9.1910 -10.9199 -1.8508 0.0000 48.4967 0.0000
# 6 0.0000 0.0000 0.0000 0.6099 0.0000 34.4474
#
#
#
# Elastic Compliance Matrix: (Units=1/GPa)
#
#
# Indices 1 2 3 4 5 6 
#
# 1 0.018084 -0.008413 -0.003707 0.000000 -0.005463 0.000000
# 2 -0.008413 0.013954 -0.001457 0.000000 0.004681 0.000000
# 3 -0.003707 -0.001457 0.012693 0.000000 0.000859 0.000000
# 4 0.000000 0.000000 0.000000 0.071584 0.000000 -0.001267
# 5 -0.005463 0.004681 0.000859 0.000000 0.022742 0.000000
# 6 0.000000 0.000000 0.000000 -0.001267 0.000000 0.029052
#
#
# Mechanical properties :
#
#
# Convention : Reuss Voigt Hill
#
# Bulk Modulus (GPa) = 56.89118 58.27113 57.58116
# Shear Modulus (GPa) = 24.86062 31.18488 28.02275
#
# Velocity S-wave (km/s) = 3.53502 3.95920 3.75311
# Velocity P-wave (km/s) = 6.72745 7.08454 6.90830
#
# Compressibility (1/GPa) = 0.01757742
#
# Stress axis : x y z
#
# Youngs Moduli (GPa) = 55.29730 71.66569 78.78269
#
# Poissons Ratio (x) = 0.60289 0.29203
# Poissons Ratio (y) = 0.46519 0.11482
# Poissons Ratio (z) = 0.20498 0.10444
#
# Static dielectric constant tensor:
#      x y z
#    x 3.816530 0.000000 0.059400 
#    y 0.000000 3.593870 0.000000 
#    z 0.059400 0.000000 3.798860 
# 
# 
# High freq. dielectric constant tensor:
#      x y z
#    x 1.783580 0.000000 0.003240 
#    y 0.000000 1.763600 0.000000 
#    z 0.003240 0.000000 1.784890 
# 
# From -- ./inp_files/20517.got.cif
#   From: 2010.03.12/outbox.cif.g09.slc.cpg/sg5_11_cif.got.tgz:20517.got - 2010.03.31 09:47:26.
