data_PCOD8049269
_publ_section_title
;
Structure prediction by ZEFSAII (Michael W. Deem and Ramdas Pophale) SiO2 
 PCOD8049269
Probable space group: C 2
;
_chemical_formula_sum "Si O2"
_cell_formula_units_Z 32
_cell_length_a 22.702674
_cell_length_b 14.021997
_cell_length_c 8.637528
_cell_angle_alpha 90.000000
_cell_angle_beta 149.448134
_cell_angle_gamma 90.000000
_cell_volume 1397.693516
_symmetry_space_group_name_H-M "C 2"
_symmetry_group_IT_number 5
_symmetry_cell_setting 'monoclinic'
loop_
_space_group_symop_operation_xyz
x,y,z
-x,y,-z
1/2+x,1/2+y,z
1/2-x,1/2+y,-z
loop_
_atom_site_type_symbol
_atom_site_label
_atom_site_fract_x
_atom_site_fract_y
_atom_site_fract_z
Si Si1 0.621156 0.062570 0.205220
Si Si2 0.773670 0.749475 0.566532
Si Si3 0.415224 0.969722 0.181878
Si Si4 0.821771 0.941994 0.813580
Si Si5 0.054440 0.999297 0.467146
Si Si6 0.768978 0.864109 0.026136
Si Si7 0.830213 0.186109 0.349049
Si Si8 0.460923 0.797427 0.087231
O O1 0.633630 0.172904 0.285199
O O2 0.730012 0.007210 0.520254
O O3 0.500000 0.024672 0.000000
O O4 0.629151 0.052218 0.034935
O O5 0.839115 0.846918 0.752047
O O6 0.717844 0.700459 0.589787
O O7 0.674033 0.767414 0.212990
O O8 0.500000 0.018036 0.500000
O O9 0.483367 0.896641 0.224771
O O10 0.322067 0.908626 0.063100
O O11 0.767404 0.916938 0.856906
O O12 0.948964 0.991349 0.105446
O O13 0.107088 0.892158 0.615139
O O14 0.000000 0.040822 0.500000
O O15 0.159949 0.072677 0.663831
O O16 0.745095 0.750168 0.945217
O O17 0.963987 0.219974 0.651178
O O18 0.500000 0.813188 0.000000
#
# Coordination Sequence:
#
# PCOD8049269 Si02
#       8
#     4   4   4   4   4   4   4   4
#     4  12  25  43  66  99 134 177 225 276 335 407
#     4  10  22  42  65  90 129 172 218 270 339 392
#     4  12  22  37  65  98 133 164 221 276 335 382
#     4  10  22  46  67  88 135 179 219 277 333 401
#     4  10  22  40  63  96 130 175 220 270 337 398
#     4  10  22  39  62  97 131 167 215 279 334 387
#     4  10  20  38  67  95 128 166 222 273 330 396
#     4  10  20  37  65  95 123 167 216 277 327 383
#
# _framework density 22.894860999999999
#
# number of rings (size 3 to 8) (size 9 to 14) (size 15 to 20)
#    0.000    1.500    2.500    2.625    3.500    0.000 
#    2.250    6.250    0.000    0.000    0.000    0.000 
#    0.000    0.000    0.000    0.000    0.000    0.000 
#
# Total GULP energy -198270.976001 kJ/mol
# GULP energy per Si atom -12391.936000 kJ/mol
# Density = 2.284275 g / cm^3
# Si number density = 22.894861 Si / 1000 Ang^3
#
#
#
# Elastic Constant Matrix: (Units=GPa)
#
#
# Indices 1 2 3 4 5 6 
#
# 1 40.3870 8.1784 22.1816 0.0000 -2.4898 0.0000
# 2 8.1784 130.1096 60.5825 0.0000 -2.1468 0.0000
# 3 22.1816 60.5825 159.5726 0.0000 -11.6994 0.0000
# 4 0.0000 0.0000 0.0000 36.1870 0.0000 7.1402
# 5 -2.4898 -2.1468 -11.6994 0.0000 23.6742 0.0000
# 6 0.0000 0.0000 0.0000 7.1402 0.0000 21.4405
#
#
#
# Elastic Compliance Matrix: (Units=1/GPa)
#
#
# Indices 1 2 3 4 5 6 
#
# 1 0.026831 0.000039 -0.003670 0.000000 0.001011 0.000000
# 2 0.000039 0.009356 -0.003627 0.000000 -0.000940 0.000000
# 3 -0.003670 -0.003627 0.008406 0.000000 0.003439 0.000000
# 4 0.000000 0.000000 0.000000 0.029578 0.000000 -0.009850
# 5 0.001011 -0.000940 0.003439 0.000000 0.043961 0.000000
# 6 0.000000 0.000000 0.000000 -0.009850 0.000000 0.049921
#
#
# Mechanical properties :
#
#
# Convention : Reuss Voigt Hill
#
# Bulk Modulus (GPa) = 33.24731 56.88380 45.06555
# Shear Modulus (GPa) = 25.96132 32.20211 29.08172
#
# Velocity S-wave (km/s) = 3.37105 3.75443 3.56789
# Velocity P-wave (km/s) = 5.45025 6.61014 6.05802
#
# Compressibility (1/GPa) = 0.03007763
#
# Stress axis : x y z
#
# Youngs Moduli (GPa) = 37.27077 106.87767 118.96350
#
# Poissons Ratio (x) = -0.00419 0.43664
# Poissons Ratio (y) = -0.00146 0.43143
# Poissons Ratio (z) = 0.13680 0.38760
#
# Static dielectric constant tensor:
#      x y z
#    x 3.974850 0.000000 -0.080300 
#    y 0.000000 4.186640 0.000000 
#    z -0.080300 0.000000 4.548690 
# 
# 
# High freq. dielectric constant tensor:
#      x y z
#    x 1.894270 0.000000 -0.000490 
#    y 0.000000 1.893600 0.000000 
#    z -0.000490 0.000000 1.906760 
# 
# From -- ./inp_files/31082.got.cif
#   From: 2010.03.12/outbox.cif.g09.slc.cpg/sg5_16_cif.got.tgz:31082.got - 2010.03.31 09:47:26.
