data_PCOD8049553
_publ_section_title
;
Structure prediction by ZEFSAII (Michael W. Deem and Ramdas Pophale) SiO2 
 PCOD8049553
Probable space group: C 2
;
_chemical_formula_sum "Si O2"
_cell_formula_units_Z 30
_cell_length_a 20.420999
_cell_length_b 8.323218
_cell_length_c 17.815141
_cell_angle_alpha 90.000000
_cell_angle_beta 27.576009
_cell_angle_gamma 90.000000
_cell_volume 1401.741978
_symmetry_space_group_name_H-M "C 2"
_symmetry_group_IT_number 5
_symmetry_cell_setting 'monoclinic'
loop_
_space_group_symop_operation_xyz
x,y,z
-x,y,-z
1/2+x,1/2+y,z
1/2-x,1/2+y,-z
loop_
_atom_site_type_symbol
_atom_site_label
_atom_site_fract_x
_atom_site_fract_y
_atom_site_fract_z
Si Si1 0.831148 0.931600 0.430839
Si Si2 0.007199 0.734161 0.848556
Si Si3 0.500000 0.023675 0.000000
Si Si4 0.401453 0.031119 0.818413
Si Si5 0.022337 0.776326 0.591309
Si Si6 0.060337 0.259513 0.722762
Si Si7 0.236138 0.791628 0.246937
Si Si8 0.858796 0.053387 0.016815
O O1 0.956315 0.896857 0.361904
O O2 0.675297 0.899482 0.624202
O O3 0.860313 0.826734 0.325543
O O4 0.841118 0.121753 0.412035
O O5 0.921866 0.625849 0.875670
O O6 0.908239 0.874140 0.982795
O O7 0.048666 0.627738 0.878548
O O8 0.363147 0.918187 0.117703
O O9 0.495075 0.100622 0.654518
O O10 0.445263 0.844106 0.785140
O O11 0.238977 0.046488 0.958268
O O12 0.168216 0.762727 0.397050
O O13 0.890094 0.849196 0.680047
O O14 0.983401 0.183059 0.872995
O O15 0.286261 0.617563 0.166121
#
# Coordination Sequence:
#
# PCOD8049553 Si02
#       8
#     4   4   2   4   4   4   4   4
#     4  10  22  39  64  92 126 166 214 261 315 374
#     4  10  23  41  58  93 127 163 207 265 311 374
#     4  12  26  40  64  88 134 168 212 258 312 388
#     4  10  20  40  68  93 123 164 211 265 313 374
#     4   9  21  42  63  91 127 163 215 256 314 379
#     4  11  22  37  64  98 124 163 210 266 322 372
#     4  10  23  40  64  91 124 175 206 256 318 379
#     4  10  22  41  65  94 124 164 215 263 317 370
#
# _framework density 21.401941999999998
#
# number of rings (size 3 to 8) (size 9 to 14) (size 15 to 20)
#    0.000    1.867    0.000    3.200    5.600    5.867 
#    4.800    0.000    0.000    1.600    0.000    0.000 
#    0.000    0.000    0.000    0.000    0.000    0.000 
#
# Total GULP energy -185885.715731 kJ/mol
# GULP energy per Si atom -12392.381049 kJ/mol
# Density = 2.135323 g / cm^3
# Si number density = 21.401942 Si / 1000 Ang^3
#
#
#
# Elastic Constant Matrix: (Units=GPa)
#
#
# Indices 1 2 3 4 5 6 
#
# 1 77.7858 34.2182 32.8481 -0.0001 11.0643 0.0001
# 2 34.2182 103.6643 42.8514 0.0017 -0.6034 -0.0003
# 3 32.8481 42.8514 98.8208 0.0009 -2.3857 -0.0002
# 4 -0.0001 0.0017 0.0009 34.2345 0.0001 -4.5378
# 5 11.0643 -0.6034 -2.3857 0.0001 26.3630 -0.0001
# 6 0.0001 -0.0003 -0.0002 -4.5378 -0.0001 33.0558
#
#
#
# Elastic Compliance Matrix: (Units=1/GPa)
#
#
# Indices 1 2 3 4 5 6 
#
# 1 0.017567 -0.004084 -0.004258 0.000000 -0.007852 0.000000
# 2 -0.004084 0.012704 -0.004112 -0.000001 0.001633 0.000000
# 3 -0.004258 -0.004112 0.013388 0.000000 0.002904 0.000000
# 4 0.000000 -0.000001 0.000000 0.029752 0.000000 0.004084
# 5 -0.007852 0.001633 0.002904 0.000000 0.041527 0.000000
# 6 0.000000 0.000000 0.000000 0.004084 0.000000 0.030813
#
#
# Mechanical properties :
#
#
# Convention : Reuss Voigt Hill
#
# Bulk Modulus (GPa) = 53.33017 55.56736 54.44876
# Shear Modulus (GPa) = 28.26313 30.08753 29.17533
#
# Velocity S-wave (km/s) = 3.63793 3.75351 3.69617
# Velocity P-wave (km/s) = 6.52829 6.69367 6.61149
#
# Compressibility (1/GPa) = 0.01875111
#
# Stress axis : x y z
#
# Youngs Moduli (GPa) = 56.92344 78.71621 74.69548
#
# Poissons Ratio (x) = 0.32151 0.31804
# Poissons Ratio (y) = 0.23250 0.30712
# Poissons Ratio (z) = 0.24237 0.32365
#
# Static dielectric constant tensor:
#      x y z
#    x 3.837210 0.000000 -0.065980 
#    y 0.000000 3.900880 0.000000 
#    z -0.065980 0.000000 3.956510 
# 
# 
# High freq. dielectric constant tensor:
#      x y z
#    x 1.829830 0.000000 -0.004800 
#    y 0.000000 1.838730 0.000000 
#    z -0.004800 0.000000 1.848070 
# 
# From -- ./inp_files/62727.got.cif
#   From: 2010.03.12/outbox.cif.g09.slc.cpg/sg5_32_cif.got.tgz:62727.got - 2010.03.31 09:47:26.
