data_PCOD8049858
_publ_section_title
;
Structure prediction by ZEFSAII (Michael W. Deem and Ramdas Pophale) SiO2 
 PCOD8049858
Probable space group: C 2
;
_chemical_formula_sum "Si O2"
_cell_formula_units_Z 28
_cell_length_a 14.105761
_cell_length_b 7.328624
_cell_length_c 20.661739
_cell_angle_alpha 90.000000
_cell_angle_beta 145.270470
_cell_angle_gamma 90.000000
_cell_volume 1216.842794
_symmetry_space_group_name_H-M "C 2"
_symmetry_group_IT_number 5
_symmetry_cell_setting 'monoclinic'
loop_
_space_group_symop_operation_xyz
x,y,z
-x,y,-z
1/2+x,1/2+y,z
1/2-x,1/2+y,-z
loop_
_atom_site_type_symbol
_atom_site_label
_atom_site_fract_x
_atom_site_fract_y
_atom_site_fract_z
Si Si1 0.553160 0.308930 0.098305
Si Si2 0.748797 0.463934 0.836141
Si Si3 0.792735 0.579098 0.002814
Si Si4 0.420017 0.653424 0.635570
Si Si5 0.576297 0.955492 0.470899
Si Si6 0.998956 0.297595 0.812547
Si Si7 0.261065 0.139523 0.251315
O O1 0.634816 0.107705 0.136203
O O2 0.383819 0.277651 0.044153
O O3 0.679507 0.439757 0.205874
O O4 0.500000 0.394652 0.000000
O O5 0.558919 0.497946 0.706568
O O6 0.780483 0.252920 0.836428
O O7 0.791714 0.466317 0.935632
O O8 0.904512 0.485681 0.120403
O O9 0.601646 0.636251 0.908823
O O10 0.253402 0.558014 0.569413
O O11 0.496672 0.786348 0.733729
O O12 0.401744 0.769014 0.558855
O O13 0.500000 0.909847 0.500000
O O14 0.455459 0.103619 0.370364
O O15 0.811079 0.271786 0.732276
#
# Coordination Sequence:
#
# PCOD8049858 Si02
#       7
#     4   4   4   4   4   4   4
#     4  10  21  37  63 100 141 181 237 284 345 435
#     4  10  22  42  68 102 142 182 232 291 351 435
#     4  10  22  40  62 103 148 184 231 288 348 439
#     4  11  25  50  70 104 144 181 247 307 356 435
#     4  12  26  50  74 103 143 188 247 313 362 425
#     4  11  23  40  67  99 147 184 232 296 354 429
#     4  12  23  41  72  99 137 190 237 296 367 419
#
# _framework density 23.010366999999999
#
# number of rings (size 3 to 8) (size 9 to 14) (size 15 to 20)
#    0.000    1.143    4.286    1.714    2.000    1.143 
#    5.143    0.000    0.000    0.000    0.000    0.000 
#    0.000    0.000    0.000    0.000    0.000    0.000 
#
# Total GULP energy -173465.840127 kJ/mol
# GULP energy per Si atom -12390.417152 kJ/mol
# Density = 2.295799 g / cm^3
# Si number density = 23.010367 Si / 1000 Ang^3
#
#
#
# Elastic Constant Matrix: (Units=GPa)
#
#
# Indices 1 2 3 4 5 6 
#
# 1 82.2775 12.0721 27.3062 0.0000 7.0586 0.0000
# 2 12.0721 67.2514 25.7471 0.0000 -8.7698 0.0000
# 3 27.3062 25.7471 99.0449 0.0000 8.1616 0.0000
# 4 0.0000 0.0000 0.0000 42.4822 0.0000 -4.3804
# 5 7.0586 -8.7698 8.1616 0.0000 42.5605 0.0000
# 6 0.0000 0.0000 0.0000 -4.3804 0.0000 15.7602
#
#
#
# Elastic Compliance Matrix: (Units=1/GPa)
#
#
# Indices 1 2 3 4 5 6 
#
# 1 0.013601 -0.001466 -0.003208 0.000000 -0.001943 0.000000
# 2 -0.001466 0.017481 -0.004528 0.000000 0.004714 0.000000
# 3 -0.003208 -0.004528 0.012387 0.000000 -0.002776 0.000000
# 4 0.000000 0.000000 0.000000 0.024234 0.000000 0.006736
# 5 -0.001943 0.004714 -0.002776 0.000000 0.025322 0.000000
# 6 0.000000 0.000000 0.000000 0.006736 0.000000 0.065323
#
#
# Mechanical properties :
#
#
# Convention : Reuss Voigt Hill
#
# Bulk Modulus (GPa) = 39.90052 42.09161 40.99607
# Shear Modulus (GPa) = 27.01127 32.39047 29.70087
#
# Velocity S-wave (km/s) = 3.42990 3.75593 3.59661
# Velocity P-wave (km/s) = 5.75009 6.09439 5.92474
#
# Compressibility (1/GPa) = 0.02506233
#
# Stress axis : x y z
#
# Youngs Moduli (GPa) = 73.52624 57.20423 80.73018
#
# Poissons Ratio (x) = 0.08388 0.25901
# Poissons Ratio (y) = 0.10782 0.36558
# Poissons Ratio (z) = 0.23590 0.25905
#
# Static dielectric constant tensor:
#      x y z
#    x 4.231710 0.000000 0.287580 
#    y 0.000000 3.894760 0.000000 
#    z 0.287580 0.000000 4.157900 
# 
# 
# High freq. dielectric constant tensor:
#      x y z
#    x 1.913570 0.000000 0.021680 
#    y 0.000000 1.899160 0.000000 
#    z 0.021680 0.000000 1.910870 
# 
# From -- ./inp_files/65928.got.cif
#   From: 2010.03.12/outbox.cif.g09.slc.cpg/sg5_33_cif.got.tgz:65928.got - 2010.03.31 09:47:26.
