data_PCOD8049746
_publ_section_title
;
Structure prediction by ZEFSAII (Michael W. Deem and Ramdas Pophale) SiO2 
 PCOD8049746
Probable space group: C 2
;
_chemical_formula_sum "Si O2"
_cell_formula_units_Z 32
_cell_length_a 25.212831
_cell_length_b 5.223111
_cell_length_c 12.867326
_cell_angle_alpha 90.000000
_cell_angle_beta 68.303229
_cell_angle_gamma 90.000000
_cell_volume 1574.441746
_symmetry_space_group_name_H-M "C 2"
_symmetry_group_IT_number 5
_symmetry_cell_setting 'monoclinic'
loop_
_space_group_symop_operation_xyz
x,y,z
-x,y,-z
1/2+x,1/2+y,z
1/2-x,1/2+y,-z
loop_
_atom_site_type_symbol
_atom_site_label
_atom_site_fract_x
_atom_site_fract_y
_atom_site_fract_z
Si Si1 0.423600 0.626540 0.499242
Si Si2 0.186462 0.355953 0.496491
Si Si3 0.198450 0.013726 0.680446
Si Si4 0.894378 0.736196 0.357816
Si Si5 0.690159 0.546364 0.127967
Si Si6 0.438658 0.460822 0.721658
Si Si7 0.755190 0.051408 0.132280
Si Si8 0.005300 0.440367 0.690147
O O1 0.355674 0.681717 0.542710
O O2 0.434964 0.418611 0.399361
O O3 0.441330 0.522492 0.597623
O O4 0.463241 0.873567 0.443608
O O5 0.194881 0.260343 0.608863
O O6 0.246487 0.351051 0.394983
O O7 0.156095 0.630648 0.530075
O O8 0.204197 0.071105 0.797265
O O9 0.137993 0.867289 0.714407
O O10 0.939499 0.526492 0.279718
O O11 0.623422 0.504893 0.187629
O O12 0.719098 0.308976 0.163849
O O13 0.712395 0.808735 0.164329
O O14 0.703559 0.542554 0.996209
O O15 0.476349 0.679253 0.753356
O O16 0.458426 0.167611 0.721722
#
# Coordination Sequence:
#
# PCOD8049746 Si02
#       8
#     4   4   4   4   4   4   4   4
#     4  10  23  35  54  83 123 160 193 246 302 369
#     4  10  21  33  54  87 126 153 202 236 298 378
#     4  11  21  36  60  90 121 170 193 251 305 379
#     4  10  22  38  51  83 125 156 202 243 296 365
#     4  10  23  44  61 102 119 161 205 263 300 372
#     4  12  24  36  64  84 123 161 207 249 307 359
#     4  10  23  41  70  89 133 155 203 252 322 364
#     4  11  24  38  56  87 117 166 205 251 301 365
#
# _framework density 20.324663999999999
#
# number of rings (size 3 to 8) (size 9 to 14) (size 15 to 20)
#    0.000    1.500    2.500    1.875    8.750    0.000 
#    0.000    0.000    0.000    0.750    6.500    0.000 
#    0.000    0.000    0.000    0.000    0.000    0.000 
#
# Total GULP energy -198245.041759 kJ/mol
# GULP energy per Si atom -12390.315110 kJ/mol
# Density = 2.027840 g / cm^3
# Si number density = 20.324664 Si / 1000 Ang^3
#
#
#
# Elastic Constant Matrix: (Units=GPa)
#
#
# Indices 1 2 3 4 5 6 
#
# 1 65.3632 14.5568 22.7161 0.0000 -4.6941 0.0000
# 2 14.5568 89.8343 11.8146 0.0000 2.8011 0.0000
# 3 22.7161 11.8146 46.0142 0.0000 1.3772 0.0000
# 4 0.0000 0.0000 0.0000 7.0243 0.0000 2.7013
# 5 -4.6941 2.8011 1.3772 0.0000 36.8101 0.0000
# 6 0.0000 0.0000 0.0000 2.7013 0.0000 30.0781
#
#
#
# Elastic Compliance Matrix: (Units=1/GPa)
#
#
# Indices 1 2 3 4 5 6 
#
# 1 0.019080 -0.002000 -0.008993 0.000000 0.002922 0.000000
# 2 -0.002000 0.011752 -0.001998 0.000000 -0.001075 0.000000
# 3 -0.008993 -0.001998 0.026745 0.000000 -0.001995 0.000000
# 4 0.000000 0.000000 0.000000 0.147457 0.000000 -0.013243
# 5 0.002922 -0.001075 -0.001995 0.000000 0.027695 0.000000
# 6 0.000000 0.000000 0.000000 -0.013243 0.000000 0.034436
#
#
# Mechanical properties :
#
#
# Convention : Reuss Voigt Hill
#
# Bulk Modulus (GPa) = 31.65116 33.26516 32.45816
# Shear Modulus (GPa) = 16.46478 24.92410 20.69444
#
# Velocity S-wave (km/s) = 2.84929 3.50565 3.19438
# Velocity P-wave (km/s) = 5.14113 5.72613 5.44150
#
# Compressibility (1/GPa) = 0.03159442
#
# Stress axis : x y z
#
# Youngs Moduli (GPa) = 52.41132 85.09227 37.39039
#
# Poissons Ratio (x) = 0.17019 0.33626
# Poissons Ratio (y) = 0.10483 0.07470
# Poissons Ratio (z) = 0.47134 0.17000
#
# Static dielectric constant tensor:
#      x y z
#    x 4.048070 0.000000 -0.122910 
#    y 0.000000 4.076500 0.000000 
#    z -0.122910 0.000000 3.228090 
# 
# 
# High freq. dielectric constant tensor:
#      x y z
#    x 1.818240 0.000000 -0.014460 
#    y 0.000000 1.812660 0.000000 
#    z -0.014460 0.000000 1.733830 
# 
# From -- ./inp_files/47040.got.cif
#   From: 2010.03.12/outbox.cif.g09.slc.cpg/sg5_24_cif.got.tgz:47040.got - 2010.03.31 09:47:26.
