data_PCOD8049904
_publ_section_title
;
Structure prediction by ZEFSAII (Michael W. Deem and Ramdas Pophale) SiO2 
 PCOD8049904
Probable space group: C 2
;
_chemical_formula_sum "Si O2"
_cell_formula_units_Z 24
_cell_length_a 21.429015
_cell_length_b 8.154975
_cell_length_c 9.364031
_cell_angle_alpha 90.000000
_cell_angle_beta 134.718105
_cell_angle_gamma 90.000000
_cell_volume 1162.783704
_symmetry_space_group_name_H-M "C 2"
_symmetry_group_IT_number 5
_symmetry_cell_setting 'monoclinic'
loop_
_space_group_symop_operation_xyz
x,y,z
-x,y,-z
1/2+x,1/2+y,z
1/2-x,1/2+y,-z
loop_
_atom_site_type_symbol
_atom_site_label
_atom_site_fract_x
_atom_site_fract_y
_atom_site_fract_z
Si Si1 0.174953 0.548680 0.542305
Si Si2 0.958462 0.315621 0.585764
Si Si3 0.268259 0.854187 0.631599
Si Si4 0.928352 0.139720 0.000851
Si Si5 0.790217 0.109313 0.235762
Si Si6 0.196357 0.933612 0.032442
O O1 0.074559 0.489449 0.400501
O O2 0.182098 0.736037 0.499338
O O3 0.225626 0.425255 0.516920
O O4 0.221512 0.534567 0.771291
O O5 0.876139 0.192422 0.441982
O O6 0.000000 0.350992 0.500000
O O7 0.031903 0.246955 0.808012
O O8 0.258670 0.002877 0.724774
O O9 0.354222 0.747545 0.804485
O O10 0.000000 0.086370 0.000000
O O11 0.888880 0.974595 0.007637
O O12 0.718471 0.241260 0.066872
O O13 0.820409 0.993806 0.155050
#
# Coordination Sequence:
#
# PCOD8049904 Si02
#       6
#     4   4   4   4   4   4
#     4  10  21  38  63  90 122 168 212 254 313 377
#     4  11  22  41  64  92 132 169 206 264 324 372
#     4  11  23  41  66  91 125 167 221 259 314 386
#     4  11  22  41  64  92 132 169 206 264 324 372
#     4  11  23  41  66  91 125 167 221 259 314 386
#     4  10  21  38  63  90 122 168 212 254 313 377
#
# _framework density 20.640125000000001
#
# number of rings (size 3 to 8) (size 9 to 14) (size 15 to 20)
#    0.000    1.333    3.333    4.000    4.667    0.000 
#    0.000    3.333    0.000    0.000    0.000    0.000 
#    0.000    0.000    0.000    0.000    0.000    0.000 
#
# Total GULP energy -148802.578110 kJ/mol
# GULP energy per Si atom -12400.214843 kJ/mol
# Density = 2.059315 g / cm^3
# Si number density = 20.640125 Si / 1000 Ang^3
#
#
#
# Elastic Constant Matrix: (Units=GPa)
#
#
# Indices 1 2 3 4 5 6 
#
# 1 111.9477 33.9370 5.9736 0.0000 -3.3772 0.0000
# 2 33.9370 96.5283 10.6398 0.0000 7.5486 0.0000
# 3 5.9736 10.6398 64.4785 0.0000 -3.2142 0.0000
# 4 0.0000 0.0000 0.0000 27.4985 0.0000 -2.8745
# 5 -3.3772 7.5486 -3.2142 0.0000 31.4737 0.0000
# 6 0.0000 0.0000 0.0000 -2.8745 0.0000 38.6437
#
#
#
# Elastic Compliance Matrix: (Units=1/GPa)
#
#
# Indices 1 2 3 4 5 6 
#
# 1 0.010121 -0.003685 -0.000233 0.000000 0.001946 0.000000
# 2 -0.003685 0.012130 -0.001834 0.000000 -0.003492 0.000000
# 3 -0.000233 -0.001834 0.015935 0.000000 0.002042 0.000000
# 4 0.000000 0.000000 0.000000 0.036651 0.000000 0.002726
# 5 0.001946 -0.003492 0.002042 0.000000 0.033027 0.000000
# 6 0.000000 0.000000 0.000000 0.002726 0.000000 0.026080
#
#
# Mechanical properties :
#
#
# Convention : Reuss Voigt Hill
#
# Bulk Modulus (GPa) = 37.47725 41.56171 39.51948
# Shear Modulus (GPa) = 32.39544 34.35010 33.37277
#
# Velocity S-wave (km/s) = 3.96604 4.08393 4.02542
# Velocity P-wave (km/s) = 6.25855 6.51292 6.38700
#
# Compressibility (1/GPa) = 0.02668286
#
# Stress axis : x y z
#
# Youngs Moduli (GPa) = 98.80526 82.43730 62.75450
#
# Poissons Ratio (x) = 0.30377 0.01460
# Poissons Ratio (y) = 0.36408 0.11512
# Poissons Ratio (z) = 0.02298 0.15122
#
# Static dielectric constant tensor:
#      x y z
#    x 3.907030 0.000000 -0.093660 
#    y 0.000000 3.808280 0.000000 
#    z -0.093660 0.000000 3.790260 
# 
# 
# High freq. dielectric constant tensor:
#      x y z
#    x 1.816340 0.000000 -0.020620 
#    y 0.000000 1.798480 0.000000 
#    z -0.020620 0.000000 1.803160 
# 
# From -- ./inp_files/22798.got.cif
#   From: 2010.03.12/outbox.cif.g09.slc.cpg/sg5_12_cif.got.tgz:22798.got - 2010.03.31 09:47:26.
