data_PCOD8049536
_publ_section_title
;
Structure prediction by ZEFSAII (Michael W. Deem and Ramdas Pophale) SiO2 
 PCOD8049536
Probable space group: C 2
;
_chemical_formula_sum "Si O2"
_cell_formula_units_Z 32
_cell_length_a 18.855094
_cell_length_b 13.527084
_cell_length_c 13.282365
_cell_angle_alpha 90.000000
_cell_angle_beta 151.794201
_cell_angle_gamma 90.000000
_cell_volume 1601.174764
_symmetry_space_group_name_H-M "C 2"
_symmetry_group_IT_number 5
_symmetry_cell_setting 'monoclinic'
loop_
_space_group_symop_operation_xyz
x,y,z
-x,y,-z
1/2+x,1/2+y,z
1/2-x,1/2+y,-z
loop_
_atom_site_type_symbol
_atom_site_label
_atom_site_fract_x
_atom_site_fract_y
_atom_site_fract_z
Si Si1 0.168371 0.906750 0.172951
Si Si2 0.546060 0.770298 0.943212
Si Si3 0.342482 0.182510 0.859400
Si Si4 0.893690 0.063064 0.066481
Si Si5 0.667343 0.389685 0.699588
Si Si6 0.695339 0.521984 0.549552
Si Si7 0.102363 0.439016 0.361927
Si Si8 0.806052 0.551811 0.002233
O O1 0.205134 0.795685 0.183929
O O2 0.280783 0.932575 0.402349
O O3 0.000000 0.916486 0.000000
O O4 0.189615 0.983208 0.108270
O O5 0.716751 0.802111 0.134991
O O6 0.500000 0.790254 0.000000
O O7 0.539486 0.654444 0.912378
O O8 0.434306 0.830882 0.730120
O O9 0.217440 0.125701 0.636238
O O10 0.352130 0.137998 0.983144
O O11 0.500000 0.172172 0.000000
O O12 0.771121 0.098202 0.995437
O O13 0.035417 0.013413 0.296801
O O14 0.500000 0.346400 0.500000
O O15 0.705180 0.429990 0.636794
O O16 0.684615 0.478402 0.800817
O O17 0.830096 0.509463 0.639452
O O18 0.953036 0.490416 0.217009
#
# Coordination Sequence:
#
# PCOD8049536 Si02
#       8
#     4   4   4   4   4   4   4   4
#     4  11  24  42  63  93 130 169 213 257 316 376
#     4  11  24  41  66  95 126 165 217 260 318 382
#     4  10  21  39  67 100 121 159 219 268 308 376
#     4  12  25  43  59  94 137 170 202 258 324 384
#     4  10  20  40  66  98 123 158 216 268 312 368
#     4  11  20  39  68  93 125 162 210 260 318 371
#     4  11  22  43  66  93 123 167 212 263 313 375
#     4  10  23  40  67  94 128 166 210 263 321 365
#
# _framework density 19.985326000000001
#
# number of rings (size 3 to 8) (size 9 to 14) (size 15 to 20)
#    0.000    1.250    5.000    1.125    0.000    2.500 
#    2.250    1.250    0.000    0.000    0.000    0.000 
#    0.000    0.000    0.000    0.000    0.000    0.000 
#
# Total GULP energy -198439.582177 kJ/mol
# GULP energy per Si atom -12402.473886 kJ/mol
# Density = 1.993984 g / cm^3
# Si number density = 19.985326 Si / 1000 Ang^3
#
#
#
# Elastic Constant Matrix: (Units=GPa)
#
#
# Indices 1 2 3 4 5 6 
#
# 1 93.7148 27.8119 31.5396 0.0000 -0.7505 0.0000
# 2 27.8119 100.6664 34.6694 0.0000 -16.4611 0.0000
# 3 31.5396 34.6694 127.8931 0.0000 -12.5901 0.0000
# 4 0.0000 0.0000 0.0000 15.1053 0.0000 -1.2038
# 5 -0.7505 -16.4611 -12.5901 0.0000 30.9302 0.0000
# 6 0.0000 0.0000 0.0000 -1.2038 0.0000 25.1070
#
#
#
# Elastic Compliance Matrix: (Units=1/GPa)
#
#
# Indices 1 2 3 4 5 6 
#
# 1 0.012356 -0.002932 -0.002476 0.000000 -0.002268 0.000000
# 2 -0.002932 0.012387 -0.002076 0.000000 0.005676 0.000000
# 3 -0.002476 -0.002076 0.009248 0.000000 0.002600 0.000000
# 4 0.000000 0.000000 0.000000 0.066456 0.000000 0.003186
# 5 -0.002268 0.005676 0.002600 0.000000 0.036355 0.000000
# 6 0.000000 0.000000 0.000000 0.003186 0.000000 0.039982
#
#
# Mechanical properties :
#
#
# Convention : Reuss Voigt Hill
#
# Bulk Modulus (GPa) = 52.56549 56.70176 54.63362
# Shear Modulus (GPa) = 25.24074 29.44540 27.34307
#
# Velocity S-wave (km/s) = 3.55768 3.84259 3.70287
# Velocity P-wave (km/s) = 6.57535 6.93690 6.75854
#
# Compressibility (1/GPa) = 0.01902389
#
# Stress axis : x y z
#
# Youngs Moduli (GPa) = 80.93384 80.72972 108.12914
#
# Poissons Ratio (x) = 0.23670 0.26768
# Poissons Ratio (y) = 0.23729 0.22448
# Poissons Ratio (z) = 0.20035 0.16760
#
# Static dielectric constant tensor:
#      x y z
#    x 3.566220 0.000000 -0.022720 
#    y 0.000000 3.499980 0.000000 
#    z -0.022720 0.000000 3.654980 
# 
# 
# High freq. dielectric constant tensor:
#      x y z
#    x 1.781360 0.000000 0.000180 
#    y 0.000000 1.770300 0.000000 
#    z 0.000180 0.000000 1.785670 
# 
# From -- ./inp_files/44982.got.cif
#   From: 2010.03.12/outbox.cif.g09.slc.cpg/sg5_23_cif.got.tgz:44982.got - 2010.03.31 09:47:26.
