data_PCOD8049989
_publ_section_title
;
Structure prediction by ZEFSAII (Michael W. Deem and Ramdas Pophale) SiO2 
 PCOD8049989
Probable space group: C 2
;
_chemical_formula_sum "Si O2"
_cell_formula_units_Z 32
_cell_length_a 12.574366
_cell_length_b 10.603342
_cell_length_c 16.528382
_cell_angle_alpha 90.000000
_cell_angle_beta 140.461904
_cell_angle_gamma 90.000000
_cell_volume 1402.877641
_symmetry_space_group_name_H-M "C 2"
_symmetry_group_IT_number 5
_symmetry_cell_setting 'monoclinic'
loop_
_space_group_symop_operation_xyz
x,y,z
-x,y,-z
1/2+x,1/2+y,z
1/2-x,1/2+y,-z
loop_
_atom_site_type_symbol
_atom_site_label
_atom_site_fract_x
_atom_site_fract_y
_atom_site_fract_z
Si Si1 0.561272 0.877280 0.852550
Si Si2 0.823808 0.560486 0.507768
Si Si3 0.068209 0.591741 0.127165
Si Si4 0.124778 0.221796 0.639382
Si Si5 0.636006 0.272064 0.881103
Si Si6 0.675549 0.065482 0.779736
Si Si7 0.650901 0.450297 0.260877
Si Si8 0.646383 0.806706 0.404757
O O1 0.410515 0.798152 0.722585
O O2 0.479990 0.948696 0.881484
O O3 0.643443 0.971685 0.835579
O O4 0.697405 0.783022 0.968057
O O5 0.733695 0.551882 0.368772
O O6 0.762696 0.694803 0.506230
O O7 0.763338 0.441989 0.527398
O O8 0.024244 0.564851 0.625643
O O9 0.268258 0.613040 0.252349
O O10 0.987915 0.678739 0.147404
O O11 0.000000 0.631418 0.000000
O O12 0.242168 0.323322 0.664766
O O13 0.000000 0.159889 0.500000
O O14 0.026045 0.302804 0.647213
O O15 0.688332 0.208270 0.825114
O O16 0.539343 0.409468 0.823692
O O17 0.836901 0.014664 0.822438
#
# Coordination Sequence:
#
# PCOD8049989 Si02
#       8
#     4   4   4   4   4   4   4   4
#     4  10  22  42  61  92 132 170 220 280 339 401
#     4  11  22  39  65 101 131 175 215 274 345 413
#     4  10  23  40  66  91 129 173 228 274 335 415
#     4  11  20  37  69  98 123 172 227 270 330 418
#     4  10  23  38  66  95 127 173 228 279 338 405
#     4  10  21  39  63  95 132 166 224 285 329 408
#     4  11  20  39  67  97 129 173 222 276 341 411
#     4  11  23  39  69  93 137 168 218 278 338 408
#
# _framework density 22.810257
#
# number of rings (size 3 to 8) (size 9 to 14) (size 15 to 20)
#    0.000    1.500    3.750    1.875    7.000    3.000 
#    2.250    0.000    2.750    0.000    0.000    0.000 
#    0.000    0.000    0.000    0.000    0.000    0.000 
#
# Total GULP energy -198241.534219 kJ/mol
# GULP energy per Si atom -12390.095889 kJ/mol
# Density = 2.275834 g / cm^3
# Si number density = 22.810257 Si / 1000 Ang^3
#
#
#
# Elastic Constant Matrix: (Units=GPa)
#
#
# Indices 1 2 3 4 5 6 
#
# 1 45.1220 30.7199 24.3029 0.0000 -8.6453 0.0000
# 2 30.7199 102.4976 43.0102 0.0000 6.7728 0.0000
# 3 24.3029 43.0102 121.5197 0.0002 -12.7481 0.0001
# 4 0.0000 0.0000 0.0002 34.5043 0.0001 -1.8303
# 5 -8.6453 6.7728 -12.7481 0.0001 26.0578 0.0000
# 6 0.0000 0.0000 0.0001 -1.8303 0.0000 23.1939
#
#
#
# Elastic Compliance Matrix: (Units=1/GPa)
#
#
# Indices 1 2 3 4 5 6 
#
# 1 0.032043 -0.009716 -0.001675 0.000000 0.012337 0.000000
# 2 -0.009716 0.015123 -0.004385 0.000000 -0.009299 0.000000
# 3 -0.001675 -0.004385 0.010728 0.000000 0.005832 0.000000
# 4 0.000000 0.000000 0.000000 0.029104 0.000000 0.002297
# 5 0.012337 -0.009299 0.005832 0.000000 0.047740 0.000000
# 6 0.000000 0.000000 0.000000 0.002297 0.000000 0.043296
#
#
# Mechanical properties :
#
#
# Convention : Reuss Voigt Hill
#
# Bulk Modulus (GPa) = 37.96302 51.68948 44.82625
# Shear Modulus (GPa) = 22.89734 28.15827 25.52780
#
# Velocity S-wave (km/s) = 3.17175 3.51729 3.34898
# Velocity P-wave (km/s) = 5.48565 6.26139 5.88631
#
# Compressibility (1/GPa) = 0.02634143
#
# Stress axis : x y z
#
# Youngs Moduli (GPa) = 31.20809 66.12527 93.21395
#
# Poissons Ratio (x) = 0.64247 0.15616
# Poissons Ratio (y) = 0.30321 0.40874
# Poissons Ratio (z) = 0.05228 0.28996
#
# Static dielectric constant tensor:
#      x y z
#    x 3.958460 0.000000 -0.016600 
#    y 0.000000 4.179360 0.000000 
#    z -0.016600 0.000000 4.114130 
# 
# 
# High freq. dielectric constant tensor:
#      x y z
#    x 1.868990 0.000000 -0.011180 
#    y 0.000000 1.889040 0.000000 
#    z -0.011180 0.000000 1.905230 
# 
# From -- ./inp_files/61725.got.cif
#   From: 2010.03.12/outbox.cif.g09.slc.cpg/sg5_31_cif.got.tgz:61725.got - 2010.03.31 09:47:26.
