data_PCOD8049089
_publ_section_title
;
Structure prediction by ZEFSAII (Michael W. Deem and Ramdas Pophale) SiO2 
 PCOD8049089
Probable space group: C 2
;
_chemical_formula_sum "Si O2"
_cell_formula_units_Z 30
_cell_length_a 20.864331
_cell_length_b 8.957049
_cell_length_c 9.440784
_cell_angle_alpha 90.000000
_cell_angle_beta 56.302303
_cell_angle_gamma 90.000000
_cell_volume 1467.873042
_symmetry_space_group_name_H-M "C 2"
_symmetry_group_IT_number 5
_symmetry_cell_setting 'monoclinic'
loop_
_space_group_symop_operation_xyz
x,y,z
-x,y,-z
1/2+x,1/2+y,z
1/2-x,1/2+y,-z
loop_
_atom_site_type_symbol
_atom_site_label
_atom_site_fract_x
_atom_site_fract_y
_atom_site_fract_z
Si Si1 0.297627 0.370830 0.209596
Si Si2 0.903561 0.723337 0.277599
Si Si3 0.278114 0.996356 0.442972
Si Si4 0.674147 0.643599 0.345171
Si Si5 0.369019 0.581819 0.917602
Si Si6 0.000000 0.517262 0.000000
Si Si7 0.122500 0.271832 0.832919
Si Si8 0.551271 0.551904 0.703869
O O1 0.364933 0.256220 0.171609
O O2 0.288158 0.485364 0.355097
O O3 0.211056 0.308283 0.298934
O O4 0.326773 0.435329 0.026966
O O5 0.839242 0.617438 0.431044
O O6 0.980297 0.624886 0.157839
O O7 0.924271 0.876663 0.332337
O O8 0.315687 0.833933 0.358264
O O9 0.235552 0.039844 0.350157
O O10 0.666124 0.600788 0.192639
O O11 0.591297 0.637313 0.523438
O O12 0.460445 0.563693 0.796350
O O13 0.344208 0.711712 0.058999
O O14 0.927586 0.413389 0.056038
O O15 0.073627 0.136296 0.822272
#
# Coordination Sequence:
#
# PCOD8049089 Si02
#       8
#     4   4   4   4   4   2   4   4
#     4  11  22  42  64  94 123 170 217 267 315 384
#     4  10  21  35  65  93 122 154 218 271 309 365
#     4  10  22  41  65  93 119 167 219 268 311 384
#     4  11  25  41  64  94 133 168 210 270 331 386
#     4  12  25  37  65  95 132 169 209 269 328 389
#     4  10  20  36  58 100 118 154 212 276 308 374
#     4  11  21  38  67  90 122 169 223 259 318 379
#     4  12  21  43  66  94 127 177 214 262 317 393
#
# _framework density 20.437735
#
# number of rings (size 3 to 8) (size 9 to 14) (size 15 to 20)
#    0.000    1.067    5.333    1.200    3.733    0.000 
#    0.000    0.000    0.000    0.000    0.000    0.000 
#    0.000    0.000    0.000    0.000    0.000    0.000 
#
# Total GULP energy -185865.098939 kJ/mol
# GULP energy per Si atom -12391.006596 kJ/mol
# Density = 2.039122 g / cm^3
# Si number density = 20.437735 Si / 1000 Ang^3
#
#
#
# Elastic Constant Matrix: (Units=GPa)
#
#
# Indices 1 2 3 4 5 6 
#
# 1 60.0725 15.0203 29.8630 0.0000 1.7898 0.0000
# 2 15.0203 77.7108 14.7214 0.0000 -3.6810 0.0000
# 3 29.8630 14.7214 98.3320 0.0000 -0.2844 0.0000
# 4 0.0000 0.0000 0.0000 28.0834 0.0000 -5.7341
# 5 1.7898 -3.6810 -0.2844 0.0000 39.6697 0.0000
# 6 0.0000 0.0000 0.0000 -5.7341 0.0000 19.8355
#
#
#
# Elastic Compliance Matrix: (Units=1/GPa)
#
#
# Indices 1 2 3 4 5 6 
#
# 1 0.020249 -0.002888 -0.005721 0.000000 -0.001223 0.000000
# 2 -0.002888 0.013715 -0.001172 0.000000 0.001394 0.000000
# 3 -0.005721 -0.001172 0.012083 0.000000 0.000236 0.000000
# 4 0.000000 0.000000 0.000000 0.037842 0.000000 0.010939
# 5 -0.001223 0.001394 0.000236 0.000000 0.025394 0.000000
# 6 0.000000 0.000000 0.000000 0.010939 0.000000 0.053577
#
#
# Mechanical properties :
#
#
# Convention : Reuss Voigt Hill
#
# Bulk Modulus (GPa) = 37.75723 39.48053 38.61888
# Shear Modulus (GPa) = 26.14382 29.28510 27.71446
#
# Velocity S-wave (km/s) = 3.58046 3.78946 3.68644
# Velocity P-wave (km/s) = 5.96719 6.20533 6.08742
#
# Compressibility (1/GPa) = 0.02648500
#
# Stress axis : x y z
#
# Youngs Moduli (GPa) = 49.38538 72.91538 82.75993
#
# Poissons Ratio (x) = 0.21058 0.47344
# Poissons Ratio (y) = 0.14262 0.09700
# Poissons Ratio (z) = 0.28252 0.08547
#
# Static dielectric constant tensor:
#      x y z
#    x 3.565180 0.000000 -0.335220 
#    y 0.000000 3.984820 0.000000 
#    z -0.335220 0.000000 3.741940 
# 
# 
# High freq. dielectric constant tensor:
#      x y z
#    x 1.776010 0.000000 -0.034300 
#    y 0.000000 1.808750 0.000000 
#    z -0.034300 0.000000 1.797230 
# 
# From -- ./inp_files/30669.got.cif
#   From: 2010.03.12/outbox.cif.g09.slc.cpg/sg5_16_cif.got.tgz:30669.got - 2010.03.31 09:47:26.
