data_PCOD8049516
_publ_section_title
;
Structure prediction by ZEFSAII (Michael W. Deem and Ramdas Pophale) SiO2 
 PCOD8049516
Probable space group: C 2
;
_chemical_formula_sum "Si O2"
_cell_formula_units_Z 32
_cell_length_a 14.704478
_cell_length_b 22.816098
_cell_length_c 8.530139
_cell_angle_alpha 90.000000
_cell_angle_beta 31.481592
_cell_angle_gamma 90.000000
_cell_volume 1494.529255
_symmetry_space_group_name_H-M "C 2"
_symmetry_group_IT_number 5
_symmetry_cell_setting 'monoclinic'
loop_
_space_group_symop_operation_xyz
x,y,z
-x,y,-z
1/2+x,1/2+y,z
1/2-x,1/2+y,-z
loop_
_atom_site_type_symbol
_atom_site_label
_atom_site_fract_x
_atom_site_fract_y
_atom_site_fract_z
Si Si1 0.308623 0.386490 0.713599
Si Si2 0.669589 0.764698 0.854707
Si Si3 0.863714 0.699081 0.321054
Si Si4 0.050637 0.578556 0.091204
Si Si5 0.495404 0.675366 0.324796
Si Si6 0.491236 0.962660 0.693047
Si Si7 0.155036 0.946281 0.652479
Si Si8 0.080413 0.052356 0.534615
O O1 0.500000 0.391418 0.500000
O O2 0.224459 0.323090 0.866902
O O3 0.330722 0.395314 0.495528
O O4 0.181326 0.435793 0.973506
O O5 0.831122 0.743803 0.510240
O O6 0.500000 0.777871 0.000000
O O7 0.640156 0.713927 0.025010
O O8 0.687625 0.687841 0.487593
O O9 0.944044 0.638405 0.271327
O O10 0.000000 0.728151 0.000000
O O11 0.015124 0.533186 0.283664
O O12 0.256000 0.589665 0.773173
O O13 0.000000 0.547606 0.000000
O O14 0.500000 0.693386 0.500000
O O15 0.543482 0.606114 0.227097
O O16 0.500000 0.943902 0.500000
O O17 0.666087 0.941512 0.517643
O O18 0.120870 0.008566 0.616532
O O19 0.000000 0.933523 0.000000
O O20 0.000000 0.018480 0.500000
#
# Coordination Sequence:
#
# PCOD8049516 Si02
#       8
#     4   4   4   4   4   4   4   4
#     4  12  26  49  69  94 135 173 227 283 334 393
#     4  10  24  44  69  93 127 179 223 269 329 395
#     4  10  20  40  64  92 130 174 215 263 327 390
#     4  11  19  41  65  95 139 178 208 269 334 387
#     4  10  21  39  63  94 131 171 216 269 323 387
#     4  12  25  42  70 101 132 178 222 274 336 400
#     4  12  25  42  69 101 134 174 224 273 336 400
#     4  11  22  39  67  98 140 178 214 268 330 395
#
# _framework density 21.411422999999999
#
# number of rings (size 3 to 8) (size 9 to 14) (size 15 to 20)
#    0.000    1.000    5.000    2.250    1.750    4.500 
#    2.250    2.500    0.000    0.000    0.000    0.000 
#    0.000    0.000    0.000    0.000    0.000    0.000 
#
# Total GULP energy -198338.338944 kJ/mol
# GULP energy per Si atom -12396.146184 kJ/mol
# Density = 2.136269 g / cm^3
# Si number density = 21.411423 Si / 1000 Ang^3
#
#
#
# Elastic Constant Matrix: (Units=GPa)
#
#
# Indices 1 2 3 4 5 6 
#
# 1 122.1951 29.9798 41.4767 0.0008 -1.8059 -0.0013
# 2 29.9798 85.5631 35.7444 -0.0002 -4.8108 0.0004
# 3 41.4767 35.7444 126.9021 0.0014 1.0981 -0.0021
# 4 0.0008 -0.0002 0.0014 31.7359 -0.0013 4.7173
# 5 -1.8059 -4.8108 1.0981 -0.0013 32.2205 0.0022
# 6 -0.0013 0.0004 -0.0021 4.7173 0.0022 12.8781
#
#
#
# Elastic Compliance Matrix: (Units=1/GPa)
#
#
# Indices 1 2 3 4 5 6 
#
# 1 0.009599 -0.002308 -0.002490 0.000000 0.000278 0.000001
# 2 -0.002308 0.013945 -0.003192 0.000001 0.002062 -0.000002
# 3 -0.002490 -0.003192 0.009601 -0.000001 -0.000943 0.000002
# 4 0.000000 0.000001 -0.000001 0.033325 0.000002 -0.012207
# 5 0.000278 0.002062 -0.000943 0.000002 0.031392 -0.000006
# 6 0.000001 -0.000002 0.000002 -0.012207 -0.000006 0.082123
#
#
# Mechanical properties :
#
#
# Convention : Reuss Voigt Hill
#
# Bulk Modulus (GPa) = 58.25041 61.00690 59.62866
# Shear Modulus (GPa) = 24.79125 30.53085 27.66105
#
# Velocity S-wave (km/s) = 3.40641 3.78022 3.59818
# Velocity P-wave (km/s) = 6.53727 6.89986 6.72101
#
# Compressibility (1/GPa) = 0.01716726
#
# Stress axis : x y z
#
# Youngs Moduli (GPa) = 104.17747 71.71040 104.15629
#
# Poissons Ratio (x) = 0.16548 0.25933
# Poissons Ratio (y) = 0.24040 0.33241
# Poissons Ratio (z) = 0.25938 0.22886
#
# Static dielectric constant tensor:
#      x y z
#    x 4.048350 0.000000 -0.039990 
#    y 0.000000 3.770940 0.000000 
#    z -0.039990 0.000000 4.014120 
# 
# 
# High freq. dielectric constant tensor:
#      x y z
#    x 1.847230 0.000000 -0.011950 
#    y 0.000000 1.830480 0.000000 
#    z -0.011950 0.000000 1.840530 
# 
# From -- ./inp_files/25608.got.cif
#   From: 2010.03.12/outbox.cif.g09.slc.cpg/sg5_13_cif.got.tgz:25608.got - 2010.03.31 09:47:26.
