data_PCOD8049048
_publ_section_title
;
Structure prediction by ZEFSAII (Michael W. Deem and Ramdas Pophale) SiO2 
 PCOD8049048
Probable space group: C 2
;
_chemical_formula_sum "Si O2"
_cell_formula_units_Z 28
_cell_length_a 30.975647
_cell_length_b 7.971235
_cell_length_c 9.352534
_cell_angle_alpha 90.000000
_cell_angle_beta 144.912201
_cell_angle_gamma 90.000000
_cell_volume 1327.441797
_symmetry_space_group_name_H-M "C 2"
_symmetry_group_IT_number 5
_symmetry_cell_setting 'monoclinic'
loop_
_space_group_symop_operation_xyz
x,y,z
-x,y,-z
1/2+x,1/2+y,z
1/2-x,1/2+y,-z
loop_
_atom_site_type_symbol
_atom_site_label
_atom_site_fract_x
_atom_site_fract_y
_atom_site_fract_z
Si Si1 0.275893 0.660780 0.485148
Si Si2 0.726113 0.485779 0.230384
Si Si3 0.624466 0.099208 0.464679
Si Si4 0.160573 0.176722 0.822811
Si Si5 0.431860 0.848475 0.904341
Si Si6 0.789545 0.921214 0.276691
Si Si7 0.528000 0.917757 0.423453
O O1 0.256975 0.617910 0.596980
O O2 0.216235 0.799480 0.266444
O O3 0.360365 0.728988 0.700742
O O4 0.264200 0.493001 0.361522
O O5 0.796680 0.497653 0.312446
O O6 0.655504 0.545929 0.943639
O O7 0.639514 0.298033 0.504153
O O8 0.583147 0.030809 0.209855
O O9 0.576659 0.060319 0.477025
O O10 0.077975 0.251095 0.578170
O O11 0.184817 0.080046 0.746125
O O12 0.220368 0.323711 0.017788
O O13 0.500000 0.762229 0.000000
O O14 0.454619 0.873356 0.130774
O O15 0.500000 0.986802 0.500000
#
# Coordination Sequence:
#
# PCOD8049048 Si02
#       7
#     4   4   4   4   4   4   4
#     4  11  21  37  62  90 119 155 200 243 291 344
#     4  10  20  35  57  89 120 150 193 246 291 340
#     4   9  20  38  57  82 113 153 200 240 289 338
#     4  11  21  36  59  90 122 154 194 238 301 350
#     4   9  19  39  61  85 120 161 197 232 284 356
#     4  11  21  38  63  88 118 152 194 252 297 344
#     4  11  22  39  61  84 119 161 195 235 293 364
#
# _framework density 21.093204
#
# number of rings (size 3 to 8) (size 9 to 14) (size 15 to 20)
#    0.000    1.714    0.000    7.714    0.000    1.143 
#    0.000    8.571    0.000    1.714    0.000    0.000 
#    0.000    0.000    0.000    0.000    0.000    0.000 
#
# Total GULP energy -173569.128672 kJ/mol
# GULP energy per Si atom -12397.794905 kJ/mol
# Density = 2.104520 g / cm^3
# Si number density = 21.093204 Si / 1000 Ang^3
#
#
#
# Elastic Constant Matrix: (Units=GPa)
#
#
# Indices 1 2 3 4 5 6 
#
# 1 83.6451 15.1091 27.8128 0.0000 -14.2050 0.0000
# 2 15.1091 86.5336 41.8812 0.0000 1.8206 0.0000
# 3 27.8128 41.8812 105.2388 0.0000 -15.2572 0.0000
# 4 0.0000 0.0000 0.0000 37.4860 0.0000 -1.8531
# 5 -14.2050 1.8206 -15.2572 0.0000 32.1520 0.0000
# 6 0.0000 0.0000 0.0000 -1.8531 0.0000 33.1572
#
#
#
# Elastic Compliance Matrix: (Units=1/GPa)
#
#
# Indices 1 2 3 4 5 6 
#
# 1 0.013856 -0.001374 -0.002380 0.000000 0.005070 0.000000
# 2 -0.001374 0.014889 -0.006199 0.000000 -0.004392 0.000000
# 3 -0.002380 -0.006199 0.013420 0.000000 0.005668 0.000000
# 4 0.000000 0.000000 0.000000 0.026751 0.000000 0.001495
# 5 0.005070 -0.004392 0.005668 0.000000 0.036280 0.000000
# 6 0.000000 0.000000 0.000000 0.001495 0.000000 0.030243
#
#
# Mechanical properties :
#
#
# Convention : Reuss Voigt Hill
#
# Bulk Modulus (GPa) = 44.92622 49.44706 47.18664
# Shear Modulus (GPa) = 30.71953 33.26667 31.99310
#
# Velocity S-wave (km/s) = 3.82038 3.97561 3.89877
# Velocity P-wave (km/s) = 6.38792 6.67586 6.53348
#
# Compressibility (1/GPa) = 0.02225872
#
# Stress axis : x y z
#
# Youngs Moduli (GPa) = 72.17168 67.16560 74.51735
#
# Poissons Ratio (x) = 0.09229 0.17735
# Poissons Ratio (y) = 0.09917 0.46191
# Poissons Ratio (z) = 0.17177 0.41634
#
# Static dielectric constant tensor:
#      x y z
#    x 3.857250 0.000000 -0.173730 
#    y 0.000000 3.769060 0.000000 
#    z -0.173730 0.000000 3.993000 
# 
# 
# High freq. dielectric constant tensor:
#      x y z
#    x 1.828590 0.000000 -0.021520 
#    y 0.000000 1.813030 0.000000 
#    z -0.021520 0.000000 1.823320 
# 
# From -- ./inp_files/31785.got.cif
#   From: 2010.03.12/outbox.cif.g09.slc.cpg/sg5_16_cif.got.tgz:31785.got - 2010.03.31 09:47:26.
