data_PCOD8049753
_publ_section_title
;
Structure prediction by ZEFSAII (Michael W. Deem and Ramdas Pophale) SiO2 
 PCOD8049753
Probable space group: C 2
;
_chemical_formula_sum "Si O2"
_cell_formula_units_Z 26
_cell_length_a 11.229285
_cell_length_b 11.187717
_cell_length_c 15.695566
_cell_angle_alpha 90.000000
_cell_angle_beta 44.267019
_cell_angle_gamma 90.000000
_cell_volume 1376.347094
_symmetry_space_group_name_H-M "C 2"
_symmetry_group_IT_number 5
_symmetry_cell_setting 'monoclinic'
loop_
_space_group_symop_operation_xyz
x,y,z
-x,y,-z
1/2+x,1/2+y,z
1/2-x,1/2+y,-z
loop_
_atom_site_type_symbol
_atom_site_label
_atom_site_fract_x
_atom_site_fract_y
_atom_site_fract_z
Si Si1 0.146503 0.189880 0.613875
Si Si2 0.678191 0.390446 0.374455
Si Si3 0.883461 0.313137 0.635125
Si Si4 0.158899 0.037485 0.763811
Si Si5 0.000000 0.138458 0.000000
Si Si6 0.164396 0.726276 0.230616
Si Si7 0.180529 0.624722 0.645560
O O1 0.281565 0.274228 0.590951
O O2 0.243008 0.123759 0.488279
O O3 0.991427 0.276479 0.663440
O O4 0.087384 0.084111 0.709087
O O5 0.500000 0.444656 0.500000
O O6 0.660788 0.352773 0.283368
O O7 0.826918 0.489426 0.313763
O O8 0.726565 0.402475 0.732125
O O9 0.808947 0.188678 0.642799
O O10 0.000000 0.369809 0.500000
O O11 0.320276 0.119247 0.708249
O O12 0.007881 0.054474 0.911414
O O13 0.831421 0.223187 0.083261
O O14 0.997630 0.696914 0.260539
#
# Coordination Sequence:
#
# PCOD8049753 Si02
#       7
#     4   4   4   4   2   4   4
#     4  10  21  34  56  89 118 150 186 233 291 356
#     4  11  20  34  58  88 118 152 186 235 293 353
#     4  10  22  35  52  91 124 149 183 233 295 358
#     4   9  20  36  62  77 108 154 194 239 284 336
#     4   8  20  40  58  84 102 146 214 242 274 346
#     4   9  20  38  58  82 106 153 200 237 288 333
#     4  11  22  34  56  88 126 150 184 236 293 362
#
# _framework density 18.890584
#
# number of rings (size 3 to 8) (size 9 to 14) (size 15 to 20)
#    0.923    1.231    1.538    2.308    6.462    1.231 
#    0.000    3.077    0.000    0.923    0.000    0.000 
#    0.000    0.000    0.000    0.000    0.000    0.000 
#
# Total GULP energy -161056.587897 kJ/mol
# GULP energy per Si atom -12388.968300 kJ/mol
# Density = 1.884759 g / cm^3
# Si number density = 18.890584 Si / 1000 Ang^3
#
#
#
# Elastic Constant Matrix: (Units=GPa)
#
#
# Indices 1 2 3 4 5 6 
#
# 1 85.9223 24.0325 36.8452 0.0000 -4.1601 0.0000
# 2 24.0325 75.1982 34.1439 0.0000 -1.9741 0.0000
# 3 36.8452 34.1439 110.7797 -0.0001 -11.6348 0.0000
# 4 0.0000 0.0000 -0.0001 14.2781 0.0000 -2.3667
# 5 -4.1601 -1.9741 -11.6348 0.0000 17.0762 0.0000
# 6 0.0000 0.0000 0.0000 -2.3667 0.0000 33.7412
#
#
#
# Elastic Compliance Matrix: (Units=1/GPa)
#
#
# Indices 1 2 3 4 5 6 
#
# 1 0.014053 -0.002768 -0.003764 0.000000 0.000539 0.000000
# 2 -0.002768 0.016046 -0.004202 0.000000 -0.001682 0.000000
# 3 -0.003764 -0.004202 0.012307 0.000000 0.006983 0.000000
# 4 0.000000 0.000000 0.000000 0.070861 0.000000 0.004970
# 5 0.000539 -0.001682 0.006983 0.000000 0.063256 0.000000
# 6 0.000000 0.000000 0.000000 0.004970 0.000000 0.029986
#
#
# Mechanical properties :
#
#
# Convention : Reuss Voigt Hill
#
# Bulk Modulus (GPa) = 47.75824 51.32703 49.54263
# Shear Modulus (GPa) = 21.28051 24.81102 23.04576
#
# Velocity S-wave (km/s) = 3.36000 3.62803 3.49658
# Velocity P-wave (km/s) = 6.35525 6.69177 6.52568
#
# Compressibility (1/GPa) = 0.02093880
#
# Stress axis : x y z
#
# Youngs Moduli (GPa) = 71.15985 62.31911 81.25215
#
# Poissons Ratio (x) = 0.17249 0.30586
# Poissons Ratio (y) = 0.19696 0.34141
# Poissons Ratio (z) = 0.26787 0.26185
#
# Static dielectric constant tensor:
#      x y z
#    x 3.477190 0.000000 0.102970 
#    y 0.000000 3.225130 0.000000 
#    z 0.102970 0.000000 3.185820 
# 
# 
# High freq. dielectric constant tensor:
#      x y z
#    x 1.735510 0.000000 0.005270 
#    y 0.000000 1.728140 0.000000 
#    z 0.005270 0.000000 1.696660 
# 
# From -- ./inp_files/52591.got.cif
#   From: 2010.03.12/outbox.cif.g09.slc.cpg/sg5_27_cif.got.tgz:52591.got - 2010.03.31 09:47:26.
