data_PCOD8049752
_publ_section_title
;
Structure prediction by ZEFSAII (Michael W. Deem and Ramdas Pophale) SiO2 
 PCOD8049752
Probable space group: C 2
;
_chemical_formula_sum "Si O2"
_cell_formula_units_Z 28
_cell_length_a 25.927232
_cell_length_b 10.963032
_cell_length_c 12.711315
_cell_angle_alpha 90.000000
_cell_angle_beta 155.793342
_cell_angle_gamma 90.000000
_cell_volume 1481.466772
_symmetry_space_group_name_H-M "C 2"
_symmetry_group_IT_number 5
_symmetry_cell_setting 'monoclinic'
loop_
_space_group_symop_operation_xyz
x,y,z
-x,y,-z
1/2+x,1/2+y,z
1/2-x,1/2+y,-z
loop_
_atom_site_type_symbol
_atom_site_label
_atom_site_fract_x
_atom_site_fract_y
_atom_site_fract_z
Si Si1 0.719687 0.301790 0.171593
Si Si2 0.385825 0.587542 0.511127
Si Si3 0.075266 0.185066 0.033069
Si Si4 0.699519 0.001431 0.526171
Si Si5 0.750943 0.396757 0.603633
Si Si6 0.541351 0.228082 0.263279
Si Si7 0.011799 0.868123 0.642603
O O1 0.807458 0.188798 0.301227
O O2 0.804061 0.398034 0.391502
O O3 0.605905 0.252037 0.036074
O O4 0.658519 0.362305 0.952957
O O5 0.484432 0.657399 0.767807
O O6 0.286791 0.511836 0.396461
O O7 0.457998 0.503769 0.561333
O O8 0.171824 0.074495 0.223757
O O9 0.147428 0.312497 0.146421
O O10 0.000000 0.195010 0.000000
O O11 0.577479 0.087061 0.315675
O O12 0.688017 0.940123 0.391306
O O13 0.627045 0.314332 0.348319
O O14 0.566678 0.271062 0.432240
O O15 0.000000 0.830727 0.500000
#
# Coordination Sequence:
#
# PCOD8049752 Si02
#       7
#     4   4   4   4   4   4   4
#     4  10  22  37  59  82 114 152 187 246 287 345
#     4  11  21  39  58  87 117 147 197 237 289 349
#     4  11  20  34  55  83 120 160 190 232 277 346
#     4  11  19  36  58  83 122 158 187 233 287 332
#     4  10  21  34  56  83 119 162 190 227 282 341
#     4   8  21  38  55  86 112 155 197 232 280 346
#     4   9  20  45  62  82 114 149 196 250 299 340
#
# _framework density 18.900186000000001
#
# number of rings (size 3 to 8) (size 9 to 14) (size 15 to 20)
#    0.857    1.143    2.857    0.857    2.000    2.286 
#    2.571    0.000    0.000    0.857    0.000    0.000 
#    0.000    0.000    0.000    0.000    0.000    0.000 
#
# Total GULP energy -173532.944552 kJ/mol
# GULP energy per Si atom -12395.210325 kJ/mol
# Density = 1.885717 g / cm^3
# Si number density = 18.900186 Si / 1000 Ang^3
#
#
#
# Elastic Constant Matrix: (Units=GPa)
#
#
# Indices 1 2 3 4 5 6 
#
# 1 48.6032 27.5555 18.0021 0.0000 -14.8745 0.0000
# 2 27.5555 118.7947 38.4406 0.0000 0.3123 0.0000
# 3 18.0021 38.4406 37.8212 0.0000 -1.2570 0.0000
# 4 0.0000 0.0000 0.0000 34.1567 0.0000 15.8699
# 5 -14.8745 0.3123 -1.2570 0.0000 25.5823 0.0000
# 6 0.0000 0.0000 0.0000 15.8699 0.0000 -4.4902
#
#
#
# Elastic Compliance Matrix: (Units=1/GPa)
#
#
# Indices 1 2 3 4 5 6 
#
# 1 0.032508 -0.004143 -0.010650 0.000000 0.018429 0.000000
# 2 -0.004143 0.013087 -0.011433 0.000000 -0.003130 0.000000
# 3 -0.010650 -0.011433 0.042999 0.000000 -0.003940 0.000000
# 4 0.000000 0.000000 0.000000 0.011081 0.000000 0.039163
# 5 0.018429 -0.003130 -0.003940 0.000000 0.049649 0.000000
# 6 0.000000 0.000000 0.000000 0.039163 0.000000 -0.084291
#
#
# Mechanical properties :
#
#
# Convention : Reuss Voigt Hill
#
# Bulk Modulus (GPa) = 27.66890 41.46838 34.56864
# Shear Modulus (GPa) = 38.60049 19.13115 28.86582
#
# Velocity S-wave (km/s) = 4.52412 3.18499 3.91228
# Velocity P-wave (km/s) = 6.47777 5.95936 6.22396
#
# Compressibility (1/GPa) = 0.03614167
#
# Stress axis : x y z
#
# Youngs Moduli (GPa) = 30.76154 76.41335 23.25637
#
# Poissons Ratio (x) = 0.31656 0.24768
# Poissons Ratio (y) = 0.12744 0.26590
# Poissons Ratio (z) = 0.32761 0.87365
#
# Static dielectric constant tensor:
#      x y z
#    x 3.111560 0.000000 0.200760 
#    y 0.000000 3.620150 0.000000 
#    z 0.200760 0.000000 3.356210 
# 
# 
# High freq. dielectric constant tensor:
#      x y z
#    x 1.694850 0.000000 0.018100 
#    y 0.000000 1.747200 0.000000 
#    z 0.018100 0.000000 1.725570 
# 
# From -- ./inp_files/47988.got.cif
#   From: 2010.03.12/outbox.cif.g09.slc.cpg/sg5_24_cif.got.tgz:47988.got - 2010.03.31 09:47:26.
