data_PCOD8049456
_publ_section_title
;
Structure prediction by ZEFSAII (Michael W. Deem and Ramdas Pophale) SiO2 
 PCOD8049456
Probable space group: C 2
;
_chemical_formula_sum "Si O2"
_cell_formula_units_Z 26
_cell_length_a 11.928643
_cell_length_b 13.689247
_cell_length_c 13.979482
_cell_angle_alpha 90.000000
_cell_angle_beta 147.995585
_cell_angle_gamma 90.000000
_cell_volume 1209.831642
_symmetry_space_group_name_H-M "C 2"
_symmetry_group_IT_number 5
_symmetry_cell_setting 'monoclinic'
loop_
_space_group_symop_operation_xyz
x,y,z
-x,y,-z
1/2+x,1/2+y,z
1/2-x,1/2+y,-z
loop_
_atom_site_type_symbol
_atom_site_label
_atom_site_fract_x
_atom_site_fract_y
_atom_site_fract_z
Si Si1 0.180952 0.114020 0.709551
Si Si2 0.319522 0.710055 0.802270
Si Si3 0.899759 0.901708 0.326946
Si Si4 0.000000 0.559797 0.500000
Si Si5 0.946035 0.254964 0.219976
Si Si6 0.223553 0.396881 0.544117
Si Si7 0.518223 0.278603 0.118766
O O1 0.090921 0.159765 0.742140
O O2 0.395327 0.167523 0.830300
O O3 0.000000 0.122552 0.500000
O O4 0.239769 0.000252 0.768121
O O5 0.242576 0.808128 0.801860
O O6 0.391476 0.732730 0.746436
O O7 0.141214 0.628058 0.669757
O O8 0.500000 0.664951 0.000000
O O9 0.000000 0.872986 0.500000
O O10 0.083235 0.922501 0.384176
O O11 0.865336 0.496412 0.476812
O O12 0.038252 0.341084 0.353294
O O13 0.718043 0.283145 0.008002
O O14 0.308200 0.333500 0.693578
O O15 0.500000 0.327046 0.000000
#
# Coordination Sequence:
#
# PCOD8049456 Si02
#       7
#     4   4   4   2   4   4   4
#     4  10  20  39  67  99 127 165 220 275 332 387
#     4  12  26  47  65  95 139 178 225 268 335 398
#     4  11  23  43  67  94 128 176 222 270 326 393
#     4  12  26  44  68  98 134 180 222 274 336 390
#     4  11  22  42  69  99 130 175 219 275 334 396
#     4  12  23  44  70  96 134 175 223 275 325 398
#     4  10  22  39  67 103 131 166 220 276 337 390
#
# _framework density 21.490594000000002
#
# number of rings (size 3 to 8) (size 9 to 14) (size 15 to 20)
#    0.000    0.923    3.846    3.692    0.000    3.692 
#    5.538    3.077    0.000    0.000    0.000    0.000 
#    0.000    0.000    0.000    0.000    0.000    0.000 
#
# Total GULP energy -161209.842567 kJ/mol
# GULP energy per Si atom -12400.757121 kJ/mol
# Density = 2.144168 g / cm^3
# Si number density = 21.490594 Si / 1000 Ang^3
#
#
#
# Elastic Constant Matrix: (Units=GPa)
#
#
# Indices 1 2 3 4 5 6 
#
# 1 105.7797 40.8275 30.7340 0.0090 12.5291 0.0036
# 2 40.8275 141.2622 72.5259 0.0074 6.9185 0.0046
# 3 30.7340 72.5259 133.2265 0.0118 5.1244 0.0064
# 4 0.0090 0.0074 0.0118 5.2863 0.0057 7.5344
# 5 12.5291 6.9185 5.1244 0.0057 35.4853 0.0029
# 6 0.0036 0.0046 0.0064 7.5344 0.0029 28.6930
#
#
#
# Elastic Compliance Matrix: (Units=1/GPa)
#
#
# Indices 1 2 3 4 5 6 
#
# 1 0.011121 -0.002500 -0.001078 -0.000014 -0.003283 0.000003
# 2 -0.002500 0.010434 -0.005087 0.000003 -0.000417 -0.000001
# 3 -0.001078 -0.005087 0.010530 -0.000020 -0.000148 0.000004
# 4 -0.000014 0.000003 -0.000020 0.302309 -0.000034 -0.079382
# 5 -0.003283 -0.000417 -0.000148 -0.000034 0.029443 0.000007
# 6 0.000003 -0.000001 0.000004 -0.079382 0.000007 0.055696
#
#
# Mechanical properties :
#
#
# Convention : Reuss Voigt Hill
#
# Bulk Modulus (GPa) = 67.77938 74.27148 71.02543
# Shear Modulus (GPa) = 11.31783 29.63833 20.47808
#
# Velocity S-wave (km/s) = 2.29736 3.71769 3.09023
# Velocity P-wave (km/s) = 6.21648 7.28446 6.77156
#
# Compressibility (1/GPa) = 0.01475375
#
# Stress axis : x y z
#
# Youngs Moduli (GPa) = 89.92320 95.84269 94.96778
#
# Poissons Ratio (x) = 0.23957 0.10241
# Poissons Ratio (y) = 0.22477 0.48313
# Poissons Ratio (z) = 0.09697 0.48758
#
# Static dielectric constant tensor:
#      x y z
#    x 4.240560 -0.000010 0.046410 
#    y -0.000010 3.855990 -0.000010 
#    z 0.046410 -0.000010 4.043260 
# 
# 
# High freq. dielectric constant tensor:
#      x y z
#    x 1.847190 0.000000 -0.000090 
#    y 0.000000 1.836690 0.000000 
#    z -0.000090 0.000000 1.856520 
# 
# From -- ./inp_files/53245.got.cif
#   From: 2010.03.12/outbox.cif.g09.slc.cpg/sg5_27_cif.got.tgz:53245.got - 2010.03.31 09:47:26.
