data_PCOD8049020
_publ_section_title
;
Structure prediction by ZEFSAII (Michael W. Deem and Ramdas Pophale) SiO2 
 PCOD8049020
Probable space group: C 2
;
_chemical_formula_sum "Si O2"
_cell_formula_units_Z 24
_cell_length_a 5.528936
_cell_length_b 24.116799
_cell_length_c 8.379246
_cell_angle_alpha 90.000000
_cell_angle_beta 87.161901
_cell_angle_gamma 90.000000
_cell_volume 1115.920227
_symmetry_space_group_name_H-M "C 2"
_symmetry_group_IT_number 5
_symmetry_cell_setting 'monoclinic'
loop_
_space_group_symop_operation_xyz
x,y,z
-x,y,-z
1/2+x,1/2+y,z
1/2-x,1/2+y,-z
loop_
_atom_site_type_symbol
_atom_site_label
_atom_site_fract_x
_atom_site_fract_y
_atom_site_fract_z
Si Si1 0.892529 0.102690 0.330669
Si Si2 0.000000 0.539992 0.500000
Si Si3 0.963709 0.220031 0.186526
Si Si4 0.623034 0.395510 0.824732
Si Si5 0.036171 0.772697 0.809620
Si Si6 0.837778 0.995687 0.742897
Si Si7 0.500000 0.948447 0.000000
O O1 0.619801 0.080619 0.364643
O O2 0.909256 0.155875 0.218681
O O3 0.000000 0.117091 0.500000
O O4 0.028315 0.053503 0.235741
O O5 0.814136 0.499563 0.415853
O O6 0.720113 0.251908 0.258644
O O7 0.222091 0.238850 0.256972
O O8 0.000000 0.231631 0.000000
O O9 0.586538 0.335384 0.747849
O O10 0.517487 0.443323 0.713192
O O11 0.500000 0.397026 0.000000
O O12 0.902518 0.409572 0.857859
O O13 0.000000 0.768728 0.000000
O O14 0.693994 0.988571 0.912561
#
# Coordination Sequence:
#
# PCOD8049020 Si02
#       7
#     4   2   4   4   4   4   2
#     4  10  23  40  60  83 116 161 204 249 306 364
#     4  10  22  40  62  80 122 162 202 252 308 374
#     4  10  22  38  62  91 120 157 202 254 299 359
#     4   9  19  33  58  90 124 157 194 244 304 367
#     4   9  20  36  59  91 125 157 196 246 306 361
#     4  10  21  37  59  93 115 163 198 250 306 368
#     4  10  20  34  62  92 126 152 194 254 304 368
#
# _framework density 21.506912
#
# number of rings (size 3 to 8) (size 9 to 14) (size 15 to 20)
#    0.000    2.333    0.000    1.000   12.833    3.333 
#    1.500    0.000    1.833    2.000    0.000    0.000 
#    0.000    0.000    0.000    0.000    0.000    0.000 
#
# Total GULP energy -148686.806882 kJ/mol
# GULP energy per Si atom -12390.567240 kJ/mol
# Density = 2.145796 g / cm^3
# Si number density = 21.506912 Si / 1000 Ang^3
#
#
#
# Elastic Constant Matrix: (Units=GPa)
#
#
# Indices 1 2 3 4 5 6 
#
# 1 165.3054 81.5383 23.1078 0.0000 4.4888 0.0000
# 2 81.5383 176.8840 25.6569 0.0000 4.7388 0.0000
# 3 23.1078 25.6569 18.4388 0.0000 -3.2500 0.0000
# 4 0.0000 0.0000 0.0000 0.0067 0.0000 2.4615
# 5 4.4888 4.7388 -3.2500 0.0000 21.6573 0.0000
# 6 0.0000 0.0000 0.0000 2.4615 0.0000 19.9838
#
#
#
# Elastic Compliance Matrix: (Units=1/GPa)
#
#
# Indices 1 2 3 4 5 6 
#
# 1 0.008497 -0.002827 -0.007104 0.000000 -0.002209 0.000000
# 2 -0.002827 0.008234 -0.008349 0.000000 -0.002469 0.000000
# 3 -0.007104 -0.008349 0.077382 0.000000 0.014912 0.000000
# 4 0.000000 0.000000 0.000000 -3.372804 0.000000 0.415446
# 5 -0.002209 -0.002469 0.014912 0.000000 0.049410 0.000000
# 6 0.000000 0.000000 0.000000 0.415446 0.000000 -0.001132
#
#
# Mechanical properties :
#
#
# Convention : Reuss Voigt Hill
#
# Bulk Modulus (GPa) = 17.37545 69.02603 43.20074
# Shear Modulus (GPa) = -1.57497 23.68456 11.05479
#
# Velocity S-wave (km/s) = -0.85668 3.32211 2.26964
# Velocity P-wave (km/s) = 2.66796 6.84688 5.19604
#
# Compressibility (1/GPa) = 0.05755247
#
# Stress axis : x y z
#
# Youngs Moduli (GPa) = 117.68861 121.44936 12.92293
#
# Poissons Ratio (x) = 0.34337 0.09180
# Poissons Ratio (y) = 0.33274 0.10789
# Poissons Ratio (z) = 0.83603 1.01399
#
# Static dielectric constant tensor:
#      x y z
#    x 5.059630 0.000000 0.216030 
#    y 0.000000 3.946730 0.000000 
#    z 0.216030 0.000000 3.394400 
# 
# 
# High freq. dielectric constant tensor:
#      x y z
#    x 1.863980 0.000000 -0.001570 
#    y 0.000000 1.843890 0.000000 
#    z -0.001570 0.000000 1.796270 
# 
# From -- ./inp_files/12856.got.cif
#   From: 2010.03.12/outbox.cif.g09.slc.cpg/sg5_7_cif.got.tgz:12856.got - 2010.03.31 09:47:26.
