data_PCOD8049714
_publ_section_title
;
Structure prediction by ZEFSAII (Michael W. Deem and Ramdas Pophale) SiO2 
 PCOD8049714
Probable space group: C 2
;
_chemical_formula_sum "Si O2"
_cell_formula_units_Z 24
_cell_length_a 28.472049
_cell_length_b 8.477732
_cell_length_c 9.195418
_cell_angle_alpha 90.000000
_cell_angle_beta 28.526424
_cell_angle_gamma 90.000000
_cell_volume 1059.989272
_symmetry_space_group_name_H-M "C 2"
_symmetry_group_IT_number 5
_symmetry_cell_setting 'monoclinic'
loop_
_space_group_symop_operation_xyz
x,y,z
-x,y,-z
1/2+x,1/2+y,z
1/2-x,1/2+y,-z
loop_
_atom_site_type_symbol
_atom_site_label
_atom_site_fract_x
_atom_site_fract_y
_atom_site_fract_z
Si Si1 0.000000 0.040540 0.000000
Si Si2 0.570804 0.716849 0.073949
Si Si3 0.166619 0.800059 0.048808
Si Si4 0.086530 0.767774 0.581062
Si Si5 0.770693 0.564332 0.621335
Si Si6 0.000000 0.031330 0.500000
Si Si7 0.398974 0.069941 0.001924
O O1 0.066892 0.155216 0.918676
O O2 0.070050 0.934347 0.706834
O O3 0.672561 0.670408 0.878325
O O4 0.549681 0.901340 0.152707
O O5 0.480234 0.638431 0.411238
O O6 0.157491 0.786568 0.247540
O O7 0.149153 0.631382 0.018725
O O8 0.085327 0.919505 0.213042
O O9 0.262367 0.894077 0.727597
O O10 0.142231 0.654579 0.537189
O O11 0.979721 0.696539 0.834315
O O12 0.808014 0.539187 0.356631
#
# Coordination Sequence:
#
# PCOD8049714 Si02
#       7
#     2   4   4   4   4   2   4
#     4  12  24  48  74  98 150 192 244 288 364 434
#     4  11  27  42  70 104 141 187 239 300 355 430
#     4  11  23  47  72  99 146 189 238 295 362 423
#     4  12  24  46  74 104 141 198 233 299 363 428
#     4  11  26  46  67 107 142 183 247 291 364 427
#     4  10  20  44  66 100 136 188 236 282 364 422
#     4  12  24  46  74 104 140 190 243 295 365 428
#
# _framework density 22.641738
#
# number of rings (size 3 to 8) (size 9 to 14) (size 15 to 20)
#    0.000    0.667    5.000    2.000    7.000    1.333 
#    6.000    0.000    0.000    0.000    0.000    0.000 
#    0.000    0.000    0.000    0.000    0.000    0.000 
#
# Total GULP energy -148690.610697 kJ/mol
# GULP energy per Si atom -12390.884225 kJ/mol
# Density = 2.259020 g / cm^3
# Si number density = 22.641738 Si / 1000 Ang^3
#
#
#
# Elastic Constant Matrix: (Units=GPa)
#
#
# Indices 1 2 3 4 5 6 
#
# 1 69.4109 23.4422 9.5610 0.0000 21.6298 0.0000
# 2 23.4422 118.9395 13.3174 0.0000 20.3533 0.0000
# 3 9.5610 13.3174 83.4471 0.0000 31.3432 0.0000
# 4 0.0000 0.0000 0.0000 32.9478 0.0000 4.8511
# 5 21.6298 20.3533 31.3432 0.0000 43.9376 0.0000
# 6 0.0000 0.0000 0.0000 4.8511 0.0000 34.5989
#
#
#
# Elastic Compliance Matrix: (Units=1/GPa)
#
#
# Indices 1 2 3 4 5 6 
#
# 1 0.017674 -0.002148 0.001656 0.000000 -0.008886 0.000000
# 2 -0.002148 0.009395 -0.000022 0.000000 -0.003279 0.000000
# 3 0.001656 -0.000022 0.016528 0.000000 -0.012596 0.000000
# 4 0.000000 0.000000 0.000000 0.030991 0.000000 -0.004345
# 5 -0.008886 -0.003279 -0.012596 0.000000 0.037638 0.000000
# 6 0.000000 0.000000 0.000000 -0.004345 0.000000 0.029512
#
#
# Mechanical properties :
#
#
# Convention : Reuss Voigt Hill
#
# Bulk Modulus (GPa) = 23.49148 40.49317 31.99232
# Shear Modulus (GPa) = 31.85627 37.32867 34.59247
#
# Velocity S-wave (km/s) = 3.75503 4.06478 3.91297
# Velocity P-wave (km/s) = 5.40353 6.32084 5.88010
#
# Compressibility (1/GPa) = 0.04256863
#
# Stress axis : x y z
#
# Youngs Moduli (GPa) = 56.58167 106.44491 60.50189
#
# Poissons Ratio (x) = 0.22865 -0.10017
# Poissons Ratio (y) = 0.12154 0.00130
# Poissons Ratio (z) = -0.09368 0.00229
#
# Static dielectric constant tensor:
#      x y z
#    x 3.940410 0.000000 0.238140 
#    y 0.000000 4.184930 0.000000 
#    z 0.238140 0.000000 4.752280 
# 
# 
# High freq. dielectric constant tensor:
#      x y z
#    x 1.880350 0.000000 0.024960 
#    y 0.000000 1.901930 0.000000 
#    z 0.024960 0.000000 1.894980 
# 
# From -- ./inp_files/28904.got.cif
#   From: 2010.03.12/outbox.cif.g09.slc.cpg/sg5_15_cif.got.tgz:28904.got - 2010.03.31 09:47:26.
