data_PCOD8049710
_publ_section_title
;
Structure prediction by ZEFSAII (Michael W. Deem and Ramdas Pophale) SiO2 
 PCOD8049710
Probable space group: C 2
;
_chemical_formula_sum "Si O2"
_cell_formula_units_Z 24
_cell_length_a 6.848493
_cell_length_b 12.300280
_cell_length_c 14.273152
_cell_angle_alpha 90.000000
_cell_angle_beta 74.799088
_cell_angle_gamma 90.000000
_cell_volume 1160.279884
_symmetry_space_group_name_H-M "C 2"
_symmetry_group_IT_number 5
_symmetry_cell_setting 'monoclinic'
loop_
_space_group_symop_operation_xyz
x,y,z
-x,y,-z
1/2+x,1/2+y,z
1/2-x,1/2+y,-z
loop_
_atom_site_type_symbol
_atom_site_label
_atom_site_fract_x
_atom_site_fract_y
_atom_site_fract_z
Si Si1 0.500000 0.106790 0.500000
Si Si2 0.797627 0.965317 0.574565
Si Si3 0.266205 0.248250 0.675102
Si Si4 0.100082 0.086897 0.255401
Si Si5 0.000000 0.310784 0.000000
Si Si6 0.885457 0.867150 0.842653
Si Si7 0.665668 0.215252 0.913277
O O1 0.427535 0.181286 0.594430
O O2 0.673097 0.024938 0.510405
O O3 0.691216 0.857625 0.630436
O O4 0.000000 0.923214 0.500000
O O5 0.837907 0.055003 0.648357
O O6 0.368960 0.281710 0.759613
O O7 0.074819 0.174977 0.720242
O O8 0.293647 0.139174 0.180504
O O9 0.032522 0.981611 0.205129
O O10 0.875114 0.236613 0.942239
O O11 0.166333 0.381219 0.921583
O O12 0.057221 0.826435 0.892496
O O13 0.500000 0.155076 0.000000
#
# Coordination Sequence:
#
# PCOD8049710 Si02
#       7
#     2   4   4   4   2   4   4
#     4  12  24  40  68  94 126 174 206 254 326 360
#     4  11  24  42  63  96 127 164 216 259 307 376
#     4  11  23  43  65  93 132 163 211 265 304 377
#     4  11  23  43  67  92 126 171 209 254 321 372
#     4  10  20  44  64  94 130 162 208 264 308 368
#     4  10  23  42  64  93 130 164 211 260 307 376
#     4  10  22  43  65  94 131 164 207 261 310 372
#
# _framework density 20.684666
#
# number of rings (size 3 to 8) (size 9 to 14) (size 15 to 20)
#    0.000    1.333    4.167    1.000    1.167    2.667 
#    7.500    0.000    0.000    0.000    0.000    0.000 
#    0.000    0.000    0.000    0.000    0.000    0.000 
#
# Total GULP energy -148793.998918 kJ/mol
# GULP energy per Si atom -12399.499910 kJ/mol
# Density = 2.063759 g / cm^3
# Si number density = 20.684666 Si / 1000 Ang^3
#
#
#
# Elastic Constant Matrix: (Units=GPa)
#
#
# Indices 1 2 3 4 5 6 
#
# 1 104.0506 53.9389 46.5289 0.0000 0.0194 0.0000
# 2 53.9389 111.1937 48.2935 0.0000 -3.8960 0.0000
# 3 46.5289 48.2935 125.1905 0.0000 -11.6333 0.0000
# 4 0.0000 0.0000 0.0000 24.5216 0.0000 -10.6173
# 5 0.0194 -3.8960 -11.6333 0.0000 34.0579 0.0000
# 6 0.0000 0.0000 0.0000 -10.6173 0.0000 25.0381
#
#
#
# Elastic Compliance Matrix: (Units=1/GPa)
#
#
# Indices 1 2 3 4 5 6 
#
# 1 0.013841 -0.005370 -0.003233 0.000000 -0.001726 0.000000
# 2 -0.005370 0.012888 -0.002932 0.000000 0.000476 0.000000
# 3 -0.003233 -0.002932 0.010627 0.000000 0.003296 0.000000
# 4 0.000000 0.000000 0.000000 0.049952 0.000000 0.021182
# 5 -0.001726 0.000476 0.003296 0.000000 0.030543 0.000000
# 6 0.000000 0.000000 0.000000 0.021182 0.000000 0.048921
#
#
# Mechanical properties :
#
#
# Convention : Reuss Voigt Hill
#
# Bulk Modulus (GPa) = 69.99889 70.88415 70.44152
# Shear Modulus (GPa) = 25.69332 29.50176 27.59754
#
# Velocity S-wave (km/s) = 3.52823 3.78069 3.65664
# Velocity P-wave (km/s) = 7.10720 7.30763 7.20811
#
# Compressibility (1/GPa) = 0.01428594
#
# Stress axis : x y z
#
# Youngs Moduli (GPa) = 72.25114 77.58946 94.10390
#
# Poissons Ratio (x) = 0.41668 0.30422
# Poissons Ratio (y) = 0.38801 0.27588
# Poissons Ratio (z) = 0.23358 0.22746
#
# Static dielectric constant tensor:
#      x y z
#    x 3.534540 0.000000 -0.086790 
#    y 0.000000 3.640540 0.000000 
#    z -0.086790 0.000000 4.209260 
# 
# 
# High freq. dielectric constant tensor:
#      x y z
#    x 1.795730 0.000000 -0.006240 
#    y 0.000000 1.802750 0.000000 
#    z -0.006240 0.000000 1.839270 
# 
# From -- ./inp_files/48916.got.cif
#   From: 2010.03.12/outbox.cif.g09.slc.cpg/sg5_25_cif.got.tgz:48916.got - 2010.03.31 09:47:26.
