data_PCOD8049143
_publ_section_title
;
Structure prediction by ZEFSAII (Michael W. Deem and Ramdas Pophale) SiO2 
 PCOD8049143
Probable space group: C 2
;
_chemical_formula_sum "Si O2"
_cell_formula_units_Z 30
_cell_length_a 9.107580
_cell_length_b 11.961526
_cell_length_c 13.970585
_cell_angle_alpha 90.000000
_cell_angle_beta 117.429614
_cell_angle_gamma 90.000000
_cell_volume 1350.860224
_symmetry_space_group_name_H-M "C 2"
_symmetry_group_IT_number 5
_symmetry_cell_setting 'monoclinic'
loop_
_space_group_symop_operation_xyz
x,y,z
-x,y,-z
1/2+x,1/2+y,z
1/2-x,1/2+y,-z
loop_
_atom_site_type_symbol
_atom_site_label
_atom_site_fract_x
_atom_site_fract_y
_atom_site_fract_z
Si Si1 0.113714 0.512750 0.788104
Si Si2 0.772808 0.857072 0.552041
Si Si3 0.395457 0.807871 0.675069
Si Si4 0.441909 0.197273 0.380067
Si Si5 0.500000 0.515181 0.500000
Si Si6 0.397105 0.595529 0.268136
Si Si7 0.395937 0.411700 0.775960
Si Si8 0.464354 0.175623 0.879378
O O1 0.099797 0.588431 0.690725
O O2 0.298788 0.459521 0.839708
O O3 0.970214 0.418724 0.745661
O O4 0.101849 0.590654 0.878328
O O5 0.612424 0.814508 0.445161
O O6 0.745025 0.905400 0.650433
O O7 0.903941 0.760938 0.619655
O O8 0.853083 0.943452 0.501156
O O9 0.210721 0.784701 0.659047
O O10 0.508375 0.704899 0.739854
O O11 0.500000 0.152101 0.500000
O O12 0.420217 0.586607 0.389810
O O13 0.461551 0.489496 0.226284
O O14 0.207104 0.612516 0.187656
O O15 0.476424 0.293621 0.828124
O O16 0.500000 0.197449 0.000000
#
# Coordination Sequence:
#
# PCOD8049143 Si02
#       8
#     4   4   4   4   2   4   4   4
#     4  12  25  42  72  98 137 180 227 289 345 405
#     4  10  20  37  62 101 144 190 219 268 339 410
#     4  11  22  37  66 104 148 176 234 263 340 429
#     4  10  21  38  59 102 147 187 217 272 342 413
#     4  10  20  36  64 100 144 184 214 270 346 408
#     4  11  25  43  71 105 143 183 227 284 344 414
#     4  11  25  45  70 102 138 176 231 283 346 403
#     4  12  29  51  72  98 133 183 241 293 345 402
#
# _framework density 22.208071
#
# number of rings (size 3 to 8) (size 9 to 14) (size 15 to 20)
#    0.000    1.067    6.000    0.800    5.600    2.133 
#    0.000    0.000    0.000    0.000    0.000    0.000 
#    0.000    0.000    0.000    0.000    0.000    0.000 
#
# Total GULP energy -185926.350279 kJ/mol
# GULP energy per Si atom -12395.090019 kJ/mol
# Density = 2.215752 g / cm^3
# Si number density = 22.208071 Si / 1000 Ang^3
#
#
#
# Elastic Constant Matrix: (Units=GPa)
#
#
# Indices 1 2 3 4 5 6 
#
# 1 51.3278 22.7068 24.7713 0.0000 -7.6610 0.0000
# 2 22.7068 126.9004 42.3268 0.0000 -10.8205 0.0000
# 3 24.7713 42.3268 89.0411 0.0000 -17.5831 0.0000
# 4 0.0000 0.0000 0.0000 20.2395 0.0000 -14.6768
# 5 -7.6610 -10.8205 -17.5831 0.0000 24.8732 0.0000
# 6 0.0000 0.0000 0.0000 -14.6768 0.0000 30.1829
#
#
#
# Elastic Compliance Matrix: (Units=1/GPa)
#
#
# Indices 1 2 3 4 5 6 
#
# 1 0.023245 -0.002316 -0.004824 0.000000 0.002741 0.000000
# 2 -0.002316 0.009621 -0.003770 0.000000 0.000807 0.000000
# 3 -0.004824 -0.003770 0.015978 0.000000 0.008169 0.000000
# 4 0.000000 0.000000 0.000000 0.076320 0.000000 0.037111
# 5 0.002741 0.000807 0.008169 0.000000 0.047174 0.000000
# 6 0.000000 0.000000 0.000000 0.037111 0.000000 0.051177
#
#
# Mechanical properties :
#
#
# Convention : Reuss Voigt Hill
#
# Bulk Modulus (GPa) = 37.00532 49.65322 43.32927
# Shear Modulus (GPa) = 19.65847 26.89007 23.27427
#
# Velocity S-wave (km/s) = 2.97845 3.48347 3.24081
# Velocity P-wave (km/s) = 5.34110 6.21177 5.79282
#
# Compressibility (1/GPa) = 0.02702314
#
# Stress axis : x y z
#
# Youngs Moduli (GPa) = 43.02043 103.94127 62.58612
#
# Poissons Ratio (x) = 0.24077 0.30193
# Poissons Ratio (y) = 0.09965 0.23592
# Poissons Ratio (z) = 0.20754 0.39181
#
# Static dielectric constant tensor:
#      x y z
#    x 2.994800 0.000000 0.330540 
#    y 0.000000 4.185920 0.000000 
#    z 0.330540 0.000000 3.599370 
# 
# 
# High freq. dielectric constant tensor:
#      x y z
#    x 1.872710 0.000000 -0.010610 
#    y 0.000000 1.893310 0.000000 
#    z -0.010610 0.000000 1.836160 
# 
# From -- ./inp_files/50536.got.cif
#   From: 2010.03.12/outbox.cif.g09.slc.cpg/sg5_26_cif.got.tgz:50536.got - 2010.03.31 09:47:26.
