data_PCOD8049597
_publ_section_title
;
Structure prediction by ZEFSAII (Michael W. Deem and Ramdas Pophale) SiO2 
 PCOD8049597
Probable space group: C 2
;
_chemical_formula_sum "Si O2"
_cell_formula_units_Z 30
_cell_length_a 19.286733
_cell_length_b 14.254216
_cell_length_c 13.881420
_cell_angle_alpha 90.000000
_cell_angle_beta 158.499723
_cell_angle_gamma 90.000000
_cell_volume 1398.674513
_symmetry_space_group_name_H-M "C 2"
_symmetry_group_IT_number 5
_symmetry_cell_setting 'monoclinic'
loop_
_space_group_symop_operation_xyz
x,y,z
-x,y,-z
1/2+x,1/2+y,z
1/2-x,1/2+y,-z
loop_
_atom_site_type_symbol
_atom_site_label
_atom_site_fract_x
_atom_site_fract_y
_atom_site_fract_z
Si Si1 0.613908 0.327320 0.444052
Si Si2 0.128275 0.201572 0.532331
Si Si3 0.835715 0.195022 0.856728
Si Si4 0.000000 0.577537 0.500000
Si Si5 0.890912 0.516483 0.156562
Si Si6 0.200419 0.711371 0.048416
Si Si7 0.929743 0.335953 0.710280
Si Si8 0.975380 0.007807 0.579710
O O1 0.689628 0.233897 0.590318
O O2 0.752517 0.369142 0.543275
O O3 0.616690 0.406334 0.530493
O O4 0.410778 0.301368 0.136587
O O5 0.281231 0.223776 0.812872
O O6 0.168142 0.269236 0.495357
O O7 0.909442 0.215726 0.276449
O O8 0.149110 0.090705 0.532411
O O9 0.702607 0.132209 0.754308
O O10 0.000000 0.146799 0.000000
O O11 0.921965 0.276681 0.034655
O O12 0.989616 0.517083 0.388965
O O13 0.976489 0.430155 0.207922
O O14 0.909809 0.614875 0.122347
O O15 0.671129 0.498089 0.889338
O O16 0.000000 0.037078 0.500000
#
# Coordination Sequence:
#
# PCOD8049597 Si02
#       8
#     4   4   4   2   4   4   4   4
#     4  11  24  39  65  95 129 167 210 266 338 373
#     4  10  21  41  67  89 127 159 215 264 311 382
#     4  10  23  42  67  96 130 169 224 268 324 385
#     4  12  24  44  70  94 126 184 210 274 334 380
#     4  11  23  40  64  97 126 163 224 256 324 393
#     4  10  20  41  65  94 120 165 213 263 314 385
#     4  11  25  42  59  96 135 168 206 269 318 396
#     4  11  21  39  67  97 118 162 219 268 310 384
#
# _framework density 21.448879000000002
#
# number of rings (size 3 to 8) (size 9 to 14) (size 15 to 20)
#    0.000    1.333    4.000    3.200    2.800    3.733 
#    2.400    0.000    0.000    0.000    0.000    0.000 
#    0.000    0.000    0.000    0.000    0.000    0.000 
#
# Total GULP energy -185875.206262 kJ/mol
# GULP energy per Si atom -12391.680417 kJ/mol
# Density = 2.140006 g / cm^3
# Si number density = 21.448879 Si / 1000 Ang^3
#
#
#
# Elastic Constant Matrix: (Units=GPa)
#
#
# Indices 1 2 3 4 5 6 
#
# 1 81.5132 28.4310 23.8500 0.0000 -12.9133 0.0000
# 2 28.4310 68.9694 10.3930 0.0000 -2.2791 0.0000
# 3 23.8500 10.3930 79.7335 0.0000 -24.0727 0.0000
# 4 0.0000 0.0000 0.0000 16.7414 0.0000 -12.9526
# 5 -12.9133 -2.2791 -24.0727 0.0000 35.4291 0.0000
# 6 0.0000 0.0000 0.0000 -12.9526 0.0000 31.5861
#
#
#
# Elastic Compliance Matrix: (Units=1/GPa)
#
#
# Indices 1 2 3 4 5 6 
#
# 1 0.015723 -0.005931 -0.002912 0.000000 0.003370 0.000000
# 2 -0.005931 0.017033 -0.000966 0.000000 -0.001723 0.000000
# 3 -0.002912 -0.000966 0.016606 0.000000 0.010160 0.000000
# 4 0.000000 0.000000 0.000000 0.087490 0.000000 0.035877
# 5 0.003370 -0.001723 0.010160 0.000000 0.036246 0.000000
# 6 0.000000 0.000000 0.000000 0.035877 0.000000 0.046372
#
#
# Mechanical properties :
#
#
# Convention : Reuss Voigt Hill
#
# Bulk Modulus (GPa) = 33.62182 39.50712 36.56447
# Shear Modulus (GPa) = 20.08010 27.92079 24.00045
#
# Velocity S-wave (km/s) = 3.06303 3.61187 3.34872
# Velocity P-wave (km/s) = 5.31215 5.98777 5.66005
#
# Compressibility (1/GPa) = 0.02974259
#
# Stress axis : x y z
#
# Youngs Moduli (GPa) = 63.60224 58.71030 60.21851
#
# Poissons Ratio (x) = 0.34822 0.17538
# Poissons Ratio (y) = 0.37723 0.05818
# Poissons Ratio (z) = 0.18523 0.05672
#
# Static dielectric constant tensor:
#      x y z
#    x 3.899470 0.000000 -0.101460 
#    y 0.000000 3.818280 0.000000 
#    z -0.101460 0.000000 3.973620 
# 
# 
# High freq. dielectric constant tensor:
#      x y z
#    x 1.833220 0.000000 -0.015330 
#    y 0.000000 1.832370 0.000000 
#    z -0.015330 0.000000 1.849560 
# 
# From -- ./inp_files/57161.got.cif
#   From: 2010.03.12/outbox.cif.g09.slc.cpg/sg5_29_cif.got.tgz:57161.got - 2010.03.31 09:47:26.
