data_PCOD8049993
_publ_section_title
;
Structure prediction by ZEFSAII (Michael W. Deem and Ramdas Pophale) SiO2 
 PCOD8049993
Probable space group: C 2
;
_chemical_formula_sum "Si O2"
_cell_formula_units_Z 26
_cell_length_a 8.681470
_cell_length_b 12.056076
_cell_length_c 13.757186
_cell_angle_alpha 90.000000
_cell_angle_beta 68.029193
_cell_angle_gamma 90.000000
_cell_volume 1335.315999
_symmetry_space_group_name_H-M "C 2"
_symmetry_group_IT_number 5
_symmetry_cell_setting 'monoclinic'
loop_
_space_group_symop_operation_xyz
x,y,z
-x,y,-z
1/2+x,1/2+y,z
1/2-x,1/2+y,-z
loop_
_atom_site_type_symbol
_atom_site_label
_atom_site_fract_x
_atom_site_fract_y
_atom_site_fract_z
Si Si1 0.287432 0.298200 0.377962
Si Si2 0.144065 0.854352 0.852920
Si Si3 0.683194 0.255004 0.035272
Si Si4 0.413674 0.022159 0.848515
Si Si5 0.801304 0.548735 0.378555
Si Si6 0.000000 0.363729 0.000000
Si Si7 0.500000 0.399103 0.500000
Si Si8 0.500000 0.949976 0.500000
O O1 0.366867 0.312846 0.254377
O O2 0.230345 0.171901 0.400960
O O3 0.413282 0.326245 0.436468
O O4 0.123790 0.372023 0.411922
O O5 0.946302 0.858479 0.922068
O O6 0.244641 0.971269 0.839557
O O7 0.218918 0.758748 0.909225
O O8 0.618952 0.137781 0.089391
O O9 0.845724 0.283438 0.057748
O O10 0.565266 0.033050 0.738330
O O11 0.475286 0.935801 0.911718
O O12 0.640254 0.469745 0.409782
O O13 0.897376 0.529130 0.455166
#
# Coordination Sequence:
#
# PCOD8049993 Si02
#       8
#     4   4   4   4   4   2   2   2
#     4  11  21  41  63  88 125 159 202 259 298 364
#     4  10  21  39  64  89 121 163 200 248 308 358
#     4  10  22  41  60  89 123 156 202 249 304 361
#     4  11  22  39  64  90 122 163 201 249 307 361
#     4  11  22  39  64  89 120 165 204 248 314 355
#     4  10  24  38  60  90 122 156 204 248 296 372
#     4  10  26  40  60  94 126 160 208 256 298 362
#     4  10  22  40  62  86 124 160 206 250 304 368
#
# _framework density 19.471048
#
# number of rings (size 3 to 8) (size 9 to 14) (size 15 to 20)
#    0.000    1.538    3.077    1.846    2.154    2.462 
#    0.000    3.077    0.000    0.000    0.000    0.000 
#    0.000    0.000    0.000    0.000    0.000    0.000 
#
# Total GULP energy -161056.380391 kJ/mol
# GULP energy per Si atom -12388.952338 kJ/mol
# Density = 1.942673 g / cm^3
# Si number density = 19.471048 Si / 1000 Ang^3
#
#
#
# Elastic Constant Matrix: (Units=GPa)
#
#
# Indices 1 2 3 4 5 6 
#
# 1 95.7294 22.8055 22.5660 0.0000 -10.9586 0.0000
# 2 22.8055 73.6967 37.3112 0.0000 -3.6951 0.0000
# 3 22.5660 37.3112 95.1640 0.0000 0.5733 0.0000
# 4 0.0000 0.0000 0.0000 30.8330 0.0000 -2.0897
# 5 -10.9586 -3.6951 0.5733 0.0000 27.9019 0.0000
# 6 0.0000 0.0000 0.0000 -2.0897 0.0000 15.9392
#
#
#
# Elastic Compliance Matrix: (Units=1/GPa)
#
#
# Indices 1 2 3 4 5 6 
#
# 1 0.011999 -0.002542 -0.001875 0.000000 0.004415 0.000000
# 2 -0.002542 0.017628 -0.006317 0.000000 0.001466 0.000000
# 3 -0.001875 -0.006317 0.013441 0.000000 -0.001849 0.000000
# 4 0.000000 0.000000 0.000000 0.032724 0.000000 0.004290
# 5 0.004415 0.001466 -0.001849 0.000000 0.037806 0.000000
# 6 0.000000 0.000000 0.000000 0.004290 0.000000 0.063301
#
#
# Mechanical properties :
#
#
# Convention : Reuss Voigt Hill
#
# Bulk Modulus (GPa) = 46.30069 47.77283 47.03676
# Shear Modulus (GPa) = 24.32301 27.06200 25.69250
#
# Velocity S-wave (km/s) = 3.53822 3.73212 3.63647
# Velocity P-wave (km/s) = 6.36576 6.56965 6.46851
#
# Compressibility (1/GPa) = 0.02159795
#
# Stress axis : x y z
#
# Youngs Moduli (GPa) = 83.33911 56.72889 74.40040
#
# Poissons Ratio (x) = 0.14423 0.13951
# Poissons Ratio (y) = 0.21189 0.47001
# Poissons Ratio (z) = 0.15627 0.35837
#
# Static dielectric constant tensor:
#      x y z
#    x 3.837820 0.000000 -0.053550 
#    y 0.000000 3.520400 0.000000 
#    z -0.053550 0.000000 3.765210 
# 
# 
# High freq. dielectric constant tensor:
#      x y z
#    x 1.768770 0.000000 0.002220 
#    y 0.000000 1.749420 0.000000 
#    z 0.002220 0.000000 1.769050 
# 
# From -- ./inp_files/35470.got.cif
#   From: 2010.03.12/outbox.cif.g09.slc.cpg/sg5_18_cif.got.tgz:35470.got - 2010.03.31 09:47:26.
