data_PCOD8049081
_publ_section_title
;
Structure prediction by ZEFSAII (Michael W. Deem and Ramdas Pophale) SiO2 
 PCOD8049081
Probable space group: C 2
;
_chemical_formula_sum "Si O2"
_cell_formula_units_Z 24
_cell_length_a 19.826022
_cell_length_b 12.481543
_cell_length_c 5.011454
_cell_angle_alpha 90.000000
_cell_angle_beta 96.720417
_cell_angle_gamma 90.000000
_cell_volume 1231.610203
_symmetry_space_group_name_H-M "C 2"
_symmetry_group_IT_number 5
_symmetry_cell_setting 'monoclinic'
loop_
_space_group_symop_operation_xyz
x,y,z
-x,y,-z
1/2+x,1/2+y,z
1/2-x,1/2+y,-z
loop_
_atom_site_type_symbol
_atom_site_label
_atom_site_fract_x
_atom_site_fract_y
_atom_site_fract_z
Si Si1 0.142565 0.055420 0.642078
Si Si2 0.457879 0.995679 0.215806
Si Si3 0.500000 0.795117 0.000000
Si Si4 0.701376 0.446622 0.186007
Si Si5 0.500000 0.656171 0.500000
Si Si6 0.681177 0.102828 0.789678
Si Si7 0.233532 0.706164 0.320258
O O1 0.063591 0.086828 0.635080
O O2 0.188143 0.164404 0.639600
O O3 0.148093 0.978958 0.388855
O O4 0.166260 0.981209 0.896103
O O5 0.500000 0.975673 0.500000
O O6 0.395370 0.066296 0.277445
O O7 0.440490 0.876199 0.084377
O O8 0.500000 0.057549 0.000000
O O9 0.527056 0.724507 0.259276
O O10 0.771215 0.506417 0.279671
O O11 0.724206 0.323965 0.199600
O O12 0.698908 0.200533 0.596886
O O13 0.692357 0.129622 0.102606
#
# Coordination Sequence:
#
# PCOD8049081 Si02
#       7
#     4   4   2   4   2   4   4
#     4  10  23  39  60  92 118 160 195 248 300 343
#     4  10  20  36  55  84 123 146 192 234 308 357
#     4  10  22  34  56  92 108 164 182 240 310 360
#     4  10  21  40  61  85 120 154 199 243 290 358
#     4  12  22  40  60  86 132 146 204 246 292 376
#     4  10  21  37  58  89 116 152 194 252 292 344
#     4  10  21  37  62  86 115 156 205 242 296 351
#
# _framework density 19.486685000000001
#
# number of rings (size 3 to 8) (size 9 to 14) (size 15 to 20)
#    0.500    1.333    0.833    3.000    2.333    0.000 
#    6.000    0.000   18.333    0.000    0.000    0.000 
#    0.000    0.000    0.000    0.000    0.000    0.000 
#
# Total GULP energy -148700.806493 kJ/mol
# GULP energy per Si atom -12391.733874 kJ/mol
# Density = 1.944233 g / cm^3
# Si number density = 19.486685 Si / 1000 Ang^3
#
#
#
# Elastic Constant Matrix: (Units=GPa)
#
#
# Indices 1 2 3 4 5 6 
#
# 1 104.2843 40.1239 30.0762 0.0000 0.2583 0.0000
# 2 40.1239 83.9920 16.9692 0.0000 1.3879 0.0000
# 3 30.0762 16.9692 112.1001 0.0000 -8.3223 0.0000
# 4 0.0000 0.0000 0.0000 14.5170 0.0000 0.1582
# 5 0.2583 1.3879 -8.3223 0.0000 23.4470 0.0000
# 6 0.0000 0.0000 0.0000 0.1582 0.0000 13.1274
#
#
#
# Elastic Compliance Matrix: (Units=1/GPa)
#
#
# Indices 1 2 3 4 5 6 
#
# 1 0.012407 -0.005397 -0.002566 0.000000 -0.000728 0.000000
# 2 -0.005397 0.014675 -0.000856 0.000000 -0.001113 0.000000
# 3 -0.002566 -0.000856 0.010008 0.000000 0.003631 0.000000
# 4 0.000000 0.000000 0.000000 0.068894 0.000000 -0.000830
# 5 -0.000728 -0.001113 0.003631 0.000000 0.044012 0.000000
# 6 0.000000 0.000000 0.000000 -0.000830 0.000000 0.076186
#
#
# Mechanical properties :
#
#
# Convention : Reuss Voigt Hill
#
# Bulk Modulus (GPa) = 51.40547 52.74611 52.07579
# Shear Modulus (GPa) = 19.97557 24.43208 22.20382
#
# Velocity S-wave (km/s) = 3.20517 3.54472 3.37921
# Velocity P-wave (km/s) = 6.33519 6.62419 6.48130
#
# Compressibility (1/GPa) = 0.01945318
#
# Stress axis : x y z
#
# Youngs Moduli (GPa) = 80.59673 68.14144 99.91757
#
# Poissons Ratio (x) = 0.36774 0.25639
# Poissons Ratio (y) = 0.43496 0.08555
# Poissons Ratio (z) = 0.20681 0.05834
#
# Static dielectric constant tensor:
#      x y z
#    x 3.303950 0.000000 -0.121580 
#    y 0.000000 3.361620 0.000000 
#    z -0.121580 0.000000 3.898900 
# 
# 
# High freq. dielectric constant tensor:
#      x y z
#    x 1.733650 0.000000 -0.004670 
#    y 0.000000 1.741970 0.000000 
#    z -0.004670 0.000000 1.787050 
# 
# From -- ./inp_files/8305.got.cif
#   From: 2010.03.12/outbox.cif.g09.slc.cpg/sg5_5_cif.got.tgz:8305.got - 2010.03.31 09:47:26.
