data_PCOD8049986
_publ_section_title
;
Structure prediction by ZEFSAII (Michael W. Deem and Ramdas Pophale) SiO2 
 PCOD8049986
Probable space group: C 2
;
_chemical_formula_sum "Si O2"
_cell_formula_units_Z 32
_cell_length_a 17.933265
_cell_length_b 14.861724
_cell_length_c 12.639817
_cell_angle_alpha 90.000000
_cell_angle_beta 26.382295
_cell_angle_gamma 90.000000
_cell_volume 1496.934206
_symmetry_space_group_name_H-M "C 2"
_symmetry_group_IT_number 5
_symmetry_cell_setting 'monoclinic'
loop_
_space_group_symop_operation_xyz
x,y,z
-x,y,-z
1/2+x,1/2+y,z
1/2-x,1/2+y,-z
loop_
_atom_site_type_symbol
_atom_site_label
_atom_site_fract_x
_atom_site_fract_y
_atom_site_fract_z
Si Si1 0.734759 0.752690 0.536212
Si Si2 0.356573 0.847082 0.769204
Si Si3 0.293846 0.160693 0.974750
Si Si4 0.522803 0.096010 0.847923
Si Si5 0.091345 0.133588 0.042559
Si Si6 0.103000 0.725568 0.462570
Si Si7 0.362817 0.451234 0.104361
Si Si8 0.606797 0.932665 0.598311
O O1 0.856160 0.682106 0.322420
O O2 0.814079 0.784327 0.548542
O O3 0.707457 0.842792 0.504195
O O4 0.556689 0.704879 0.779870
O O5 0.500000 0.825126 0.500000
O O6 0.198033 0.895739 0.918648
O O7 0.425901 0.905433 0.779723
O O8 0.278175 0.759089 0.917590
O O9 0.338552 0.113466 0.029601
O O10 0.148947 0.112162 0.090441
O O11 0.469783 0.158284 0.686909
O O12 0.595425 0.003161 0.708101
O O13 0.500000 0.079218 0.000000
O O14 0.251491 0.168961 0.776111
O O15 0.035642 0.039180 0.063889
O O16 0.000000 0.779787 0.500000
O O17 0.205085 0.478830 0.376848
O O18 0.500000 0.395994 0.000000
#
# Coordination Sequence:
#
# PCOD8049986 Si02
#       8
#     4   4   4   4   4   4   4   4
#     4  11  23  41  69  94 132 173 220 271 323 392
#     4  10  23  40  65  96 128 175 218 271 326 390
#     4  10  21  39  63  92 131 167 222 260 330 386
#     4  11  26  42  65  97 137 178 214 269 336 398
#     4  11  20  40  66  97 125 165 219 273 326 377
#     4   9  20  35  60  93 121 164 208 267 319 382
#     4  11  23  36  67  96 128 161 222 275 320 378
#     4  11  24  45  63  98 133 172 222 269 328 394
#
# _framework density 21.377025
#
# number of rings (size 3 to 8) (size 9 to 14) (size 15 to 20)
#    0.000    1.500    1.250    4.125    7.000    4.500 
#    0.000    0.000    0.000    0.000    0.000    0.000 
#    0.000    0.000    0.000    0.000    0.000    0.000 
#
# Total GULP energy -198268.121608 kJ/mol
# GULP energy per Si atom -12391.757600 kJ/mol
# Density = 2.132837 g / cm^3
# Si number density = 21.377025 Si / 1000 Ang^3
#
#
#
# Elastic Constant Matrix: (Units=GPa)
#
#
# Indices 1 2 3 4 5 6 
#
# 1 187.3675 37.3814 22.2841 -0.0014 -3.5867 0.0008
# 2 37.3814 88.8269 17.6579 -0.0017 1.6488 0.0009
# 3 22.2841 17.6579 51.3304 -0.0028 2.3918 0.0017
# 4 -0.0014 -0.0017 -0.0028 28.5330 0.0018 -1.5070
# 5 -3.5867 1.6488 2.3918 0.0018 35.3888 -0.0012
# 6 0.0008 0.0009 0.0017 -1.5070 -0.0012 26.7204
#
#
#
# Elastic Compliance Matrix: (Units=1/GPa)
#
#
# Indices 1 2 3 4 5 6 
#
# 1 0.006012 -0.002167 -0.001904 0.000000 0.000839 0.000000
# 2 -0.002167 0.012868 -0.003459 0.000000 -0.000585 0.000000
# 3 -0.001904 -0.003459 0.021567 0.000002 -0.001489 -0.000001
# 4 0.000000 0.000000 0.000002 0.035152 -0.000002 0.001983
# 5 0.000839 -0.000585 -0.001489 -0.000002 0.028471 0.000001
# 6 0.000000 0.000000 -0.000001 0.001983 0.000001 0.037536
#
#
# Mechanical properties :
#
#
# Convention : Reuss Voigt Hill
#
# Bulk Modulus (GPa) = 39.38757 53.57462 46.48109
# Shear Modulus (GPa) = 30.27960 34.80854 32.54407
#
# Velocity S-wave (km/s) = 3.76767 4.03962 3.90601
# Velocity P-wave (km/s) = 6.11492 6.84647 6.49101
#
# Compressibility (1/GPa) = 0.02538872
#
# Stress axis : x y z
#
# Youngs Moduli (GPa) = 166.33595 77.71046 46.36672
#
# Poissons Ratio (x) = 0.16841 0.08826
# Poissons Ratio (y) = 0.36048 0.16036
# Poissons Ratio (z) = 0.31663 0.26877
#
# Static dielectric constant tensor:
#      x y z
#    x 4.612320 0.000000 -0.128710 
#    y 0.000000 3.541040 0.000000 
#    z -0.128710 0.000000 3.738370 
# 
# 
# High freq. dielectric constant tensor:
#      x y z
#    x 1.875530 0.000000 -0.009970 
#    y 0.000000 1.806610 0.000000 
#    z -0.009970 0.000000 1.826340 
# 
# From -- ./inp_files/44961.got.cif
#   From: 2010.03.12/outbox.cif.g09.slc.cpg/sg5_23_cif.got.tgz:44961.got - 2010.03.31 09:47:26.
