data_PCOD8049530
_publ_section_title
;
Structure prediction by ZEFSAII (Michael W. Deem and Ramdas Pophale) SiO2 
 PCOD8049530
Probable space group: C 2
;
_chemical_formula_sum "Si O2"
_cell_formula_units_Z 32
_cell_length_a 12.835557
_cell_length_b 14.600688
_cell_length_c 17.551736
_cell_angle_alpha 90.000000
_cell_angle_beta 151.752516
_cell_angle_gamma 90.000000
_cell_volume 1556.779751
_symmetry_space_group_name_H-M "C 2"
_symmetry_group_IT_number 5
_symmetry_cell_setting 'monoclinic'
loop_
_space_group_symop_operation_xyz
x,y,z
-x,y,-z
1/2+x,1/2+y,z
1/2-x,1/2+y,-z
loop_
_atom_site_type_symbol
_atom_site_label
_atom_site_fract_x
_atom_site_fract_y
_atom_site_fract_z
Si Si1 0.952783 0.054760 0.552722
Si Si2 0.146359 0.956907 0.965266
Si Si3 0.460244 0.062411 0.278076
Si Si4 0.696027 0.730548 0.750102
Si Si5 0.749614 0.947363 0.136409
Si Si6 0.825313 0.747434 0.997942
Si Si7 0.359349 0.928363 0.336324
Si Si8 0.728573 0.735834 0.105660
O O1 0.019409 0.161582 0.600971
O O2 0.000000 0.014347 0.500000
O O3 0.692792 0.046702 0.389634
O O4 0.081270 0.994358 0.697202
O O5 0.222057 0.855322 0.035516
O O6 0.258992 0.024320 0.097777
O O7 0.220277 0.987878 0.928587
O O8 0.884617 0.961705 0.801523
O O9 0.412531 0.169954 0.261153
O O10 0.473672 0.011762 0.366937
O O11 0.720463 0.701921 0.854867
O O12 0.624353 0.836241 0.703113
O O13 0.916034 0.722962 0.840251
O O14 0.804559 0.839406 0.169717
O O15 0.500000 0.967433 0.000000
O O16 0.718952 0.711720 0.008494
O O17 0.500000 0.905945 0.500000
O O18 0.500000 0.715211 0.000000
#
# Coordination Sequence:
#
# PCOD8049530 Si02
#       8
#     4   4   4   4   4   4   4   4
#     4  12  26  40  60  94 129 165 206 256 314 372
#     4  10  20  40  66  92 121 160 209 259 310 368
#     4  12  24  40  62  93 127 165 208 253 310 373
#     4  10  21  38  64  97 125 157 203 266 326 368
#     4  10  23  42  64  88 123 168 212 250 305 368
#     4   9  19  38  66  95 119 156 212 261 316 366
#     4  11  22  40  65  96 128 157 202 266 321 368
#     4  10  22  41  64  89 123 168 212 252 301 375
#
# _framework density 20.555251999999999
#
# number of rings (size 3 to 8) (size 9 to 14) (size 15 to 20)
#    0.000    1.500    1.250    3.750    3.500    3.000 
#    2.250    0.625    0.000    0.000    0.000    0.000 
#    0.000    0.000    0.000    0.000    0.000    0.000 
#
# Total GULP energy -198399.106739 kJ/mol
# GULP energy per Si atom -12399.944171 kJ/mol
# Density = 2.050847 g / cm^3
# Si number density = 20.555252 Si / 1000 Ang^3
#
#
#
# Elastic Constant Matrix: (Units=GPa)
#
#
# Indices 1 2 3 4 5 6 
#
# 1 133.1821 23.3333 25.3554 0.0136 5.0618 -0.0044
# 2 23.3333 59.3888 22.8400 0.0125 4.1120 -0.0244
# 3 25.3554 22.8400 94.4220 0.0516 6.5085 -0.0711
# 4 0.0136 0.0125 0.0516 18.8213 0.0200 20.7273
# 5 5.0618 4.1120 6.5085 0.0200 32.9476 -0.0287
# 6 -0.0044 -0.0244 -0.0711 20.7273 -0.0287 -4.5707
#
#
#
# Elastic Compliance Matrix: (Units=1/GPa)
#
#
# Indices 1 2 3 4 5 6 
#
# 1 0.008286 -0.002616 -0.001548 -0.000006 -0.000641 0.000006
# 2 -0.002616 0.019460 -0.003918 0.000006 -0.001253 -0.000005
# 3 -0.001548 -0.003918 0.012068 0.000024 -0.001657 -0.000047
# 4 -0.000006 0.000006 0.000024 0.008864 0.000025 0.040196
# 5 -0.000641 -0.001253 -0.001657 0.000025 0.030933 -0.000047
# 6 0.000006 -0.000005 -0.000047 0.040196 -0.000047 -0.036500
#
#
# Mechanical properties :
#
#
# Convention : Reuss Voigt Hill
#
# Bulk Modulus (GPa) = 42.28421 47.78337 45.03379
# Shear Modulus (GPa) = 74.45026 23.80392 49.12709
#
# Velocity S-wave (km/s) = 6.02480 3.40670 4.89407
# Velocity P-wave (km/s) = 8.30742 6.22663 7.34112
#
# Compressibility (1/GPa) = 0.02364949
#
# Stress axis : x y z
#
# Youngs Moduli (GPa) = 120.68748 51.38866 82.86040
#
# Poissons Ratio (x) = 0.13442 0.12828
# Poissons Ratio (y) = 0.31568 0.32468
# Poissons Ratio (z) = 0.18684 0.20136
#
# Static dielectric constant tensor:
#      x y z
#    x 4.021220 -0.000030 -0.053280 
#    y -0.000030 3.818590 -0.000010 
#    z -0.053280 -0.000010 3.556490 
# 
# 
# High freq. dielectric constant tensor:
#      x y z
#    x 1.818500 0.000000 -0.000760 
#    y 0.000000 1.809570 0.000000 
#    z -0.000760 0.000000 1.789880 
# 
# From -- ./inp_files/60717.got.cif
#   From: 2010.03.12/outbox.cif.g09.slc.cpg/sg5_31_cif.got.tgz:60717.got - 2010.03.31 09:47:26.
