data_PCOD8049321
_publ_section_title
;
Structure prediction by ZEFSAII (Michael W. Deem and Ramdas Pophale) SiO2 
 PCOD8049321
Probable space group: C 2
;
_chemical_formula_sum "Si O2"
_cell_formula_units_Z 10
_cell_length_a 7.501596
_cell_length_b 11.889372
_cell_length_c 5.494411
_cell_angle_alpha 90.000000
_cell_angle_beta 53.336797
_cell_angle_gamma 90.000000
_cell_volume 393.092129
_symmetry_space_group_name_H-M "C 2"
_symmetry_group_IT_number 5
_symmetry_cell_setting 'monoclinic'
loop_
_space_group_symop_operation_xyz
x,y,z
-x,y,-z
1/2+x,1/2+y,z
1/2-x,1/2+y,-z
loop_
_atom_site_type_symbol
_atom_site_label
_atom_site_fract_x
_atom_site_fract_y
_atom_site_fract_z
Si Si1 0.500000 0.948180 0.000000
Si Si2 0.778507 0.245775 0.409937
Si Si3 0.243727 0.657483 0.942231
O O1 0.372403 0.872971 0.307354
O O2 0.323444 0.026502 0.003562
O O3 0.648298 0.219157 0.769516
O O4 0.991132 0.163281 0.258400
O O5 0.644902 0.217585 0.267766
#
# Coordination Sequence:
#
# PCOD8049321 Si02
#       3
#     2   4   4
#     4  10  20  38  62  78 112 152 174 232 282 304
#     4   9  21  38  52  83 114 138 185 227 264 334
#     4   9  19  36  57  79 110 144 182 223 271 326
#
# _framework density 25.439332
#
# number of rings (size 3 to 8) (size 9 to 14) (size 15 to 20)
#    0.000    3.200    0.000    0.000    0.000   14.400 
#    0.000   32.000    0.000    0.000    0.000    0.000 
#    0.000    0.000    0.000    0.000    0.000    0.000 
#
# Total GULP energy -61951.057423 kJ/mol
# GULP energy per Si atom -12390.211485 kJ/mol
# Density = 2.538143 g / cm^3
# Si number density = 25.439332 Si / 1000 Ang^3
#
#
#
# Elastic Constant Matrix: (Units=GPa)
#
#
# Indices 1 2 3 4 5 6 
#
# 1 123.4668 43.5302 60.8587 0.0000 52.9863 0.0000
# 2 43.5302 210.9757 82.6140 0.0000 9.5343 0.0000
# 3 60.8587 82.6140 244.5281 0.0000 31.4127 0.0000
# 4 0.0000 0.0000 0.0000 6.6075 0.0000 19.2921
# 5 52.9863 9.5343 31.4127 0.0000 53.0534 0.0000
# 6 0.0000 0.0000 0.0000 19.2921 0.0000 47.3394
#
#
#
# Elastic Compliance Matrix: (Units=1/GPa)
#
#
# Indices 1 2 3 4 5 6 
#
# 1 0.015733 -0.002060 -0.001352 0.000000 -0.014542 0.000000
# 2 -0.002060 0.005733 -0.001684 0.000000 0.002024 0.000000
# 3 -0.001352 -0.001684 0.005176 0.000000 -0.001412 0.000000
# 4 0.000000 0.000000 0.000000 -0.797076 0.000000 0.324830
# 5 -0.014542 0.002024 -0.001412 0.000000 0.033845 0.000000
# 6 0.000000 0.000000 0.000000 0.324830 0.000000 -0.111253
#
#
# Mechanical properties :
#
#
# Convention : Reuss Voigt Hill
#
# Bulk Modulus (GPa) = 60.78697 105.88628 83.33663
# Shear Modulus (GPa) = -6.00841 47.53123 20.76141
#
# Velocity S-wave (km/s) = -1.53850 4.32721 2.85987
# Velocity P-wave (km/s) = 4.55969 8.16576 6.61326
#
# Compressibility (1/GPa) = 0.01645089
#
# Stress axis : x y z
#
# Youngs Moduli (GPa) = 63.56227 174.43170 193.18603
#
# Poissons Ratio (x) = 0.35927 0.26111
# Poissons Ratio (y) = 0.13092 0.32538
# Poissons Ratio (z) = 0.08591 0.29379
#
# Static dielectric constant tensor:
#      x y z
#    x 5.752590 0.000000 1.014330 
#    y 0.000000 4.090420 0.000000 
#    z 1.014330 0.000000 6.083000 
# 
# 
# High freq. dielectric constant tensor:
#      x y z
#    x 2.062420 0.000000 -0.005670 
#    y 0.000000 1.970180 0.000000 
#    z -0.005670 0.000000 2.055000 
# 
# From -- ./inp_files/1336.got.cif
#   From: 2010.03.12/outbox.cif.g09.slc.cpg/sg5_1_cif.got.tgz:1336.got - 2010.03.31 09:47:26.
