data_PCOD8049626
_publ_section_title
;
Structure prediction by ZEFSAII (Michael W. Deem and Ramdas Pophale) SiO2 
 PCOD8049626
Probable space group: C 2
;
_chemical_formula_sum "Si O2"
_cell_formula_units_Z 24
_cell_length_a 10.725887
_cell_length_b 14.027094
_cell_length_c 13.275129
_cell_angle_alpha 90.000000
_cell_angle_beta 36.094084
_cell_angle_gamma 90.000000
_cell_volume 1176.625420
_symmetry_space_group_name_H-M "C 2"
_symmetry_group_IT_number 5
_symmetry_cell_setting 'monoclinic'
loop_
_space_group_symop_operation_xyz
x,y,z
-x,y,-z
1/2+x,1/2+y,z
1/2-x,1/2+y,-z
loop_
_atom_site_type_symbol
_atom_site_label
_atom_site_fract_x
_atom_site_fract_y
_atom_site_fract_z
Si Si1 0.500000 0.965130 0.500000
Si Si2 0.426903 0.636461 0.323132
Si Si3 0.039300 0.711182 0.710663
Si Si4 0.187108 0.609525 0.809104
Si Si5 0.860604 0.914114 0.389402
Si Si6 0.194560 0.109551 0.809131
Si Si7 0.000000 0.965080 0.500000
O O1 0.623535 0.900597 0.500437
O O2 0.341745 0.026864 0.670511
O O3 0.235344 0.676086 0.514619
O O4 0.648204 0.670509 0.228514
O O5 0.439811 0.520086 0.310242
O O6 0.395042 0.670497 0.228375
O O7 0.073531 0.675278 0.801205
O O8 0.010156 0.825337 0.739867
O O9 0.823947 0.675352 0.801177
O O10 0.317144 0.526820 0.670509
O O11 0.000000 0.565865 0.000000
O O12 0.875653 0.900540 0.500382
O O13 0.000000 0.065854 0.000000
#
# Coordination Sequence:
#
# PCOD8049626 Si02
#       7
#     2   4   4   4   4   4   2
#     4  10  20  42  60  92 118 166 204 260 312 374
#     4  10  21  42  59  90 120 164 204 252 314 372
#     4  12  21  39  63  93 125 166 206 262 312 381
#     4  11  21  39  68  88 122 167 210 255 314 373
#     4  10  22  35  66  87 125 160 206 250 318 369
#     4  11  21  39  68  88 122 167 210 255 314 373
#     4  10  20  42  60  92 118 166 204 260 312 374
#
# _framework density 20.397314999999999
#
# number of rings (size 3 to 8) (size 9 to 14) (size 15 to 20)
#    0.000    1.333    6.667    1.000    4.667    0.000 
#    0.000    6.667   14.667    0.000    0.000    0.000 
#    0.000    0.000    0.000    0.000    0.000    0.000 
#
# Total GULP energy -148659.493405 kJ/mol
# GULP energy per Si atom -12388.291117 kJ/mol
# Density = 2.035089 g / cm^3
# Si number density = 20.397315 Si / 1000 Ang^3
#
#
#
# Elastic Constant Matrix: (Units=GPa)
#
#
# Indices 1 2 3 4 5 6 
#
# 1 226.9962 28.7891 24.5777 0.0110 -9.6961 -0.0002
# 2 28.7891 78.9124 22.2381 0.0304 -0.3325 -0.0087
# 3 24.5777 22.2381 132.4587 0.0483 4.1792 -0.0165
# 4 0.0110 0.0304 0.0483 -10.4321 -0.0112 -0.5325
# 5 -9.6961 -0.3325 4.1792 -0.0112 21.6592 -0.0004
# 6 -0.0002 -0.0087 -0.0165 -0.5325 -0.0004 -0.1768
#
#
#
# Elastic Compliance Matrix: (Units=1/GPa)
#
#
# Indices 1 2 3 4 5 6 
#
# 1 0.004772 -0.001534 -0.000699 -0.000014 0.002247 0.000173
# 2 -0.001534 0.013804 -0.002030 0.000064 -0.000083 -0.000679
# 3 -0.000699 -0.002030 0.008080 0.000078 -0.001903 -0.000885
# 4 -0.000014 0.000064 0.000078 -0.113274 -0.000073 0.341228
# 5 0.002247 -0.000083 -0.001903 -0.000073 0.047542 0.000304
# 6 0.000173 -0.000679 -0.000885 0.341228 0.000304 -6.685437
#
#
# Mechanical properties :
#
#
# Convention : Reuss Voigt Hill
#
# Bulk Modulus (GPa) = 55.16123 65.50855 60.33489
# Shear Modulus (GPa) = -0.74516 26.39422 12.82453
#
# Velocity S-wave (km/s) = -0.60508 3.60113 2.51018
# Velocity P-wave (km/s) = 5.15887 7.03398 6.16809
#
# Compressibility (1/GPa) = 0.01812867
#
# Stress axis : x y z
#
# Youngs Moduli (GPa) = 209.57306 72.44402 123.76377
#
# Poissons Ratio (x) = 0.11116 0.08647
# Poissons Ratio (y) = 0.32157 0.25127
# Poissons Ratio (z) = 0.14642 0.14708
#
# Static dielectric constant tensor:
#      x y z
#    x 5.074980 0.000000 -0.098250 
#    y 0.000000 3.308240 0.000020 
#    z -0.098250 0.000020 3.464970 
# 
# 
# High freq. dielectric constant tensor:
#      x y z
#    x 1.846700 0.000000 -0.004380 
#    y 0.000000 1.753660 0.000000 
#    z -0.004380 0.000000 1.774840 
# 
# From -- ./inp_files/53024.got.cif
#   From: 2010.03.12/outbox.cif.g09.slc.cpg/sg5_27_cif.got.tgz:53024.got - 2010.03.31 09:47:26.
