data_PCOD8049112
_publ_section_title
;
Structure prediction by ZEFSAII (Michael W. Deem and Ramdas Pophale) SiO2 
 PCOD8049112
Probable space group: C 2
;
_chemical_formula_sum "Si O2"
_cell_formula_units_Z 26
_cell_length_a 9.465100
_cell_length_b 14.252678
_cell_length_c 15.804418
_cell_angle_alpha 90.000000
_cell_angle_beta 143.414396
_cell_angle_gamma 90.000000
_cell_volume 1270.759340
_symmetry_space_group_name_H-M "C 2"
_symmetry_group_IT_number 5
_symmetry_cell_setting 'monoclinic'
loop_
_space_group_symop_operation_xyz
x,y,z
-x,y,-z
1/2+x,1/2+y,z
1/2-x,1/2+y,-z
loop_
_atom_site_type_symbol
_atom_site_label
_atom_site_fract_x
_atom_site_fract_y
_atom_site_fract_z
Si Si1 0.879874 0.875000 0.533133
Si Si2 0.500000 0.222033 0.000000
Si Si3 0.570867 0.568019 0.629989
Si Si4 0.500000 0.609803 0.000000
Si Si5 0.015424 0.254472 0.711311
Si Si6 0.612805 0.058141 0.936387
Si Si7 0.500000 0.909886 0.000000
Si Si8 0.282639 0.759287 0.778822
O O1 0.605385 0.842493 0.395489
O O2 0.000000 0.886233 0.500000
O O3 0.006320 0.788650 0.643196
O O4 0.917293 0.978494 0.591867
O O5 0.377562 0.160137 0.014929
O O6 0.711138 0.284870 0.140396
O O7 0.500000 0.592384 0.500000
O O8 0.506909 0.657766 0.655563
O O9 0.850854 0.542012 0.770731
O O10 0.320408 0.547110 0.967647
O O11 0.322049 0.670898 0.857375
O O12 0.878035 0.236186 0.732108
O O13 0.682553 0.981044 0.041237
O O14 0.404902 0.850110 0.877111
#
# Coordination Sequence:
#
# PCOD8049112 Si02
#       8
#     4   2   4   2   4   4   2   4
#     4   9  19  36  60  88 116 165 224 255 320 390
#     4   9  18  37  59  92 129 164 218 261 328 372
#     4  10  21  38  65  90 127 175 220 266 324 394
#     4  11  22  33  61  93 128 160 226 269 322 378
#     4  10  20  37  64  94 126 170 225 268 311 389
#     4  10  20  37  62  92 124 170 218 265 319 388
#     4  10  20  38  66  85 127 170 214 266 326 390
#     4  10  20  36  59  91 119 169 216 267 324 382
#
# _framework density 20.460207
#
# number of rings (size 3 to 8) (size 9 to 14) (size 15 to 20)
#    0.000    2.154    3.077    0.000    2.154    0.000 
#    0.000    0.769    0.000    4.615    0.000    0.000 
#    0.000    0.000    0.000    0.000    0.000    0.000 
#
# Total GULP energy -161068.512273 kJ/mol
# GULP energy per Si atom -12389.885559 kJ/mol
# Density = 2.041364 g / cm^3
# Si number density = 20.460207 Si / 1000 Ang^3
#
#
#
# Elastic Constant Matrix: (Units=GPa)
#
#
# Indices 1 2 3 4 5 6 
#
# 1 106.5886 47.7051 35.0028 -0.0003 1.7248 -0.0001
# 2 47.7051 96.5134 53.1338 0.0000 12.0937 -0.0001
# 3 35.0028 53.1338 119.9184 -0.0003 13.9755 -0.0006
# 4 -0.0003 0.0000 -0.0003 21.6397 -0.0004 -3.2218
# 5 1.7248 12.0937 13.9755 -0.0004 34.5442 -0.0003
# 6 -0.0001 -0.0001 -0.0006 -3.2218 -0.0003 22.5468
#
#
#
# Elastic Compliance Matrix: (Units=1/GPa)
#
#
# Indices 1 2 3 4 5 6 
#
# 1 0.012284 -0.005572 -0.001336 0.000000 0.001878 0.000000
# 2 -0.005572 0.016433 -0.005265 0.000000 -0.003345 0.000000
# 3 -0.001336 -0.005265 0.011375 0.000000 -0.002692 0.000000
# 4 0.000000 0.000000 0.000000 0.047216 0.000001 0.006747
# 5 0.001878 -0.003345 -0.002692 0.000001 0.031115 0.000000
# 6 0.000000 0.000000 0.000000 0.006747 0.000000 0.045316
#
#
# Mechanical properties :
#
#
# Convention : Reuss Voigt Hill
#
# Bulk Modulus (GPa) = 63.50193 66.07819 64.79006
# Shear Modulus (GPa) = 25.86210 28.22470 27.04340
#
# Velocity S-wave (km/s) = 3.55916 3.71818 3.63954
# Velocity P-wave (km/s) = 6.92780 7.12736 7.02829
#
# Compressibility (1/GPa) = 0.01574755
#
# Stress axis : x y z
#
# Youngs Moduli (GPa) = 81.40833 60.85336 87.90858
#
# Poissons Ratio (x) = 0.33905 0.11741
# Poissons Ratio (y) = 0.45358 0.46284
# Poissons Ratio (z) = 0.10873 0.32040
#
# Static dielectric constant tensor:
#      x y z
#    x 3.419800 0.000000 -0.129530 
#    y 0.000000 3.698100 0.000000 
#    z -0.129530 0.000000 4.228020 
# 
# 
# High freq. dielectric constant tensor:
#      x y z
#    x 1.765710 0.000000 -0.014430 
#    y 0.000000 1.790320 0.000000 
#    z -0.014430 0.000000 1.817200 
# 
# From -- ./inp_files/36275.got.cif
#   From: 2010.03.12/outbox.cif.g09.slc.cpg/sg5_19_cif.got.tgz:36275.got - 2010.03.31 09:47:26.
