data_PCOD8049252
_publ_section_title
;
Structure prediction by ZEFSAII (Michael W. Deem and Ramdas Pophale) SiO2 
 PCOD8049252
Probable space group: C 2
;
_chemical_formula_sum "Si O2"
_cell_formula_units_Z 32
_cell_length_a 25.862231
_cell_length_b 13.651409
_cell_length_c 9.515064
_cell_angle_alpha 90.000000
_cell_angle_beta 28.505046
_cell_angle_gamma 90.000000
_cell_volume 1603.203000
_symmetry_space_group_name_H-M "C 2"
_symmetry_group_IT_number 5
_symmetry_cell_setting 'monoclinic'
loop_
_space_group_symop_operation_xyz
x,y,z
-x,y,-z
1/2+x,1/2+y,z
1/2-x,1/2+y,-z
loop_
_atom_site_type_symbol
_atom_site_label
_atom_site_fract_x
_atom_site_fract_y
_atom_site_fract_z
Si Si1 0.112893 0.869030 0.177137
Si Si2 0.800665 0.629190 0.765723
Si Si3 0.286535 0.936006 0.976021
Si Si4 0.968952 0.660548 0.720488
Si Si5 0.658051 0.984264 0.859690
Si Si6 0.233485 0.483217 0.374170
Si Si7 0.401071 0.751407 0.650050
Si Si8 0.034412 0.347155 0.768098
O O1 0.189931 0.877501 0.129395
O O2 0.098762 0.757575 0.158090
O O3 0.000000 0.914431 0.500000
O O4 0.157209 0.929949 0.938622
O O5 0.768741 0.593109 0.685322
O O6 0.915725 0.686513 0.480252
O O7 0.815280 0.534956 0.828650
O O8 0.708213 0.693882 0.056735
O O9 0.264041 0.958377 0.194591
O O10 0.390029 0.864541 0.723549
O O11 0.000000 0.606250 0.500000
O O12 0.897433 0.590381 0.988317
O O13 0.733684 0.989924 0.541630
O O14 0.567072 0.901692 0.059628
O O15 0.130556 0.424850 0.559102
O O16 0.500000 0.702771 0.500000
O O17 0.427353 0.755649 0.419994
O O18 0.000000 0.301808 0.000000
#
# Coordination Sequence:
#
# PCOD8049252 Si02
#       8
#     4   4   4   4   4   4   4   4
#     4  10  22  40  65  88 127 167 210 258 327 384
#     4  11  23  38  65  94 125 165 216 258 311 388
#     4  11  22  39  64  92 119 167 218 261 309 377
#     4  11  20  35  65  97 117 159 216 269 311 370
#     4  11  21  38  67  94 123 161 213 273 317 364
#     4  10  22  41  63  91 129 167 206 257 324 382
#     4  12  22  38  61  97 127 159 213 266 311 376
#     4  10  20  37  63  91 126 161 204 263 327 366
#
# _framework density 19.960042999999999
#
# number of rings (size 3 to 8) (size 9 to 14) (size 15 to 20)
#    0.000    1.250    6.250    1.500    0.000    2.000 
#    2.250    1.875    5.500    0.000    0.000    0.000 
#    0.000    0.000    0.000    0.000    0.000    0.000 
#
# Total GULP energy -198303.828756 kJ/mol
# GULP energy per Si atom -12393.989297 kJ/mol
# Density = 1.991461 g / cm^3
# Si number density = 19.960043 Si / 1000 Ang^3
#
#
#
# Elastic Constant Matrix: (Units=GPa)
#
#
# Indices 1 2 3 4 5 6 
#
# 1 111.1050 40.1778 63.7200 0.0000 17.5704 0.0000
# 2 40.1778 72.5365 46.7871 0.0000 -0.1084 0.0000
# 3 63.7200 46.7871 138.7003 0.0000 19.3489 0.0000
# 4 0.0000 0.0000 0.0000 37.1246 0.0000 0.7970
# 5 17.5704 -0.1084 19.3489 0.0000 42.7903 0.0000
# 6 0.0000 0.0000 0.0000 0.7970 0.0000 25.7616
#
#
#
# Elastic Compliance Matrix: (Units=1/GPa)
#
#
# Indices 1 2 3 4 5 6 
#
# 1 0.013759 -0.004974 -0.004113 0.000000 -0.003803 0.000000
# 2 -0.004974 0.019766 -0.004989 0.000000 0.004348 0.000000
# 3 -0.004113 -0.004989 0.011258 0.000000 -0.003415 0.000000
# 4 0.000000 0.000000 0.000000 0.026954 0.000000 -0.000834
# 5 -0.003803 0.004348 -0.003415 0.000000 0.026486 0.000000
# 6 0.000000 0.000000 0.000000 -0.000834 0.000000 0.038843
#
#
# Mechanical properties :
#
#
# Convention : Reuss Voigt Hill
#
# Bulk Modulus (GPa) = 60.12550 69.30130 64.71340
# Shear Modulus (GPa) = 29.28033 32.57909 30.92971
#
# Velocity S-wave (km/s) = 3.83423 4.04445 3.94074
# Velocity P-wave (km/s) = 7.05621 7.52366 7.29368
#
# Compressibility (1/GPa) = 0.01663188
#
# Stress axis : x y z
#
# Youngs Moduli (GPa) = 72.67790 50.59245 88.82198
#
# Poissons Ratio (x) = 0.25166 0.36530
# Poissons Ratio (y) = 0.36151 0.44313
# Poissons Ratio (z) = 0.29891 0.25240
#
# Static dielectric constant tensor:
#      x y z
#    x 3.823140 0.000000 0.140810 
#    y 0.000000 3.500550 0.000000 
#    z 0.140810 0.000000 3.716620 
# 
# 
# High freq. dielectric constant tensor:
#      x y z
#    x 1.778160 0.000000 0.001540 
#    y 0.000000 1.757560 0.000000 
#    z 0.001540 0.000000 1.775310 
# 
# From -- ./inp_files/31034.got.cif
#   From: 2010.03.12/outbox.cif.g09.slc.cpg/sg5_16_cif.got.tgz:31034.got - 2010.03.31 09:47:26.
