data_PCOD8049924
_publ_section_title
;
Structure prediction by ZEFSAII (Michael W. Deem and Ramdas Pophale) SiO2 
 PCOD8049924
Probable space group: C 2
;
_chemical_formula_sum "Si O2"
_cell_formula_units_Z 28
_cell_length_a 12.728716
_cell_length_b 7.271110
_cell_length_c 14.042929
_cell_angle_alpha 90.000000
_cell_angle_beta 63.855736
_cell_angle_gamma 90.000000
_cell_volume 1166.724067
_symmetry_space_group_name_H-M "C 2"
_symmetry_group_IT_number 5
_symmetry_cell_setting 'monoclinic'
loop_
_space_group_symop_operation_xyz
x,y,z
-x,y,-z
1/2+x,1/2+y,z
1/2-x,1/2+y,-z
loop_
_atom_site_type_symbol
_atom_site_label
_atom_site_fract_x
_atom_site_fract_y
_atom_site_fract_z
Si Si1 0.309814 0.964640 0.361417
Si Si2 0.298763 0.039830 0.721214
Si Si3 0.129059 0.694544 0.490579
Si Si4 0.175223 0.305630 0.011490
Si Si5 0.630729 0.418951 0.938257
Si Si6 0.538740 0.778607 0.239423
Si Si7 0.794466 0.952833 0.790450
O O1 0.194775 0.890538 0.461642
O O2 0.398815 0.792244 0.307704
O O3 0.271730 0.046209 0.273512
O O4 0.370559 0.120539 0.401512
O O5 0.298169 0.054502 0.607064
O O6 0.177778 0.952733 0.811390
O O7 0.328216 0.242664 0.752514
O O8 0.405824 0.907331 0.702599
O O9 0.000000 0.722266 0.500000
O O10 0.285656 0.277520 0.039327
O O11 0.068846 0.367309 0.123128
O O12 0.136982 0.112903 0.986594
O O13 0.205843 0.450543 0.916147
O O14 0.500000 0.340680 0.000000
O O15 0.588668 0.569972 0.230320
#
# Coordination Sequence:
#
# PCOD8049924 Si02
#       7
#     4   4   4   4   4   4   4
#     4  11  27  43  73 101 129 194 230 283 371 399
#     4   9  22  42  67  96 139 173 227 296 332 401
#     4  11  24  46  65  97 139 172 238 300 333 413
#     4  10  21  38  65  98 137 169 224 276 326 413
#     4  10  21  39  64  94 132 176 212 269 342 397
#     4  11  22  44  70  99 140 181 228 288 339 421
#     4  10  23  42  67 106 137 181 234 275 347 420
#
# _framework density 23.998816999999999
#
# number of rings (size 3 to 8) (size 9 to 14) (size 15 to 20)
#    0.000    1.714    2.857    0.000    8.000    2.286 
#    0.000   10.714    0.000    0.000    0.000    0.000 
#    0.000    0.000    0.000    0.000    0.000    0.000 
#
# Total GULP energy -173469.367585 kJ/mol
# GULP energy per Si atom -12390.669113 kJ/mol
# Density = 2.394420 g / cm^3
# Si number density = 23.998817 Si / 1000 Ang^3
#
#
#
# Elastic Constant Matrix: (Units=GPa)
#
#
# Indices 1 2 3 4 5 6 
#
# 1 100.4414 13.6486 34.9986 0.0000 -23.7320 0.0000
# 2 13.6486 44.3533 11.7342 0.0000 1.4796 0.0001
# 3 34.9986 11.7342 90.7004 0.0000 -0.6263 0.0000
# 4 0.0000 0.0000 0.0000 20.8325 0.0000 3.5880
# 5 -23.7320 1.4796 -0.6263 0.0000 38.8458 0.0000
# 6 0.0000 0.0001 0.0000 3.5880 0.0000 29.1170
#
#
#
# Elastic Compliance Matrix: (Units=1/GPa)
#
#
# Indices 1 2 3 4 5 6 
#
# 1 0.014212 -0.003344 -0.004991 0.000000 0.008730 0.000000
# 2 -0.003344 0.024166 -0.001857 0.000000 -0.002993 0.000000
# 3 -0.004991 -0.001857 0.013172 0.000000 -0.002766 0.000000
# 4 0.000000 0.000000 0.000000 0.049043 0.000000 -0.006043
# 5 0.008730 -0.002993 -0.002766 0.000000 0.031145 0.000000
# 6 0.000000 0.000000 0.000000 -0.006043 0.000000 0.035089
#
#
# Mechanical properties :
#
#
# Convention : Reuss Voigt Hill
#
# Bulk Modulus (GPa) = 32.08539 39.58423 35.83481
# Shear Modulus (GPa) = 25.30349 29.43330 27.36840
#
# Velocity S-wave (km/s) = 3.25062 3.50587 3.38065
# Velocity P-wave (km/s) = 5.24283 5.73744 5.49570
#
# Compressibility (1/GPa) = 0.03116683
#
# Stress axis : x y z
#
# Youngs Moduli (GPa) = 70.36188 41.37976 75.91654
#
# Poissons Ratio (x) = 0.13838 0.37891
# Poissons Ratio (y) = 0.23530 0.14096
# Poissons Ratio (z) = 0.35119 0.07683
#
# Static dielectric constant tensor:
#      x y z
#    x 4.493920 0.000000 -0.110350 
#    y 0.000000 4.003170 0.000000 
#    z -0.110350 0.000000 4.885940 
# 
# 
# High freq. dielectric constant tensor:
#      x y z
#    x 1.936570 0.000000 0.002600 
#    y 0.000000 1.931200 0.000000 
#    z 0.002600 0.000000 1.965520 
# 
# From -- ./inp_files/52243.got.cif
#   From: 2010.03.12/outbox.cif.g09.slc.cpg/sg5_27_cif.got.tgz:52243.got - 2010.03.31 09:47:26.
