data_PCOD8049864
_publ_section_title
;
Structure prediction by ZEFSAII (Michael W. Deem and Ramdas Pophale) SiO2 
 PCOD8049864
Probable space group: C 2
;
_chemical_formula_sum "Si O2"
_cell_formula_units_Z 28
_cell_length_a 13.828395
_cell_length_b 15.202367
_cell_length_c 6.788031
_cell_angle_alpha 90.000000
_cell_angle_beta 117.818041
_cell_angle_gamma 90.000000
_cell_volume 1262.095662
_symmetry_space_group_name_H-M "C 2"
_symmetry_group_IT_number 5
_symmetry_cell_setting 'monoclinic'
loop_
_space_group_symop_operation_xyz
x,y,z
-x,y,-z
1/2+x,1/2+y,z
1/2-x,1/2+y,-z
loop_
_atom_site_type_symbol
_atom_site_label
_atom_site_fract_x
_atom_site_fract_y
_atom_site_fract_z
Si Si1 0.730825 0.077700 0.177484
Si Si2 0.500000 0.152144 0.000000
Si Si3 0.685790 0.445584 0.054498
Si Si4 0.380012 0.663435 0.612015
Si Si5 0.296264 0.725255 0.940951
Si Si6 0.883362 0.335973 0.347862
Si Si7 0.000000 0.066639 0.000000
Si Si8 0.570198 0.291530 0.750422
O O1 0.804400 0.088572 0.443230
O O2 0.603586 0.086602 0.118314
O O3 0.760572 0.160210 0.076171
O O4 0.756712 0.987508 0.085579
O O5 0.510875 0.213363 0.815939
O O6 0.782509 0.403673 0.284272
O O7 0.614652 0.514125 0.111401
O O8 0.595519 0.372497 0.917810
O O9 0.348796 0.677659 0.809355
O O10 0.382879 0.754578 0.500527
O O11 0.498870 0.620349 0.783877
O O12 0.184187 0.766458 0.756736
O O13 0.374283 0.799366 0.115628
O O14 0.000000 0.384132 0.500000
O O15 0.500000 0.323594 0.500000
#
# Coordination Sequence:
#
# PCOD8049864 Si02
#       8
#     4   2   4   4   4   4   2   4
#     4  10  22  41  64  96 137 170 222 284 340 387
#     4  10  21  44  68  93 130 186 230 272 321 430
#     4  11  25  44  60 106 143 166 222 296 338 395
#     4  11  22  40  72  95 127 181 230 269 333 411
#     4   9  19  40  63  99 124 166 235 271 314 420
#     4  10  23  44  68  91 137 184 222 275 343 406
#     4  12  25  40  72 103 136 170 238 284 333 404
#     4  10  21  37  66  91 134 179 218 267 343 407
#
# _framework density 22.185321999999999
#
# number of rings (size 3 to 8) (size 9 to 14) (size 15 to 20)
#    0.000    1.714    1.429    3.000    4.000    1.143 
#    5.143    0.714    0.000    0.000    0.000    0.000 
#    0.000    0.000    0.000    0.000    0.000    0.000 
#
# Total GULP energy -173433.918488 kJ/mol
# GULP energy per Si atom -12388.137035 kJ/mol
# Density = 2.213483 g / cm^3
# Si number density = 22.185322 Si / 1000 Ang^3
#
#
#
# Elastic Constant Matrix: (Units=GPa)
#
#
# Indices 1 2 3 4 5 6 
#
# 1 95.3305 33.3145 52.8631 0.0000 21.1234 0.0000
# 2 33.3145 86.5632 36.1378 0.0000 17.6364 0.0000
# 3 52.8631 36.1378 139.9821 0.0000 38.0300 0.0000
# 4 0.0000 0.0000 0.0000 24.6704 0.0000 4.9222
# 5 21.1234 17.6364 38.0300 0.0000 34.9588 0.0000
# 6 0.0000 0.0000 0.0000 4.9222 0.0000 40.2756
#
#
#
# Elastic Compliance Matrix: (Units=1/GPa)
#
#
# Indices 1 2 3 4 5 6 
#
# 1 0.014408 -0.003377 -0.003786 0.000000 -0.002884 0.000000
# 2 -0.003377 0.014169 -0.001412 0.000000 -0.003571 0.000000
# 3 -0.003786 -0.001412 0.011531 0.000000 -0.009544 0.000000
# 4 0.000000 0.000000 0.000000 0.041547 0.000000 -0.005078
# 5 -0.002884 -0.003571 -0.009544 0.000000 0.042532 0.000000
# 6 0.000000 0.000000 0.000000 -0.005078 0.000000 0.025450
#
#
# Mechanical properties :
#
#
# Convention : Reuss Voigt Hill
#
# Bulk Modulus (GPa) = 43.55823 62.94517 53.25170
# Shear Modulus (GPa) = 28.66310 33.28499 30.97405
#
# Velocity S-wave (km/s) = 3.59832 3.87759 3.74056
# Velocity P-wave (km/s) = 6.07785 6.96288 6.53536
#
# Compressibility (1/GPa) = 0.02295777
#
# Stress axis : x y z
#
# Youngs Moduli (GPa) = 69.40408 70.57568 86.72320
#
# Poissons Ratio (x) = 0.23834 0.32832
# Poissons Ratio (y) = 0.23439 0.12248
# Poissons Ratio (z) = 0.26276 0.09968
#
# Static dielectric constant tensor:
#      x y z
#    x 4.314430 0.000000 0.418090 
#    y 0.000000 4.073680 0.000000 
#    z 0.418090 0.000000 4.164470 
# 
# 
# High freq. dielectric constant tensor:
#      x y z
#    x 1.873750 0.000000 0.021270 
#    y 0.000000 1.863330 0.000000 
#    z 0.021270 0.000000 1.879440 
# 
# From -- ./inp_files/7365.got.cif
#   From: 2010.03.12/outbox.cif.g09.slc.cpg/sg5_4_cif.got.tgz:7365.got - 2010.03.31 09:47:26.
