data_PCOD8049667
_publ_section_title
;
Structure prediction by ZEFSAII (Michael W. Deem and Ramdas Pophale) SiO2 
 PCOD8049667
Probable space group: C 2
;
_chemical_formula_sum "Si O2"
_cell_formula_units_Z 28
_cell_length_a 7.588580
_cell_length_b 11.841737
_cell_length_c 18.382331
_cell_angle_alpha 90.000000
_cell_angle_beta 125.607850
_cell_angle_gamma 90.000000
_cell_volume 1343.006988
_symmetry_space_group_name_H-M "C 2"
_symmetry_group_IT_number 5
_symmetry_cell_setting 'monoclinic'
loop_
_space_group_symop_operation_xyz
x,y,z
-x,y,-z
1/2+x,1/2+y,z
1/2-x,1/2+y,-z
loop_
_atom_site_type_symbol
_atom_site_label
_atom_site_fract_x
_atom_site_fract_y
_atom_site_fract_z
Si Si1 0.334407 0.951150 0.645282
Si Si2 0.943959 0.198963 0.851092
Si Si3 0.000000 0.804594 0.500000
Si Si4 0.629758 0.141199 0.653202
Si Si5 0.916783 0.957586 0.130072
Si Si6 0.500000 0.849637 0.000000
Si Si7 0.422263 0.554402 0.287167
Si Si8 0.798434 0.287890 0.209559
O O1 0.214613 0.882560 0.552306
O O2 0.511141 0.873318 0.725074
O O3 0.447512 0.057972 0.637570
O O4 0.150476 0.986592 0.659467
O O5 0.739635 0.208103 0.747023
O O6 0.908078 0.272070 0.913564
O O7 0.160089 0.245103 0.862946
O O8 0.971879 0.067211 0.879307
O O9 0.001193 0.729279 0.572694
O O10 0.817031 0.074545 0.653061
O O11 0.070364 0.848848 0.162103
O O12 0.854798 0.983711 0.199075
O O13 0.703350 0.929904 0.030930
O O14 0.302392 0.676361 0.261186
#
# Coordination Sequence:
#
# PCOD8049667 Si02
#       8
#     4   4   2   4   4   2   4   4
#     4  12  23  42  71  97 132 179 219 272 338 384
#     4  10  23  44  63  94 133 172 223 272 324 404
#     4  12  26  42  68 106 134 166 230 280 318 400
#     4  10  24  48  63  97 141 168 225 278 323 406
#     4  10  23  42  65  98 132 173 219 276 333 388
#     4  12  26  38  66 102 128 172 228 272 330 392
#     4  10  23  42  70  96 129 176 225 264 329 408
#     4  10  20  42  68  91 131 181 216 270 338 390
#
# _framework density 20.848735000000001
#
# number of rings (size 3 to 8) (size 9 to 14) (size 15 to 20)
#    0.000    1.714    5.714    0.857    4.000    4.000 
#    0.000    1.429    0.000    0.000    0.000    0.000 
#    0.000    0.000    0.000    0.000    0.000    0.000 
#
# Total GULP energy -173561.605726 kJ/mol
# GULP energy per Si atom -12397.257552 kJ/mol
# Density = 2.080128 g / cm^3
# Si number density = 20.848735 Si / 1000 Ang^3
#
#
#
# Elastic Constant Matrix: (Units=GPa)
#
#
# Indices 1 2 3 4 5 6 
#
# 1 75.5962 31.7120 34.5012 0.0000 10.5227 0.0000
# 2 31.7120 82.8180 29.6818 0.0000 -11.5166 0.0000
# 3 34.5012 29.6818 87.1972 0.0000 -0.9639 0.0000
# 4 0.0000 0.0000 0.0000 36.6808 0.0000 5.1724
# 5 10.5227 -11.5166 -0.9639 0.0000 21.6894 0.0000
# 6 0.0000 0.0000 0.0000 5.1724 0.0000 37.2414
#
#
#
# Elastic Compliance Matrix: (Units=1/GPa)
#
#
# Indices 1 2 3 4 5 6 
#
# 1 0.021425 -0.008192 -0.005855 0.000000 -0.015005 0.000000
# 2 -0.008192 0.018071 -0.002761 0.000000 0.013447 0.000000
# 3 -0.005855 -0.002761 0.014747 0.000000 0.002030 0.000000
# 4 0.000000 0.000000 0.000000 0.027807 0.000000 -0.003862
# 5 -0.015005 0.013447 0.002030 0.000000 0.060616 0.000000
# 6 0.000000 0.000000 0.000000 -0.003862 0.000000 0.027388
#
#
# Mechanical properties :
#
#
# Convention : Reuss Voigt Hill
#
# Bulk Modulus (GPa) = 48.47946 48.60016 48.53981
# Shear Modulus (GPa) = 23.74772 29.10339 26.42556
#
# Velocity S-wave (km/s) = 3.37864 3.74027 3.56404
# Velocity P-wave (km/s) = 6.20675 6.48184 6.34579
#
# Compressibility (1/GPa) = 0.02062729
#
# Stress axis : x y z
#
# Youngs Moduli (GPa) = 46.67374 55.33655 67.80986
#
# Poissons Ratio (x) = 0.45333 0.39700
# Poissons Ratio (y) = 0.38237 0.18725
# Poissons Ratio (z) = 0.27325 0.15280
#
# Static dielectric constant tensor:
#      x y z
#    x 3.628150 0.000000 0.119260 
#    y 0.000000 4.198970 0.000000 
#    z 0.119260 0.000000 3.680000 
# 
# 
# High freq. dielectric constant tensor:
#      x y z
#    x 1.798120 0.000000 0.010690 
#    y 0.000000 1.839650 0.000000 
#    z 0.010690 0.000000 1.802780 
# 
# From -- ./inp_files/64494.got.cif
#   From: 2010.03.12/outbox.cif.g09.slc.cpg/sg5_33_cif.got.tgz:64494.got - 2010.03.31 09:47:26.
