data_PCOD8049829
_publ_section_title
;
Structure prediction by ZEFSAII (Michael W. Deem and Ramdas Pophale) SiO2 
 PCOD8049829
Probable space group: C 2
;
_chemical_formula_sum "Si O2"
_cell_formula_units_Z 28
_cell_length_a 21.939745
_cell_length_b 11.992389
_cell_length_c 9.373993
_cell_angle_alpha 90.000000
_cell_angle_beta 145.259227
_cell_angle_gamma 90.000000
_cell_volume 1405.508454
_symmetry_space_group_name_H-M "C 2"
_symmetry_group_IT_number 5
_symmetry_cell_setting 'monoclinic'
loop_
_space_group_symop_operation_xyz
x,y,z
-x,y,-z
1/2+x,1/2+y,z
1/2-x,1/2+y,-z
loop_
_atom_site_type_symbol
_atom_site_label
_atom_site_fract_x
_atom_site_fract_y
_atom_site_fract_z
Si Si1 0.743761 0.851440 0.459722
Si Si2 0.877077 0.660895 0.779090
Si Si3 0.270144 0.033033 0.341608
Si Si4 0.756269 0.518279 0.775104
Si Si5 0.424952 0.674307 0.980327
Si Si6 0.876414 0.432441 0.278649
Si Si7 0.422907 0.690932 0.472306
O O1 0.839672 0.787824 0.725522
O O2 0.645910 0.774822 0.218862
O O3 0.700287 0.928712 0.502298
O O4 0.792379 0.923869 0.422721
O O5 0.827940 0.635481 0.529275
O O6 0.839043 0.589149 0.840360
O O7 0.000000 0.645235 0.000000
O O8 0.145204 0.070268 0.094310
O O9 0.317371 0.013303 0.276397
O O10 0.663717 0.597960 0.655327
O O11 0.817769 0.453005 0.016964
O O12 0.500000 0.625338 0.000000
O O13 0.502137 0.723655 0.250568
O O14 0.865207 0.303012 0.303253
O O15 0.000000 0.466904 0.500000
O O16 0.500000 0.639596 0.500000
#
# Coordination Sequence:
#
# PCOD8049829 Si02
#       7
#     4   4   4   4   4   4   4
#     4  10  21  37  59  85 117 153 196 243 291 347
#     4  10  21  37  57  84 116 151 191 240 291 347
#     4  10  21  37  57  86 119 152 194 244 291 343
#     4  11  23  40  60  87 119 152 195 246 295 348
#     4  11  21  37  61  88 116 154 199 245 293 350
#     4  11  22  38  61  86 115 157 198 241 294 351
#     4  11  23  40  60  86 117 155 199 245 293 352
#
# _framework density 19.921616
#
# number of rings (size 3 to 8) (size 9 to 14) (size 15 to 20)
#    0.000    1.429    0.000    7.714    0.000    6.286 
#    0.000    1.429    0.000    3.429    0.000    0.000 
#    0.000    0.000    0.000    0.000    0.000    0.000 
#
# Total GULP energy -173544.596936 kJ/mol
# GULP energy per Si atom -12396.042638 kJ/mol
# Density = 1.987627 g / cm^3
# Si number density = 19.921616 Si / 1000 Ang^3
#
#
#
# Elastic Constant Matrix: (Units=GPa)
#
#
# Indices 1 2 3 4 5 6 
#
# 1 128.7621 36.6141 52.6367 0.0000 6.5732 0.0000
# 2 36.6141 82.0156 53.3631 0.0000 6.7160 0.0000
# 3 52.6367 53.3631 83.5054 0.0000 -6.0395 0.0000
# 4 0.0000 0.0000 0.0000 18.1753 0.0000 -3.5647
# 5 6.5732 6.7160 -6.0395 0.0000 39.3856 0.0000
# 6 0.0000 0.0000 0.0000 -3.5647 0.0000 29.6130
#
#
#
# Elastic Compliance Matrix: (Units=1/GPa)
#
#
# Indices 1 2 3 4 5 6 
#
# 1 0.010774 -0.000038 -0.006974 0.000000 -0.002861 0.000000
# 2 -0.000038 0.022201 -0.014599 0.000000 -0.006018 0.000000
# 3 -0.006974 -0.014599 0.026256 0.000000 0.007679 0.000000
# 4 0.000000 0.000000 0.000000 0.056350 0.000000 0.006783
# 5 -0.002861 -0.006018 0.007679 0.000000 0.028071 0.000000
# 6 0.000000 0.000000 0.000000 0.006783 0.000000 0.034586
#
#
# Mechanical properties :
#
#
# Convention : Reuss Voigt Hill
#
# Bulk Modulus (GPa) = 62.46219 64.39013 63.42616
# Shear Modulus (GPa) = 22.04633 27.54606 24.79619
#
# Velocity S-wave (km/s) = 3.33025 3.72253 3.53184
# Velocity P-wave (km/s) = 6.79775 7.13220 6.96698
#
# Compressibility (1/GPa) = 0.01600969
#
# Stress axis : x y z
#
# Youngs Moduli (GPa) = 92.81616 45.04282 38.08699
#
# Poissons Ratio (x) = 0.00171 0.26562
# Poissons Ratio (y) = 0.00353 0.55602
# Poissons Ratio (z) = 0.64729 0.65756
#
# Static dielectric constant tensor:
#      x y z
#    x 3.818860 0.000000 -0.148280 
#    y 0.000000 3.753530 0.000000 
#    z -0.148280 0.000000 4.010060 
# 
# 
# High freq. dielectric constant tensor:
#      x y z
#    x 1.787550 0.000000 -0.007880 
#    y 0.000000 1.776580 0.000000 
#    z -0.007880 0.000000 1.776530 
# 
# From -- ./inp_files/29648.got.cif
#   From: 2010.03.12/outbox.cif.g09.slc.cpg/sg5_15_cif.got.tgz:29648.got - 2010.03.31 09:47:26.
