data_PCOD8049197
_publ_section_title
;
Structure prediction by ZEFSAII (Michael W. Deem and Ramdas Pophale) SiO2 
 PCOD8049197
Probable space group: C 2
;
_chemical_formula_sum "Si O2"
_cell_formula_units_Z 32
_cell_length_a 14.919023
_cell_length_b 21.563693
_cell_length_c 8.976857
_cell_angle_alpha 90.000000
_cell_angle_beta 30.980026
_cell_angle_gamma 90.000000
_cell_volume 1486.534849
_symmetry_space_group_name_H-M "C 2"
_symmetry_group_IT_number 5
_symmetry_cell_setting 'monoclinic'
loop_
_space_group_symop_operation_xyz
x,y,z
-x,y,-z
1/2+x,1/2+y,z
1/2-x,1/2+y,-z
loop_
_atom_site_type_symbol
_atom_site_label
_atom_site_fract_x
_atom_site_fract_y
_atom_site_fract_z
Si Si1 0.310960 0.723300 0.695813
Si Si2 0.026369 0.761436 0.630240
Si Si3 0.139326 0.626707 0.427648
Si Si4 0.980932 0.530895 0.853227
Si Si5 0.641304 0.934253 0.415427
Si Si6 0.351544 0.588087 0.604167
Si Si7 0.314723 0.320184 0.329736
Si Si8 0.914429 0.034601 0.969824
O O1 0.500000 0.728896 0.500000
O O2 0.267400 0.655354 0.685671
O O3 0.316252 0.768246 0.545141
O O4 0.160441 0.744614 0.028406
O O5 0.143105 0.699308 0.454085
O O6 0.146591 0.812203 0.547423
O O7 0.000000 0.787629 0.500000
O O8 0.325931 0.602737 0.103275
O O9 0.000000 0.608715 0.500000
O O10 0.101666 0.588528 0.632530
O O11 0.026626 0.470348 0.697965
O O12 0.780349 0.547494 0.109377
O O13 0.000000 0.519679 0.000000
O O14 0.500000 0.904965 0.500000
O O15 0.746798 0.885813 0.366456
O O16 0.773256 0.979953 0.136420
O O17 0.500000 0.610304 0.500000
O O18 0.424702 0.542892 0.371716
O O19 0.500000 0.304419 0.000000
O O20 0.000000 0.012769 0.000000
#
# Coordination Sequence:
#
# PCOD8049197 Si02
#       8
#     4   4   4   4   4   4   4   4
#     4  10  22  38  62  97 133 173 214 265 326 391
#     4  10  22  40  66  95 132 174 218 272 332 389
#     4  10  20  37  59  89 131 172 209 252 328 400
#     4  11  22  36  62  94 129 163 211 263 322 381
#     4  11  23  45  69  89 125 179 226 268 323 391
#     4  11  21  35  58  96 135 160 201 262 323 383
#     4  10  23  43  69  91 127 171 230 269 324 388
#     4  11  23  36  61  97 130 170 212 263 322 389
#
# _framework density 21.526572000000002
#
# number of rings (size 3 to 8) (size 9 to 14) (size 15 to 20)
#    0.000    1.500    1.250    5.250    8.750    0.000 
#    0.000    4.375    0.000    3.750    0.000    0.000 
#    0.000    0.000    0.000    0.000    0.000    0.000 
#
# Total GULP energy -198224.404743 kJ/mol
# GULP energy per Si atom -12389.025296 kJ/mol
# Density = 2.147758 g / cm^3
# Si number density = 21.526572 Si / 1000 Ang^3
#
#
#
# Elastic Constant Matrix: (Units=GPa)
#
#
# Indices 1 2 3 4 5 6 
#
# 1 117.4618 45.2568 19.6069 0.0019 6.9825 -0.0010
# 2 45.2568 95.9238 27.2295 0.0020 2.8491 -0.0016
# 3 19.6069 27.2295 76.2828 0.0016 5.6734 -0.0012
# 4 0.0019 0.0020 0.0016 20.7688 -0.0015 -2.4533
# 5 6.9825 2.8491 5.6734 -0.0015 37.4035 0.0009
# 6 -0.0010 -0.0016 -0.0012 -2.4533 0.0009 37.0703
#
#
#
# Elastic Compliance Matrix: (Units=1/GPa)
#
#
# Indices 1 2 3 4 5 6 
#
# 1 0.010557 -0.004671 -0.000937 -0.000001 -0.001473 0.000000
# 2 -0.004671 0.013670 -0.003708 -0.000001 0.000393 0.000000
# 3 -0.000937 -0.003708 0.014806 -0.000001 -0.001789 0.000000
# 4 -0.000001 -0.000001 -0.000001 0.048529 0.000002 0.003212
# 5 -0.001473 0.000393 -0.001789 0.000002 0.027252 -0.000001
# 6 0.000000 0.000000 0.000000 0.003212 -0.000001 0.027188
#
#
# Mechanical properties :
#
#
# Convention : Reuss Voigt Hill
#
# Bulk Modulus (GPa) = 49.01568 52.65053 50.83310
# Shear Modulus (GPa) = 29.86249 32.22018 31.04134
#
# Velocity S-wave (km/s) = 3.72861 3.87300 3.80149
# Velocity P-wave (km/s) = 6.43086 6.67171 6.55239
#
# Compressibility (1/GPa) = 0.02040164
#
# Stress axis : x y z
#
# Youngs Moduli (GPa) = 94.72330 73.15425 67.53803
#
# Poissons Ratio (x) = 0.34172 0.06325
# Poissons Ratio (y) = 0.44247 0.25044
# Poissons Ratio (z) = 0.08871 0.27126
#
# Static dielectric constant tensor:
#      x y z
#    x 4.277150 -0.000010 -0.035930 
#    y -0.000010 3.690380 0.000000 
#    z -0.035930 0.000000 3.913860 
# 
# 
# High freq. dielectric constant tensor:
#      x y z
#    x 1.856520 0.000000 -0.009360 
#    y 0.000000 1.824870 0.000000 
#    z -0.009360 0.000000 1.841530 
# 
# From -- ./inp_files/25582.got.cif
#   From: 2010.03.12/outbox.cif.g09.slc.cpg/sg5_13_cif.got.tgz:25582.got - 2010.03.31 09:47:26.
