data_PCOD8049238
_publ_section_title
;
Structure prediction by ZEFSAII (Michael W. Deem and Ramdas Pophale) SiO2 
 PCOD8049238
Probable space group: C 2
;
_chemical_formula_sum "Si O2"
_cell_formula_units_Z 28
_cell_length_a 29.989007
_cell_length_b 8.415153
_cell_length_c 9.216646
_cell_angle_alpha 90.000000
_cell_angle_beta 34.692629
_cell_angle_gamma 90.000000
_cell_volume 1323.859428
_symmetry_space_group_name_H-M "C 2"
_symmetry_group_IT_number 5
_symmetry_cell_setting 'monoclinic'
loop_
_space_group_symop_operation_xyz
x,y,z
-x,y,-z
1/2+x,1/2+y,z
1/2-x,1/2+y,-z
loop_
_atom_site_type_symbol
_atom_site_label
_atom_site_fract_x
_atom_site_fract_y
_atom_site_fract_z
Si Si1 0.570394 0.849210 0.035161
Si Si2 0.653867 0.103827 0.236637
Si Si3 0.635436 0.602903 0.670491
Si Si4 0.500000 0.969035 0.500000
Si Si5 0.000000 0.538535 0.000000
Si Si6 0.721618 0.032819 0.517583
Si Si7 0.221872 0.324912 0.246657
Si Si8 0.635178 0.265227 0.581801
O O1 0.579352 0.670299 0.948096
O O2 0.648623 0.947112 0.790325
O O3 0.547391 0.852178 0.265130
O O4 0.496304 0.929302 0.152887
O O5 0.645182 0.234151 0.385615
O O6 0.568118 0.076240 0.393086
O O7 0.692713 0.938753 0.192258
O O8 0.713233 0.192830 0.968493
O O9 0.718169 0.554628 0.515337
O O10 0.646183 0.729755 0.511514
O O11 0.601572 0.441240 0.693880
O O12 0.924009 0.641263 0.192621
O O13 0.709240 0.211623 0.482744
O O14 0.754511 0.929087 0.293892
#
# Coordination Sequence:
#
# PCOD8049238 Si02
#       8
#     4   4   4   2   2   4   4   4
#     4  10  22  38  65  89 128 168 211 262 323 397
#     4  11  23  42  66  96 134 175 218 273 336 393
#     4  11  21  37  65  97 121 163 221 270 315 388
#     4  12  24  40  66  98 136 180 214 268 344 394
#     4  10  20  42  58  84 118 172 218 242 318 386
#     4   9  20  39  64  94 124 163 219 266 317 391
#     4  10  22  39  65  95 130 172 218 267 322 396
#     4  10  20  37  62  90 124 167 211 265 320 388
#
# _framework density 21.150282000000001
#
# number of rings (size 3 to 8) (size 9 to 14) (size 15 to 20)
#    0.000    1.714    1.429    4.286    0.000    4.000 
#    0.000    0.000    0.000    4.286    0.000    0.000 
#    0.000    0.000    0.000    0.000    0.000    0.000 
#
# Total GULP energy -173437.553745 kJ/mol
# GULP energy per Si atom -12388.396696 kJ/mol
# Density = 2.110214 g / cm^3
# Si number density = 21.150282 Si / 1000 Ang^3
#
#
#
# Elastic Constant Matrix: (Units=GPa)
#
#
# Indices 1 2 3 4 5 6 
#
# 1 78.3216 29.9929 34.2067 0.0000 1.7331 0.0000
# 2 29.9929 134.8263 49.5746 0.0000 8.4085 0.0000
# 3 34.2067 49.5746 114.8378 0.0000 23.7273 0.0000
# 4 0.0000 0.0000 0.0000 31.4059 0.0000 9.9208
# 5 1.7331 8.4085 23.7273 0.0000 31.4508 0.0000
# 6 0.0000 0.0000 0.0000 9.9208 0.0000 28.2342
#
#
#
# Elastic Compliance Matrix: (Units=1/GPa)
#
#
# Indices 1 2 3 4 5 6 
#
# 1 0.015358 -0.002014 -0.004314 0.000000 0.002947 0.000000
# 2 -0.002014 0.009090 -0.003370 0.000000 0.000223 0.000000
# 3 -0.004314 -0.003370 0.013283 0.000000 -0.008882 0.000000
# 4 0.000000 0.000000 0.000000 0.035817 0.000000 -0.012585
# 5 0.002947 0.000223 -0.008882 0.000000 0.038275 0.000000
# 6 0.000000 0.000000 0.000000 -0.012585 0.000000 0.039840
#
#
# Mechanical properties :
#
#
# Convention : Reuss Voigt Hill
#
# Bulk Modulus (GPa) = 54.54223 61.72601 58.13412
# Shear Modulus (GPa) = 28.22116 32.49893 30.36004
#
# Velocity S-wave (km/s) = 3.65679 3.92417 3.79284
# Velocity P-wave (km/s) = 6.60859 7.05549 6.83569
#
# Compressibility (1/GPa) = 0.01833442
#
# Stress axis : x y z
#
# Youngs Moduli (GPa) = 65.11216 110.00682 75.28276
#
# Poissons Ratio (x) = 0.22155 0.32478
# Poissons Ratio (y) = 0.13114 0.25374
# Poissons Ratio (z) = 0.28090 0.37078
#
# Static dielectric constant tensor:
#      x y z
#    x 3.694590 0.000000 0.327690 
#    y 0.000000 3.998970 0.000000 
#    z 0.327690 0.000000 3.478150 
# 
# 
# High freq. dielectric constant tensor:
#      x y z
#    x 1.828790 0.000000 0.008000 
#    y 0.000000 1.830200 0.000000 
#    z 0.008000 0.000000 1.821450 
# 
# From -- ./inp_files/26809.got.cif
#   From: 2010.03.12/outbox.cif.g09.slc.cpg/sg5_14_cif.got.tgz:26809.got - 2010.03.31 09:47:26.
