data_PCOD8049782
_publ_section_title
;
Structure prediction by ZEFSAII (Michael W. Deem and Ramdas Pophale) SiO2 
 PCOD8049782
Probable space group: C 2
;
_chemical_formula_sum "Si O2"
_cell_formula_units_Z 30
_cell_length_a 5.183551
_cell_length_b 12.974049
_cell_length_c 22.645299
_cell_angle_alpha 90.000000
_cell_angle_beta 93.917528
_cell_angle_gamma 90.000000
_cell_volume 1519.375153
_symmetry_space_group_name_H-M "C 2"
_symmetry_group_IT_number 5
_symmetry_cell_setting 'monoclinic'
loop_
_space_group_symop_operation_xyz
x,y,z
-x,y,-z
1/2+x,1/2+y,z
1/2-x,1/2+y,-z
loop_
_atom_site_type_symbol
_atom_site_label
_atom_site_fract_x
_atom_site_fract_y
_atom_site_fract_z
Si Si1 0.477152 0.151420 0.339624
Si Si2 0.487084 0.385530 0.376308
Si Si3 0.501866 0.973289 0.431351
Si Si4 0.500000 0.074627 0.000000
Si Si5 0.552034 0.523005 0.850866
Si Si6 0.962440 0.064152 0.284831
Si Si7 0.894830 0.197766 0.063753
Si Si8 0.908352 0.434147 0.096483
O O1 0.446003 0.268539 0.357738
O O2 0.742320 0.137747 0.308098
O O3 0.237472 0.120467 0.294385
O O4 0.474764 0.082439 0.398349
O O5 0.765492 0.398615 0.410856
O O6 0.463677 0.454321 0.317331
O O7 0.267486 0.416700 0.419422
O O8 0.500000 0.998556 0.500000
O O9 0.390117 0.149944 0.947466
O O10 0.681166 0.997009 0.963945
O O11 0.604393 0.544669 0.783754
O O12 0.474903 0.629482 0.882829
O O13 0.299791 0.450702 0.854696
O O14 0.801439 0.465389 0.881157
O O15 0.905267 0.314499 0.082068
O O16 0.000000 0.177219 0.000000
#
# Coordination Sequence:
#
# PCOD8049782 Si02
#       8
#     4   4   4   2   4   4   4   4
#     4  10  21  39  63  85 117 163 199 238 295 345
#     4  10  21  38  60  86 119 163 199 244 296 343
#     4  10  21  36  56  89 124 155 198 245 287 346
#     4  10  22  38  58  80 114 146 186 230 286 364
#     4  11  25  41  59  91 117 149 196 251 291 353
#     4  10  22  40  61  85 119 152 203 249 292 345
#     4  11  23  38  61  82 116 152 189 236 301 363
#     4  11  24  38  60  84 113 149 189 232 301 355
#
# _framework density 19.744958
#
# number of rings (size 3 to 8) (size 9 to 14) (size 15 to 20)
#    0.000    1.600    2.000    2.000    1.867    3.200 
#    0.000    0.000    0.000    0.000    0.000    0.000 
#    0.000    0.000    0.000    0.000    0.000    0.000 
#
# Total GULP energy -185960.326329 kJ/mol
# GULP energy per Si atom -12397.355089 kJ/mol
# Density = 1.970002 g / cm^3
# Si number density = 19.744958 Si / 1000 Ang^3
#
#
#
# Elastic Constant Matrix: (Units=GPa)
#
#
# Indices 1 2 3 4 5 6 
#
# 1 90.8369 33.2617 18.0593 0.0000 -6.7675 0.0000
# 2 33.2617 138.7618 45.9146 0.0000 1.4129 0.0000
# 3 18.0593 45.9146 123.4055 0.0000 -5.9161 0.0000
# 4 0.0000 0.0000 0.0000 12.9147 0.0000 0.3211
# 5 -6.7675 1.4129 -5.9161 0.0000 22.8743 0.0000
# 6 0.0000 0.0000 0.0000 0.3211 0.0000 20.8880
#
#
#
# Elastic Compliance Matrix: (Units=1/GPa)
#
#
# Indices 1 2 3 4 5 6 
#
# 1 0.012436 -0.002823 -0.000592 0.000000 0.003700 0.000000
# 2 -0.002823 0.008898 -0.003001 0.000000 -0.002161 0.000000
# 3 -0.000592 -0.003001 0.009424 0.000000 0.002448 0.000000
# 4 0.000000 0.000000 0.000000 0.077461 0.000000 -0.001191
# 5 0.003700 -0.002161 0.002448 0.000000 0.045578 0.000000
# 6 0.000000 0.000000 0.000000 -0.001191 0.000000 0.047893
#
#
# Mechanical properties :
#
#
# Convention : Reuss Voigt Hill
#
# Bulk Modulus (GPa) = 55.78560 60.83061 58.30810
# Shear Modulus (GPa) = 22.67604 28.38665 25.53135
#
# Velocity S-wave (km/s) = 3.39255 3.79577 3.59981
# Velocity P-wave (km/s) = 6.60759 7.07711 6.84638
#
# Compressibility (1/GPa) = 0.01792577
#
# Stress axis : x y z
#
# Youngs Moduli (GPa) = 80.41359 112.38154 106.11164
#
# Poissons Ratio (x) = 0.31721 0.06285
# Poissons Ratio (y) = 0.22697 0.31847
# Poissons Ratio (z) = 0.04763 0.33729
#
# Static dielectric constant tensor:
#      x y z
#    x 3.841890 0.000000 -0.024790 
#    y 0.000000 3.502400 0.000000 
#    z -0.024790 0.000000 3.550720 
# 
# 
# High freq. dielectric constant tensor:
#      x y z
#    x 1.780570 0.000000 -0.005360 
#    y 0.000000 1.773550 0.000000 
#    z -0.005360 0.000000 1.767290 
# 
# From -- ./inp_files/64019.got.cif
#   From: 2010.03.12/outbox.cif.g09.slc.cpg/sg5_33_cif.got.tgz:64019.got - 2010.03.31 09:47:26.
