data_PCOD8049010
_publ_section_title
;
Structure prediction by ZEFSAII (Michael W. Deem and Ramdas Pophale) SiO2 
 PCOD8049010
Probable space group: C 2
;
_chemical_formula_sum "Si O2"
_cell_formula_units_Z 32
_cell_length_a 23.064645
_cell_length_b 7.949017
_cell_length_c 24.976826
_cell_angle_alpha 90.000000
_cell_angle_beta 159.540000
_cell_angle_gamma 90.000000
_cell_volume 1600.703700
_symmetry_space_group_name_H-M "C 2"
_symmetry_group_IT_number 5
_symmetry_cell_setting 'monoclinic'
loop_
_space_group_symop_operation_xyz
x,y,z
-x,y,-z
1/2+x,1/2+y,z
1/2-x,1/2+y,-z
loop_
_atom_site_type_symbol
_atom_site_label
_atom_site_fract_x
_atom_site_fract_y
_atom_site_fract_z
Si Si1 0.908361 0.926990 0.259696
Si Si2 0.461391 0.797425 0.298582
Si Si3 0.800448 0.129925 0.669989
Si Si4 0.092928 0.321624 0.524801
Si Si5 0.088831 0.936866 0.521839
Si Si6 0.078336 0.528780 0.825152
Si Si7 0.299151 0.222452 0.533580
Si Si8 0.647535 0.754952 0.967257
O O1 0.943939 0.909059 0.353097
O O2 0.072180 0.871922 0.368729
O O3 0.745766 0.817843 0.104917
O O4 0.871707 0.119449 0.212815
O O5 0.466776 0.848450 0.365775
O O6 0.361878 0.935651 0.178272
O O7 0.645874 0.795775 0.433175
O O8 0.732216 0.299944 0.638395
O O9 0.755716 0.126838 0.568265
O O10 0.998127 0.128717 0.851748
O O11 0.737727 0.959441 0.644225
O O12 0.000000 0.355754 0.500000
O O13 0.161219 0.128607 0.581732
O O14 0.000000 0.900309 0.500000
O O15 0.064392 0.408938 0.863803
O O16 0.893257 0.598295 0.655993
O O17 0.218893 0.668523 0.956878
#
# Coordination Sequence:
#
# PCOD8049010 Si02
#       8
#     4   4   4   4   4   4   4   4
#     4   9  21  36  55  86 123 154 197 249 304 373
#     4  11  19  35  61  86 114 158 200 259 299 357
#     4  11  21  38  61  92 122 156 209 255 306 369
#     4  10  22  38  64  95 115 155 211 266 308 346
#     4   9  20  41  67  90 117 157 212 262 306 356
#     4  11  22  37  54  82 129 157 194 244 308 383
#     4  10  20  34  59  88 115 154 206 252 304 357
#     4  11  24  37  53  89 127 167 196 237 326 378
#
# _framework density 19.991206999999999
#
# number of rings (size 3 to 8) (size 9 to 14) (size 15 to 20)
#    0.000    1.750    2.500    1.875    3.500    1.000 
#    2.250    0.625    0.000    0.000    0.000    0.000 
#    0.000    0.000    0.000    0.000    0.000    0.000 
#
# Total GULP energy -198355.574232 kJ/mol
# GULP energy per Si atom -12397.223390 kJ/mol
# Density = 1.994571 g / cm^3
# Si number density = 19.991207 Si / 1000 Ang^3
#
#
#
# Elastic Constant Matrix: (Units=GPa)
#
#
# Indices 1 2 3 4 5 6 
#
# 1 95.3460 24.0139 36.9680 0.0013 -13.1892 0.0004
# 2 24.0139 84.7293 35.5896 -0.0046 2.1457 -0.0006
# 3 36.9680 35.5896 98.5362 -0.0034 6.9019 -0.0009
# 4 0.0013 -0.0046 -0.0034 23.5520 0.0004 -4.6002
# 5 -13.1892 2.1457 6.9019 0.0004 22.8421 0.0010
# 6 0.0004 -0.0006 -0.0009 -4.6002 0.0010 29.0849
#
#
#
# Elastic Compliance Matrix: (Units=1/GPa)
#
#
# Indices 1 2 3 4 5 6 
#
# 1 0.014528 -0.002106 -0.005406 -0.000002 0.010220 -0.000001
# 2 -0.002106 0.014219 -0.004257 0.000002 -0.001265 0.000001
# 3 -0.005406 -0.004257 0.014206 0.000002 -0.007014 0.000001
# 4 -0.000002 0.000002 0.000002 0.043813 -0.000003 0.006930
# 5 0.010220 -0.001265 -0.007014 -0.000003 0.051918 -0.000003
# 6 -0.000001 0.000001 0.000001 0.006930 -0.000003 0.035478
#
#
# Mechanical properties :
#
#
# Convention : Reuss Voigt Hill
#
# Bulk Modulus (GPa) = 51.50495 52.41718 51.96106
# Shear Modulus (GPa) = 24.48927 27.23182 25.86054
#
# Velocity S-wave (km/s) = 3.50380 3.69479 3.60056
# Velocity P-wave (km/s) = 6.49527 6.66926 6.58284
#
# Compressibility (1/GPa) = 0.01941561
#
# Stress axis : x y z
#
# Youngs Moduli (GPa) = 68.83180 70.32701 70.39489
#
# Poissons Ratio (x) = 0.14809 0.38055
# Poissons Ratio (y) = 0.14494 0.29968
# Poissons Ratio (z) = 0.37210 0.29939
#
# Static dielectric constant tensor:
#      x y z
#    x 3.456850 0.000000 -0.188260 
#    y 0.000000 4.019260 -0.000010 
#    z -0.188260 -0.000010 3.525890 
# 
# 
# High freq. dielectric constant tensor:
#      x y z
#    x 1.754230 0.000000 -0.015630 
#    y 0.000000 1.802500 0.000000 
#    z -0.015630 0.000000 1.763380 
# 
# From -- ./inp_files/30580.got.cif
#   From: 2010.03.12/outbox.cif.g09.slc.cpg/sg5_16_cif.got.tgz:30580.got - 2010.03.31 09:47:26.
