data_PCOD8049885
_publ_section_title
;
Structure prediction by ZEFSAII (Michael W. Deem and Ramdas Pophale) SiO2 
 PCOD8049885
Probable space group: C 2
;
_chemical_formula_sum "Si O2"
_cell_formula_units_Z 32
_cell_length_a 15.329077
_cell_length_b 21.377890
_cell_length_c 8.524408
_cell_angle_alpha 90.000000
_cell_angle_beta 32.201152
_cell_angle_gamma 90.000000
_cell_volume 1488.625052
_symmetry_space_group_name_H-M "C 2"
_symmetry_group_IT_number 5
_symmetry_cell_setting 'monoclinic'
loop_
_space_group_symop_operation_xyz
x,y,z
-x,y,-z
1/2+x,1/2+y,z
1/2-x,1/2+y,-z
loop_
_atom_site_type_symbol
_atom_site_label
_atom_site_fract_x
_atom_site_fract_y
_atom_site_fract_z
Si Si1 0.670442 0.465360 0.651185
Si Si2 0.450675 0.869920 0.249616
Si Si3 0.544097 0.431350 0.264683
Si Si4 0.139697 0.254529 0.402326
Si Si5 0.650256 0.203883 0.657407
Si Si6 0.387056 0.974251 0.814489
Si Si7 0.034107 0.793799 0.262689
Si Si8 0.072929 0.568783 0.716356
O O1 0.775253 0.403177 0.514190
O O2 0.609048 0.472023 0.565212
O O3 0.769103 0.525894 0.551367
O O4 0.500000 0.457562 0.000000
O O5 0.438859 0.816437 0.399177
O O6 0.589356 0.920916 0.088007
O O7 0.500000 0.845314 0.000000
O O8 0.500000 0.407922 0.500000
O O9 0.556660 0.364111 0.159331
O O10 0.705703 0.474071 0.017906
O O11 0.186933 0.210611 0.481298
O O12 0.000000 0.225321 0.500000
O O13 0.297268 0.261470 0.049683
O O14 0.626287 0.261385 0.573163
O O15 0.639221 0.138239 0.579475
O O16 0.500000 0.205895 0.000000
O O17 0.500000 0.954364 0.500000
O O18 0.432812 0.043756 0.809935
O O19 0.000000 0.787440 0.500000
O O20 0.000000 0.561790 0.000000
#
# Coordination Sequence:
#
# PCOD8049885 Si02
#       8
#     4   4   4   4   4   4   4   4
#     4  11  21  35  56  85 116 148 189 245 302 353
#     4  11  22  38  60  87 123 167 199 237 310 387
#     4  11  20  32  53  85 114 138 179 236 292 348
#     4  11  22  38  60  90 120 153 206 268 311 358
#     4   9  21  41  61  81 115 165 211 251 305 373
#     4  11  21  35  57  86 118 151 190 245 303 367
#     4  10  21  38  61  87 121 161 200 245 310 384
#     4  10  21  41  60  77 111 161 208 243 297 376
#
# _framework density 21.496348000000001
#
# number of rings (size 3 to 8) (size 9 to 14) (size 15 to 20)
#    0.000    1.500    0.000    7.875    0.000    4.500 
#    0.000    6.250    0.000    0.000    0.000    0.000 
#    0.000    0.000    0.000    0.000    0.000    0.000 
#
# Total GULP energy -198217.473583 kJ/mol
# GULP energy per Si atom -12388.592099 kJ/mol
# Density = 2.144742 g / cm^3
# Si number density = 21.496348 Si / 1000 Ang^3
#
#
#
# Elastic Constant Matrix: (Units=GPa)
#
#
# Indices 1 2 3 4 5 6 
#
# 1 123.3820 54.3151 16.4487 -0.0047 -23.2895 -0.0040
# 2 54.3151 107.1926 18.6059 -0.0002 -15.3997 -0.0001
# 3 16.4487 18.6059 70.4175 -0.0078 -4.0184 -0.0051
# 4 -0.0047 -0.0002 -0.0078 391.5480 0.0008 373.4832
# 5 -23.2895 -15.3997 -4.0184 0.0008 43.6403 0.0000
# 6 -0.0040 -0.0001 -0.0051 373.4832 0.0000 395.5606
#
#
#
# Elastic Compliance Matrix: (Units=1/GPa)
#
#
# Indices 1 2 3 4 5 6 
#
# 1 0.011181 -0.004882 -0.001085 0.000000 0.004144 0.000000
# 2 -0.004882 0.012383 -0.002042 0.000000 0.001577 0.000000
# 3 -0.001085 -0.002042 0.014999 0.000001 0.000081 -0.000001
# 4 0.000000 0.000000 0.000001 0.025700 0.000000 -0.024266
# 5 0.004144 0.001577 0.000081 0.000000 0.025690 0.000000
# 6 0.000000 0.000000 -0.000001 -0.024266 0.000000 0.025440
#
#
# Mechanical properties :
#
#
# Convention : Reuss Voigt Hill
#
# Bulk Modulus (GPa) = 44.35474 53.30351 48.82913
# Shear Modulus (GPa) = 35.99047 180.25794 108.12420
#
# Velocity S-wave (km/s) = 4.09621 9.16718 7.09986
# Velocity P-wave (km/s) = 6.56128 11.70043 9.48552
#
# Compressibility (1/GPa) = 0.02254550
#
# Stress axis : x y z
#
# Youngs Moduli (GPa) = 89.43845 80.75285 66.67258
#
# Poissons Ratio (x) = 0.39421 0.07237
# Poissons Ratio (y) = 0.43661 0.13613
# Poissons Ratio (z) = 0.09708 0.16488
#
# Static dielectric constant tensor:
#      x y z
#    x 0.580080 0.000120 -9.133540 
#    y 0.000120 4.159770 0.000280 
#    z -9.133540 0.000280 -17.056920 
# 
# 
# High freq. dielectric constant tensor:
#      x y z
#    x 1.863980 0.000000 -0.000580 
#    y 0.000000 1.809830 0.000000 
#    z -0.000580 0.000000 1.838910 
# 
# From -- ./inp_files/25569.got.cif
#   From: 2010.03.12/outbox.cif.g09.slc.cpg/sg5_13_cif.got.tgz:25569.got - 2010.03.31 09:47:26.
