data_PCOD8049182
_publ_section_title
;
Structure prediction by ZEFSAII (Michael W. Deem and Ramdas Pophale) SiO2 
 PCOD8049182
Probable space group: C 2
;
_chemical_formula_sum "Si O2"
_cell_formula_units_Z 24
_cell_length_a 15.711112
_cell_length_b 8.978938
_cell_length_c 17.836479
_cell_angle_alpha 90.000000
_cell_angle_beta 150.417348
_cell_angle_gamma 90.000000
_cell_volume 1242.182215
_symmetry_space_group_name_H-M "C 2"
_symmetry_group_IT_number 5
_symmetry_cell_setting 'monoclinic'
loop_
_space_group_symop_operation_xyz
x,y,z
-x,y,-z
1/2+x,1/2+y,z
1/2-x,1/2+y,-z
loop_
_atom_site_type_symbol
_atom_site_label
_atom_site_fract_x
_atom_site_fract_y
_atom_site_fract_z
Si Si1 0.505817 0.630790 0.825171
Si Si2 0.599904 0.065518 0.857461
Si Si3 0.998273 0.305939 0.674572
Si Si4 0.933145 0.395089 0.865786
Si Si5 0.328880 0.643934 0.323968
Si Si6 0.840765 0.817064 0.681526
O O1 0.443702 0.696083 0.698684
O O2 0.410580 0.727915 0.816554
O O3 0.446028 0.462997 0.781288
O O4 0.711795 0.638274 0.993951
O O5 0.464310 0.197110 0.736091
O O6 0.587193 0.952692 0.777447
O O7 0.558933 0.983517 0.904832
O O8 0.136403 0.215547 0.730517
O O9 0.827065 0.349855 0.497418
O O10 0.753475 0.480251 0.739501
O O11 0.000000 0.382255 0.000000
O O12 0.500000 0.617416 0.500000
O O13 0.207668 0.759351 0.273636
#
# Coordination Sequence:
#
# PCOD8049182 Si02
#       6
#     4   4   4   4   4   4
#     4  11  22  36  55  84 113 143 185 231 275 329
#     4  10  21  37  58  83 112 147 185 227 277 330
#     4  10  20  37  59  83 108 147 187 225 277 331
#     4  10  21  37  55  79 110 147 184 224 277 331
#     4   9  20  38  58  79 109 146 184 226 277 328
#     4  10  20  37  58  82 113 144 182 231 276 327
#
# _framework density 19.320836
#
# number of rings (size 3 to 8) (size 9 to 14) (size 15 to 20)
#    0.000    2.000    0.000    4.000    0.000    4.000 
#    0.000    5.000    0.000    0.000    0.000    0.000 
#    0.000    0.000    0.000    0.000    0.000    0.000 
#
# Total GULP energy -148772.671967 kJ/mol
# GULP energy per Si atom -12397.722664 kJ/mol
# Density = 1.927686 g / cm^3
# Si number density = 19.320836 Si / 1000 Ang^3
#
#
#
# Elastic Constant Matrix: (Units=GPa)
#
#
# Indices 1 2 3 4 5 6 
#
# 1 80.8765 50.0082 32.2231 0.0001 -1.8357 0.0001
# 2 50.0082 123.0586 30.3901 -0.0009 0.4956 -0.0005
# 3 32.2231 30.3901 55.5571 -0.0005 1.3364 -0.0003
# 4 0.0001 -0.0009 -0.0005 23.0482 -0.0007 1.1801
# 5 -1.8357 0.4956 1.3364 -0.0007 28.0204 -0.0004
# 6 0.0001 -0.0005 -0.0003 1.1801 -0.0004 31.2032
#
#
#
# Elastic Compliance Matrix: (Units=1/GPa)
#
#
# Indices 1 2 3 4 5 6 
#
# 1 0.019192 -0.005835 -0.007981 0.000000 0.001741 0.000000
# 2 -0.005835 0.011170 -0.002715 0.000000 -0.000450 0.000000
# 3 -0.007981 -0.002715 0.024153 0.000000 -0.001627 0.000000
# 4 0.000000 0.000000 0.000000 0.043471 0.000001 -0.001644
# 5 0.001741 -0.000450 -0.001627 0.000001 0.035888 0.000000
# 6 0.000000 0.000000 0.000000 -0.001644 0.000000 0.032110
#
#
# Mechanical properties :
#
#
# Convention : Reuss Voigt Hill
#
# Bulk Modulus (GPa) = 46.61553 53.85942 50.23747
# Shear Modulus (GPa) = 24.24861 26.24575 25.24718
#
# Velocity S-wave (km/s) = 3.54651 3.68967 3.61880
# Velocity P-wave (km/s) = 6.39920 6.78884 6.59690
#
# Compressibility (1/GPa) = 0.02145208
#
# Stress axis : x y z
#
# Youngs Moduli (GPa) = 52.10479 89.52784 41.40308
#
# Poissons Ratio (x) = 0.52241 0.33046
# Poissons Ratio (y) = 0.30404 0.11240
# Poissons Ratio (z) = 0.41587 0.24304
#
# Static dielectric constant tensor:
#      x y z
#    x 4.833020 0.000000 0.627920 
#    y 0.000000 3.722370 0.000000 
#    z 0.627920 0.000000 3.789820 
# 
# 
# High freq. dielectric constant tensor:
#      x y z
#    x 1.752300 0.000000 -0.005050 
#    y 0.000000 1.759810 0.000000 
#    z -0.005050 0.000000 1.753140 
# 
# From -- ./inp_files/22716.got.cif
#   From: 2010.03.12/outbox.cif.g09.slc.cpg/sg5_12_cif.got.tgz:22716.got - 2010.03.31 09:47:26.
