data_PCOD8049734
_publ_section_title
;
Structure prediction by ZEFSAII (Michael W. Deem and Ramdas Pophale) SiO2 
 PCOD8049734
Probable space group: C 2
;
_chemical_formula_sum "Si O2"
_cell_formula_units_Z 14
_cell_length_a 7.662121
_cell_length_b 11.520967
_cell_length_c 7.605910
_cell_angle_alpha 90.000000
_cell_angle_beta 124.904234
_cell_angle_gamma 90.000000
_cell_volume 550.631450
_symmetry_space_group_name_H-M "C 2"
_symmetry_group_IT_number 5
_symmetry_cell_setting 'monoclinic'
loop_
_space_group_symop_operation_xyz
x,y,z
-x,y,-z
1/2+x,1/2+y,z
1/2-x,1/2+y,-z
loop_
_atom_site_type_symbol
_atom_site_label
_atom_site_fract_x
_atom_site_fract_y
_atom_site_fract_z
Si Si1 0.000000 0.651500 0.000000
Si Si2 0.275064 0.489369 0.774548
Si Si3 0.659518 0.952726 0.325808
Si Si4 0.252849 0.740306 0.843193
O O1 0.864211 0.742798 0.035800
O O2 0.159188 0.570250 0.207597
O O3 0.295538 0.455410 0.583031
O O4 0.179620 0.620143 0.710962
O O5 0.089014 0.418875 0.774176
O O6 0.500000 0.475267 0.000000
O O7 0.789217 0.855173 0.293579
O O8 0.500000 0.726916 0.000000
#
# Coordination Sequence:
#
# PCOD8049734 Si02
#       4
#     2   4   4   4
#     4  10  22  44  74 106 144 186 236 302 354 424
#     4   9  21  44  75 105 144 187 240 296 359 425
#     4  10  20  45  73 105 150 182 237 306 349 427
#     4  10  21  45  73 102 143 190 238 291 359 427
#
# _framework density 25.425355
#
# number of rings (size 3 to 8) (size 9 to 14) (size 15 to 20)
#    0.000    2.286    1.429    0.000    0.000    0.000 
#   15.429   28.571    0.000    0.000    0.000    0.000 
#    0.000    0.000    0.000    0.000    0.000    0.000 
#
# Total GULP energy -86725.972520 kJ/mol
# GULP energy per Si atom -12389.424646 kJ/mol
# Density = 2.536749 g / cm^3
# Si number density = 25.425355 Si / 1000 Ang^3
#
#
#
# Elastic Constant Matrix: (Units=GPa)
#
#
# Indices 1 2 3 4 5 6 
#
# 1 184.2997 90.0221 87.7865 0.0000 -40.5192 0.0000
# 2 90.0221 109.7113 35.2804 0.0000 -20.2311 0.0000
# 3 87.7865 35.2804 181.3005 0.0000 -10.0025 0.0000
# 4 0.0000 0.0000 0.0000 21.1686 0.0000 -12.0016
# 5 -40.5192 -20.2311 -10.0025 0.0000 45.4086 0.0000
# 6 0.0000 0.0000 0.0000 -12.0016 0.0000 71.8795
#
#
#
# Elastic Compliance Matrix: (Units=1/GPa)
#
#
# Indices 1 2 3 4 5 6 
#
# 1 0.012875 -0.007882 -0.004313 0.000000 0.007027 0.000000
# 2 -0.007882 0.015308 0.000836 0.000000 -0.000029 0.000000
# 3 -0.004313 0.000836 0.007339 0.000000 -0.001859 0.000000
# 4 0.000000 0.000000 0.000000 0.052179 0.000000 0.008712
# 5 0.007027 -0.000029 -0.001859 0.000000 0.027870 0.000000
# 6 0.000000 0.000000 0.000000 0.008712 0.000000 0.015367
#
#
# Mechanical properties :
#
#
# Convention : Reuss Voigt Hill
#
# Bulk Modulus (GPa) = 78.09664 100.16550 89.13107
# Shear Modulus (GPa) = 31.66095 45.17285 38.41690
#
# Velocity S-wave (km/s) = 3.53264 4.21965 3.89133
# Velocity P-wave (km/s) = 6.88637 7.95123 7.43788
#
# Compressibility (1/GPa) = 0.01280465
#
# Stress axis : x y z
#
# Youngs Moduli (GPa) = 77.66991 65.32539 136.26425
#
# Poissons Ratio (x) = 0.51488 0.58767
# Poissons Ratio (y) = 0.61217 -0.11391
# Poissons Ratio (z) = 0.33497 -0.05461
#
# Static dielectric constant tensor:
#      x y z
#    x 4.465500 0.000000 -0.295740 
#    y 0.000000 6.168330 0.000000 
#    z -0.295740 0.000000 4.280300 
# 
# 
# High freq. dielectric constant tensor:
#      x y z
#    x 2.031030 0.000000 -0.010460 
#    y 0.000000 2.013450 0.000000 
#    z -0.010460 0.000000 2.005150 
# 
# From -- ./inp_files/14393.got.cif
#   From: 2010.03.12/outbox.cif.g09.slc.cpg/sg5_8_cif.got.tgz:14393.got - 2010.03.31 09:47:26.
