data_PCOD8049642
_publ_section_title
;
Structure prediction by ZEFSAII (Michael W. Deem and Ramdas Pophale) SiO2 
 PCOD8049642
Probable space group: C 2
;
_chemical_formula_sum "Si O2"
_cell_formula_units_Z 30
_cell_length_a 12.107239
_cell_length_b 8.279566
_cell_length_c 14.790421
_cell_angle_alpha 90.000000
_cell_angle_beta 66.697023
_cell_angle_gamma 90.000000
_cell_volume 1361.687067
_symmetry_space_group_name_H-M "C 2"
_symmetry_group_IT_number 5
_symmetry_cell_setting 'monoclinic'
loop_
_space_group_symop_operation_xyz
x,y,z
-x,y,-z
1/2+x,1/2+y,z
1/2-x,1/2+y,-z
loop_
_atom_site_type_symbol
_atom_site_label
_atom_site_fract_x
_atom_site_fract_y
_atom_site_fract_z
Si Si1 0.204089 0.919520 0.579214
Si Si2 0.058915 0.445854 0.819637
Si Si3 0.519463 0.223580 0.285609
Si Si4 0.000000 0.642545 0.000000
Si Si5 0.850544 0.291450 0.371444
Si Si6 0.346095 0.359931 0.914338
Si Si7 0.428844 0.949158 0.611690
Si Si8 0.104205 0.210131 0.036606
O O1 0.086016 0.812887 0.626489
O O2 0.258011 0.897090 0.461143
O O3 0.302461 0.866715 0.623571
O O4 0.172761 0.105316 0.604002
O O5 0.036027 0.599751 0.766405
O O6 0.161477 0.342570 0.731647
O O7 0.084811 0.522306 0.911175
O O8 0.943588 0.327310 0.868261
O O9 0.598119 0.350197 0.204033
O O10 0.599594 0.119385 0.329331
O O11 0.915214 0.753759 0.966717
O O12 0.989664 0.329220 0.354469
O O13 0.345920 0.546101 0.938698
O O14 0.211037 0.297309 0.948956
O O15 0.500000 0.000372 0.500000
O O16 0.000000 0.167123 0.000000
#
# Coordination Sequence:
#
# PCOD8049642 Si02
#       8
#     4   4   4   2   4   4   4   4
#     4  11  21  42  68  91 132 170 211 269 329 386
#     4  10  21  41  63  94 132 165 221 268 322 388
#     4  10  22  41  65  97 128 168 220 264 326 395
#     4  10  20  42  64  94 134 174 216 276 326 388
#     4  10  21  39  65  94 128 169 215 267 323 390
#     4  11  24  43  66  96 134 173 222 275 328 396
#     4   9  20  40  61  90 129 168 211 267 321 378
#     4  12  25  45  69  94 131 177 221 275 335 388
#
# _framework density 22.031493999999999
#
# number of rings (size 3 to 8) (size 9 to 14) (size 15 to 20)
#    0.000    1.600    1.333    4.800    0.000    2.133 
#    9.600   10.000    0.000    0.000    0.000    0.000 
#    0.000    0.000    0.000    0.000    0.000    0.000 
#
# Total GULP energy -185884.977733 kJ/mol
# GULP energy per Si atom -12392.331849 kJ/mol
# Density = 2.198135 g / cm^3
# Si number density = 22.031494 Si / 1000 Ang^3
#
#
#
# Elastic Constant Matrix: (Units=GPa)
#
#
# Indices 1 2 3 4 5 6 
#
# 1 57.5125 1.4741 14.1712 0.0000 -12.7756 0.0000
# 2 1.4741 101.0854 23.5630 0.0000 -12.7419 0.0000
# 3 14.1712 23.5630 126.6557 0.0000 -12.9181 0.0000
# 4 0.0000 0.0000 0.0000 36.3437 0.0000 -4.2486
# 5 -12.7756 -12.7419 -12.9181 0.0000 31.6202 0.0000
# 6 0.0000 0.0000 0.0000 -4.2486 0.0000 27.9734
#
#
#
# Elastic Compliance Matrix: (Units=1/GPa)
#
#
# Indices 1 2 3 4 5 6 
#
# 1 0.019448 0.001049 -0.001593 0.000000 0.007630 0.000000
# 2 0.001049 0.010789 -0.001709 0.000000 0.004073 0.000000
# 3 -0.001593 -0.001709 0.008615 0.000000 0.002187 0.000000
# 4 0.000000 0.000000 0.000000 0.028012 0.000000 0.004255
# 5 0.007630 0.004073 0.002187 0.000000 0.037243 0.000000
# 6 0.000000 0.000000 0.000000 0.004255 0.000000 0.036394
#
#
# Mechanical properties :
#
#
# Convention : Reuss Voigt Hill
#
# Bulk Modulus (GPa) = 29.11517 40.40781 34.76149
# Shear Modulus (GPa) = 31.95786 35.59048 33.77417
#
# Velocity S-wave (km/s) = 3.81275 4.02361 3.91960
# Velocity P-wave (km/s) = 5.71197 6.32192 6.02467
#
# Compressibility (1/GPa) = 0.03434635
#
# Stress axis : x y z
#
# Youngs Moduli (GPa) = 51.41916 92.68540 116.08065
#
# Poissons Ratio (x) = -0.09727 0.18492
# Poissons Ratio (y) = -0.05396 0.19840
# Poissons Ratio (z) = 0.08191 0.15842
#
# Static dielectric constant tensor:
#      x y z
#    x 3.972370 0.000000 0.233870 
#    y 0.000000 4.107360 0.000000 
#    z 0.233870 0.000000 4.971990 
# 
# 
# High freq. dielectric constant tensor:
#      x y z
#    x 1.843040 0.000000 0.002650 
#    y 0.000000 1.877210 0.000000 
#    z 0.002650 0.000000 1.883750 
# 
# From -- ./inp_files/52394.got.cif
#   From: 2010.03.12/outbox.cif.g09.slc.cpg/sg5_27_cif.got.tgz:52394.got - 2010.03.31 09:47:26.
