data_PCOD8049121
_publ_section_title
;
Structure prediction by ZEFSAII (Michael W. Deem and Ramdas Pophale) SiO2 
 PCOD8049121
Probable space group: C 2
;
_chemical_formula_sum "Si O2"
_cell_formula_units_Z 28
_cell_length_a 21.855808
_cell_length_b 5.123510
_cell_length_c 13.245563
_cell_angle_alpha 90.000000
_cell_angle_beta 68.831529
_cell_angle_gamma 90.000000
_cell_volume 1383.134040
_symmetry_space_group_name_H-M "C 2"
_symmetry_group_IT_number 5
_symmetry_cell_setting 'monoclinic'
loop_
_space_group_symop_operation_xyz
x,y,z
-x,y,-z
1/2+x,1/2+y,z
1/2-x,1/2+y,-z
loop_
_atom_site_type_symbol
_atom_site_label
_atom_site_fract_x
_atom_site_fract_y
_atom_site_fract_z
Si Si1 0.387617 0.457760 0.808994
Si Si2 0.396902 0.852862 0.633975
Si Si3 0.285827 0.563465 0.019452
Si Si4 0.081033 0.160176 0.599351
Si Si5 0.277281 0.176087 0.747995
Si Si6 0.224880 0.266116 0.567987
Si Si7 0.502109 0.149824 0.326342
O O1 0.416721 0.690051 0.722828
O O2 0.324194 0.360256 0.785101
O O3 0.445617 0.244457 0.791139
O O4 0.361318 0.539469 0.935608
O O5 0.409720 0.696431 0.525273
O O6 0.320733 0.933015 0.682892
O O7 0.448827 0.095685 0.606628
O O8 0.282695 0.588820 0.143171
O O9 0.256528 0.811515 0.980816
O O10 0.150769 0.161722 0.612971
O O11 0.037127 0.385882 0.677275
O O12 0.050684 0.874528 0.625252
O O13 0.247367 0.321568 0.669265
O O14 0.229454 0.540958 0.507334
#
# Coordination Sequence:
#
# PCOD8049121 Si02
#       7
#     4   4   4   4   4   4   4
#     4  10  21  38  62  91 123 150 196 255 301 355
#     4  11  21  37  60  86 125 150 194 245 302 353
#     4  10  20  36  60  93 121 151 193 252 310 353
#     4  12  25  38  57  87 122 160 199 235 289 365
#     4  10  22  38  63  93 121 159 197 245 306 356
#     4  12  25  43  61  86 126 166 199 241 289 361
#     4  11  25  37  57  88 117 160 198 241 298 350
#
# _framework density 20.243877999999999
#
# number of rings (size 3 to 8) (size 9 to 14) (size 15 to 20)
#    0.000    1.143    4.286    2.143    6.000    0.000 
#    0.000    0.000    0.000    0.857    3.714    0.000 
#    0.000    0.000    0.000    0.000    0.000    0.000 
#
# Total GULP energy -173497.117003 kJ/mol
# GULP energy per Si atom -12392.651214 kJ/mol
# Density = 2.019780 g / cm^3
# Si number density = 20.243878 Si / 1000 Ang^3
#
#
#
# Elastic Constant Matrix: (Units=GPa)
#
#
# Indices 1 2 3 4 5 6 
#
# 1 84.0272 9.3990 30.0909 0.0000 -12.9002 0.0000
# 2 9.3990 82.7530 17.3941 0.0000 -7.9105 0.0000
# 3 30.0909 17.3941 95.2536 0.0000 -15.3309 0.0000
# 4 0.0000 0.0000 0.0000 22.1748 0.0000 -11.0358
# 5 -12.9002 -7.9105 -15.3309 0.0000 24.7153 0.0000
# 6 0.0000 0.0000 0.0000 -11.0358 0.0000 32.4237
#
#
#
# Elastic Compliance Matrix: (Units=1/GPa)
#
#
# Indices 1 2 3 4 5 6 
#
# 1 0.013976 -0.000366 -0.003547 0.000000 0.004977 0.000000
# 2 -0.000366 0.012764 -0.001765 0.000000 0.002800 0.000000
# 3 -0.003547 -0.001765 0.012833 0.000000 0.005544 0.000000
# 4 0.000000 0.000000 0.000000 0.054293 0.000000 0.018479
# 5 0.004977 0.002800 0.005544 0.000000 0.047394 0.000000
# 6 0.000000 0.000000 0.000000 0.018479 0.000000 0.037131
#
#
# Mechanical properties :
#
#
# Convention : Reuss Voigt Hill
#
# Bulk Modulus (GPa) = 35.43793 41.75574 38.59684
# Shear Modulus (GPa) = 25.10623 29.53943 27.32283
#
# Velocity S-wave (km/s) = 3.52545 3.82406 3.67779
# Velocity P-wave (km/s) = 5.84083 6.33791 6.09444
#
# Compressibility (1/GPa) = 0.02821835
#
# Stress axis : x y z
#
# Youngs Moduli (GPa) = 71.54974 78.34364 77.92142
#
# Poissons Ratio (x) = 0.02868 0.27640
# Poissons Ratio (y) = 0.02619 0.13750
# Poissons Ratio (z) = 0.25380 0.13825
#
# Static dielectric constant tensor:
#      x y z
#    x 3.613560 0.000000 -0.461130 
#    y 0.000000 3.798950 0.000000 
#    z -0.461130 0.000000 3.849100 
# 
# 
# High freq. dielectric constant tensor:
#      x y z
#    x 1.766890 0.000000 -0.039330 
#    y 0.000000 1.806660 0.000000 
#    z -0.039330 0.000000 1.771240 
# 
# From -- ./inp_files/45637.got.cif
#   From: 2010.03.12/outbox.cif.g09.slc.cpg/sg5_23_cif.got.tgz:45637.got - 2010.03.31 09:47:26.
