data_PCOD8049870
_publ_section_title
;
Structure prediction by ZEFSAII (Michael W. Deem and Ramdas Pophale) SiO2 
 PCOD8049870
Probable space group: C 2
;
_chemical_formula_sum "Si O2"
_cell_formula_units_Z 32
_cell_length_a 15.141612
_cell_length_b 9.164460
_cell_length_c 11.747464
_cell_angle_alpha 90.000000
_cell_angle_beta 102.669997
_cell_angle_gamma 90.000000
_cell_volume 1590.438781
_symmetry_space_group_name_H-M "C 2"
_symmetry_group_IT_number 5
_symmetry_cell_setting 'monoclinic'
loop_
_space_group_symop_operation_xyz
x,y,z
-x,y,-z
1/2+x,1/2+y,z
1/2-x,1/2+y,-z
loop_
_atom_site_type_symbol
_atom_site_label
_atom_site_fract_x
_atom_site_fract_y
_atom_site_fract_z
Si Si1 0.596611 0.723990 0.274911
Si Si2 0.154984 0.398085 0.079059
Si Si3 0.226320 0.558368 0.689443
Si Si4 0.402250 0.215618 0.007992
Si Si5 0.843446 0.835344 0.227021
Si Si6 0.901147 0.364252 0.492599
Si Si7 0.593257 0.630821 0.691026
Si Si8 0.778892 0.318249 0.134132
O O1 0.596983 0.807083 0.153974
O O2 0.666642 0.587300 0.300909
O O3 0.620240 0.840237 0.380991
O O4 0.495241 0.669726 0.262074
O O5 0.106270 0.546453 0.028807
O O6 0.255323 0.421765 0.157128
O O7 0.165530 0.304580 0.967148
O O8 0.180966 0.716892 0.684491
O O9 0.179605 0.466938 0.575317
O O10 0.209575 0.475912 0.803923
O O11 0.327856 0.301944 0.914888
O O12 0.500000 0.274432 0.000000
O O13 0.393723 0.250524 0.139367
O O14 0.903868 0.955118 0.309978
O O15 0.907102 0.204502 0.433721
O O16 0.000000 0.439849 0.500000
O O17 0.683198 0.690973 0.776531
#
# Coordination Sequence:
#
# PCOD8049870 Si02
#       8
#     4   4   4   4   4   4   4   4
#     4  10  23  37  64  93 117 158 208 254 301 367
#     4  10  21  38  58  85 123 157 204 238 303 366
#     4  10  21  40  65  83 123 155 206 250 302 364
#     4  11  23  34  56  87 126 153 201 249 291 359
#     4  10  21  39  58  89 118 161 195 248 310 353
#     4   9  21  43  63  85 117 162 203 246 308 370
#     4  10  21  40  65  84 123 159 204 247 305 366
#     4  10  21  40  57  85 118 171 188 244 304 362
#
# _framework density 20.120234
#
# number of rings (size 3 to 8) (size 9 to 14) (size 15 to 20)
#    0.000    2.000    2.500    0.000    3.500    3.000 
#    0.000    3.125    0.000    0.000    0.000    0.000 
#    0.000    0.000    0.000    0.000    0.000    0.000 
#
# Total GULP energy -198326.626876 kJ/mol
# GULP energy per Si atom -12395.414180 kJ/mol
# Density = 2.007444 g / cm^3
# Si number density = 20.120234 Si / 1000 Ang^3
#
#
#
# Elastic Constant Matrix: (Units=GPa)
#
#
# Indices 1 2 3 4 5 6 
#
# 1 85.9358 28.8733 22.8797 0.0000 -7.4898 0.0000
# 2 28.8733 95.8205 20.3090 0.0000 3.8050 0.0000
# 3 22.8797 20.3090 68.0055 0.0000 -4.3414 0.0000
# 4 0.0000 0.0000 0.0000 27.3114 0.0000 8.6942
# 5 -7.4898 3.8050 -4.3414 0.0000 28.3701 0.0000
# 6 0.0000 0.0000 0.0000 8.6942 0.0000 28.8141
#
#
#
# Elastic Compliance Matrix: (Units=1/GPa)
#
#
# Indices 1 2 3 4 5 6 
#
# 1 0.014101 -0.003672 -0.003412 0.000000 0.003693 0.000000
# 2 -0.003672 0.012214 -0.002604 0.000000 -0.003006 0.000000
# 3 -0.003412 -0.002604 0.016759 0.000000 0.002013 0.000000
# 4 0.000000 0.000000 0.000000 0.040506 0.000000 -0.012222
# 5 0.003693 -0.003006 0.002013 0.000000 0.036935 0.000000
# 6 0.000000 0.000000 0.000000 -0.012222 0.000000 0.038393
#
#
# Mechanical properties :
#
#
# Convention : Reuss Voigt Hill
#
# Bulk Modulus (GPa) = 42.19855 43.76508 42.98182
# Shear Modulus (GPa) = 26.85551 28.74576 27.80064
#
# Velocity S-wave (km/s) = 3.65739 3.78391 3.72119
# Velocity P-wave (km/s) = 6.23330 6.39450 6.31442
#
# Compressibility (1/GPa) = 0.02369750
#
# Stress axis : x y z
#
# Youngs Moduli (GPa) = 70.91868 81.87273 59.67080
#
# Poissons Ratio (x) = 0.30068 0.20357
# Poissons Ratio (y) = 0.26045 0.15538
# Poissons Ratio (z) = 0.24194 0.21319
#
# Static dielectric constant tensor:
#      x y z
#    x 3.686630 0.000000 0.025400 
#    y 0.000000 3.551720 0.000000 
#    z 0.025400 0.000000 3.579860 
# 
# 
# High freq. dielectric constant tensor:
#      x y z
#    x 1.787470 0.000000 0.000550 
#    y 0.000000 1.774790 0.000000 
#    z 0.000550 0.000000 1.780300 
# 
# From -- ./inp_files/41981.got.cif
#   From: 2010.03.12/outbox.cif.g09.slc.cpg/sg5_21_cif.got.tgz:41981.got - 2010.03.31 09:47:26.
