data_PCOD8049200
_publ_section_title
;
Structure prediction by ZEFSAII (Michael W. Deem and Ramdas Pophale) SiO2 
 PCOD8049200
Probable space group: C 2
;
_chemical_formula_sum "Si O2"
_cell_formula_units_Z 28
_cell_length_a 9.036971
_cell_length_b 9.351733
_cell_length_c 24.434849
_cell_angle_alpha 90.000000
_cell_angle_beta 140.429219
_cell_angle_gamma 90.000000
_cell_volume 1315.482859
_symmetry_space_group_name_H-M "C 2"
_symmetry_group_IT_number 5
_symmetry_cell_setting 'monoclinic'
loop_
_space_group_symop_operation_xyz
x,y,z
-x,y,-z
1/2+x,1/2+y,z
1/2-x,1/2+y,-z
loop_
_atom_site_type_symbol
_atom_site_label
_atom_site_fract_x
_atom_site_fract_y
_atom_site_fract_z
Si Si1 0.732367 0.147800 0.319960
Si Si2 0.972841 0.881981 0.930512
Si Si3 0.855049 0.457852 0.375271
Si Si4 0.110667 0.709683 0.685468
Si Si5 0.155129 0.954255 0.437822
Si Si6 0.022358 0.436735 0.178526
Si Si7 0.621124 0.059016 0.977173
O O1 0.771454 0.315085 0.321186
O O2 0.555262 0.129057 0.319259
O O3 0.632531 0.079205 0.236009
O O4 0.974584 0.074293 0.406049
O O5 0.088708 0.726102 0.953037
O O6 0.693579 0.887856 0.843758
O O7 0.000000 0.930009 0.000000
O O8 0.111004 0.006586 0.936573
O O9 0.760414 0.585403 0.310815
O O10 0.740330 0.483606 0.400856
O O11 0.134654 0.454101 0.459426
O O12 0.295062 0.807791 0.769360
O O13 0.967773 0.799552 0.599136
O O14 0.972349 0.464790 0.100311
O O15 0.500000 0.022485 0.000000
#
# Coordination Sequence:
#
# PCOD8049200 Si02
#       7
#     4   4   4   4   4   4   4
#     4  10  22  37  57  87 120 160 200 244 301 349
#     4   9  21  40  61  87 116 147 189 239 291 352
#     4  10  20  37  60  84 116 159 205 248 294 348
#     4  10  22  38  57  86 121 158 200 243 296 351
#     4   9  20  38  57  83 119 156 203 256 293 341
#     4  10  23  41  58  87 128 155 188 245 297 354
#     4  10  22  41  65  88 112 151 198 239 292 355
#
# _framework density 21.284960000000002
#
# number of rings (size 3 to 8) (size 9 to 14) (size 15 to 20)
#    0.000    2.286    0.000    0.857    0.000   14.857 
#    0.000    0.000    0.000    0.000    0.000    0.000 
#    0.000    0.000    0.000    0.000    0.000    0.000 
#
# Total GULP energy -173526.492009 kJ/mol
# GULP energy per Si atom -12394.749429 kJ/mol
# Density = 2.123651 g / cm^3
# Si number density = 21.284960 Si / 1000 Ang^3
#
#
#
# Elastic Constant Matrix: (Units=GPa)
#
#
# Indices 1 2 3 4 5 6 
#
# 1 89.1146 69.5193 37.1403 0.0000 18.7683 0.0000
# 2 69.5193 120.5256 37.5762 0.0000 0.0317 0.0000
# 3 37.1403 37.5762 78.5005 0.0000 11.3954 0.0000
# 4 0.0000 0.0000 0.0000 24.1075 0.0000 6.6989
# 5 18.7683 0.0317 11.3954 0.0000 35.6365 0.0000
# 6 0.0000 0.0000 0.0000 6.6989 0.0000 37.1947
#
#
#
# Elastic Compliance Matrix: (Units=1/GPa)
#
#
# Indices 1 2 3 4 5 6 
#
# 1 0.026505 -0.014045 -0.003977 0.000000 -0.012675 0.000000
# 2 -0.014045 0.017278 -0.002828 0.000000 0.008286 0.000000
# 3 -0.003977 -0.002828 0.016433 0.000000 -0.003157 0.000000
# 4 0.000000 0.000000 0.000000 0.043666 0.000000 -0.007864
# 5 -0.012675 0.008286 -0.003157 0.000000 0.035739 0.000000
# 6 0.000000 0.000000 0.000000 -0.007864 0.000000 0.028302
#
#
# Mechanical properties :
#
#
# Convention : Reuss Voigt Hill
#
# Bulk Modulus (GPa) = 54.01134 64.06803 59.03969
# Shear Modulus (GPa) = 23.17018 28.98141 26.07580
#
# Velocity S-wave (km/s) = 3.30293 3.69398 3.50391
# Velocity P-wave (km/s) = 6.32268 6.95410 6.64589
#
# Compressibility (1/GPa) = 0.01851463
#
# Stress axis : x y z
#
# Youngs Moduli (GPa) = 37.72861 57.87829 60.85431
#
# Poissons Ratio (x) = 0.81289 0.24204
# Poissons Ratio (y) = 0.52989 0.17211
# Poissons Ratio (z) = 0.15006 0.16369
#
# Static dielectric constant tensor:
#      x y z
#    x 4.006480 0.000000 0.471820 
#    y 0.000000 3.844510 0.000000 
#    z 0.471820 0.000000 4.007610 
# 
# 
# High freq. dielectric constant tensor:
#      x y z
#    x 1.833260 0.000000 0.017400 
#    y 0.000000 1.839520 0.000000 
#    z 0.017400 0.000000 1.827710 
# 
# From -- ./inp_files/59367.got.cif
#   From: 2010.03.12/outbox.cif.g09.slc.cpg/sg5_30_cif.got.tgz:59367.got - 2010.03.31 09:47:26.
