data_PCOD8049547
_publ_section_title
;
Structure prediction by ZEFSAII (Michael W. Deem and Ramdas Pophale) SiO2 
 PCOD8049547
Probable space group: C 2
;
_chemical_formula_sum "Si O2"
_cell_formula_units_Z 30
_cell_length_a 19.841947
_cell_length_b 10.646825
_cell_length_c 8.149582
_cell_angle_alpha 90.000000
_cell_angle_beta 61.360912
_cell_angle_gamma 90.000000
_cell_volume 1510.998942
_symmetry_space_group_name_H-M "C 2"
_symmetry_group_IT_number 5
_symmetry_cell_setting 'monoclinic'
loop_
_space_group_symop_operation_xyz
x,y,z
-x,y,-z
1/2+x,1/2+y,z
1/2-x,1/2+y,-z
loop_
_atom_site_type_symbol
_atom_site_label
_atom_site_fract_x
_atom_site_fract_y
_atom_site_fract_z
Si Si1 0.773465 0.375000 0.181382
Si Si2 0.230749 0.129201 0.380587
Si Si3 0.142812 0.986011 0.755135
Si Si4 0.919415 0.519214 0.512611
Si Si5 0.782357 0.375544 0.795096
Si Si6 0.567529 0.863956 0.822753
Si Si7 0.649394 0.249501 0.548397
Si Si8 0.500000 0.627738 0.000000
O O1 0.745342 0.517786 0.235596
O O2 0.859111 0.349076 0.144824
O O3 0.717469 0.285207 0.346572
O O4 0.765643 0.338371 0.000926
O O5 0.194821 0.249354 0.330132
O O6 0.314581 0.161299 0.353536
O O7 0.174286 0.091902 0.594776
O O8 0.208721 0.940165 0.799654
O O9 0.111381 0.870997 0.678756
O O10 0.073364 0.038488 0.949485
O O11 0.851875 0.475694 0.713174
O O12 0.907386 0.435059 0.367163
O O13 0.913704 0.667173 0.475186
O O14 0.000000 0.491323 0.500000
O O15 0.500000 0.939934 0.000000
O O16 0.529407 0.725508 0.823321
#
# Coordination Sequence:
#
# PCOD8049547 Si02
#       8
#     4   4   4   4   4   4   4   2
#     4  11  22  40  64  96 121 158 213 260 308 369
#     4  10  20  40  68  85 123 160 205 253 309 375
#     4  10  20  42  64  90 119 169 204 247 315 372
#     4  12  23  42  61  92 127 164 207 256 312 371
#     4  11  24  37  67  96 120 160 213 257 310 368
#     4  10  22  39  64  89 123 163 205 256 314 360
#     4  10  21  40  64  85 123 165 202 247 315 374
#     4  10  22  38  66  84 124 156 204 256 296 370
#
# _framework density 19.854414999999999
#
# number of rings (size 3 to 8) (size 9 to 14) (size 15 to 20)
#    0.400    1.067    2.667    4.000    1.867    0.000 
#    3.600    0.000    0.000    0.000    0.000    0.000 
#    0.000    0.000    0.000    0.000    0.000    0.000 
#
# Total GULP energy -185903.140585 kJ/mol
# GULP energy per Si atom -12393.542706 kJ/mol
# Density = 1.980923 g / cm^3
# Si number density = 19.854415 Si / 1000 Ang^3
#
#
#
# Elastic Constant Matrix: (Units=GPa)
#
#
# Indices 1 2 3 4 5 6 
#
# 1 98.3308 44.7408 43.3580 0.0000 -2.7469 0.0000
# 2 44.7408 106.8377 29.6695 0.0000 -3.9987 0.0000
# 3 43.3580 29.6695 75.6952 0.0000 1.5533 0.0000
# 4 0.0000 0.0000 0.0000 19.1841 0.0000 -2.8403
# 5 -2.7469 -3.9987 1.5533 0.0000 35.4713 0.0000
# 6 0.0000 0.0000 0.0000 -2.8403 0.0000 27.1508
#
#
#
# Elastic Compliance Matrix: (Units=1/GPa)
#
#
# Indices 1 2 3 4 5 6 
#
# 1 0.015323 -0.004417 -0.007066 0.000000 0.000998 0.000000
# 2 -0.004417 0.011843 -0.002134 0.000000 0.001086 0.000000
# 3 -0.007066 -0.002134 0.018127 0.000000 -0.001582 0.000000
# 4 0.000000 0.000000 0.000000 0.052947 0.000000 0.005539
# 5 0.000998 0.001086 -0.001582 0.000000 0.028461 0.000000
# 6 0.000000 0.000000 0.000000 0.005539 0.000000 0.037411
#
#
# Mechanical properties :
#
#
# Convention : Reuss Voigt Hill
#
# Bulk Modulus (GPa) = 55.37556 57.37781 56.37668
# Shear Modulus (GPa) = 25.33356 27.23428 26.28392
#
# Velocity S-wave (km/s) = 3.57594 3.70766 3.64240
# Velocity P-wave (km/s) = 6.70829 6.87685 6.79309
#
# Compressibility (1/GPa) = 0.01805851
#
# Stress axis : x y z
#
# Youngs Moduli (GPa) = 65.26015 84.43688 55.16536
#
# Poissons Ratio (x) = 0.37298 0.38981
# Poissons Ratio (y) = 0.28827 0.11773
# Poissons Ratio (z) = 0.46114 0.18020
#
# Static dielectric constant tensor:
#      x y z
#    x 3.373140 0.000000 -0.062530 
#    y 0.000000 3.807860 0.000000 
#    z -0.062530 0.000000 3.579720 
# 
# 
# High freq. dielectric constant tensor:
#      x y z
#    x 1.752170 0.000000 -0.010570 
#    y 0.000000 1.788140 0.000000 
#    z -0.010570 0.000000 1.768260 
# 
# From -- ./inp_files/27389.got.cif
#   From: 2010.03.12/outbox.cif.g09.slc.cpg/sg5_14_cif.got.tgz:27389.got - 2010.03.31 09:47:26.
