data_PCOD8049159
_publ_section_title
;
Structure prediction by ZEFSAII (Michael W. Deem and Ramdas Pophale) SiO2 
 PCOD8049159
Probable space group: C 2
;
_chemical_formula_sum "Si O2"
_cell_formula_units_Z 28
_cell_length_a 21.019179
_cell_length_b 6.436160
_cell_length_c 19.812784
_cell_angle_alpha 90.000000
_cell_angle_beta 152.082916
_cell_angle_gamma 90.000000
_cell_volume 1254.912043
_symmetry_space_group_name_H-M "C 2"
_symmetry_group_IT_number 5
_symmetry_cell_setting 'monoclinic'
loop_
_space_group_symop_operation_xyz
x,y,z
-x,y,-z
1/2+x,1/2+y,z
1/2-x,1/2+y,-z
loop_
_atom_site_type_symbol
_atom_site_label
_atom_site_fract_x
_atom_site_fract_y
_atom_site_fract_z
Si Si1 0.316439 0.280380 0.896024
Si Si2 0.710042 0.644931 0.658572
Si Si3 0.500000 0.313954 0.500000
Si Si4 0.141430 0.544353 0.826678
Si Si5 0.849800 0.397171 0.016246
Si Si6 0.106905 0.534063 0.487984
Si Si7 0.631939 0.784792 0.239784
Si Si8 0.500000 0.575351 0.000000
O O1 0.273628 0.280804 0.777443
O O2 0.197701 0.356038 0.834090
O O3 0.440467 0.442759 0.007446
O O4 0.365382 0.058499 0.969106
O O5 0.629037 0.463312 0.620945
O O6 0.820059 0.526167 0.715061
O O7 0.621427 0.797170 0.528009
O O8 0.505668 0.163947 0.441069
O O9 0.171625 0.512220 0.933366
O O10 0.977760 0.545368 0.661510
O O11 0.219116 0.754856 0.878659
O O12 0.990964 0.267285 0.149339
O O13 0.254878 0.638674 0.618345
O O14 0.612627 0.716893 0.143140
#
# Coordination Sequence:
#
# PCOD8049159 Si02
#       8
#     4   4   2   4   4   4   4   2
#     4  12  23  40  72 100 138 180 231 289 354 414
#     4  11  22  40  67 107 137 182 223 292 368 416
#     4  10  20  36  66 100 140 172 220 290 358 418
#     4  12  26  47  70  98 138 191 242 293 336 422
#     4  12  26  49  69 100 137 193 248 283 344 420
#     4  11  24  43  66 103 144 179 233 295 357 414
#     4  11  25  44  67 106 143 180 232 288 360 423
#     4  12  22  42  70 108 144 178 224 300 356 422
#
# _framework density 22.31232
#
# number of rings (size 3 to 8) (size 9 to 14) (size 15 to 20)
#    0.000    0.571    4.286    4.714    2.000    1.143 
#    2.571    0.000    0.000    0.000    0.000    0.000 
#    0.000    0.000    0.000    0.000    0.000    0.000 
#
# Total GULP energy -173591.923494 kJ/mol
# GULP energy per Si atom -12399.423107 kJ/mol
# Density = 2.226154 g / cm^3
# Si number density = 22.312320 Si / 1000 Ang^3
#
#
#
# Elastic Constant Matrix: (Units=GPa)
#
#
# Indices 1 2 3 4 5 6 
#
# 1 62.5296 22.7084 22.2338 0.0000 9.4450 0.0000
# 2 22.7084 114.2520 45.0752 -0.0003 6.1812 -0.0001
# 3 22.2338 45.0752 132.8253 0.0000 10.5103 0.0000
# 4 0.0000 -0.0003 0.0000 28.7136 0.0000 -0.3990
# 5 9.4450 6.1812 10.5103 0.0000 30.5063 0.0000
# 6 0.0000 -0.0001 0.0000 -0.3990 0.0000 34.1974
#
#
#
# Elastic Compliance Matrix: (Units=1/GPa)
#
#
# Indices 1 2 3 4 5 6 
#
# 1 0.018284 -0.002683 -0.001794 0.000000 -0.004499 0.000000
# 2 -0.002683 0.010523 -0.003104 0.000000 -0.000232 0.000000
# 3 -0.001794 -0.003104 0.009035 0.000000 -0.001928 0.000000
# 4 0.000000 0.000000 0.000000 0.034832 0.000000 0.000406
# 5 -0.004499 -0.000232 -0.001928 0.000000 0.034885 0.000000
# 6 0.000000 0.000000 0.000000 0.000406 0.000000 0.029247
#
#
# Mechanical properties :
#
#
# Convention : Reuss Voigt Hill
#
# Bulk Modulus (GPa) = 44.09019 54.40462 49.24741
# Shear Modulus (GPa) = 31.34268 33.32277 32.33273
#
# Velocity S-wave (km/s) = 3.75203 3.86874 3.81083
# Velocity P-wave (km/s) = 6.21077 6.66276 6.44073
#
# Compressibility (1/GPa) = 0.02268078
#
# Stress axis : x y z
#
# Youngs Moduli (GPa) = 54.69176 95.03169 110.68303
#
# Poissons Ratio (x) = 0.25496 0.19858
# Poissons Ratio (y) = 0.14673 0.34351
# Poissons Ratio (z) = 0.09813 0.29493
#
# Static dielectric constant tensor:
#      x y z
#    x 3.752730 0.000000 0.159660 
#    y 0.000000 4.204910 0.000000 
#    z 0.159660 0.000000 3.920620 
# 
# 
# High freq. dielectric constant tensor:
#      x y z
#    x 1.855140 0.000000 0.016740 
#    y 0.000000 1.892470 0.000000 
#    z 0.016740 0.000000 1.878530 
# 
# From -- ./inp_files/67257.got.cif
#   From: 2010.03.12/outbox.cif.g09.slc.cpg/sg5_34_cif.got.tgz:67257.got - 2010.03.31 09:47:26.
