data_PCOD8049098
_publ_section_title
;
Structure prediction by ZEFSAII (Michael W. Deem and Ramdas Pophale) SiO2 
 PCOD8049098
Probable space group: C 2
;
_chemical_formula_sum "Si O2"
_cell_formula_units_Z 28
_cell_length_a 20.759587
_cell_length_b 8.393083
_cell_length_c 13.182325
_cell_angle_alpha 90.000000
_cell_angle_beta 33.916189
_cell_angle_gamma 90.000000
_cell_volume 1281.594306
_symmetry_space_group_name_H-M "C 2"
_symmetry_group_IT_number 5
_symmetry_cell_setting 'monoclinic'
loop_
_space_group_symop_operation_xyz
x,y,z
-x,y,-z
1/2+x,1/2+y,z
1/2-x,1/2+y,-z
loop_
_atom_site_type_symbol
_atom_site_label
_atom_site_fract_x
_atom_site_fract_y
_atom_site_fract_z
Si Si1 0.646596 0.588930 0.484204
Si Si2 0.008899 0.890163 0.165319
Si Si3 0.906433 0.187406 0.037781
Si Si4 0.091058 0.589279 0.798392
Si Si5 0.431286 0.181413 0.737265
Si Si6 0.990411 0.379211 0.272049
Si Si7 0.660247 0.292739 0.346100
O O1 0.588260 0.498607 0.654653
O O2 0.782335 0.599833 0.322045
O O3 0.587910 0.764487 0.552946
O O4 0.631978 0.481531 0.400666
O O5 0.090276 0.794674 0.137788
O O6 0.943507 0.769405 0.178589
O O7 0.091319 0.998564 0.987344
O O8 0.780884 0.242882 0.240819
O O9 0.000000 0.234601 0.000000
O O10 0.926044 0.273535 0.905378
O O11 0.090652 0.484297 0.696322
O O12 0.000000 0.517867 0.000000
O O13 0.563449 0.193211 0.529623
O O14 0.341465 0.241854 0.769826
O O15 0.423322 0.993703 0.775789
#
# Coordination Sequence:
#
# PCOD8049098 Si02
#       7
#     4   4   4   4   4   4   4
#     4  10  20  36  58  84 115 160 199 244 302 353
#     4   9  21  37  56  81 118 159 197 238 293 358
#     4  11  22  37  58  88 120 154 195 243 295 348
#     4  11  20  33  55  88 125 155 193 243 295 353
#     4   9  21  41  59  82 115 157 199 242 298 352
#     4  10  21  36  56  85 118 152 197 242 296 359
#     4  10  21  40  62  82 116 155 197 249 295 351
#
# _framework density 21.847785999999999
#
# number of rings (size 3 to 8) (size 9 to 14) (size 15 to 20)
#    0.000    2.000    0.000    3.429    0.000    9.143 
#    0.000    8.571    0.000    0.000    0.000    0.000 
#    0.000    0.000    0.000    0.000    0.000    0.000 
#
# Total GULP energy -173532.980639 kJ/mol
# GULP energy per Si atom -12395.212903 kJ/mol
# Density = 2.179806 g / cm^3
# Si number density = 21.847786 Si / 1000 Ang^3
#
#
#
# Elastic Constant Matrix: (Units=GPa)
#
#
# Indices 1 2 3 4 5 6 
#
# 1 100.4036 47.7087 19.3348 0.0000 -0.8133 0.0000
# 2 47.7087 156.7852 26.2506 -0.0001 7.3970 0.0000
# 3 19.3348 26.2506 64.2882 0.0000 -11.5083 0.0000
# 4 0.0000 -0.0001 0.0000 32.1279 0.0000 9.9055
# 5 -0.8133 7.3970 -11.5083 0.0000 25.8186 0.0000
# 6 0.0000 0.0000 0.0000 9.9055 0.0000 31.7081
#
#
#
# Elastic Compliance Matrix: (Units=1/GPa)
#
#
# Indices 1 2 3 4 5 6 
#
# 1 0.011945 -0.003284 -0.002190 0.000000 0.000341 0.000000
# 2 -0.003284 0.008050 -0.002968 0.000000 -0.003733 0.000000
# 3 -0.002190 -0.002968 0.019088 0.000000 0.009290 0.000000
# 4 0.000000 0.000000 0.000000 0.034443 0.000000 -0.010760
# 5 0.000341 -0.003733 0.009290 0.000000 0.043953 0.000000
# 6 0.000000 0.000000 0.000000 -0.010760 0.000000 0.034899
#
#
# Mechanical properties :
#
#
# Convention : Reuss Voigt Hill
#
# Bulk Modulus (GPa) = 45.04648 56.45171 50.74910
# Shear Modulus (GPa) = 28.30250 33.14311 30.72280
#
# Velocity S-wave (km/s) = 3.60313 3.89910 3.75403
# Velocity P-wave (km/s) = 6.16223 6.79451 6.48608
#
# Compressibility (1/GPa) = 0.02219929
#
# Stress axis : x y z
#
# Youngs Moduli (GPa) = 83.71787 124.21632 52.38761
#
# Poissons Ratio (x) = 0.40794 0.11475
# Poissons Ratio (y) = 0.27494 0.15547
# Poissons Ratio (z) = 0.18338 0.36864
#
# Static dielectric constant tensor:
#      x y z
#    x 3.878180 0.000000 0.179090 
#    y 0.000000 4.279060 0.000000 
#    z 0.179090 0.000000 3.756950 
# 
# 
# High freq. dielectric constant tensor:
#      x y z
#    x 1.839490 0.000000 0.007300 
#    y 0.000000 1.877940 0.000000 
#    z 0.007300 0.000000 1.839700 
# 
# From -- ./inp_files/54226.got.cif
#   From: 2010.03.12/outbox.cif.g09.slc.cpg/sg5_28_cif.got.tgz:54226.got - 2010.03.31 09:47:26.
