data_PCOD8049596
_publ_section_title
;
Structure prediction by ZEFSAII (Michael W. Deem and Ramdas Pophale) SiO2 
 PCOD8049596
Probable space group: C 2
;
_chemical_formula_sum "Si O2"
_cell_formula_units_Z 32
_cell_length_a 25.090289
_cell_length_b 9.206975
_cell_length_c 14.478450
_cell_angle_alpha 90.000000
_cell_angle_beta 152.450174
_cell_angle_gamma 90.000000
_cell_volume 1546.945576
_symmetry_space_group_name_H-M "C 2"
_symmetry_group_IT_number 5
_symmetry_cell_setting 'monoclinic'
loop_
_space_group_symop_operation_xyz
x,y,z
-x,y,-z
1/2+x,1/2+y,z
1/2-x,1/2+y,-z
loop_
_atom_site_type_symbol
_atom_site_label
_atom_site_fract_x
_atom_site_fract_y
_atom_site_fract_z
Si Si1 0.602426 0.207270 0.223272
Si Si2 0.427048 0.692119 0.126215
Si Si3 0.252683 0.602596 0.300509
Si Si4 0.337392 0.102403 0.269028
Si Si5 0.028244 0.490787 0.866088
Si Si6 0.016162 0.672533 0.675469
Si Si7 0.570747 0.413761 0.340620
Si Si8 0.438205 0.791241 0.492392
O O1 0.719105 0.186774 0.343887
O O2 0.619876 0.330231 0.327203
O O3 0.573325 0.049181 0.223488
O O4 0.500000 0.261326 0.000000
O O5 0.446759 0.819839 0.081351
O O6 0.509263 0.563427 0.219137
O O7 0.465019 0.771443 0.279226
O O8 0.298513 0.626297 0.931800
O O9 0.319814 0.454165 0.427682
O O10 0.325757 0.706683 0.348661
O O11 0.142741 0.574911 0.069633
O O12 0.392525 0.949346 0.388460
O O13 0.403498 0.209717 0.440253
O O14 0.372400 0.140235 0.217073
O O15 0.997372 0.532370 0.712606
O O16 0.025008 0.816359 0.752814
O O17 0.500000 0.716565 0.500000
#
# Coordination Sequence:
#
# PCOD8049596 Si02
#       8
#     4   4   4   4   4   4   4   4
#     4   9  21  42  66  88 125 173 215 273 339 391
#     4  11  24  39  65  99 130 172 223 270 333 403
#     4  10  23  40  68  92 130 173 218 271 342 392
#     4  11  22  39  65  92 133 174 221 265 334 385
#     4  10  20  41  65  91 131 169 219 271 335 397
#     4  10  21  41  62  91 132 174 220 269 325 404
#     4  10  23  42  60  99 127 164 225 269 328 406
#     4  11  23  43  61  98 134 170 224 274 329 401
#
# _framework density 20.685925999999998
#
# number of rings (size 3 to 8) (size 9 to 14) (size 15 to 20)
#    0.000    1.750    2.500    0.750    7.000    3.000 
#   11.250    3.125    0.000    0.000    0.000    0.000 
#    0.000    0.000    0.000    0.000    0.000    0.000 
#
# Total GULP energy -198219.195507 kJ/mol
# GULP energy per Si atom -12388.699719 kJ/mol
# Density = 2.063884 g / cm^3
# Si number density = 20.685926 Si / 1000 Ang^3
#
#
#
# Elastic Constant Matrix: (Units=GPa)
#
#
# Indices 1 2 3 4 5 6 
#
# 1 121.7157 61.7534 23.4147 0.0000 13.9861 0.0000
# 2 61.7534 116.3217 26.2531 0.0000 7.6145 0.0000
# 3 23.4147 26.2531 67.2237 0.0000 9.7581 0.0000
# 4 0.0000 0.0000 0.0000 27.6067 0.0000 0.2852
# 5 13.9861 7.6145 9.7581 0.0000 30.3973 0.0000
# 6 0.0000 0.0000 0.0000 0.2852 0.0000 27.7604
#
#
#
# Elastic Compliance Matrix: (Units=1/GPa)
#
#
# Indices 1 2 3 4 5 6 
#
# 1 0.011787 -0.005719 -0.001356 0.000000 -0.003555 0.000000
# 2 -0.005719 0.012247 -0.002861 0.000000 0.000482 0.000000
# 3 -0.001356 -0.002861 0.017066 0.000000 -0.004138 0.000000
# 4 0.000000 0.000000 0.000000 0.036227 0.000000 -0.000372
# 5 -0.003555 0.000482 -0.004138 0.000000 0.035741 0.000000
# 6 0.000000 0.000000 0.000000 -0.000372 0.000000 0.036026
#
#
# Mechanical properties :
#
#
# Convention : Reuss Voigt Hill
#
# Bulk Modulus (GPa) = 47.10652 58.67817 52.89235
# Shear Modulus (GPa) = 28.40245 30.07553 29.23899
#
# Velocity S-wave (km/s) = 3.70947 3.81716 3.76370
# Velocity P-wave (km/s) = 6.41627 6.91776 6.67173
#
# Compressibility (1/GPa) = 0.02122848
#
# Stress axis : x y z
#
# Youngs Moduli (GPa) = 84.84196 81.65329 58.59614
#
# Poissons Ratio (x) = 0.46694 0.07946
# Poissons Ratio (y) = 0.48517 0.16764
# Poissons Ratio (z) = 0.11505 0.23360
#
# Static dielectric constant tensor:
#      x y z
#    x 3.848490 0.000000 -0.081870 
#    y 0.000000 3.700400 0.000000 
#    z -0.081870 0.000000 3.759660 
# 
# 
# High freq. dielectric constant tensor:
#      x y z
#    x 1.811460 0.000000 -0.005370 
#    y 0.000000 1.807970 0.000000 
#    z -0.005370 0.000000 1.806730 
# 
# From -- ./inp_files/57718.got.cif
#   From: 2010.03.12/outbox.cif.g09.slc.cpg/sg5_29_cif.got.tgz:57718.got - 2010.03.31 09:47:26.
