data_PCOD8049165
_publ_section_title
;
Structure prediction by ZEFSAII (Michael W. Deem and Ramdas Pophale) SiO2 
 PCOD8049165
Probable space group: C 2
;
_chemical_formula_sum "Si O2"
_cell_formula_units_Z 24
_cell_length_a 10.843967
_cell_length_b 24.366935
_cell_length_c 5.243131
_cell_angle_alpha 90.000000
_cell_angle_beta 130.658615
_cell_angle_gamma 90.000000
_cell_volume 1050.982752
_symmetry_space_group_name_H-M "C 2"
_symmetry_group_IT_number 5
_symmetry_cell_setting 'monoclinic'
loop_
_space_group_symop_operation_xyz
x,y,z
-x,y,-z
1/2+x,1/2+y,z
1/2-x,1/2+y,-z
loop_
_atom_site_type_symbol
_atom_site_label
_atom_site_fract_x
_atom_site_fract_y
_atom_site_fract_z
Si Si1 0.109859 0.772620 0.405320
Si Si2 0.500000 0.106821 0.000000
Si Si3 0.000000 0.114019 0.500000
Si Si4 0.284186 0.663196 0.583600
Si Si5 0.694955 0.883608 0.260242
Si Si6 0.794405 0.568222 0.130197
Si Si7 0.310408 0.945796 0.251651
O O1 0.252076 0.726567 0.596285
O O2 0.210174 0.826998 0.595483
O O3 0.000000 0.758792 0.500000
O O4 0.000000 0.775481 0.000000
O O5 0.654007 0.146800 0.189965
O O6 0.472646 0.069003 0.220344
O O7 0.964804 0.153290 0.703563
O O8 0.847868 0.073382 0.271572
O O9 0.235064 0.621226 0.737678
O O10 0.758742 0.917636 0.588881
O O11 0.500000 0.874251 0.000000
O O12 0.757454 0.916514 0.094814
O O13 0.766153 0.509775 0.220993
O O14 0.500000 0.937025 0.500000
#
# Coordination Sequence:
#
# PCOD8049165 Si02
#       7
#     4   2   2   4   4   4   4
#     4  12  26  48  73 105 140 182 238 295 352 418
#     4  10  20  36  66  98 126 172 224 276 344 402
#     4  10  26  42  60  98 142 170 234 270 366 408
#     4  11  23  43  65  98 134 179 224 285 347 421
#     4  10  24  46  69 102 135 186 236 288 342 410
#     4  11  23  40  66 100 136 181 223 287 342 422
#     4  10  22  42  71 100 136 179 237 282 338 413
#
# _framework density 22.835768000000002
#
# number of rings (size 3 to 8) (size 9 to 14) (size 15 to 20)
#    0.000    1.333    0.833    4.000   10.500    1.333 
#    9.000    0.000    0.000    0.000    0.000    0.000 
#    0.000    0.000    0.000    0.000    0.000    0.000 
#
# Total GULP energy -148698.411896 kJ/mol
# GULP energy per Si atom -12391.534325 kJ/mol
# Density = 2.278379 g / cm^3
# Si number density = 22.835768 Si / 1000 Ang^3
#
#
#
# Elastic Constant Matrix: (Units=GPa)
#
#
# Indices 1 2 3 4 5 6 
#
# 1 126.5368 46.9523 39.2746 0.0000 -23.0201 0.0000
# 2 46.9523 171.9431 47.4658 0.0000 -12.1140 0.0000
# 3 39.2746 47.4658 57.2543 0.0000 -28.4914 0.0000
# 4 0.0000 0.0000 0.0000 32.3105 0.0000 -2.8726
# 5 -23.0201 -12.1140 -28.4914 0.0000 46.9058 0.0000
# 6 0.0000 0.0000 0.0000 -2.8726 0.0000 34.6728
#
#
#
# Elastic Compliance Matrix: (Units=1/GPa)
#
#
# Indices 1 2 3 4 5 6 
#
# 1 0.010274 -0.001248 -0.005252 0.000000 0.001530 0.000000
# 2 -0.001248 0.007931 -0.007172 0.000000 -0.002921 0.000000
# 3 -0.005252 -0.007172 0.035558 0.000000 0.017169 0.000000
# 4 0.000000 0.000000 0.000000 0.031179 0.000000 0.002583
# 5 0.001530 -0.002921 0.017169 0.000000 0.031745 0.000000
# 6 0.000000 0.000000 0.000000 0.002583 0.000000 0.029055
#
#
# Mechanical properties :
#
#
# Convention : Reuss Voigt Hill
#
# Bulk Modulus (GPa) = 37.85126 69.23551 53.54338
# Shear Modulus (GPa) = 27.48864 37.58060 32.53462
#
# Velocity S-wave (km/s) = 3.47328 4.06111 3.77864
# Velocity P-wave (km/s) = 5.71807 7.23705 6.52193
#
# Compressibility (1/GPa) = 0.02641920
#
# Stress axis : x y z
#
# Youngs Moduli (GPa) = 97.32994 126.08990 28.12275
#
# Poissons Ratio (x) = 0.15736 0.14770
# Poissons Ratio (y) = 0.12147 0.20171
# Poissons Ratio (z) = 0.51116 0.90436
#
# Static dielectric constant tensor:
#      x y z
#    x 4.771880 0.000000 0.136780 
#    y 0.000000 4.099430 0.000000 
#    z 0.136780 0.000000 4.996790 
# 
# 
# High freq. dielectric constant tensor:
#      x y z
#    x 1.903630 0.000000 -0.008770 
#    y 0.000000 1.894320 0.000000 
#    z -0.008770 0.000000 1.921640 
# 
# From -- ./inp_files/6004.got.cif
#   From: 2010.03.12/outbox.cif.g09.slc.cpg/sg5_4_cif.got.tgz:6004.got - 2010.03.31 09:47:26.
