data_PCOD8049005
_publ_section_title
;
Structure prediction by ZEFSAII (Michael W. Deem and Ramdas Pophale) SiO2 
 PCOD8049005
Probable space group: C 2
;
_chemical_formula_sum "Si O2"
_cell_formula_units_Z 24
_cell_length_a 10.803334
_cell_length_b 23.554496
_cell_length_c 5.216616
_cell_angle_alpha 90.000000
_cell_angle_beta 51.975682
_cell_angle_gamma 90.000000
_cell_volume 1045.703489
_symmetry_space_group_name_H-M "C 2"
_symmetry_group_IT_number 5
_symmetry_cell_setting 'monoclinic'
loop_
_space_group_symop_operation_xyz
x,y,z
-x,y,-z
1/2+x,1/2+y,z
1/2-x,1/2+y,-z
loop_
_atom_site_type_symbol
_atom_site_label
_atom_site_fract_x
_atom_site_fract_y
_atom_site_fract_z
Si Si1 0.811709 0.807020 0.213277
Si Si2 0.000000 0.652747 0.500000
Si Si3 0.601690 0.487479 0.604966
Si Si4 0.500000 0.660262 0.000000
Si Si5 0.176343 0.864849 0.309295
Si Si6 0.723787 0.097532 0.565437
Si Si7 0.712698 0.692519 0.128302
O O1 0.738792 0.830443 0.571393
O O2 0.736954 0.744625 0.288310
O O3 0.749144 0.848688 0.062820
O O4 0.000000 0.805365 0.000000
O O5 0.950186 0.611694 0.323518
O O6 0.857168 0.695629 0.742186
O O7 0.500000 0.513481 0.500000
O O8 0.677950 0.430359 0.393621
O O9 0.748524 0.530045 0.454598
O O10 0.500000 0.477472 0.000000
O O11 0.349574 0.619944 0.198884
O O12 0.540418 0.697274 0.204793
O O13 0.000000 0.843135 0.500000
O O14 0.764835 0.131078 0.771135
#
# Coordination Sequence:
#
# PCOD8049005 Si02
#       7
#     4   2   4   2   4   4   4
#     4  10  20  34  58  85 122 156 202 252 306 361
#     4  10  24  38  56  88 122 158 210 246 314 372
#     4  11  21  37  61  91 124 160 205 260 310 368
#     4  10  22  38  58  88 122 156 206 246 316 374
#     4   9  19  34  54  88 118 156 200 256 304 354
#     4  11  22  39  60  90 123 163 203 254 316 370
#     4  11  23  38  60  89 123 165 204 253 314 371
#
# _framework density 22.951056000000001
#
# number of rings (size 3 to 8) (size 9 to 14) (size 15 to 20)
#    0.000    1.667    0.833    5.500   10.500    0.000 
#    0.000    0.000    0.000    2.000    0.000    0.000 
#    0.000    0.000    0.000    0.000    0.000    0.000 
#
# Total GULP energy -148659.098939 kJ/mol
# GULP energy per Si atom -12388.258245 kJ/mol
# Density = 2.289882 g / cm^3
# Si number density = 22.951056 Si / 1000 Ang^3
#
#
#
# Elastic Constant Matrix: (Units=GPa)
#
#
# Indices 1 2 3 4 5 6 
#
# 1 151.3688 58.6335 27.3341 0.0000 31.9478 0.0000
# 2 58.6335 132.7529 23.6890 0.0000 13.8651 0.0000
# 3 27.3341 23.6890 36.2968 0.0000 29.3315 0.0000
# 4 0.0000 0.0000 0.0000 24.7939 0.0000 7.3007
# 5 31.9478 13.8651 29.3315 0.0000 40.6645 0.0000
# 6 0.0000 0.0000 0.0000 7.3007 0.0000 33.7975
#
#
#
# Elastic Compliance Matrix: (Units=1/GPa)
#
#
# Indices 1 2 3 4 5 6 
#
# 1 0.009224 -0.003498 0.000549 0.000000 -0.006450 0.000000
# 2 -0.003498 0.009973 -0.008026 0.000000 0.005137 0.000000
# 3 0.000549 -0.008026 0.073152 0.000000 -0.050460 0.000000
# 4 0.000000 0.000000 0.000000 0.043072 0.000000 -0.009304
# 5 -0.006450 0.005137 -0.050460 0.000000 0.064304 0.000000
# 6 0.000000 0.000000 0.000000 -0.009304 0.000000 0.031598
#
#
# Mechanical properties :
#
#
# Convention : Reuss Voigt Hill
#
# Bulk Modulus (GPa) = 14.20479 59.97019 37.08749
# Shear Modulus (GPa) = 18.06759 33.90198 25.98478
#
# Velocity S-wave (km/s) = 2.80879 3.84753 3.36844
# Velocity P-wave (km/s) = 4.08922 6.77675 5.59670
#
# Compressibility (1/GPa) = 0.07039880
#
# Stress axis : x y z
#
# Youngs Moduli (GPa) = 108.41850 100.26574 13.67024
#
# Poissons Ratio (x) = 0.35074 -0.00751
# Poissons Ratio (y) = 0.37926 0.10972
# Poissons Ratio (z) = -0.05953 0.80472
#
# Static dielectric constant tensor:
#      x y z
#    x 4.554220 0.000000 0.407330 
#    y 0.000000 3.881400 0.000000 
#    z 0.407330 0.000000 4.235070 
# 
# 
# High freq. dielectric constant tensor:
#      x y z
#    x 1.907120 0.000000 0.036880 
#    y 0.000000 1.889130 0.000000 
#    z 0.036880 0.000000 1.896020 
# 
# From -- ./inp_files/5922.got.cif
#   From: 2010.03.12/outbox.cif.g09.slc.cpg/sg5_3_cif.got.tgz:5922.got - 2010.03.31 09:47:26.
