data_PCOD8049771
_publ_section_title
;
Structure prediction by ZEFSAII (Michael W. Deem and Ramdas Pophale) SiO2 
 PCOD8049771
Probable space group: C 2
;
_chemical_formula_sum "Si O2"
_cell_formula_units_Z 28
_cell_length_a 5.106719
_cell_length_b 30.913010
_cell_length_c 9.022669
_cell_angle_alpha 90.000000
_cell_angle_beta 110.851476
_cell_angle_gamma 90.000000
_cell_volume 1331.068779
_symmetry_space_group_name_H-M "C 2"
_symmetry_group_IT_number 5
_symmetry_cell_setting 'monoclinic'
loop_
_space_group_symop_operation_xyz
x,y,z
-x,y,-z
1/2+x,1/2+y,z
1/2-x,1/2+y,-z
loop_
_atom_site_type_symbol
_atom_site_label
_atom_site_fract_x
_atom_site_fract_y
_atom_site_fract_z
Si Si1 0.333869 0.793660 0.816428
Si Si2 0.593204 0.204682 0.680922
Si Si3 0.091168 0.149037 0.681932
Si Si4 0.377013 0.483294 0.315148
Si Si5 0.309943 0.565872 0.107120
Si Si6 0.869722 0.428909 0.314601
Si Si7 0.330460 0.337803 0.815226
O O1 0.225628 0.744679 0.794490
O O2 0.569854 0.804164 0.740452
O O3 0.064889 0.825855 0.738832
O O4 0.500000 0.803509 0.000000
O O5 0.500000 0.220822 0.500000
O O6 0.332198 0.185521 0.720168
O O7 0.824039 0.167401 0.714235
O O8 0.199972 0.109173 0.798495
O O9 0.000000 0.133268 0.500000
O O10 0.500000 0.494224 0.500000
O O11 0.407661 0.527119 0.230511
O O12 0.564378 0.448879 0.267846
O O13 0.067330 0.462212 0.263572
O O14 0.500000 0.570934 0.000000
O O15 0.000000 0.553839 0.000000
O O16 0.812521 0.384689 0.217102
O O17 0.000000 0.418030 0.500000
O O18 0.500000 0.330856 0.000000
#
# Coordination Sequence:
#
# PCOD8049771 Si02
#       7
#     4   4   4   4   4   4   4
#     4  10  21  36  54  80 115 153 189 231 288 343
#     4  10  21  37  60  86 111 149 198 239 281 338
#     4  10  22  41  61  84 118 156 191 234 292 347
#     4  10  22  41  61  84 118 156 191 234 292 347
#     4  12  25  40  61  92 120 148 194 240 285 342
#     4  10  21  37  60  86 111 149 198 239 281 338
#     4  10  21  36  54  80 115 153 189 231 288 343
#
# _framework density 21.035729
#
# number of rings (size 3 to 8) (size 9 to 14) (size 15 to 20)
#    0.000    1.714    0.000    3.857    0.000    4.571 
#    0.000    5.714    0.000    0.000    0.000    0.000 
#    0.000    0.000    0.000    0.000    0.000    0.000 
#
# Total GULP energy -173560.380421 kJ/mol
# GULP energy per Si atom -12397.170030 kJ/mol
# Density = 2.098785 g / cm^3
# Si number density = 21.035729 Si / 1000 Ang^3
#
#
#
# Elastic Constant Matrix: (Units=GPa)
#
#
# Indices 1 2 3 4 5 6 
#
# 1 133.6644 25.9948 38.4700 0.0000 1.3347 0.0000
# 2 25.9948 96.5500 37.1299 0.0000 0.5526 0.0000
# 3 38.4700 37.1299 33.8562 0.0000 4.2746 0.0000
# 4 0.0000 0.0000 0.0000 37.1254 0.0000 7.5157
# 5 1.3347 0.5526 4.2746 0.0000 22.2973 0.0000
# 6 0.0000 0.0000 0.0000 7.5157 0.0000 38.8085
#
#
#
# Elastic Compliance Matrix: (Units=1/GPa)
#
#
# Indices 1 2 3 4 5 6 
#
# 1 0.011874 0.003638 -0.017813 0.000000 0.002614 0.000000
# 2 0.003638 0.019282 -0.025817 0.000000 0.004254 0.000000
# 3 -0.017813 -0.025817 0.079807 0.000000 -0.013594 0.000000
# 4 0.000000 0.000000 0.000000 0.028035 0.000000 -0.005429
# 5 0.002614 0.004254 -0.013594 0.000000 0.047193 0.000000
# 6 0.000000 0.000000 0.000000 -0.005429 0.000000 0.026819
#
#
# Mechanical properties :
#
#
# Convention : Reuss Voigt Hill
#
# Bulk Modulus (GPa) = 32.27946 51.91780 42.09863
# Shear Modulus (GPa) = 16.48426 30.47798 23.48112
#
# Velocity S-wave (km/s) = 2.80238 3.81053 3.34466
# Velocity P-wave (km/s) = 5.08424 6.64037 5.91371
#
# Compressibility (1/GPa) = 0.03097945
#
# Stress axis : x y z
#
# Youngs Moduli (GPa) = 84.21463 51.86186 12.53027
#
# Poissons Ratio (x) = -0.18868 0.22320
# Poissons Ratio (y) = -0.30638 0.32350
# Poissons Ratio (z) = 1.50008 1.33894
#
# Static dielectric constant tensor:
#      x y z
#    x 4.259600 0.000000 -0.032770 
#    y 0.000000 3.592830 0.000000 
#    z -0.032770 0.000000 3.569050 
# 
# 
# High freq. dielectric constant tensor:
#      x y z
#    x 1.850560 0.000000 0.011050 
#    y 0.000000 1.824890 0.000000 
#    z 0.011050 0.000000 1.808120 
# 
# From -- ./inp_files/13392.got.cif
#   From: 2010.03.12/outbox.cif.g09.slc.cpg/sg5_7_cif.got.tgz:13392.got - 2010.03.31 09:47:26.
