data_PCOD8049661
_publ_section_title
;
Structure prediction by ZEFSAII (Michael W. Deem and Ramdas Pophale) SiO2 
 PCOD8049661
Probable space group: C 2
;
_chemical_formula_sum "Si O2"
_cell_formula_units_Z 16
_cell_length_a 11.837254
_cell_length_b 7.362994
_cell_length_c 8.237099
_cell_angle_alpha 90.000000
_cell_angle_beta 80.913457
_cell_angle_gamma 90.000000
_cell_volume 708.916721
_symmetry_space_group_name_H-M "C 2"
_symmetry_group_IT_number 5
_symmetry_cell_setting 'monoclinic'
loop_
_space_group_symop_operation_xyz
x,y,z
-x,y,-z
1/2+x,1/2+y,z
1/2-x,1/2+y,-z
loop_
_atom_site_type_symbol
_atom_site_label
_atom_site_fract_x
_atom_site_fract_y
_atom_site_fract_z
Si Si1 0.218553 0.853940 0.127002
Si Si2 0.661375 0.153966 0.707521
Si Si3 0.500000 0.297621 0.000000
Si Si4 0.678626 0.940969 0.220178
Si Si5 0.000000 0.507748 0.500000
O O1 0.096975 0.915866 0.071747
O O2 0.206090 0.654341 0.204002
O O3 0.251703 0.992520 0.261790
O O4 0.314154 0.852194 0.961317
O O5 0.726647 0.345850 0.686774
O O6 0.606960 0.124854 0.542526
O O7 0.559028 0.160807 0.860462
O O8 0.555240 0.898599 0.334789
#
# Coordination Sequence:
#
# PCOD8049661 Si02
#       5
#     4   4   2   4   2
#     4  11  21  46  71  99 135 183 231 276 330 415
#     4  11  24  45  68  99 145 175 227 279 338 409
#     4  10  20  42  68 100 126 180 224 280 324 394
#     4  11  24  44  71 101 134 179 231 278 336 402
#     4  12  26  46  68 102 148 178 212 296 346 390
#
# _framework density 22.569647
#
# number of rings (size 3 to 8) (size 9 to 14) (size 15 to 20)
#    0.000    1.000    7.500    0.000    3.500    0.000 
#    9.000    5.000    0.000    0.000    0.000    0.000 
#    0.000    0.000    0.000    0.000    0.000    0.000 
#
# Total GULP energy -99126.197941 kJ/mol
# GULP energy per Si atom -12390.774743 kJ/mol
# Density = 2.251828 g / cm^3
# Si number density = 22.569647 Si / 1000 Ang^3
#
#
#
# Elastic Constant Matrix: (Units=GPa)
#
#
# Indices 1 2 3 4 5 6 
#
# 1 122.2970 56.5895 65.5460 0.0000 17.1875 0.0000
# 2 56.5895 90.0880 39.3636 0.0000 2.4558 0.0000
# 3 65.5460 39.3636 89.9403 0.0000 -5.7748 0.0000
# 4 0.0000 0.0000 0.0000 21.8996 0.0000 3.4610
# 5 17.1875 2.4558 -5.7748 0.0000 66.7291 0.0000
# 6 0.0000 0.0000 0.0000 3.4610 0.0000 28.5188
#
#
#
# Elastic Compliance Matrix: (Units=1/GPa)
#
#
# Indices 1 2 3 4 5 6 
#
# 1 0.017214 -0.006245 -0.010138 0.000000 -0.005081 0.000000
# 2 -0.006245 0.016061 -0.002426 0.000000 0.000807 0.000000
# 3 -0.010138 -0.002426 0.019853 0.000000 0.004419 0.000000
# 4 0.000000 0.000000 0.000000 0.046556 0.000000 -0.005650
# 5 -0.005081 0.000807 0.004419 0.000000 0.016648 0.000000
# 6 0.000000 0.000000 0.000000 -0.005650 0.000000 0.035750
#
#
# Mechanical properties :
#
#
# Convention : Reuss Voigt Hill
#
# Bulk Modulus (GPa) = 64.47959 69.48040 66.97999
# Shear Modulus (GPa) = 25.65796 32.81793 29.23794
#
# Velocity S-wave (km/s) = 3.37536 3.81737 3.60315
# Velocity P-wave (km/s) = 6.61981 7.09094 6.85942
#
# Compressibility (1/GPa) = 0.01550878
#
# Stress axis : x y z
#
# Youngs Moduli (GPa) = 58.09090 62.26160 50.37065
#
# Poissons Ratio (x) = 0.38882 0.51068
# Poissons Ratio (y) = 0.36277 0.12222
# Poissons Ratio (z) = 0.58895 0.15108
#
# Static dielectric constant tensor:
#      x y z
#    x 4.373710 0.000000 -0.005300 
#    y 0.000000 3.726770 0.000000 
#    z -0.005300 0.000000 4.165130 
# 
# 
# High freq. dielectric constant tensor:
#      x y z
#    x 1.892330 0.000000 -0.003690 
#    y 0.000000 1.854220 0.000000 
#    z -0.003690 0.000000 1.898980 
# 
# From -- ./inp_files/17807.got.cif
#   From: 2010.03.12/outbox.cif.g09.slc.cpg/sg5_9_cif.got.tgz:17807.got - 2010.03.31 09:47:26.
