data_PCOD8049104
_publ_section_title
;
Structure prediction by ZEFSAII (Michael W. Deem and Ramdas Pophale) SiO2 
 PCOD8049104
Probable space group: C 2
;
_chemical_formula_sum "Si O2"
_cell_formula_units_Z 24
_cell_length_a 14.130776
_cell_length_b 7.729288
_cell_length_c 14.141473
_cell_angle_alpha 90.000000
_cell_angle_beta 137.014311
_cell_angle_gamma 90.000000
_cell_volume 1053.093970
_symmetry_space_group_name_H-M "C 2"
_symmetry_group_IT_number 5
_symmetry_cell_setting 'monoclinic'
loop_
_space_group_symop_operation_xyz
x,y,z
-x,y,-z
1/2+x,1/2+y,z
1/2-x,1/2+y,-z
loop_
_atom_site_type_symbol
_atom_site_label
_atom_site_fract_x
_atom_site_fract_y
_atom_site_fract_z
Si Si1 0.152179 0.561160 0.067014
Si Si2 0.390877 0.035079 0.307231
Si Si3 0.081210 0.108120 0.348087
Si Si4 0.834506 0.327420 0.095664
Si Si5 0.826522 0.400227 0.449915
Si Si6 0.394827 0.420438 0.341823
O O1 0.202469 0.713089 0.032682
O O2 0.254632 0.536631 0.232526
O O3 0.166678 0.385679 0.014539
O O4 0.000000 0.595862 0.000000
O O5 0.345601 0.885135 0.349824
O O6 0.557110 0.027060 0.421346
O O7 0.347614 0.221877 0.315175
O O8 0.325017 0.995794 0.157252
O O9 0.163581 0.213662 0.491081
O O10 0.184514 0.003353 0.358093
O O11 0.983971 0.236632 0.217641
O O12 0.981688 0.955581 0.311228
O O13 0.500000 0.481461 0.500000
#
# Coordination Sequence:
#
# PCOD8049104 Si02
#       6
#     4   4   4   4   4   4
#     4  11  26  47  74 100 141 190 234 290 360 417
#     4  10  21  39  64  93 142 172 230 287 347 412
#     4  10  23  37  64  97 140 178 232 286 345 418
#     4  10  24  48  64 102 138 179 242 293 341 431
#     4  10  20  36  59 100 135 182 222 284 351 409
#     4  11  23  41  70  99 134 178 228 293 346 414
#
# _framework density 22.789987
#
# number of rings (size 3 to 8) (size 9 to 14) (size 15 to 20)
#    0.000    1.667    1.667    2.000    9.333    1.333 
#    9.000    0.833    0.000    0.000    0.000    0.000 
#    0.000    0.000    0.000    0.000    0.000    0.000 
#
# Total GULP energy -148678.166777 kJ/mol
# GULP energy per Si atom -12389.847231 kJ/mol
# Density = 2.273812 g / cm^3
# Si number density = 22.789987 Si / 1000 Ang^3
#
#
#
# Elastic Constant Matrix: (Units=GPa)
#
#
# Indices 1 2 3 4 5 6 
#
# 1 101.9191 17.4105 45.3187 0.0000 30.5587 0.0000
# 2 17.4105 57.7422 17.2003 0.0000 10.0332 0.0000
# 3 45.3187 17.2003 105.1385 0.0000 5.6710 0.0000
# 4 0.0000 0.0000 0.0000 23.2017 0.0000 -1.5592
# 5 30.5587 10.0332 5.6710 0.0000 37.3604 0.0000
# 6 0.0000 0.0000 0.0000 -1.5592 0.0000 33.0012
#
#
#
# Elastic Compliance Matrix: (Units=1/GPa)
#
#
# Indices 1 2 3 4 5 6 
#
# 1 0.016428 -0.000963 -0.006264 0.000000 -0.012228 0.000000
# 2 -0.000963 0.019035 -0.002486 0.000000 -0.003947 0.000000
# 3 -0.006264 -0.002486 0.012407 0.000000 0.003908 0.000000
# 4 0.000000 0.000000 0.000000 0.043238 0.000000 0.002043
# 5 -0.012228 -0.003947 0.003908 0.000000 0.037235 0.000000
# 6 0.000000 0.000000 0.000000 0.002043 0.000000 0.030398
#
#
# Mechanical properties :
#
#
# Convention : Reuss Voigt Hill
#
# Bulk Modulus (GPa) = 35.15649 47.18430 41.17039
# Shear Modulus (GPa) = 26.64568 31.03734 28.84151
#
# Velocity S-wave (km/s) = 3.42304 3.69438 3.56129
# Velocity P-wave (km/s) = 5.57519 6.24074 5.91733
#
# Compressibility (1/GPa) = 0.02844425
#
# Stress axis : x y z
#
# Youngs Moduli (GPa) = 60.87296 52.53460 80.59846
#
# Poissons Ratio (x) = 0.05058 0.50486
# Poissons Ratio (y) = 0.05860 0.20038
# Poissons Ratio (z) = 0.38130 0.13061
#
# Static dielectric constant tensor:
#      x y z
#    x 3.861590 0.000000 0.007250 
#    y 0.000000 3.944220 0.000000 
#    z 0.007250 0.000000 4.267820 
# 
# 
# High freq. dielectric constant tensor:
#      x y z
#    x 1.884760 0.000000 0.001020 
#    y 0.000000 1.896740 0.000000 
#    z 0.001020 0.000000 1.896750 
# 
# From -- ./inp_files/54253.got.cif
#   From: 2010.03.12/outbox.cif.g09.slc.cpg/sg5_28_cif.got.tgz:54253.got - 2010.03.31 09:47:26.
