data_PCOD8049277
_publ_section_title
;
Structure prediction by ZEFSAII (Michael W. Deem and Ramdas Pophale) SiO2 
 PCOD8049277
Probable space group: C 2
;
_chemical_formula_sum "Si O2"
_cell_formula_units_Z 24
_cell_length_a 20.379270
_cell_length_b 9.283345
_cell_length_c 19.738225
_cell_angle_alpha 90.000000
_cell_angle_beta 161.409668
_cell_angle_gamma 90.000000
_cell_volume 1190.470607
_symmetry_space_group_name_H-M "C 2"
_symmetry_group_IT_number 5
_symmetry_cell_setting 'monoclinic'
loop_
_space_group_symop_operation_xyz
x,y,z
-x,y,-z
1/2+x,1/2+y,z
1/2-x,1/2+y,-z
loop_
_atom_site_type_symbol
_atom_site_label
_atom_site_fract_x
_atom_site_fract_y
_atom_site_fract_z
Si Si1 0.580385 0.019330 0.144993
Si Si2 0.015371 0.653715 0.629448
Si Si3 0.218421 0.925540 0.887906
Si Si4 0.334034 0.619733 0.515949
Si Si5 0.035709 0.428310 0.313753
Si Si6 0.285727 0.717441 0.766187
O O1 0.725535 0.113915 0.335710
O O2 0.711141 0.890528 0.238657
O O3 0.500000 0.110388 0.000000
O O4 0.388317 0.949104 0.996586
O O5 0.078060 0.785549 0.738980
O O6 0.047484 0.504009 0.699525
O O7 0.134622 0.664571 0.676296
O O8 0.777231 0.661179 0.370760
O O9 0.334083 0.899736 0.071812
O O10 0.066975 0.062056 0.741643
O O11 0.343863 0.783475 0.549916
O O12 0.197950 0.532217 0.436020
O O13 0.500000 0.650877 0.000000
#
# Coordination Sequence:
#
# PCOD8049277 Si02
#       6
#     4   4   4   4   4   4
#     4  10  20  38  65  97 119 164 214 252 313 369
#     4  11  21  38  66  95 122 164 215 257 311 369
#     4  11  21  38  66  94 122 167 209 257 310 373
#     4  11  24  42  63  91 130 166 207 267 307 375
#     4  11  26  41  62  94 128 168 211 255 321 370
#     4  10  20  37  66  93 121 165 210 258 302 372
#
# _framework density 20.160094000000001
#
# number of rings (size 3 to 8) (size 9 to 14) (size 15 to 20)
#    0.000    1.333    5.000    2.000    2.333    3.333 
#    0.000    4.167    0.000    0.000    0.000    0.000 
#    0.000    0.000    0.000    0.000    0.000    0.000 
#
# Total GULP energy -148731.820211 kJ/mol
# GULP energy per Si atom -12394.318351 kJ/mol
# Density = 2.011421 g / cm^3
# Si number density = 20.160094 Si / 1000 Ang^3
#
#
#
# Elastic Constant Matrix: (Units=GPa)
#
#
# Indices 1 2 3 4 5 6 
#
# 1 108.8381 58.5816 65.5688 0.0002 -33.6219 0.0015
# 2 58.5816 113.7721 56.6088 -0.0065 -18.3619 0.0032
# 3 65.5688 56.6088 151.3124 -0.0049 -42.6368 0.0020
# 4 0.0002 -0.0065 -0.0049 15.3100 -0.0041 1.7527
# 5 -33.6219 -18.3619 -42.6368 -0.0041 43.9367 0.0017
# 6 0.0015 0.0032 0.0020 1.7527 0.0017 37.6988
#
#
#
# Elastic Compliance Matrix: (Units=1/GPa)
#
#
# Indices 1 2 3 4 5 6 
#
# 1 0.016255 -0.005788 -0.002828 -0.000002 0.007275 0.000000
# 2 -0.005788 0.012882 -0.002811 0.000004 -0.001773 -0.000001
# 3 -0.002828 -0.002811 0.010935 0.000004 0.007273 -0.000001
# 4 -0.000002 0.000004 0.000004 0.065666 0.000011 -0.003053
# 5 0.007275 -0.001773 0.007273 0.000011 0.034644 -0.000003
# 6 0.000000 -0.000001 -0.000001 -0.003053 -0.000003 0.026668
#
#
# Mechanical properties :
#
#
# Convention : Reuss Voigt Hill
#
# Bulk Modulus (GPa) = 58.08060 81.71567 69.89813
# Shear Modulus (GPa) = 25.55657 32.26666 28.91162
#
# Velocity S-wave (km/s) = 3.56431 4.00499 3.79106
# Velocity P-wave (km/s) = 6.76841 7.87452 7.34232
#
# Compressibility (1/GPa) = 0.01721745
#
# Stress axis : x y z
#
# Youngs Moduli (GPa) = 61.52063 77.62592 91.44600
#
# Poissons Ratio (x) = 0.44932 0.25863
# Poissons Ratio (y) = 0.35609 0.25705
# Poissons Ratio (z) = 0.17400 0.21821
#
# Static dielectric constant tensor:
#      x y z
#    x 3.649150 0.000030 0.088260 
#    y 0.000030 3.327500 -0.000120 
#    z 0.088260 -0.000120 2.372130 
# 
# 
# High freq. dielectric constant tensor:
#      x y z
#    x 1.796360 0.000000 -0.019320 
#    y 0.000000 1.746770 0.000000 
#    z -0.019320 0.000000 1.811960 
# 
# From -- ./inp_files/67066.got.cif
#   From: 2010.03.12/outbox.cif.g09.slc.cpg/sg5_34_cif.got.tgz:67066.got - 2010.03.31 09:47:26.
