data_PCOD8049824
_publ_section_title
;
Structure prediction by ZEFSAII (Michael W. Deem and Ramdas Pophale) SiO2 
 PCOD8049824
Probable space group: C 2
;
_chemical_formula_sum "Si O2"
_cell_formula_units_Z 28
_cell_length_a 9.947922
_cell_length_b 10.320894
_cell_length_c 15.267068
_cell_angle_alpha 90.000000
_cell_angle_beta 58.518339
_cell_angle_gamma 90.000000
_cell_volume 1336.768702
_symmetry_space_group_name_H-M "C 2"
_symmetry_group_IT_number 5
_symmetry_cell_setting 'monoclinic'
loop_
_space_group_symop_operation_xyz
x,y,z
-x,y,-z
1/2+x,1/2+y,z
1/2-x,1/2+y,-z
loop_
_atom_site_type_symbol
_atom_site_label
_atom_site_fract_x
_atom_site_fract_y
_atom_site_fract_z
Si Si1 0.883466 0.478150 0.118427
Si Si2 0.953325 0.805062 0.613762
Si Si3 0.896068 0.183312 0.790900
Si Si4 0.184528 0.199244 0.806106
Si Si5 0.407584 0.053594 0.439945
Si Si6 0.952376 0.070963 0.418729
Si Si7 0.408904 0.972344 0.782646
O O1 0.743423 0.581096 0.158019
O O2 0.824034 0.328388 0.130524
O O3 0.972096 0.504127 0.179420
O O4 0.000000 0.507825 0.000000
O O5 0.781996 0.740862 0.685595
O O6 0.000000 0.841235 0.500000
O O7 0.080702 0.700007 0.604557
O O8 0.958070 0.946359 0.655886
O O9 0.830522 0.330545 0.822689
O O10 0.013007 0.153046 0.832792
O O11 0.998072 0.181869 0.665819
O O12 0.272295 0.081816 0.826257
O O13 0.500000 0.047324 0.500000
O O14 0.227490 0.023594 0.519373
O O15 0.487250 0.960934 0.341435
O O16 0.000000 0.115336 0.500000
#
# Coordination Sequence:
#
# PCOD8049824 Si02
#       7
#     4   4   4   4   4   4   4
#     4  11  25  46  68  93 124 162 212 273 332 383
#     4   9  18  34  58  84 126 170 207 245 300 368
#     4  11  23  41  65  94 128 166 211 268 317 380
#     4  10  22  45  67  92 126 171 209 259 320 382
#     4  10  21  37  56  89 130 173 210 253 301 371
#     4  11  21  33  58  89 127 172 212 253 307 369
#     4  10  24  42  65  95 135 162 214 265 311 377
#
# _framework density 20.946031000000001
#
# number of rings (size 3 to 8) (size 9 to 14) (size 15 to 20)
#    0.000    1.714    1.429    3.429    8.000    4.000 
#    7.714    0.714    0.000    0.000    0.000    0.000 
#    0.000    0.000    0.000    0.000    0.000    0.000 
#
# Total GULP energy -173464.621990 kJ/mol
# GULP energy per Si atom -12390.330142 kJ/mol
# Density = 2.089836 g / cm^3
# Si number density = 20.946031 Si / 1000 Ang^3
#
#
#
# Elastic Constant Matrix: (Units=GPa)
#
#
# Indices 1 2 3 4 5 6 
#
# 1 138.2212 77.4040 34.4575 0.0000 -3.4812 0.0000
# 2 77.4040 141.8280 23.1263 0.0000 -7.8423 0.0000
# 3 34.4575 23.1263 75.3683 0.0000 -12.4037 0.0000
# 4 0.0000 0.0000 0.0000 17.0398 0.0000 -4.1177
# 5 -3.4812 -7.8423 -12.4037 0.0000 20.5272 0.0000
# 6 0.0000 0.0000 0.0000 -4.1177 0.0000 37.6918
#
#
#
# Elastic Compliance Matrix: (Units=1/GPa)
#
#
# Indices 1 2 3 4 5 6 
#
# 1 0.011317 -0.005691 -0.003853 0.000000 -0.002583 0.000000
# 2 -0.005691 0.010333 -0.000086 0.000000 0.002930 0.000000
# 3 -0.003853 -0.000086 0.016593 0.000000 0.009340 0.000000
# 4 0.000000 0.000000 0.000000 0.060277 0.000000 0.006585
# 5 -0.002583 0.002930 0.009340 0.000000 0.055041 0.000000
# 6 0.000000 0.000000 0.000000 0.006585 0.000000 0.027250
#
#
# Mechanical properties :
#
#
# Convention : Reuss Voigt Hill
#
# Bulk Modulus (GPa) = 52.67990 69.48811 61.08400
# Shear Modulus (GPa) = 24.22472 29.74709 26.98591
#
# Velocity S-wave (km/s) = 3.40447 3.77261 3.59326
# Velocity P-wave (km/s) = 6.37642 7.22659 6.81478
#
# Compressibility (1/GPa) = 0.01898257
#
# Stress axis : x y z
#
# Youngs Moduli (GPa) = 88.36080 96.77853 60.26488
#
# Poissons Ratio (x) = 0.55077 0.23220
# Poissons Ratio (y) = 0.50287 0.00521
# Poissons Ratio (z) = 0.34045 0.00837
#
# Static dielectric constant tensor:
#      x y z
#    x 3.841340 0.000000 -0.001550 
#    y 0.000000 4.086740 0.000000 
#    z -0.001550 0.000000 3.693490 
# 
# 
# High freq. dielectric constant tensor:
#      x y z
#    x 1.809440 0.000000 -0.008700 
#    y 0.000000 1.835120 0.000000 
#    z -0.008700 0.000000 1.803490 
# 
# From -- ./inp_files/50261.got.cif
#   From: 2010.03.12/outbox.cif.g09.slc.cpg/sg5_26_cif.got.tgz:50261.got - 2010.03.31 09:47:26.
