data_PCOD8049467
_publ_section_title
;
Structure prediction by ZEFSAII (Michael W. Deem and Ramdas Pophale) SiO2 
 PCOD8049467
Probable space group: C 2
;
_chemical_formula_sum "Si O2"
_cell_formula_units_Z 28
_cell_length_a 30.487902
_cell_length_b 8.487905
_cell_length_c 5.414358
_cell_angle_alpha 90.000000
_cell_angle_beta 58.310818
_cell_angle_gamma 90.000000
_cell_volume 1192.226588
_symmetry_space_group_name_H-M "C 2"
_symmetry_group_IT_number 5
_symmetry_cell_setting 'monoclinic'
loop_
_space_group_symop_operation_xyz
x,y,z
-x,y,-z
1/2+x,1/2+y,z
1/2-x,1/2+y,-z
loop_
_atom_site_type_symbol
_atom_site_label
_atom_site_fract_x
_atom_site_fract_y
_atom_site_fract_z
Si Si1 0.255321 0.222850 0.697033
Si Si2 0.974575 0.649103 0.827198
Si Si3 0.295786 0.017390 0.958235
Si Si4 0.642566 0.236423 0.877278
Si Si5 0.016016 0.302668 0.704452
Si Si6 0.841690 0.096186 0.175855
Si Si7 0.368176 0.768941 0.587346
O O1 0.252027 0.127772 0.965293
O O2 0.316030 0.216308 0.462842
O O3 0.220091 0.125724 0.605254
O O4 0.235668 0.402003 0.766899
O O5 0.000000 0.721635 0.500000
O O6 0.982083 0.461620 0.802162
O O7 0.914198 0.683947 0.029320
O O8 0.000000 0.723157 0.000000
O O9 0.327024 0.909249 0.666579
O O10 0.338489 0.127231 0.957174
O O11 0.642479 0.420412 0.943667
O O12 0.075782 0.344478 0.543422
O O13 0.000000 0.208452 0.500000
O O14 0.000000 0.205417 0.000000
O O15 0.869122 0.152290 0.347893
O O16 0.856170 0.192697 0.888014
#
# Coordination Sequence:
#
# PCOD8049467 Si02
#       7
#     4   4   4   4   4   4   4
#     4  11  27  42  73 108 151 196 249 298 378 445
#     4  10  24  43  69 106 137 181 248 304 359 430
#     4  11  26  43  73 106 148 197 248 305 369 453
#     4  12  27  45  77 103 153 196 249 312 375 440
#     4  10  20  39  71 100 136 175 243 297 355 428
#     4  11  28  47  70 110 149 196 241 303 375 456
#     4  11  26  47  72 104 148 193 245 305 375 438
#
# _framework density 23.485469999999999
#
# number of rings (size 3 to 8) (size 9 to 14) (size 15 to 20)
#    0.000    1.143    0.000    4.286   22.000    0.000 
#    0.000    4.286    0.000    0.000    0.000    0.000 
#    0.000    0.000    0.000    0.000    0.000    0.000 
#
# Total GULP energy -173482.067033 kJ/mol
# GULP energy per Si atom -12391.576217 kJ/mol
# Density = 2.343202 g / cm^3
# Si number density = 23.485470 Si / 1000 Ang^3
#
#
#
# Elastic Constant Matrix: (Units=GPa)
#
#
# Indices 1 2 3 4 5 6 
#
# 1 162.7989 46.8218 67.9477 0.0000 -7.0782 0.0000
# 2 46.8218 114.3153 27.4159 0.0000 2.0862 0.0000
# 3 67.9477 27.4159 126.9772 0.0000 16.4706 0.0000
# 4 0.0000 0.0000 0.0000 20.1134 0.0000 2.1912
# 5 -7.0782 2.0862 16.4706 0.0000 52.8119 0.0000
# 6 0.0000 0.0000 0.0000 2.1912 0.0000 36.1380
#
#
#
# Elastic Compliance Matrix: (Units=1/GPa)
#
#
# Indices 1 2 3 4 5 6 
#
# 1 0.008914 -0.002607 -0.004560 0.000000 0.002720 0.000000
# 2 -0.002607 0.009992 -0.000694 0.000000 -0.000528 0.000000
# 3 -0.004560 -0.000694 0.010985 0.000000 -0.004010 0.000000
# 4 0.000000 0.000000 0.000000 0.050049 0.000000 -0.003035
# 5 0.002720 -0.000528 -0.004010 0.000000 0.020571 0.000000
# 6 0.000000 0.000000 0.000000 -0.003035 0.000000 0.027856
#
#
# Mechanical properties :
#
#
# Convention : Reuss Voigt Hill
#
# Bulk Modulus (GPa) = 70.57425 76.49581 73.53503
# Shear Modulus (GPa) = 33.59980 39.27306 36.43643
#
# Velocity S-wave (km/s) = 3.78651 4.09372 3.94311
# Velocity P-wave (km/s) = 7.01658 7.41532 7.21870
#
# Compressibility (1/GPa) = 0.01416947
#
# Stress axis : x y z
#
# Youngs Moduli (GPa) = 112.18672 100.08462 91.03024
#
# Poissons Ratio (x) = 0.26092 0.41508
# Poissons Ratio (y) = 0.29247 0.06316
# Poissons Ratio (z) = 0.51155 0.06944
#
# Static dielectric constant tensor:
#      x y z
#    x 4.563290 0.000000 0.175850 
#    y 0.000000 4.073140 0.000000 
#    z 0.175850 0.000000 4.739570 
# 
# 
# High freq. dielectric constant tensor:
#      x y z
#    x 1.942200 0.000000 -0.000910 
#    y 0.000000 1.907040 0.000000 
#    z -0.000910 0.000000 1.940860 
# 
# From -- ./inp_files/11205.got.cif
#   From: 2010.03.12/outbox.cif.g09.slc.cpg/sg5_6_cif.got.tgz:11205.got - 2010.03.31 09:47:26.
