data_PCOD8049796
_publ_section_title
;
Structure prediction by ZEFSAII (Michael W. Deem and Ramdas Pophale) SiO2 
 PCOD8049796
Probable space group: C 2
;
_chemical_formula_sum "Si O2"
_cell_formula_units_Z 26
_cell_length_a 24.117997
_cell_length_b 5.103891
_cell_length_c 17.395782
_cell_angle_alpha 90.000000
_cell_angle_beta 31.332906
_cell_angle_gamma 90.000000
_cell_volume 1113.520141
_symmetry_space_group_name_H-M "C 2"
_symmetry_group_IT_number 5
_symmetry_cell_setting 'monoclinic'
loop_
_space_group_symop_operation_xyz
x,y,z
-x,y,-z
1/2+x,1/2+y,z
1/2-x,1/2+y,-z
loop_
_atom_site_type_symbol
_atom_site_label
_atom_site_fract_x
_atom_site_fract_y
_atom_site_fract_z
Si Si1 0.189973 0.482010 0.377844
Si Si2 0.660849 0.378708 0.209836
Si Si3 0.207888 0.501743 0.805873
Si Si4 0.541847 0.105249 0.116753
Si Si5 0.000000 0.592980 0.500000
Si Si6 0.637768 0.613904 0.077501
Si Si7 0.684882 0.033269 0.559112
O O1 0.262644 0.221380 0.291649
O O2 0.149728 0.536850 0.511447
O O3 0.089875 0.428660 0.439236
O O4 0.265072 0.717264 0.259448
O O5 0.723838 0.553942 0.197390
O O6 0.625911 0.561013 0.181364
O O7 0.551981 0.273403 0.373706
O O8 0.737164 0.139592 0.091971
O O9 0.084622 0.527374 0.980313
O O10 0.584695 0.390672 0.088600
O O11 0.579461 0.889857 0.133756
O O12 0.413822 0.109867 0.269115
O O13 0.722369 0.743936 0.537826
#
# Coordination Sequence:
#
# PCOD8049796 Si02
#       7
#     4   4   4   4   2   4   4
#     4  11  24  43  65  96 134 169 212 266 329 388
#     4  10  21  36  58  94 134 175 218 259 316 386
#     4  10  22  40  62  91 129 167 211 265 320 391
#     4  11  23  42  66  91 126 174 224 271 327 389
#     4  10  22  38  64  98 134 170 208 264 332 392
#     4  11  22  37  61  93 134 180 223 264 311 393
#     4  12  27  48  71  97 129 170 224 282 331 387
#
# _framework density 23.349373
#
# number of rings (size 3 to 8) (size 9 to 14) (size 15 to 20)
#    0.000    1.231    0.000    7.385    0.000    8.615 
#    0.000    4.615    0.000    0.000    0.000    0.000 
#    0.000    0.000    0.000    0.000    0.000    0.000 
#
# Total GULP energy -161222.119534 kJ/mol
# GULP energy per Si atom -12401.701503 kJ/mol
# Density = 2.329623 g / cm^3
# Si number density = 23.349373 Si / 1000 Ang^3
#
#
#
# Elastic Constant Matrix: (Units=GPa)
#
#
# Indices 1 2 3 4 5 6 
#
# 1 57.1705 10.0015 17.4838 -0.0188 6.5928 0.0094
# 2 10.0015 88.4296 15.8333 -0.1747 -3.5256 0.0474
# 3 17.4838 15.8333 141.6230 -0.0541 -4.2229 -0.0840
# 4 -0.0188 -0.1747 -0.0541 32.0077 0.0789 0.9809
# 5 6.5928 -3.5256 -4.2229 0.0789 26.5969 -0.0514
# 6 0.0094 0.0474 -0.0840 0.9809 -0.0514 31.1320
#
#
#
# Elastic Compliance Matrix: (Units=1/GPa)
#
#
# Indices 1 2 3 4 5 6 
#
# 1 0.019161 -0.001969 -0.002306 0.000010 -0.005377 -0.000018
# 2 -0.001969 0.011789 -0.001019 0.000057 0.001889 -0.000019
# 3 -0.002306 -0.001019 0.007508 0.000001 0.001629 0.000025
# 4 0.000010 0.000057 0.000001 0.031273 -0.000090 -0.000986
# 5 -0.005377 0.001889 0.001629 -0.000090 0.039440 0.000071
# 6 -0.000018 -0.000019 0.000025 -0.000986 0.000071 0.032153
#
#
# Mechanical properties :
#
#
# Convention : Reuss Voigt Hill
#
# Bulk Modulus (GPa) = 35.87812 41.54002 38.70907
# Shear Modulus (GPa) = 31.01717 34.20763 32.61240
#
# Velocity S-wave (km/s) = 3.64867 3.83173 3.74132
# Velocity P-wave (km/s) = 5.75756 6.11600 5.93948
#
# Compressibility (1/GPa) = 0.02787214
#
# Stress axis : x y z
#
# Youngs Moduli (GPa) = 52.18906 84.82559 133.18934
#
# Poissons Ratio (x) = 0.16699 0.30710
# Poissons Ratio (y) = 0.10274 0.13567
# Poissons Ratio (z) = 0.12033 0.08641
#
# Static dielectric constant tensor:
#      x y z
#    x 3.914440 -0.000300 0.112620 
#    y -0.000300 4.061710 0.000560 
#    z 0.112620 0.000560 4.565130 
# 
# 
# High freq. dielectric constant tensor:
#      x y z
#    x 1.897000 -0.000020 0.012450 
#    y -0.000020 1.925160 0.000030 
#    z 0.012450 0.000030 1.941170 
# 
# From -- ./inp_files/63528.got.cif
#   From: 2010.03.12/outbox.cif.g09.slc.cpg/sg5_32_cif.got.tgz:63528.got - 2010.03.31 09:47:26.
