data_PCOD8049586
_publ_section_title
;
Structure prediction by ZEFSAII (Michael W. Deem and Ramdas Pophale) SiO2 
 PCOD8049586
Probable space group: C 2
;
_chemical_formula_sum "Si O2"
_cell_formula_units_Z 18
_cell_length_a 12.716814
_cell_length_b 10.324172
_cell_length_c 9.322203
_cell_angle_alpha 90.000000
_cell_angle_beta 137.143765
_cell_angle_gamma 90.000000
_cell_volume 832.461027
_symmetry_space_group_name_H-M "C 2"
_symmetry_group_IT_number 5
_symmetry_cell_setting 'monoclinic'
loop_
_space_group_symop_operation_xyz
x,y,z
-x,y,-z
1/2+x,1/2+y,z
1/2-x,1/2+y,-z
loop_
_atom_site_type_symbol
_atom_site_label
_atom_site_fract_x
_atom_site_fract_y
_atom_site_fract_z
Si Si1 0.906737 0.294490 0.136740
Si Si2 0.500000 0.674287 0.500000
Si Si3 0.060144 0.536199 0.400722
Si Si4 0.060144 0.812375 0.719567
Si Si5 0.593263 0.554084 0.323265
O O1 0.886454 0.259858 0.285986
O O2 0.004172 0.428159 0.230403
O O3 0.999999 0.174286 0.155294
O O4 0.745301 0.313560 0.896885
O O5 0.613546 0.588715 0.513077
O O6 0.245302 0.535016 0.593719
O O7 0.000000 0.507781 0.500000
O O8 1.000000 0.674287 0.284267
O O9 0.000000 0.840792 0.500000
O O10 0.004170 0.920414 0.777939
#
# Coordination Sequence:
#
# PCOD8049586 Si02
#       5
#     4   2   4   4   4
#     4  10  20  41  63  87 124 161 202 248 304 368
#     4   8  20  40  64  78 120 164 204 238 296 376
#     4  11  22  38  62  91 126 156 204 253 303 356
#     4  11  22  38  62  91 126 156 204 253 303 356
#     4  10  20  41  63  87 124 161 202 248 304 368
#
# _framework density 21.622631999999999
#
# number of rings (size 3 to 8) (size 9 to 14) (size 15 to 20)
#    1.333    0.444    2.222    2.667    0.000    0.000 
#    0.000   21.111    0.000    0.000    0.000    0.000 
#    0.000    0.000    0.000    0.000    0.000    0.000 
#
# Total GULP energy -111505.768453 kJ/mol
# GULP energy per Si atom -12389.529828 kJ/mol
# Density = 2.157342 g / cm^3
# Si number density = 21.622632 Si / 1000 Ang^3
#
#
#
# Elastic Constant Matrix: (Units=GPa)
#
#
# Indices 1 2 3 4 5 6 
#
# 1 92.0355 24.2222 42.7395 0.0000 31.9020 0.0000
# 2 24.2222 198.3088 53.5354 0.0000 33.0502 0.0000
# 3 42.7395 53.5354 151.9969 0.0000 35.7059 0.0000
# 4 0.0000 0.0000 0.0000 30.8527 0.0000 20.3006
# 5 31.9020 33.0502 35.7059 0.0000 43.0837 0.0000
# 6 0.0000 0.0000 0.0000 20.3006 0.0000 12.8482
#
#
#
# Elastic Compliance Matrix: (Units=1/GPa)
#
#
# Indices 1 2 3 4 5 6 
#
# 1 0.015115 0.000337 -0.002085 0.000000 -0.009723 0.000000
# 2 0.000337 0.005982 -0.001323 0.000000 -0.003743 0.000000
# 3 -0.002085 -0.001323 0.008730 0.000000 -0.004676 0.000000
# 4 0.000000 0.000000 0.000000 -0.817780 0.000000 1.292116
# 5 -0.009723 -0.003743 -0.004676 0.000000 0.037157 0.000000
# 6 0.000000 0.000000 0.000000 1.292116 0.000000 -1.963750
#
#
# Mechanical properties :
#
#
# Convention : Reuss Voigt Hill
#
# Bulk Modulus (GPa) = 42.21875 75.92615 59.07245
# Shear Modulus (GPa) = -1.85150 38.81321 18.48085
#
# Velocity S-wave (km/s) = -0.92636 4.24137 2.92670
# Velocity P-wave (km/s) = 4.29226 7.69260 6.22895
#
# Compressibility (1/GPa) = 0.02368616
#
# Stress axis : x y z
#
# Youngs Moduli (GPa) = 66.15921 167.16084 114.55138
#
# Poissons Ratio (x) = -0.05634 0.23882
# Poissons Ratio (y) = -0.02230 0.15151
# Poissons Ratio (z) = 0.13793 0.22109
#
# Static dielectric constant tensor:
#      x y z
#    x 3.456170 0.000000 0.077020 
#    y 0.000000 4.368460 0.000000 
#    z 0.077020 0.000000 3.524470 
# 
# 
# High freq. dielectric constant tensor:
#      x y z
#    x 1.818070 0.000000 0.008400 
#    y 0.000000 1.878660 0.000000 
#    z 0.008400 0.000000 1.825520 
# 
# From -- ./inp_files/42334.got.cif
#   From: 2010.03.12/outbox.cif.g09.slc.cpg/sg5_22_cif.got.tgz:42334.got - 2010.03.31 09:47:26.
