data_PCOD8049030
_publ_section_title
;
Structure prediction by ZEFSAII (Michael W. Deem and Ramdas Pophale) SiO2 
 PCOD8049030
Probable space group: C 2
;
_chemical_formula_sum "Si O2"
_cell_formula_units_Z 26
_cell_length_a 11.362417
_cell_length_b 8.384764
_cell_length_c 14.394486
_cell_angle_alpha 90.000000
_cell_angle_beta 116.347697
_cell_angle_gamma 90.000000
_cell_volume 1228.917077
_symmetry_space_group_name_H-M "C 2"
_symmetry_group_IT_number 5
_symmetry_cell_setting 'monoclinic'
loop_
_space_group_symop_operation_xyz
x,y,z
-x,y,-z
1/2+x,1/2+y,z
1/2-x,1/2+y,-z
loop_
_atom_site_type_symbol
_atom_site_label
_atom_site_fract_x
_atom_site_fract_y
_atom_site_fract_z
Si Si1 0.036194 0.169160 0.164265
Si Si2 0.962220 0.382564 0.665195
Si Si3 0.742162 0.574668 0.687324
Si Si4 0.254647 0.194557 0.970276
Si Si5 0.000000 0.203177 0.500000
Si Si6 0.244638 0.894990 0.206368
Si Si7 0.198430 0.398316 0.112580
O O1 0.040260 0.225191 0.271852
O O2 0.067613 0.318052 0.107404
O O3 0.890622 0.114729 0.086288
O O4 0.139992 0.030132 0.188749
O O5 0.853750 0.509938 0.657469
O O6 0.931718 0.319962 0.551163
O O7 0.108166 0.459888 0.722091
O O8 0.606669 0.586895 0.583964
O O9 0.788347 0.747919 0.737598
O O10 0.717899 0.462545 0.769637
O O11 0.268510 0.343416 0.905456
O O12 0.346072 0.045427 0.971172
O O13 0.280970 0.263718 0.082983
#
# Coordination Sequence:
#
# PCOD8049030 Si02
#       7
#     4   4   4   4   2   4   4
#     4  10  20  36  57  82 114 150 187 239 296 343
#     4   9  20  37  57  82 114 147 188 244 295 346
#     4   9  20  38  60  86 118 155 196 245 294 344
#     4  10  20  35  55  81 117 154 191 237 282 339
#     4  10  20  38  60  84 118 154 196 248 302 344
#     4   9  19  36  58  84 113 148 191 236 289 350
#     4  10  20  36  57  85 117 155 196 232 283 345
#
# _framework density 21.156839999999999
#
# number of rings (size 3 to 8) (size 9 to 14) (size 15 to 20)
#    0.000    2.462    0.000    2.308    0.000    3.692 
#    0.000    9.231    0.000    1.846    0.000    0.000 
#    0.000    0.000    0.000    0.000    0.000    0.000 
#
# Total GULP energy -161143.864165 kJ/mol
# GULP energy per Si atom -12395.681859 kJ/mol
# Density = 2.110869 g / cm^3
# Si number density = 21.156840 Si / 1000 Ang^3
#
#
#
# Elastic Constant Matrix: (Units=GPa)
#
#
# Indices 1 2 3 4 5 6 
#
# 1 115.4109 63.7437 53.9067 0.0000 -5.5638 0.0000
# 2 63.7437 88.4607 49.0607 0.0000 -0.0694 0.0000
# 3 53.9067 49.0607 100.7620 0.0000 -22.5751 0.0000
# 4 0.0000 0.0000 0.0000 30.4498 0.0000 -2.4181
# 5 -5.5638 -0.0694 -22.5751 0.0000 33.3631 0.0000
# 6 0.0000 0.0000 0.0000 -2.4181 0.0000 50.4043
#
#
#
# Elastic Compliance Matrix: (Units=1/GPa)
#
#
# Indices 1 2 3 4 5 6 
#
# 1 0.015433 -0.008945 -0.003924 0.000000 -0.000100 0.000000
# 2 -0.008945 0.021752 -0.007225 0.000000 -0.006335 0.000000
# 3 -0.003924 -0.007225 0.018142 0.000000 0.011606 0.000000
# 4 0.000000 0.000000 0.000000 0.032967 0.000000 0.001582
# 5 -0.000100 -0.006335 0.011606 0.000000 0.037797 0.000000
# 6 0.000000 0.000000 0.000000 0.001582 0.000000 0.019915
#
#
# Mechanical properties :
#
#
# Convention : Reuss Voigt Hill
#
# Bulk Modulus (GPa) = 66.05148 70.89506 68.47327
# Shear Modulus (GPa) = 26.14535 32.03827 29.09181
#
# Velocity S-wave (km/s) = 3.51919 3.89565 3.71220
# Velocity P-wave (km/s) = 6.91380 7.33600 7.12802
#
# Compressibility (1/GPa) = 0.01513971
#
# Stress axis : x y z
#
# Youngs Moduli (GPa) = 64.79651 45.97283 55.12198
#
# Poissons Ratio (x) = 0.41122 0.21628
# Poissons Ratio (y) = 0.57959 0.39825
# Poissons Ratio (z) = 0.25424 0.33215
#
# Static dielectric constant tensor:
#      x y z
#    x 3.947020 0.000000 -0.340940 
#    y 0.000000 3.781740 0.000000 
#    z -0.340940 0.000000 3.806830 
# 
# 
# High freq. dielectric constant tensor:
#      x y z
#    x 1.832270 0.000000 -0.025370 
#    y 0.000000 1.822650 0.000000 
#    z -0.025370 0.000000 1.817910 
# 
# From -- ./inp_files/52151.got.cif
#   From: 2010.03.12/outbox.cif.g09.slc.cpg/sg5_27_cif.got.tgz:52151.got - 2010.03.31 09:47:26.
