data_PCOD8049847
_publ_section_title
;
Structure prediction by ZEFSAII (Michael W. Deem and Ramdas Pophale) SiO2 
 PCOD8049847
Probable space group: C 2
;
_chemical_formula_sum "Si O2"
_cell_formula_units_Z 32
_cell_length_a 24.222928
_cell_length_b 8.831716
_cell_length_c 24.311214
_cell_angle_alpha 90.000000
_cell_angle_beta 17.541307
_cell_angle_gamma 90.000000
_cell_volume 1567.515951
_symmetry_space_group_name_H-M "C 2"
_symmetry_group_IT_number 5
_symmetry_cell_setting 'monoclinic'
loop_
_space_group_symop_operation_xyz
x,y,z
-x,y,-z
1/2+x,1/2+y,z
1/2-x,1/2+y,-z
loop_
_atom_site_type_symbol
_atom_site_label
_atom_site_fract_x
_atom_site_fract_y
_atom_site_fract_z
Si Si1 0.587107 0.047720 0.857803
Si Si2 0.235524 0.282508 0.588627
Si Si3 0.238825 0.125916 0.478408
Si Si4 0.559758 0.364796 0.500301
Si Si5 0.765743 0.370837 0.116611
Si Si6 0.677139 0.601474 0.114087
Si Si7 0.113186 0.105927 0.053922
Si Si8 0.990661 0.781115 0.154624
O O1 0.563210 0.211717 0.852955
O O2 0.800620 0.998591 0.650895
O O3 0.500000 0.059470 0.000000
O O4 0.472208 0.923126 0.933397
O O5 0.317182 0.166042 0.465086
O O6 0.229350 0.453700 0.570649
O O7 0.352687 0.264627 0.533834
O O8 0.028938 0.239242 0.797478
O O9 0.331203 0.242673 0.348860
O O10 0.024651 0.166001 0.683237
O O11 0.500000 0.278169 0.500000
O O12 0.369102 0.427226 0.706681
O O13 0.696059 0.440163 0.125551
O O14 0.759815 0.187260 0.113112
O O15 0.719072 0.568026 0.009985
O O16 0.815723 0.721453 0.007785
O O17 0.009569 0.960522 0.128230
#
# Coordination Sequence:
#
# PCOD8049847 Si02
#       8
#     4   4   4   4   4   4   4   4
#     4  11  22  43  67  94 117 166 222 273 327 380
#     4  11  22  40  64 100 128 177 214 263 334 373
#     4  11  21  39  62  93 137 165 215 270 318 398
#     4  12  23  41  69  95 122 171 227 273 315 382
#     4  11  21  39  64  91 129 161 221 264 311 395
#     4  10  21  37  60  93 127 171 209 253 321 387
#     4  11  23  39  60  97 135 169 205 260 328 399
#     4  11  23  40  62  93 133 169 206 268 329 388
#
# _framework density 20.414465
#
# number of rings (size 3 to 8) (size 9 to 14) (size 15 to 20)
#    0.000    1.000    5.000    3.000    1.750    1.000 
#    2.250    1.875    0.000    0.750    0.000    0.000 
#    0.000    0.000    0.000    0.000    0.000    0.000 
#
# Total GULP energy -198277.847674 kJ/mol
# GULP energy per Si atom -12392.365480 kJ/mol
# Density = 2.036800 g / cm^3
# Si number density = 20.414465 Si / 1000 Ang^3
#
#
#
# Elastic Constant Matrix: (Units=GPa)
#
#
# Indices 1 2 3 4 5 6 
#
# 1 143.5500 52.9162 22.2664 0.0045 17.2775 0.0021
# 2 52.9162 99.7594 45.3733 0.0369 11.4495 -0.0124
# 3 22.2664 45.3733 100.1805 0.0243 11.4327 -0.0069
# 4 0.0045 0.0369 0.0243 24.4477 -0.0109 4.4063
# 5 17.2775 11.4495 11.4327 -0.0109 29.4489 -0.0001
# 6 0.0021 -0.0124 -0.0069 4.4063 -0.0001 14.0211
#
#
#
# Elastic Compliance Matrix: (Units=1/GPa)
#
#
# Indices 1 2 3 4 5 6 
#
# 1 0.009027 -0.004588 0.000494 0.000004 -0.003704 -0.000007
# 2 -0.004588 0.015183 -0.005745 -0.000020 -0.000981 0.000018
# 3 0.000494 -0.005745 0.012820 -0.000006 -0.003033 0.000003
# 4 0.000004 -0.000020 -0.000006 0.043360 0.000024 -0.013626
# 5 -0.003704 -0.000981 -0.003033 0.000024 0.037689 -0.000009
# 6 -0.000007 0.000018 0.000003 -0.013626 -0.000009 0.075603
#
#
# Mechanical properties :
#
#
# Convention : Reuss Voigt Hill
#
# Bulk Modulus (GPa) = 57.62651 64.95574 61.29113
# Shear Modulus (GPa) = 22.81604 28.44579 25.63092
#
# Velocity S-wave (km/s) = 3.34674 3.73690 3.54719
# Velocity P-wave (km/s) = 6.57448 7.10681 6.84582
#
# Compressibility (1/GPa) = 0.01735312
#
# Stress axis : x y z
#
# Youngs Moduli (GPa) = 110.78488 65.86194 78.00097
#
# Poissons Ratio (x) = 0.30216 -0.03856
# Poissons Ratio (y) = 0.50825 0.44812
# Poissons Ratio (z) = -0.05476 0.37838
#
# Static dielectric constant tensor:
#      x y z
#    x 3.954180 0.000000 0.046880 
#    y 0.000000 3.492700 0.000030 
#    z 0.046880 0.000030 3.917200 
# 
# 
# High freq. dielectric constant tensor:
#      x y z
#    x 1.800440 0.000000 0.003600 
#    y 0.000000 1.765380 0.000000 
#    z 0.003600 0.000000 1.814760 
# 
# From -- ./inp_files/69655.got.cif
#   From: 2010.03.12/outbox.cif.g09.slc.cpg/sg5_35_cif.got.tgz:69655.got - 2010.03.31 09:47:26.
