data_PCOD8049776
_publ_section_title
;
Structure prediction by ZEFSAII (Michael W. Deem and Ramdas Pophale) SiO2 
 PCOD8049776
Probable space group: C 2
;
_chemical_formula_sum "Si O2"
_cell_formula_units_Z 28
_cell_length_a 5.067764
_cell_length_b 31.915072
_cell_length_c 9.122322
_cell_angle_alpha 90.000000
_cell_angle_beta 114.988888
_cell_angle_gamma 90.000000
_cell_volume 1337.311521
_symmetry_space_group_name_H-M "C 2"
_symmetry_group_IT_number 5
_symmetry_cell_setting 'monoclinic'
loop_
_space_group_symop_operation_xyz
x,y,z
-x,y,-z
1/2+x,1/2+y,z
1/2-x,1/2+y,-z
loop_
_atom_site_type_symbol
_atom_site_label
_atom_site_fract_x
_atom_site_fract_y
_atom_site_fract_z
Si Si1 0.630854 0.115530 0.684773
Si Si2 0.824483 0.246980 0.103927
Si Si3 0.156859 0.307388 0.390963
Si Si4 0.142487 0.479327 0.191983
Si Si5 0.373928 0.669020 0.312832
Si Si6 0.664686 0.901830 0.394057
Si Si7 0.352475 0.527073 0.811869
O O1 0.500000 0.100747 0.500000
O O2 0.374893 0.133023 0.730152
O O3 0.814256 0.076668 0.788603
O O4 0.858811 0.152668 0.720229
O O5 0.753800 0.208516 0.196587
O O6 0.041282 0.280344 0.228562
O O7 0.500000 0.266181 0.000000
O O8 0.000000 0.232565 0.000000
O O9 0.500000 0.301855 0.500000
O O10 0.056807 0.355010 0.330833
O O11 0.000000 0.291287 0.500000
O O12 0.131354 0.431875 0.246473
O O13 0.455807 0.502610 0.264956
O O14 0.965438 0.506984 0.266605
O O15 0.000000 0.479093 0.000000
O O16 0.500000 0.683036 0.500000
O O17 0.500000 0.919083 0.500000
O O18 0.000000 0.898590 0.500000
O O19 0.500000 0.517533 0.000000
#
# Coordination Sequence:
#
# PCOD8049776 Si02
#       7
#     4   4   4   4   4   4   4
#     4  10  21  37  58  84 110 147 199 245 290 349
#     4  12  25  40  62  96 125 154 206 257 302 359
#     4  10  22  42  65  88 123 167 204 245 307 370
#     4  10  21  37  56  82 117 154 190 235 297 357
#     4  10  22  40  60  82 116 157 194 240 302 362
#     4  10  21  38  61  89 116 153 204 248 291 351
#     4  10  21  36  55  81 114 152 190 234 296 358
#
# _framework density 20.937529999999999
#
# number of rings (size 3 to 8) (size 9 to 14) (size 15 to 20)
#    0.000    1.714    0.000    3.857    0.000    5.714 
#    0.000    2.143    0.000    0.000    0.000    0.000 
#    0.000    0.000    0.000    0.000    0.000    0.000 
#
# Total GULP energy -173548.561979 kJ/mol
# GULP energy per Si atom -12396.325856 kJ/mol
# Density = 2.088987 g / cm^3
# Si number density = 20.937530 Si / 1000 Ang^3
#
#
#
# Elastic Constant Matrix: (Units=GPa)
#
#
# Indices 1 2 3 4 5 6 
#
# 1 147.6391 36.3653 40.1716 0.0000 -4.5855 0.0000
# 2 36.3653 103.1889 45.9456 0.0000 -5.4524 0.0000
# 3 40.1716 45.9456 57.1649 0.0000 0.6224 0.0000
# 4 0.0000 0.0000 0.0000 29.9214 0.0000 4.0196
# 5 -4.5855 -5.4524 0.6224 0.0000 26.0077 0.0000
# 6 0.0000 0.0000 0.0000 4.0196 0.0000 27.3478
#
#
#
# Elastic Compliance Matrix: (Units=1/GPa)
#
#
# Indices 1 2 3 4 5 6 
#
# 1 0.008453 -0.000381 -0.005650 0.000000 0.001546 0.000000
# 2 -0.000381 0.015426 -0.012168 0.000000 0.003458 0.000000
# 3 -0.005650 -0.012168 0.031291 0.000000 -0.004296 0.000000
# 4 0.000000 0.000000 0.000000 0.034094 0.000000 -0.005011
# 5 0.001546 0.003458 -0.004296 0.000000 0.039550 0.000000
# 6 0.000000 0.000000 0.000000 -0.005011 0.000000 0.037303
#
#
# Mechanical properties :
#
#
# Convention : Reuss Voigt Hill
#
# Bulk Modulus (GPa) = 53.27707 61.43977 57.35842
# Shear Modulus (GPa) = 23.94951 29.02274 26.48612
#
# Velocity S-wave (km/s) = 3.38576 3.72715 3.56055
# Velocity P-wave (km/s) = 6.38635 6.92317 6.66017
#
# Compressibility (1/GPa) = 0.01876980
#
# Stress axis : x y z
#
# Youngs Moduli (GPa) = 118.30684 64.82538 31.95838
#
# Poissons Ratio (x) = 0.02472 0.18057
# Poissons Ratio (y) = 0.04512 0.38888
# Poissons Ratio (z) = 0.66846 0.78881
#
# Static dielectric constant tensor:
#      x y z
#    x 4.157600 0.000000 -0.006480 
#    y 0.000000 3.917610 0.000000 
#    z -0.006480 0.000000 3.624220 
# 
# 
# High freq. dielectric constant tensor:
#      x y z
#    x 1.843850 0.000000 0.000000 
#    y 0.000000 1.818330 0.000000 
#    z 0.000000 0.000000 1.804240 
# 
# From -- ./inp_files/13279.got.cif
#   From: 2010.03.12/outbox.cif.g09.slc.cpg/sg5_7_cif.got.tgz:13279.got - 2010.03.31 09:47:26.
