data_PCOD8049813
_publ_section_title
;
Structure prediction by ZEFSAII (Michael W. Deem and Ramdas Pophale) SiO2 
 PCOD8049813
Probable space group: C 2
;
_chemical_formula_sum "Si O2"
_cell_formula_units_Z 30
_cell_length_a 17.666933
_cell_length_b 5.339861
_cell_length_c 16.741220
_cell_angle_alpha 90.000000
_cell_angle_beta 70.381947
_cell_angle_gamma 90.000000
_cell_volume 1487.670862
_symmetry_space_group_name_H-M "C 2"
_symmetry_group_IT_number 5
_symmetry_cell_setting 'monoclinic'
loop_
_space_group_symop_operation_xyz
x,y,z
-x,y,-z
1/2+x,1/2+y,z
1/2-x,1/2+y,-z
loop_
_atom_site_type_symbol
_atom_site_label
_atom_site_fract_x
_atom_site_fract_y
_atom_site_fract_z
Si Si1 0.856926 0.801570 0.514335
Si Si2 0.500000 0.002719 0.500000
Si Si3 0.980145 0.168852 0.192540
Si Si4 0.118736 0.676972 0.793575
Si Si5 0.313528 0.152413 0.061021
Si Si6 0.439406 0.682868 0.378501
Si Si7 0.644631 0.653087 0.041183
Si Si8 0.702179 0.025831 0.610698
O O1 0.796603 0.960085 0.591766
O O2 0.798783 0.646551 0.476797
O O3 0.916992 0.647530 0.549595
O O4 0.920026 0.936225 0.434094
O O5 0.486934 0.857876 0.422471
O O6 0.939550 0.436676 0.188715
O O7 0.995049 0.129815 0.282258
O O8 0.065772 0.161419 0.121656
O O9 0.928874 0.935454 0.178062
O O10 0.178709 0.649611 0.846473
O O11 0.172569 0.700456 0.693892
O O12 0.219667 0.154405 0.074398
O O13 0.356333 0.399951 0.010742
O O14 0.355113 0.900205 0.013728
O O15 0.355828 0.786928 0.372461
#
# Coordination Sequence:
#
# PCOD8049813 Si02
#       8
#     4   2   4   4   4   4   4   4
#     4  11  19  40  61  82 121 164 206 258 311 373
#     4  10  24  38  58  88 120 166 212 264 308 370
#     4  11  23  40  65  92 126 161 204 258 318 358
#     4  11  23  40  62  96 125 155 211 264 298 376
#     4  10  22  42  63  90 127 159 206 249 307 376
#     4  10  21  40  57  87 124 159 203 263 304 375
#     4  10  22  42  64  89 125 168 196 248 315 377
#     4  10  21  36  63  88 116 165 207 252 321 360
#
# _framework density 20.165751
#
# number of rings (size 3 to 8) (size 9 to 14) (size 15 to 20)
#    0.000    1.600    2.667    2.000    0.000    3.200 
#    4.800    2.667    0.000    0.000    0.000    0.000 
#    0.000    0.000    0.000    0.000    0.000    0.000 
#
# Total GULP energy -185936.226967 kJ/mol
# GULP energy per Si atom -12395.748464 kJ/mol
# Density = 2.011985 g / cm^3
# Si number density = 20.165751 Si / 1000 Ang^3
#
#
#
# Elastic Constant Matrix: (Units=GPa)
#
#
# Indices 1 2 3 4 5 6 
#
# 1 96.5575 22.2568 49.8527 -0.0061 -0.1940 -0.0057
# 2 22.2568 96.1047 6.4193 -0.0073 -0.8324 -0.0076
# 3 49.8527 6.4193 81.3504 -0.0046 -1.2523 -0.0049
# 4 -0.0061 -0.0073 -0.0046 24.9473 0.0018 -3.0218
# 5 -0.1940 -0.8324 -1.2523 0.0018 32.1232 0.0019
# 6 -0.0057 -0.0076 -0.0049 -3.0218 0.0019 18.1213
#
#
#
# Elastic Compliance Matrix: (Units=1/GPa)
#
#
# Indices 1 2 3 4 5 6 
#
# 1 0.016005 -0.003070 -0.009571 0.000001 -0.000356 0.000001
# 2 -0.003070 0.011051 0.001014 0.000003 0.000307 0.000004
# 3 -0.009571 0.001014 0.018088 0.000002 0.000674 0.000002
# 4 0.000001 0.000003 0.000002 0.040911 -0.000003 0.006822
# 5 -0.000356 0.000307 0.000674 -0.000003 0.031162 -0.000004
# 6 0.000001 0.000004 0.000002 0.006822 -0.000004 0.056321
#
#
# Mechanical properties :
#
#
# Convention : Reuss Voigt Hill
#
# Bulk Modulus (GPa) = 45.68346 47.89668 46.79007
# Shear Modulus (GPa) = 24.49888 28.07064 26.28476
#
# Velocity S-wave (km/s) = 3.48929 3.73499 3.61423
# Velocity P-wave (km/s) = 6.23993 6.51178 6.37730
#
# Compressibility (1/GPa) = 0.02188976
#
# Stress axis : x y z
#
# Youngs Moduli (GPa) = 62.47935 90.48710 55.28420
#
# Poissons Ratio (x) = 0.27783 0.52915
# Poissons Ratio (y) = 0.19184 -0.05607
# Poissons Ratio (z) = 0.59802 -0.09178
#
# Static dielectric constant tensor:
#      x y z
#    x 3.564770 0.000020 0.078060 
#    y 0.000020 3.974600 0.000000 
#    z 0.078060 0.000000 3.703510 
# 
# 
# High freq. dielectric constant tensor:
#      x y z
#    x 1.783270 0.000000 0.000410 
#    y 0.000000 1.800610 0.000000 
#    z 0.000410 0.000000 1.782790 
# 
# From -- ./inp_files/55443.got.cif
#   From: 2010.03.12/outbox.cif.g09.slc.cpg/sg5_28_cif.got.tgz:55443.got - 2010.03.31 09:47:26.
