data_PCOD8049675
_publ_section_title
;
Structure prediction by ZEFSAII (Michael W. Deem and Ramdas Pophale) SiO2 
 PCOD8049675
Probable space group: C 2
;
_chemical_formula_sum "Si O2"
_cell_formula_units_Z 26
_cell_length_a 23.971212
_cell_length_b 8.638909
_cell_length_c 12.030878
_cell_angle_alpha 90.000000
_cell_angle_beta 29.419696
_cell_angle_gamma 90.000000
_cell_volume 1223.791448
_symmetry_space_group_name_H-M "C 2"
_symmetry_group_IT_number 5
_symmetry_cell_setting 'monoclinic'
loop_
_space_group_symop_operation_xyz
x,y,z
-x,y,-z
1/2+x,1/2+y,z
1/2-x,1/2+y,-z
loop_
_atom_site_type_symbol
_atom_site_label
_atom_site_fract_x
_atom_site_fract_y
_atom_site_fract_z
Si Si1 0.055963 0.431470 0.075561
Si Si2 0.880892 0.966839 0.768340
Si Si3 0.017790 0.734998 0.255288
Si Si4 0.163824 0.475545 0.665232
Si Si5 0.160683 0.312723 0.102333
Si Si6 0.000000 0.539318 0.500000
Si Si7 0.894340 0.820960 0.258078
O O1 0.085307 0.605870 0.066755
O O2 0.087369 0.310073 0.116606
O O3 0.920849 0.418062 0.285454
O O4 0.129048 0.391246 0.840106
O O5 0.833870 0.138439 0.865025
O O6 0.000000 0.973067 0.500000
O O7 0.897277 0.872840 0.855512
O O8 0.788328 0.872393 0.856859
O O9 0.966131 0.649280 0.454547
O O10 0.922372 0.811303 0.341184
O O11 0.147747 0.656706 0.713425
O O12 0.293864 0.442570 0.410640
O O13 0.106266 0.428051 0.288195
O O14 0.000000 0.877653 0.000000
#
# Coordination Sequence:
#
# PCOD8049675 Si02
#       7
#     4   4   4   4   4   2   4
#     4   9  20  44  67  94 131 181 210 279 331 383
#     4  12  26  44  66 101 128 177 221 272 331 406
#     4  10  21  42  68  93 141 166 223 270 327 390
#     4  10  21  43  69  92 135 169 224 269 332 384
#     4  11  24  44  66  98 141 170 226 272 331 395
#     4  10  20  42  70 100 130 186 214 268 336 394
#     4  11  23  46  65  99 131 174 216 277 324 392
#
# _framework density 21.245450000000002
#
# number of rings (size 3 to 8) (size 9 to 14) (size 15 to 20)
#    0.000    1.538    4.615    1.846    2.154    1.231 
#   13.846    0.000    0.000    0.000    0.000    0.000 
#    0.000    0.000    0.000    0.000    0.000    0.000 
#
# Total GULP energy -161174.776009 kJ/mol
# GULP energy per Si atom -12398.059693 kJ/mol
# Density = 2.119709 g / cm^3
# Si number density = 21.245450 Si / 1000 Ang^3
#
#
#
# Elastic Constant Matrix: (Units=GPa)
#
#
# Indices 1 2 3 4 5 6 
#
# 1 131.1367 43.8873 53.4986 0.0000 1.8133 0.0000
# 2 43.8873 94.1355 43.8989 0.0000 -9.1184 0.0000
# 3 53.4986 43.8989 126.4353 0.0000 -16.8040 0.0000
# 4 0.0000 0.0000 0.0000 30.0251 0.0000 -11.7883
# 5 1.8133 -9.1184 -16.8040 0.0000 31.4429 0.0000
# 6 0.0000 0.0000 0.0000 -11.7883 0.0000 32.6782
#
#
#
# Elastic Compliance Matrix: (Units=1/GPa)
#
#
# Indices 1 2 3 4 5 6 
#
# 1 0.010314 -0.003457 -0.003635 0.000000 -0.003540 0.000000
# 2 -0.003457 0.013893 -0.003013 0.000000 0.002618 0.000000
# 3 -0.003635 -0.003013 0.011201 0.000000 0.005322 0.000000
# 4 0.000000 0.000000 0.000000 0.038801 0.000000 0.013997
# 5 -0.003540 0.002618 0.005322 0.000000 0.035611 0.000000
# 6 0.000000 0.000000 0.000000 0.013997 0.000000 0.035651
#
#
# Mechanical properties :
#
#
# Convention : Reuss Voigt Hill
#
# Bulk Modulus (GPa) = 65.79275 70.47525 68.13400
# Shear Modulus (GPa) = 29.28331 32.85742 31.07037
#
# Velocity S-wave (km/s) = 3.71662 3.93690 3.82835
# Velocity P-wave (km/s) = 7.03227 7.34231 7.18896
#
# Compressibility (1/GPa) = 0.01519924
#
# Stress axis : x y z
#
# Youngs Moduli (GPa) = 96.95454 71.97731 89.28113
#
# Poissons Ratio (x) = 0.24879 0.32449
# Poissons Ratio (y) = 0.33513 0.26903
# Poissons Ratio (z) = 0.35238 0.21689
#
# Static dielectric constant tensor:
#      x y z
#    x 4.092610 0.000000 0.078290 
#    y 0.000000 3.820460 0.000000 
#    z 0.078290 0.000000 3.813160 
# 
# 
# High freq. dielectric constant tensor:
#      x y z
#    x 1.840360 0.000000 -0.001600 
#    y 0.000000 1.827230 0.000000 
#    z -0.001600 0.000000 1.817460 
# 
# From -- ./inp_files/47261.got.cif
#   From: 2010.03.12/outbox.cif.g09.slc.cpg/sg5_24_cif.got.tgz:47261.got - 2010.03.31 09:47:26.
