data_PCOD8049806
_publ_section_title
;
Structure prediction by ZEFSAII (Michael W. Deem and Ramdas Pophale) SiO2 
 PCOD8049806
Probable space group: C 2
;
_chemical_formula_sum "Si O2"
_cell_formula_units_Z 26
_cell_length_a 9.300592
_cell_length_b 11.049533
_cell_length_c 20.729469
_cell_angle_alpha 90.000000
_cell_angle_beta 36.006642
_cell_angle_gamma 90.000000
_cell_volume 1252.364260
_symmetry_space_group_name_H-M "C 2"
_symmetry_group_IT_number 5
_symmetry_cell_setting 'monoclinic'
loop_
_space_group_symop_operation_xyz
x,y,z
-x,y,-z
1/2+x,1/2+y,z
1/2-x,1/2+y,-z
loop_
_atom_site_type_symbol
_atom_site_label
_atom_site_fract_x
_atom_site_fract_y
_atom_site_fract_z
Si Si1 0.892796 0.093870 0.821227
Si Si2 0.500000 0.905351 0.000000
Si Si3 0.574893 0.800468 0.838234
Si Si4 0.606465 0.213495 0.671487
Si Si5 0.633800 0.961083 0.389685
Si Si6 0.758662 0.554489 0.262379
Si Si7 0.329448 0.510516 0.508279
O O1 0.766005 0.119172 0.798116
O O2 0.888176 0.215200 0.866164
O O3 0.171877 0.052320 0.711164
O O4 0.742927 0.987742 0.910900
O O5 0.521728 0.818493 0.054079
O O6 0.836783 0.736456 0.744003
O O7 0.591749 0.929759 0.797132
O O8 0.740473 0.338261 0.635365
O O9 0.591781 0.139251 0.743561
O O10 0.758132 0.142289 0.562231
O O11 0.500000 0.021905 0.500000
O O12 0.418205 0.935484 0.415279
O O13 0.483675 0.527672 0.386976
O O14 0.500000 0.442875 0.500000
#
# Coordination Sequence:
#
# PCOD8049806 Si02
#       7
#     4   2   4   4   4   4   4
#     4  11  23  43  70  94 125 172 215 270 331 383
#     4  10  24  46  64  94 126 166 224 278 328 378
#     4  11  23  45  68  92 126 168 217 278 330 378
#     4  11  22  39  66  94 135 178 211 256 319 384
#     4  12  20  39  67  95 133 175 211 258 328 384
#     4  10  22  39  60 100 133 163 215 263 312 392
#     4  10  21  36  60  99 134 174 214 250 311 389
#
# _framework density 20.760732999999998
#
# number of rings (size 3 to 8) (size 9 to 14) (size 15 to 20)
#    0.000    1.231    6.154    1.385    0.000    4.923 
#    0.000    3.846    0.000    0.000    0.000    0.000 
#    0.000    0.000    0.000    0.000    0.000    0.000 
#
# Total GULP energy -161195.729566 kJ/mol
# GULP energy per Si atom -12399.671505 kJ/mol
# Density = 2.071348 g / cm^3
# Si number density = 20.760733 Si / 1000 Ang^3
#
#
#
# Elastic Constant Matrix: (Units=GPa)
#
#
# Indices 1 2 3 4 5 6 
#
# 1 84.0897 38.5242 18.5180 -0.0006 6.7443 0.0004
# 2 38.5242 79.4785 25.6423 0.0001 21.9390 0.0003
# 3 18.5180 25.6423 89.8481 -0.0004 21.2726 0.0007
# 4 -0.0006 0.0001 -0.0004 27.7792 -0.0002 5.4557
# 5 6.7443 21.9390 21.2726 -0.0002 36.3994 -0.0002
# 6 0.0004 0.0003 0.0007 5.4557 -0.0002 43.6986
#
#
#
# Elastic Compliance Matrix: (Units=1/GPa)
#
#
# Indices 1 2 3 4 5 6 
#
# 1 0.015605 -0.007797 -0.001647 0.000000 0.002771 0.000000
# 2 -0.007797 0.019489 -0.001759 0.000000 -0.009274 0.000000
# 3 -0.001647 -0.001759 0.013519 0.000000 -0.006535 0.000000
# 4 0.000000 0.000000 0.000000 0.036903 0.000000 -0.004607
# 5 0.002771 -0.009274 -0.006535 0.000000 0.036368 0.000000
# 6 0.000000 0.000000 0.000000 -0.004607 0.000000 0.023459
#
#
# Mechanical properties :
#
#
# Convention : Reuss Voigt Hill
#
# Bulk Modulus (GPa) = 38.16034 46.53172 42.34603
# Shear Modulus (GPa) = 28.33098 32.95754 30.64426
#
# Velocity S-wave (km/s) = 3.69811 3.98866 3.84613
# Velocity P-wave (km/s) = 6.05439 6.60867 6.33759
#
# Compressibility (1/GPa) = 0.02620522
#
# Stress axis : x y z
#
# Youngs Moduli (GPa) = 64.08318 51.31107 73.97163
#
# Poissons Ratio (x) = 0.40009 0.12182
# Poissons Ratio (y) = 0.49968 0.13014
# Poissons Ratio (z) = 0.10554 0.09028
#
# Static dielectric constant tensor:
#      x y z
#    x 3.994040 0.000000 0.063540 
#    y 0.000000 3.565770 0.000000 
#    z 0.063540 0.000000 3.910470 
# 
# 
# High freq. dielectric constant tensor:
#      x y z
#    x 1.820810 0.000000 0.004640 
#    y 0.000000 1.793870 0.000000 
#    z 0.004640 0.000000 1.813720 
# 
# From -- ./inp_files/64524.got.cif
#   From: 2010.03.12/outbox.cif.g09.slc.cpg/sg5_33_cif.got.tgz:64524.got - 2010.03.31 09:47:26.
