data_PCOD8049305
_publ_section_title
;
Structure prediction by ZEFSAII (Michael W. Deem and Ramdas Pophale) SiO2 
 PCOD8049305
Probable space group: C 2
;
_chemical_formula_sum "Si O2"
_cell_formula_units_Z 24
_cell_length_a 10.158386
_cell_length_b 9.404631
_cell_length_c 13.195600
_cell_angle_alpha 90.000000
_cell_angle_beta 69.360094
_cell_angle_gamma 90.000000
_cell_volume 1179.737188
_symmetry_space_group_name_H-M "C 2"
_symmetry_group_IT_number 5
_symmetry_cell_setting 'monoclinic'
loop_
_space_group_symop_operation_xyz
x,y,z
-x,y,-z
1/2+x,1/2+y,z
1/2-x,1/2+y,-z
loop_
_atom_site_type_symbol
_atom_site_label
_atom_site_fract_x
_atom_site_fract_y
_atom_site_fract_z
Si Si1 0.725455 0.850600 0.907455
Si Si2 0.539021 0.846640 0.154759
Si Si3 0.216675 0.572519 0.211711
Si Si4 0.507006 0.526226 0.204370
Si Si5 0.848075 0.626492 0.544112
Si Si6 0.103999 0.936034 0.554284
O O1 0.612429 0.891579 0.850505
O O2 0.793753 0.696996 0.867814
O O3 0.849681 0.965454 0.881442
O O4 0.653377 0.840704 0.035355
O O5 0.526833 0.695424 0.214438
O O6 0.592982 0.959848 0.223098
O O7 0.373251 0.501487 0.165468
O O8 0.200261 0.643444 0.326869
O O9 0.474691 0.444260 0.317136
O O10 0.856254 0.775582 0.483917
O O11 0.744755 0.526559 0.510366
O O12 0.000000 0.551992 0.500000
O O13 0.000000 0.002407 0.500000
#
# Coordination Sequence:
#
# PCOD8049305 Si02
#       6
#     4   4   4   4   4   4
#     4  10  20  38  60  84 118 153 190 235 284 340
#     4  10  22  37  58  87 116 153 193 234 285 340
#     4  10  22  39  58  85 118 151 191 239 287 338
#     4  10  22  39  59  86 117 151 192 238 286 339
#     4  10  22  38  58  85 114 150 193 238 288 340
#     4  10  22  39  59  85 115 150 193 240 288 339
#
# _framework density 20.343513999999999
#
# number of rings (size 3 to 8) (size 9 to 14) (size 15 to 20)
#    0.000    2.000    0.000    3.000    0.000   12.000 
#    0.000    0.000    0.000    0.000    0.000    0.000 
#    0.000    0.000    0.000    0.000    0.000    0.000 
#
# Total GULP energy -148795.079567 kJ/mol
# GULP energy per Si atom -12399.589964 kJ/mol
# Density = 2.029721 g / cm^3
# Si number density = 20.343514 Si / 1000 Ang^3
#
#
#
# Elastic Constant Matrix: (Units=GPa)
#
#
# Indices 1 2 3 4 5 6 
#
# 1 130.7610 49.2886 16.9506 0.0000 -10.6622 0.0000
# 2 49.2886 78.5465 20.0874 0.0000 1.6442 0.0000
# 3 16.9506 20.0874 47.2281 0.0000 -6.4944 0.0000
# 4 0.0000 0.0000 0.0000 32.1958 0.0000 -7.5473
# 5 -10.6622 1.6442 -6.4944 0.0000 31.9824 0.0000
# 6 0.0000 0.0000 0.0000 -7.5473 0.0000 41.0876
#
#
#
# Elastic Compliance Matrix: (Units=1/GPa)
#
#
# Indices 1 2 3 4 5 6 
#
# 1 0.010474 -0.006531 -0.000468 0.000000 0.003733 0.000000
# 2 -0.006531 0.018486 -0.006120 0.000000 -0.004370 0.000000
# 3 -0.000468 -0.006120 0.024655 0.000000 0.005165 0.000000
# 4 0.000000 0.000000 0.000000 0.032458 0.000000 0.005962
# 5 0.003733 -0.004370 0.005165 0.000000 0.033785 0.000000
# 6 0.000000 0.000000 0.000000 0.005962 0.000000 0.025433
#
#
# Mechanical properties :
#
#
# Convention : Reuss Voigt Hill
#
# Bulk Modulus (GPa) = 36.52613 47.68766 42.10689
# Shear Modulus (GPa) = 27.67701 32.40044 30.03872
#
# Velocity S-wave (km/s) = 3.69247 3.99515 3.84679
# Velocity P-wave (km/s) = 6.01438 6.69132 6.36186
#
# Compressibility (1/GPa) = 0.02737766
#
# Stress axis : x y z
#
# Youngs Moduli (GPa) = 95.47045 54.09442 40.55984
#
# Poissons Ratio (x) = 0.35330 0.01899
# Poissons Ratio (y) = 0.62354 0.24821
# Poissons Ratio (z) = 0.04470 0.33103
#
# Static dielectric constant tensor:
#      x y z
#    x 4.215920 0.000000 -0.098630 
#    y 0.000000 3.512700 0.000000 
#    z -0.098630 0.000000 3.575790 
# 
# 
# High freq. dielectric constant tensor:
#      x y z
#    x 1.811980 0.000000 -0.010330 
#    y 0.000000 1.783590 0.000000 
#    z -0.010330 0.000000 1.793450 
# 
# From -- ./inp_files/38269.got.cif
#   From: 2010.03.12/outbox.cif.g09.slc.cpg/sg5_20_cif.got.tgz:38269.got - 2010.03.31 09:47:26.
