data_PCOD8049160
_publ_section_title
;
Structure prediction by ZEFSAII (Michael W. Deem and Ramdas Pophale) SiO2 
 PCOD8049160
Probable space group: C 2
;
_chemical_formula_sum "Si O2"
_cell_formula_units_Z 26
_cell_length_a 10.496150
_cell_length_b 15.703833
_cell_length_c 8.744227
_cell_angle_alpha 90.000000
_cell_angle_beta 66.334275
_cell_angle_gamma 90.000000
_cell_volume 1320.099129
_symmetry_space_group_name_H-M "C 2"
_symmetry_group_IT_number 5
_symmetry_cell_setting 'monoclinic'
loop_
_space_group_symop_operation_xyz
x,y,z
-x,y,-z
1/2+x,1/2+y,z
1/2-x,1/2+y,-z
loop_
_atom_site_type_symbol
_atom_site_label
_atom_site_fract_x
_atom_site_fract_y
_atom_site_fract_z
Si Si1 0.868390 0.090680 0.666612
Si Si2 0.352792 0.940650 0.749267
Si Si3 0.612744 0.470637 0.078084
Si Si4 0.434842 0.288495 0.805225
Si Si5 0.143422 0.520944 0.568736
Si Si6 0.278100 0.262597 0.179040
Si Si7 0.500000 0.178415 0.500000
O O1 0.762967 0.023713 0.638254
O O2 0.796842 0.179784 0.726716
O O3 0.000000 0.107753 0.500000
O O4 0.918618 0.052279 0.803531
O O5 0.334251 0.838934 0.766687
O O6 0.512709 0.967848 0.698359
O O7 0.299935 0.974447 0.610137
O O8 0.262356 0.983771 0.926614
O O9 0.610926 0.386959 0.186525
O O10 0.500000 0.458264 0.000000
O O11 0.597762 0.286295 0.766668
O O12 0.411319 0.238501 0.657475
O O13 0.340008 0.244633 0.980770
O O14 0.102550 0.618237 0.547974
#
# Coordination Sequence:
#
# PCOD8049160 Si02
#       7
#     4   4   4   4   4   4   2
#     4  12  27  39  61  95 128 162 215 266 314 365
#     4   9  20  40  68  86 124 168 207 249 317 369
#     4  11  22  41  64  91 128 168 207 259 312 378
#     4  10  20  39  67  91 125 166 209 249 315 371
#     4  10  23  40  63  92 125 166 215 256 316 368
#     4  10  21  40  64  90 125 167 205 255 310 372
#     4  10  20  36  66 102 120 162 212 260 294 388
#
# _framework density 19.695492000000002
#
# number of rings (size 3 to 8) (size 9 to 14) (size 15 to 20)
#    0.000    1.846    4.615    0.923    7.538    0.615 
#    0.000    0.000    3.385    0.000    0.000    0.000 
#    0.000    0.000    0.000    0.000    0.000    0.000 
#
# Total GULP energy -161203.945113 kJ/mol
# GULP energy per Si atom -12400.303470 kJ/mol
# Density = 1.965066 g / cm^3
# Si number density = 19.695492 Si / 1000 Ang^3
#
#
#
# Elastic Constant Matrix: (Units=GPa)
#
#
# Indices 1 2 3 4 5 6 
#
# 1 66.9013 36.5521 28.3009 0.0000 -13.1972 0.0000
# 2 36.5521 93.5344 67.4442 0.0000 -16.5724 0.0000
# 3 28.3009 67.4442 125.5053 0.0000 -21.5051 0.0000
# 4 0.0000 0.0000 0.0000 39.6221 0.0000 -5.6044
# 5 -13.1972 -16.5724 -21.5051 0.0000 28.7307 0.0000
# 6 0.0000 0.0000 0.0000 -5.6044 0.0000 18.7517
#
#
#
# Elastic Compliance Matrix: (Units=1/GPa)
#
#
# Indices 1 2 3 4 5 6 
#
# 1 0.019661 -0.006871 0.000146 0.000000 0.005177 0.000000
# 2 -0.006871 0.020168 -0.008989 0.000000 0.001749 0.000000
# 3 0.000146 -0.008989 0.013637 0.000000 0.005090 0.000000
# 4 0.000000 0.000000 0.000000 0.026352 0.000000 0.007876
# 5 0.005177 0.001749 0.005090 0.000000 0.042003 0.000000
# 6 0.000000 0.000000 0.000000 0.007876 0.000000 0.055683
#
#
# Mechanical properties :
#
#
# Convention : Reuss Voigt Hill
#
# Bulk Modulus (GPa) = 45.37562 61.17059 53.27310
# Shear Modulus (GPa) = 23.11842 27.66380 25.39111
#
# Velocity S-wave (km/s) = 3.42978 3.75183 3.59442
# Velocity P-wave (km/s) = 6.22681 7.06356 6.65834
#
# Compressibility (1/GPa) = 0.02203827
#
# Stress axis : x y z
#
# Youngs Moduli (GPa) = 50.86189 49.58403 73.32824
#
# Poissons Ratio (x) = 0.34072 -0.01072
# Poissons Ratio (y) = 0.34950 0.65912
# Poissons Ratio (z) = -0.00744 0.44569
#
# Static dielectric constant tensor:
#      x y z
#    x 3.369240 0.000000 -0.062170 
#    y 0.000000 3.553680 0.000000 
#    z -0.062170 0.000000 3.748930 
# 
# 
# High freq. dielectric constant tensor:
#      x y z
#    x 1.744120 0.000000 -0.008820 
#    y 0.000000 1.770780 0.000000 
#    z -0.008820 0.000000 1.780130 
# 
# From -- ./inp_files/20258.got.cif
#   From: 2010.03.12/outbox.cif.g09.slc.cpg/sg5_11_cif.got.tgz:20258.got - 2010.03.31 09:47:26.
