data_PCOD8049551
_publ_section_title
;
Structure prediction by ZEFSAII (Michael W. Deem and Ramdas Pophale) SiO2 
 PCOD8049551
Probable space group: C 2
;
_chemical_formula_sum "Si O2"
_cell_formula_units_Z 30
_cell_length_a 9.109871
_cell_length_b 10.685662
_cell_length_c 14.445326
_cell_angle_alpha 90.000000
_cell_angle_beta 80.075814
_cell_angle_gamma 90.000000
_cell_volume 1385.139144
_symmetry_space_group_name_H-M "C 2"
_symmetry_group_IT_number 5
_symmetry_cell_setting 'monoclinic'
loop_
_space_group_symop_operation_xyz
x,y,z
-x,y,-z
1/2+x,1/2+y,z
1/2-x,1/2+y,-z
loop_
_atom_site_type_symbol
_atom_site_label
_atom_site_fract_x
_atom_site_fract_y
_atom_site_fract_z
Si Si1 0.941108 0.219370 0.915303
Si Si2 0.394758 0.481363 0.155920
Si Si3 0.600627 0.898116 0.236197
Si Si4 0.007646 0.009802 0.346588
Si Si5 0.782536 0.804690 0.388358
Si Si6 0.000000 0.216506 0.500000
Si Si7 0.606115 0.204210 0.906803
Si Si8 0.841346 0.562557 0.289183
O O1 0.982989 0.296072 0.818398
O O2 0.764833 0.207826 0.938969
O O3 0.024811 0.085414 0.914045
O O4 0.000000 0.293132 0.000000
O O5 0.213359 0.486667 0.164138
O O6 0.434154 0.522577 0.255513
O O7 0.449658 0.341417 0.122011
O O8 0.713156 0.831396 0.294758
O O9 0.472796 0.969687 0.305028
O O10 0.184239 0.988259 0.312224
O O11 0.983704 0.134317 0.409189
O O12 0.916127 0.896471 0.406638
O O13 0.648175 0.803026 0.477757
O O14 0.851135 0.667341 0.367562
O O15 0.618713 0.109628 0.818689
O O16 0.500000 0.153271 0.000000
#
# Coordination Sequence:
#
# PCOD8049551 Si02
#       8
#     4   4   4   4   4   2   4   4
#     4  11  22  39  57  88 124 162 216 270 312 363
#     4  10  20  43  64  81 125 173 208 255 327 372
#     4  10  23  39  62  90 118 171 213 248 318 382
#     4  10  20  40  68  90 126 167 203 257 318 384
#     4  10  21  45  64  89 133 164 204 258 320 382
#     4  10  22  36  68 100 124 158 208 268 314 372
#     4  11  23  39  60  92 127 167 221 269 312 365
#     4  11  21  40  65  89 123 170 213 255 317 374
#
# _framework density 21.658474999999999
#
# number of rings (size 3 to 8) (size 9 to 14) (size 15 to 20)
#    0.000    1.600    5.333    1.200    1.867    4.800 
#    2.400    2.667    0.000    0.000    0.000    0.000 
#    0.000    0.000    0.000    0.000    0.000    0.000 
#
# Total GULP energy -185878.691403 kJ/mol
# GULP energy per Si atom -12391.912760 kJ/mol
# Density = 2.160918 g / cm^3
# Si number density = 21.658475 Si / 1000 Ang^3
#
#
#
# Elastic Constant Matrix: (Units=GPa)
#
#
# Indices 1 2 3 4 5 6 
#
# 1 102.9822 51.7759 15.0510 0.0000 -31.8847 0.0000
# 2 51.7759 80.8669 3.9802 0.0000 -14.6750 0.0000
# 3 15.0510 3.9802 55.8381 0.0000 -16.9720 0.0000
# 4 0.0000 0.0000 0.0000 19.7246 0.0000 -11.9243
# 5 -31.8847 -14.6750 -16.9720 0.0000 45.6093 0.0000
# 6 0.0000 0.0000 0.0000 -11.9243 0.0000 44.4015
#
#
#
# Elastic Compliance Matrix: (Units=1/GPa)
#
#
# Indices 1 2 3 4 5 6 
#
# 1 0.017321 -0.009471 -0.001398 0.000000 0.008541 0.000000
# 2 -0.009471 0.018319 0.001157 0.000000 -0.000296 0.000000
# 3 -0.001398 0.001157 0.020317 0.000000 0.006956 0.000000
# 4 0.000000 0.000000 0.000000 0.060524 0.000000 0.016254
# 5 0.008541 -0.000296 0.006956 0.000000 0.030389 0.000000
# 6 0.000000 0.000000 0.000000 0.016254 0.000000 0.026887
#
#
# Mechanical properties :
#
#
# Convention : Reuss Voigt Hill
#
# Bulk Modulus (GPa) = 27.37153 42.36682 34.86918
# Shear Modulus (GPa) = 24.34752 33.20576 28.77664
#
# Velocity S-wave (km/s) = 3.35648 3.91980 3.64903
# Velocity P-wave (km/s) = 5.26180 6.33168 5.82137
#
# Compressibility (1/GPa) = 0.03653431
#
# Stress axis : x y z
#
# Youngs Moduli (GPa) = 57.73352 54.58724 49.21904
#
# Poissons Ratio (x) = 0.51700 0.06879
# Poissons Ratio (y) = 0.54680 -0.05695
# Poissons Ratio (z) = 0.08069 -0.06316
#
# Static dielectric constant tensor:
#      x y z
#    x 4.168560 0.000000 -0.353120 
#    y 0.000000 4.009880 0.000000 
#    z -0.353120 0.000000 3.888530 
# 
# 
# High freq. dielectric constant tensor:
#      x y z
#    x 1.852860 0.000000 -0.017560 
#    y 0.000000 1.835860 0.000000 
#    z -0.017560 0.000000 1.848910 
# 
# From -- ./inp_files/50307.got.cif
#   From: 2010.03.12/outbox.cif.g09.slc.cpg/sg5_26_cif.got.tgz:50307.got - 2010.03.31 09:47:26.
