data_PCOD8049913
_publ_section_title
;
Structure prediction by ZEFSAII (Michael W. Deem and Ramdas Pophale) SiO2 
 PCOD8049913
Probable space group: C 2
;
_chemical_formula_sum "Si O2"
_cell_formula_units_Z 30
_cell_length_a 12.385170
_cell_length_b 16.728517
_cell_length_c 15.590012
_cell_angle_alpha 90.000000
_cell_angle_beta 153.433675
_cell_angle_gamma 90.000000
_cell_volume 1444.575256
_symmetry_space_group_name_H-M "C 2"
_symmetry_group_IT_number 5
_symmetry_cell_setting 'monoclinic'
loop_
_space_group_symop_operation_xyz
x,y,z
-x,y,-z
1/2+x,1/2+y,z
1/2-x,1/2+y,-z
loop_
_atom_site_type_symbol
_atom_site_label
_atom_site_fract_x
_atom_site_fract_y
_atom_site_fract_z
Si Si1 0.500000 0.710031 0.000000
Si Si2 0.355824 0.189014 0.984653
Si Si3 0.253346 0.857612 0.040737
Si Si4 0.168987 0.151272 0.382875
Si Si5 0.142445 0.976703 0.286900
Si Si6 0.884189 0.456143 0.281680
Si Si7 0.597576 0.113925 0.808171
Si Si8 0.238594 0.295886 0.312659
O O1 0.654591 0.657807 0.043003
O O2 0.684535 0.768871 0.178073
O O3 0.081532 0.182483 0.757449
O O4 0.500000 0.178775 0.000000
O O5 0.388700 0.273348 0.058464
O O6 0.427859 0.121880 0.106651
O O7 0.522247 0.852492 0.191751
O O8 0.097067 0.922063 0.875110
O O9 0.282549 0.878281 0.162375
O O10 0.111873 0.066991 0.296488
O O11 0.358847 0.148248 0.594475
O O12 0.272810 0.213884 0.389240
O O13 0.209946 0.982389 0.234603
O O14 0.351453 0.936723 0.492819
O O15 0.883016 0.521924 0.205243
O O16 0.500000 0.341101 0.500000
#
# Coordination Sequence:
#
# PCOD8049913 Si02
#       8
#     2   4   4   4   4   4   4   4
#     4  12  20  36  66  98 118 156 208 272 326 358
#     4  11  24  40  59  90 128 171 209 249 312 387
#     4  11  23  38  59  89 129 172 198 248 318 388
#     4  10  21  39  64  94 122 154 212 275 311 364
#     4  10  21  38  63  98 125 156 208 267 323 364
#     4  10  22  36  64  93 125 158 206 270 314 370
#     4  11  22  37  67  96 119 160 212 271 324 355
#     4  11  23  38  62  94 129 159 209 265 317 372
#
# _framework density 20.767351000000001
#
# number of rings (size 3 to 8) (size 9 to 14) (size 15 to 20)
#    0.000    1.333    4.000    2.800    3.733    3.733 
#    0.000    0.000   17.600    0.000    0.000    0.000 
#    0.000    0.000    0.000    0.000    0.000    0.000 
#
# Total GULP energy -185955.939457 kJ/mol
# GULP energy per Si atom -12397.062630 kJ/mol
# Density = 2.072008 g / cm^3
# Si number density = 20.767351 Si / 1000 Ang^3
#
#
#
# Elastic Constant Matrix: (Units=GPa)
#
#
# Indices 1 2 3 4 5 6 
#
# 1 115.4739 22.1873 50.8360 -0.0895 7.1654 -0.0583
# 2 22.1873 57.2520 41.0142 0.0138 5.7707 0.0222
# 3 50.8360 41.0142 122.1397 -0.0678 12.1409 -0.0616
# 4 -0.0895 0.0138 -0.0678 32.1681 -0.0640 2.6327
# 5 7.1654 5.7707 12.1409 -0.0640 30.8040 -0.0554
# 6 -0.0583 0.0222 -0.0616 2.6327 -0.0554 16.9602
#
#
#
# Elastic Compliance Matrix: (Units=1/GPa)
#
#
# Indices 1 2 3 4 5 6 
#
# 1 0.010685 -0.001230 -0.003965 0.000019 -0.000692 0.000019
# 2 -0.001230 0.023192 -0.007153 -0.000026 -0.001240 -0.000061
# 3 -0.003965 -0.007153 0.012505 0.000011 -0.002666 0.000031
# 4 0.000019 -0.000026 0.000011 0.031487 0.000053 -0.004887
# 5 -0.000692 -0.001240 -0.002666 0.000053 0.033908 0.000092
# 6 0.000019 -0.000061 0.000031 -0.004887 0.000092 0.059721
#
#
# Mechanical properties :
#
#
# Convention : Reuss Voigt Hill
#
# Bulk Modulus (GPa) = 46.11409 58.10451 52.10930
# Shear Modulus (GPa) = 24.57937 28.04166 26.31051
#
# Velocity S-wave (km/s) = 3.44402 3.67860 3.56324
# Velocity P-wave (km/s) = 6.16995 6.78839 6.48655
#
# Compressibility (1/GPa) = 0.02168535
#
# Stress axis : x y z
#
# Youngs Moduli (GPa) = 93.58916 43.11740 79.97054
#
# Poissons Ratio (x) = 0.05306 0.31710
# Poissons Ratio (y) = 0.11516 0.57200
# Poissons Ratio (z) = 0.37110 0.30840
#
# Static dielectric constant tensor:
#      x y z
#    x 3.536860 0.000130 0.007390 
#    y 0.000130 3.706490 -0.000190 
#    z 0.007390 -0.000190 4.151540 
# 
# 
# High freq. dielectric constant tensor:
#      x y z
#    x 1.791250 0.000000 -0.002090 
#    y 0.000000 1.796190 -0.000020 
#    z -0.002090 -0.000020 1.838780 
# 
# From -- ./inp_files/53432.got.cif
#   From: 2010.03.12/outbox.cif.g09.slc.cpg/sg5_27_cif.got.tgz:53432.got - 2010.03.31 09:47:26.
