data_PCOD8049611
_publ_section_title
;
Structure prediction by ZEFSAII (Michael W. Deem and Ramdas Pophale) SiO2 
 PCOD8049611
Probable space group: C 2
;
_chemical_formula_sum "Si O2"
_cell_formula_units_Z 20
_cell_length_a 24.075859
_cell_length_b 7.345348
_cell_length_c 8.748680
_cell_angle_alpha 90.000000
_cell_angle_beta 147.042487
_cell_angle_gamma 90.000000
_cell_volume 841.684159
_symmetry_space_group_name_H-M "C 2"
_symmetry_group_IT_number 5
_symmetry_cell_setting 'monoclinic'
loop_
_space_group_symop_operation_xyz
x,y,z
-x,y,-z
1/2+x,1/2+y,z
1/2-x,1/2+y,-z
loop_
_atom_site_type_symbol
_atom_site_label
_atom_site_fract_x
_atom_site_fract_y
_atom_site_fract_z
Si Si1 0.132466 0.812040 0.461264
Si Si2 0.813449 0.538937 0.809083
Si Si3 0.966967 0.445976 0.751332
Si Si4 0.998433 0.090061 0.675712
Si Si5 0.823183 0.924953 0.757473
O O1 0.105720 0.850057 0.220124
O O2 0.123094 0.595696 0.475646
O O3 0.244531 0.901928 0.753677
O O4 0.052375 0.901469 0.392062
O O5 0.793815 0.753794 0.798862
O O6 0.779808 0.514111 0.550869
O O7 0.931818 0.500445 0.110965
O O8 0.933040 0.253230 0.601711
O O9 0.000000 0.414735 0.000000
O O10 0.000000 0.114250 0.500000
O O11 0.115477 0.081321 0.009157
#
# Coordination Sequence:
#
# PCOD8049611 Si02
#       5
#     4   4   4   4   4
#     4  10  23  42  70 103 128 177 230 295 342 397
#     4  10  21  37  73 106 126 168 237 302 342 393
#     4  12  21  42  70 102 131 176 234 289 349 398
#     4  12  26  41  62  98 147 189 223 272 355 427
#     4  10  20  41  68 104 135 169 235 293 343 401
#
# _framework density 23.761880000000001
#
# number of rings (size 3 to 8) (size 9 to 14) (size 15 to 20)
#    1.200    0.000    4.000    3.000    2.800    0.800 
#    0.000    2.000    0.000    0.000    0.000    0.000 
#    0.000    0.000    0.000    0.000    0.000    0.000 
#
# Total GULP energy -123923.959330 kJ/mol
# GULP energy per Si atom -12392.395933 kJ/mol
# Density = 2.370780 g / cm^3
# Si number density = 23.761880 Si / 1000 Ang^3
#
#
#
# Elastic Constant Matrix: (Units=GPa)
#
#
# Indices 1 2 3 4 5 6 
#
# 1 68.9666 36.2753 10.1018 0.0000 3.0074 0.0000
# 2 36.2753 153.9048 10.6074 0.0000 -7.9077 0.0000
# 3 10.1018 10.6074 28.1669 0.0000 12.7913 0.0000
# 4 0.0000 0.0000 0.0000 24.9320 0.0000 19.0326
# 5 3.0074 -7.9077 12.7913 0.0000 26.0330 0.0000
# 6 0.0000 0.0000 0.0000 19.0326 0.0000 40.9613
#
#
#
# Elastic Compliance Matrix: (Units=1/GPa)
#
#
# Indices 1 2 3 4 5 6 
#
# 1 0.017171 -0.003809 -0.004245 0.000000 -0.001055 0.000000
# 2 -0.003809 0.007892 -0.003726 0.000000 0.004668 0.000000
# 3 -0.004245 -0.003726 0.049841 0.000000 -0.025131 0.000000
# 4 0.000000 0.000000 0.000000 0.062156 0.000000 -0.028881
# 5 -0.001055 0.004668 -0.025131 0.000000 0.052301 0.000000
# 6 0.000000 0.000000 0.000000 -0.028881 0.000000 0.037833
#
#
# Mechanical properties :
#
#
# Convention : Reuss Voigt Hill
#
# Bulk Modulus (GPa) = 19.47622 40.55635 30.01628
# Shear Modulus (GPa) = 18.66597 31.32215 24.99406
#
# Velocity S-wave (km/s) = 2.80579 3.63460 3.24675
# Velocity P-wave (km/s) = 4.32560 5.89225 5.16863
#
# Compressibility (1/GPa) = 0.05134468
#
# Stress axis : x y z
#
# Youngs Moduli (GPa) = 58.23807 126.71230 20.06391
#
# Poissons Ratio (x) = 0.48262 0.08517
# Poissons Ratio (y) = 0.22182 0.07476
# Poissons Ratio (z) = 0.24721 0.47211
#
# Static dielectric constant tensor:
#      x y z
#    x 3.918360 0.000000 0.333160 
#    y 0.000000 4.436170 0.000000 
#    z 0.333160 0.000000 3.767400 
# 
# 
# High freq. dielectric constant tensor:
#      x y z
#    x 1.914940 0.000000 0.039960 
#    y 0.000000 1.961410 0.000000 
#    z 0.039960 0.000000 1.886000 
# 
# From -- ./inp_files/30631.got.cif
#   From: 2010.03.12/outbox.cif.g09.slc.cpg/sg5_16_cif.got.tgz:30631.got - 2010.03.31 09:47:26.
