data_PCOD8049077
_publ_section_title
;
Structure prediction by ZEFSAII (Michael W. Deem and Ramdas Pophale) SiO2 
 PCOD8049077
Probable space group: C 2
;
_chemical_formula_sum "Si O2"
_cell_formula_units_Z 30
_cell_length_a 26.831112
_cell_length_b 10.057381
_cell_length_c 14.179872
_cell_angle_alpha 90.000000
_cell_angle_beta 21.516239
_cell_angle_gamma 90.000000
_cell_volume 1403.407099
_symmetry_space_group_name_H-M "C 2"
_symmetry_group_IT_number 5
_symmetry_cell_setting 'monoclinic'
loop_
_space_group_symop_operation_xyz
x,y,z
-x,y,-z
1/2+x,1/2+y,z
1/2-x,1/2+y,-z
loop_
_atom_site_type_symbol
_atom_site_label
_atom_site_fract_x
_atom_site_fract_y
_atom_site_fract_z
Si Si1 0.324341 0.944780 0.589930
Si Si2 0.366313 0.669289 0.794284
Si Si3 0.742410 0.409527 0.353045
Si Si4 0.334963 0.159610 0.422172
Si Si5 0.666588 0.690019 0.532603
Si Si6 0.500000 0.998815 0.000000
Si Si7 0.079882 0.300297 0.108541
Si Si8 0.160746 0.461036 0.224517
O O1 0.260504 0.808798 0.656432
O O2 0.489179 0.925344 0.304814
O O3 0.278993 0.977304 0.775918
O O4 0.278248 0.067683 0.606155
O O5 0.500000 0.622191 0.500000
O O6 0.401067 0.695464 0.841876
O O7 0.310211 0.807740 0.851970
O O8 0.248703 0.556072 0.999780
O O9 0.636010 0.306464 0.587554
O O10 0.678766 0.553740 0.451971
O O11 0.871835 0.410316 0.196737
O O12 0.781673 0.355031 0.180336
O O13 0.224916 0.168251 0.533023
O O14 0.471368 0.093831 0.140489
O O15 0.506802 0.725841 0.821593
O O16 0.000000 0.495739 0.500000
#
# Coordination Sequence:
#
# PCOD8049077 Si02
#       8
#     4   4   4   4   4   2   4   4
#     4  10  20  42  63  92 129 171 216 265 329 384
#     4  11  23  43  70  97 135 170 214 272 341 399
#     4  11  20  35  61  82 116 167 212 262 312 376
#     4  11  20  35  61  90 120 169 220 256 314 378
#     4   9  20  36  60  86 124 170 210 261 317 367
#     4  10  20  36  52  80 122 164 206 272 318 358
#     4  10  20  40  63  89 125 171 209 263 324 386
#     4  11  23  45  71  98 131 172 217 277 335 397
#
# _framework density 21.376549000000001
#
# number of rings (size 3 to 8) (size 9 to 14) (size 15 to 20)
#    0.800    0.800    4.000    3.200    0.000    2.667 
#    0.000    9.333    0.000    0.800    0.000    0.000 
#    0.000    0.000    0.000    0.000    0.000    0.000 
#
# Total GULP energy -185837.571057 kJ/mol
# GULP energy per Si atom -12389.171404 kJ/mol
# Density = 2.132789 g / cm^3
# Si number density = 21.376549 Si / 1000 Ang^3
#
#
#
# Elastic Constant Matrix: (Units=GPa)
#
#
# Indices 1 2 3 4 5 6 
#
# 1 78.5913 25.2146 14.5880 0.0000 12.4521 0.0000
# 2 25.2146 135.1263 52.9280 0.0000 12.8794 0.0000
# 3 14.5880 52.9280 84.0922 0.0000 18.6379 0.0000
# 4 0.0000 0.0000 0.0000 41.2911 0.0000 7.9320
# 5 12.4521 12.8794 18.6379 0.0000 23.6441 0.0000
# 6 0.0000 0.0000 0.0000 7.9320 0.0000 30.9165
#
#
#
# Elastic Compliance Matrix: (Units=1/GPa)
#
#
# Indices 1 2 3 4 5 6 
#
# 1 0.014420 -0.002195 0.000362 0.000000 -0.006683 0.000000
# 2 -0.002195 0.010163 -0.006113 0.000000 0.000439 0.000000
# 3 0.000362 -0.006113 0.018152 0.000000 -0.011169 0.000000
# 4 0.000000 0.000000 0.000000 0.025474 0.000000 -0.006536
# 5 -0.006683 0.000439 -0.011169 0.000000 0.054379 0.000000
# 6 0.000000 0.000000 0.000000 -0.006536 0.000000 0.034022
#
#
# Mechanical properties :
#
#
# Convention : Reuss Voigt Hill
#
# Bulk Modulus (GPa) = 37.25587 53.69678 45.47633
# Shear Modulus (GPa) = 27.55577 32.84229 30.19903
#
# Velocity S-wave (km/s) = 3.59425 3.92391 3.76269
# Velocity P-wave (km/s) = 5.88991 6.76043 6.34013
#
# Compressibility (1/GPa) = 0.02684141
#
# Stress axis : x y z
#
# Youngs Moduli (GPa) = 69.34699 98.39931 55.09037
#
# Poissons Ratio (x) = 0.21603 -0.01992
# Poissons Ratio (y) = 0.15224 0.33676
# Poissons Ratio (z) = -0.02507 0.60150
#
# Static dielectric constant tensor:
#      x y z
#    x 3.728020 0.000000 0.221860 
#    y 0.000000 3.951920 0.000000 
#    z 0.221860 0.000000 3.788750 
# 
# 
# High freq. dielectric constant tensor:
#      x y z
#    x 1.832190 0.000000 0.023070 
#    y 0.000000 1.842930 0.000000 
#    z 0.023070 0.000000 1.809850 
# 
# From -- ./inp_files/58401.got.cif
#   From: 2010.03.12/outbox.cif.g09.slc.cpg/sg5_30_cif.got.tgz:58401.got - 2010.03.31 09:47:26.
