data_PCOD8049496
_publ_section_title
;
Structure prediction by ZEFSAII (Michael W. Deem and Ramdas Pophale) SiO2 
 PCOD8049496
Probable space group: C 2
;
_chemical_formula_sum "Si O2"
_cell_formula_units_Z 32
_cell_length_a 10.881848
_cell_length_b 9.211600
_cell_length_c 19.678212
_cell_angle_alpha 90.000000
_cell_angle_beta 51.126186
_cell_angle_gamma 90.000000
_cell_volume 1535.673008
_symmetry_space_group_name_H-M "C 2"
_symmetry_group_IT_number 5
_symmetry_cell_setting 'monoclinic'
loop_
_space_group_symop_operation_xyz
x,y,z
-x,y,-z
1/2+x,1/2+y,z
1/2-x,1/2+y,-z
loop_
_atom_site_type_symbol
_atom_site_label
_atom_site_fract_x
_atom_site_fract_y
_atom_site_fract_z
Si Si1 0.600342 0.568210 0.129907
Si Si2 0.549050 0.858850 0.808093
Si Si3 0.073189 0.419638 0.547184
Si Si4 0.099356 0.075468 0.533822
Si Si5 0.643263 0.538324 0.271546
Si Si6 0.869070 0.362649 0.736596
Si Si7 0.427889 0.053094 0.960279
Si Si8 0.948847 0.858790 0.091233
O O1 0.468629 0.691747 0.161388
O O2 0.603097 0.522953 0.206930
O O3 0.572785 0.417452 0.102161
O O4 0.764042 0.626310 0.040852
O O5 0.510526 0.858533 0.741777
O O6 0.722742 0.921617 0.757134
O O7 0.422539 0.952971 0.895655
O O8 0.116850 0.249424 0.532527
O O9 0.224740 0.509350 0.521064
O O10 0.000000 0.469483 0.500000
O O11 0.931988 0.452758 0.650263
O O12 0.000000 0.034208 0.500000
O O13 0.007845 0.004067 0.629234
O O14 0.687933 0.705264 0.271340
O O15 0.719264 0.427903 0.828305
O O16 0.551499 0.184427 0.904163
O O17 0.500000 0.963695 0.000000
O O18 0.000000 0.917490 0.000000
#
# Coordination Sequence:
#
# PCOD8049496 Si02
#       8
#     4   4   4   4   4   4   4   4
#     4  11  23  36  56  91 121 154 207 255 298 361
#     4  11  20  39  62  84 116 163 207 245 303 368
#     4  10  23  42  66  95 127 165 210 259 315 377
#     4  10  22  42  66  93 127 163 208 259 316 377
#     4  10  20  40  62  86 119 160 200 251 309 368
#     4  10  21  40  63  87 121 162 200 248 310 367
#     4  11  19  38  61  81 117 166 203 244 307 362
#     4  11  22  40  58  84 127 158 198 255 306 358
#
# _framework density 20.837769000000002
#
# number of rings (size 3 to 8) (size 9 to 14) (size 15 to 20)
#    0.000    1.500    2.500    4.500    1.750    1.000 
#    6.750    0.000    0.000    0.000    0.000    0.000 
#    0.000    0.000    0.000    0.000    0.000    0.000 
#
# Total GULP energy -198247.925657 kJ/mol
# GULP energy per Si atom -12390.495354 kJ/mol
# Density = 2.079034 g / cm^3
# Si number density = 20.837769 Si / 1000 Ang^3
#
#
#
# Elastic Constant Matrix: (Units=GPa)
#
#
# Indices 1 2 3 4 5 6 
#
# 1 93.6371 34.1004 39.0615 0.0000 -2.0956 0.0000
# 2 34.1004 44.7777 18.6976 0.0000 -0.2234 0.0000
# 3 39.0615 18.6976 158.5078 0.0000 -1.1599 0.0000
# 4 0.0000 0.0000 0.0000 16.4101 0.0000 -1.7115
# 5 -2.0956 -0.2234 -1.1599 0.0000 32.4881 0.0000
# 6 0.0000 0.0000 0.0000 -1.7115 0.0000 38.2551
#
#
#
# Elastic Compliance Matrix: (Units=1/GPa)
#
#
# Indices 1 2 3 4 5 6 
#
# 1 0.015752 -0.010911 -0.002589 0.000000 0.000849 0.000000
# 2 -0.010911 0.031047 -0.000977 0.000000 -0.000525 0.000000
# 3 -0.002589 -0.000977 0.007063 0.000000 0.000078 0.000000
# 4 0.000000 0.000000 0.000000 0.061224 0.000000 0.002739
# 5 0.000849 -0.000525 0.000078 0.000000 0.030834 0.000000
# 6 0.000000 0.000000 0.000000 0.002739 0.000000 0.026263
#
#
# Mechanical properties :
#
#
# Convention : Reuss Voigt Hill
#
# Bulk Modulus (GPa) = 40.14735 53.40463 46.77599
# Shear Modulus (GPa) = 23.87339 31.10151 27.48745
#
# Velocity S-wave (km/s) = 3.38846 3.86755 3.63590
# Velocity P-wave (km/s) = 5.88365 6.75488 6.33426
#
# Compressibility (1/GPa) = 0.02490825
#
# Stress axis : x y z
#
# Youngs Moduli (GPa) = 63.48515 32.20928 141.59075
#
# Poissons Ratio (x) = 0.35142 0.36651
# Poissons Ratio (y) = 0.69266 0.13839
# Poissons Ratio (z) = 0.16433 0.03148
#
# Static dielectric constant tensor:
#      x y z
#    x 3.742470 0.000000 0.070090 
#    y 0.000000 3.496790 0.000000 
#    z 0.070090 0.000000 4.124350 
# 
# 
# High freq. dielectric constant tensor:
#      x y z
#    x 1.810030 0.000000 0.005050 
#    y 0.000000 1.787360 0.000000 
#    z 0.005050 0.000000 1.838660 
# 
# From -- ./inp_files/65117.got.cif
#   From: 2010.03.12/outbox.cif.g09.slc.cpg/sg5_33_cif.got.tgz:65117.got - 2010.03.31 09:47:26.
