data_PCOD8049792
_publ_section_title
;
Structure prediction by ZEFSAII (Michael W. Deem and Ramdas Pophale) SiO2 
 PCOD8049792
Probable space group: C 2
;
_chemical_formula_sum "Si O2"
_cell_formula_units_Z 28
_cell_length_a 21.645425
_cell_length_b 8.793363
_cell_length_c 20.219840
_cell_angle_alpha 90.000000
_cell_angle_beta 159.746574
_cell_angle_gamma 90.000000
_cell_volume 1332.269915
_symmetry_space_group_name_H-M "C 2"
_symmetry_group_IT_number 5
_symmetry_cell_setting 'monoclinic'
loop_
_space_group_symop_operation_xyz
x,y,z
-x,y,-z
1/2+x,1/2+y,z
1/2-x,1/2+y,-z
loop_
_atom_site_type_symbol
_atom_site_label
_atom_site_fract_x
_atom_site_fract_y
_atom_site_fract_z
Si Si1 0.809422 0.776430 0.641997
Si Si2 0.500833 0.885929 0.152864
Si Si3 0.391845 0.062620 0.172267
Si Si4 0.287601 0.559776 0.355078
Si Si5 0.181149 0.020736 0.762586
Si Si6 0.766657 0.124760 0.567129
Si Si7 0.279776 0.269577 0.956625
O O1 0.710042 0.732021 0.611127
O O2 0.713190 0.674981 0.488953
O O3 0.806472 0.949991 0.618489
O O4 0.016842 0.738112 0.858032
O O5 0.487474 0.961273 0.211419
O O6 0.589795 0.718804 0.245580
O O7 0.633249 0.978535 0.239817
O O8 0.304109 0.890175 0.920453
O O9 0.279218 0.945632 0.104158
O O10 0.555458 0.145674 0.375554
O O11 0.257389 0.191312 0.007694
O O12 0.474917 0.469064 0.551831
O O13 0.240756 0.564696 0.230717
O O14 0.168569 0.176176 0.791847
#
# Coordination Sequence:
#
# PCOD8049792 Si02
#       7
#     4   4   4   4   4   4   4
#     4  11  21  37  63  92 130 173 210 269 326 389
#     4  11  22  39  62  92 129 171 212 265 321 390
#     4  10  21  36  57  93 132 168 207 265 327 390
#     4  11  21  43  69  90 125 168 229 263 326 383
#     4  10  23  39  70  92 120 174 220 274 305 392
#     4  11  21  36  59  92 128 171 205 263 332 385
#     4  10  22  36  58  97 126 169 211 262 324 389
#
# _framework density 21.016763000000001
#
# number of rings (size 3 to 8) (size 9 to 14) (size 15 to 20)
#    0.000    1.429    5.714    1.286    2.000    5.714 
#    0.000    0.000    6.286    1.714    0.000    0.000 
#    0.000    0.000    0.000    0.000    0.000    0.000 
#
# Total GULP energy -173435.747928 kJ/mol
# GULP energy per Si atom -12388.267709 kJ/mol
# Density = 2.096893 g / cm^3
# Si number density = 21.016763 Si / 1000 Ang^3
#
#
#
# Elastic Constant Matrix: (Units=GPa)
#
#
# Indices 1 2 3 4 5 6 
#
# 1 51.0807 0.6165 17.7096 -0.0033 -1.0320 -0.0015
# 2 0.6165 74.4864 26.6540 -0.0020 -7.8113 -0.0009
# 3 17.7096 26.6540 101.9188 -0.0038 -4.4840 -0.0022
# 4 -0.0033 -0.0020 -0.0038 42.2003 -0.0020 6.4431
# 5 -1.0320 -7.8113 -4.4840 -0.0020 25.4489 -0.0010
# 6 -0.0015 -0.0009 -0.0022 6.4431 -0.0010 17.5317
#
#
#
# Elastic Compliance Matrix: (Units=1/GPa)
#
#
# Indices 1 2 3 4 5 6 
#
# 1 0.020943 0.001300 -0.003955 0.000001 0.000551 0.000001
# 2 0.001300 0.015285 -0.004046 0.000001 0.004031 0.000000
# 3 -0.003955 -0.004046 0.011585 0.000000 0.000639 0.000001
# 4 0.000001 0.000001 0.000000 0.025105 0.000002 -0.009226
# 5 0.000551 0.004031 0.000639 0.000002 0.040667 0.000002
# 6 0.000001 0.000000 0.000001 -0.009226 0.000002 0.060430
#
#
# Mechanical properties :
#
#
# Convention : Reuss Voigt Hill
#
# Bulk Modulus (GPa) = 29.05996 35.27180 32.16588
# Shear Modulus (GPa) = 25.13972 29.20323 27.17148
#
# Velocity S-wave (km/s) = 3.46233 3.73167 3.59952
# Velocity P-wave (km/s) = 5.46266 5.94864 5.71082
#
# Compressibility (1/GPa) = 0.03441161
#
# Stress axis : x y z
#
# Youngs Moduli (GPa) = 47.74764 65.42344 86.31764
#
# Poissons Ratio (x) = -0.08503 0.34137
# Poissons Ratio (y) = -0.06205 0.34923
# Poissons Ratio (z) = 0.18883 0.26469
#
# Static dielectric constant tensor:
#      x y z
#    x 3.710860 0.000000 0.134880 
#    y 0.000000 3.817730 0.000000 
#    z 0.134880 0.000000 4.121010 
# 
# 
# High freq. dielectric constant tensor:
#      x y z
#    x 1.791800 0.000000 0.019250 
#    y 0.000000 1.806920 0.000000 
#    z 0.019250 0.000000 1.842990 
# 
# From -- ./inp_files/67393.got.cif
#   From: 2010.03.12/outbox.cif.g09.slc.cpg/sg5_34_cif.got.tgz:67393.got - 2010.03.31 09:47:26.
