data_PCOD8049826
_publ_section_title
;
Structure prediction by ZEFSAII (Michael W. Deem and Ramdas Pophale) SiO2 
 PCOD8049826
Probable space group: C 2
;
_chemical_formula_sum "Si O2"
_cell_formula_units_Z 24
_cell_length_a 12.872481
_cell_length_b 5.098189
_cell_length_c 23.093295
_cell_angle_alpha 90.000000
_cell_angle_beta 52.441657
_cell_angle_gamma 90.000000
_cell_volume 1201.409480
_symmetry_space_group_name_H-M "C 2"
_symmetry_group_IT_number 5
_symmetry_cell_setting 'monoclinic'
loop_
_space_group_symop_operation_xyz
x,y,z
-x,y,-z
1/2+x,1/2+y,z
1/2-x,1/2+y,-z
loop_
_atom_site_type_symbol
_atom_site_label
_atom_site_fract_x
_atom_site_fract_y
_atom_site_fract_z
Si Si1 0.820497 0.295670 0.500028
Si Si2 0.415914 0.015773 0.576953
Si Si3 0.776014 0.216445 0.267047
Si Si4 0.109981 0.686395 0.916195
Si Si5 0.226659 0.695438 0.152248
Si Si6 0.942329 0.705719 0.197429
O O1 0.726412 0.504997 0.499801
O O2 0.815036 0.338261 0.572347
O O3 0.973630 0.336359 0.427637
O O4 0.500000 0.186719 0.500000
O O5 0.341621 0.201135 0.647010
O O6 0.713501 0.247090 0.225030
O O7 0.864582 0.962217 0.241454
O O8 0.865431 0.464069 0.252046
O O9 0.220686 0.908350 0.880291
O O10 0.042819 0.673240 0.876393
O O11 0.176772 0.409665 0.908939
O O12 0.000000 0.753879 0.000000
O O13 0.085705 0.727659 0.173422
#
# Coordination Sequence:
#
# PCOD8049826 Si02
#       6
#     4   4   4   4   4   4
#     4   9  20  36  53  77 106 135 176 224 277 326
#     4   8  22  37  57  82 109 143 186 236 277 328
#     4  10  21  39  53  83 110 146 187 230 272 329
#     4  10  21  37  58  86 115 143 183 228 267 323
#     4  10  21  37  57  82 114 148 184 222 274 327
#     4  10  22  37  59  80 114 148 184 223 274 329
#
# _framework density 19.976538000000001
#
# number of rings (size 3 to 8) (size 9 to 14) (size 15 to 20)
#    1.000    1.333    0.000    1.500    0.000    9.333 
#    0.000    0.000    0.000    0.000    0.000    0.000 
#    0.000    0.000    0.000    0.000    0.000    0.000 
#
# Total GULP energy -148727.688917 kJ/mol
# GULP energy per Si atom -12393.974076 kJ/mol
# Density = 1.993107 g / cm^3
# Si number density = 19.976538 Si / 1000 Ang^3
#
#
#
# Elastic Constant Matrix: (Units=GPa)
#
#
# Indices 1 2 3 4 5 6 
#
# 1 143.4923 27.8734 20.8162 -0.0248 -10.9444 -0.0318
# 2 27.8734 88.0885 10.0648 -0.1447 1.3479 -0.1359
# 3 20.8162 10.0648 107.7209 -0.0486 -6.2854 -0.0135
# 4 -0.0248 -0.1447 -0.0486 16.1609 -0.0021 3.9945
# 5 -10.9444 1.3479 -6.2854 -0.0021 12.4955 0.0007
# 6 -0.0318 -0.1359 -0.0135 3.9945 0.0007 20.0937
#
#
#
# Elastic Compliance Matrix: (Units=1/GPa)
#
#
# Indices 1 2 3 4 5 6 
#
# 1 0.008132 -0.002574 -0.000926 -0.000012 0.006934 -0.000003
# 2 -0.002574 0.012330 -0.000890 0.000088 -0.004032 0.000061
# 3 -0.000926 -0.000890 0.009791 0.000022 0.004210 -0.000005
# 4 -0.000012 0.000088 0.000022 0.065076 0.000003 -0.012936
# 5 0.006934 -0.004032 0.004210 0.000003 0.088655 -0.000017
# 6 -0.000003 0.000061 -0.000005 -0.012936 -0.000017 0.052339
#
#
# Mechanical properties :
#
#
# Convention : Reuss Voigt Hill
#
# Bulk Modulus (GPa) = 46.56870 50.75674 48.66272
# Shear Modulus (GPa) = 19.82074 28.45316 24.13695
#
# Velocity S-wave (km/s) = 3.15334 3.77812 3.47978
# Velocity P-wave (km/s) = 6.05148 6.67050 6.36852
#
# Compressibility (1/GPa) = 0.02147365
#
# Stress axis : x y z
#
# Youngs Moduli (GPa) = 122.96787 81.10192 102.13395
#
# Poissons Ratio (x) = 0.20872 0.09462
# Poissons Ratio (y) = 0.31646 0.09089
# Poissons Ratio (z) = 0.11392 0.07218
#
# Static dielectric constant tensor:
#      x y z
#    x 3.653050 -0.000010 0.075020 
#    y -0.000010 3.571500 0.000010 
#    z 0.075020 0.000010 3.427870 
# 
# 
# High freq. dielectric constant tensor:
#      x y z
#    x 1.787250 0.000000 -0.001380 
#    y 0.000000 1.779530 0.000000 
#    z -0.001380 0.000000 1.764160 
# 
# From -- ./inp_files/68098.got.cif
#   From: 2010.03.12/outbox.cif.g09.slc.cpg/sg5_35_cif.got.tgz:68098.got - 2010.03.31 09:47:26.
