data_PCOD8049415
_publ_section_title
;
Structure prediction by ZEFSAII (Michael W. Deem and Ramdas Pophale) SiO2 
 PCOD8049415
Probable space group: C 2
;
_chemical_formula_sum "Si O2"
_cell_formula_units_Z 26
_cell_length_a 14.003671
_cell_length_b 4.813819
_cell_length_c 17.635433
_cell_angle_alpha 90.000000
_cell_angle_beta 121.496846
_cell_angle_gamma 90.000000
_cell_volume 1013.673794
_symmetry_space_group_name_H-M "C 2"
_symmetry_group_IT_number 5
_symmetry_cell_setting 'monoclinic'
loop_
_space_group_symop_operation_xyz
x,y,z
-x,y,-z
1/2+x,1/2+y,z
1/2-x,1/2+y,-z
loop_
_atom_site_type_symbol
_atom_site_label
_atom_site_fract_x
_atom_site_fract_y
_atom_site_fract_z
Si Si1 0.069268 0.242900 0.792035
Si Si2 0.746078 0.908357 0.754695
Si Si3 0.107867 0.403426 0.166638
Si Si4 0.631204 0.736112 0.395242
Si Si5 0.500000 0.555883 0.000000
Si Si6 0.825971 0.870139 0.044369
Si Si7 0.725265 0.743088 0.585750
O O1 0.156940 0.441042 0.785085
O O2 0.132911 0.981345 0.856471
O O3 0.005464 0.420847 0.830167
O O4 0.982417 0.135769 0.692183
O O5 0.848439 0.714935 0.827189
O O6 0.688637 0.751430 0.658873
O O7 0.798269 0.207188 0.753489
O O8 0.086976 0.261117 0.077339
O O9 0.622313 0.696851 0.483887
O O10 0.735126 0.553302 0.413457
O O11 0.666887 0.045040 0.383328
O O12 0.431131 0.363594 0.030071
O O13 0.724661 0.061696 0.969061
#
# Coordination Sequence:
#
# PCOD8049415 Si02
#       7
#     4   4   4   4   2   4   4
#     4  11  24  40  68  92 124 167 212 250 315 376
#     4  12  23  40  65  92 125 165 203 262 305 372
#     4  11  25  42  61  94 125 161 213 255 312 364
#     4  10  21  39  62  92 120 166 203 253 311 368
#     4  10  24  42  66  86 126 170 202 260 314 370
#     4  11  25  43  62  93 127 162 209 263 306 368
#     4  10  20  39  63  87 130 157 202 261 307 362
#
# _framework density 25.649279
#
# number of rings (size 3 to 8) (size 9 to 14) (size 15 to 20)
#    0.000    1.231    3.077    1.846    0.000   10.462 
#    0.000    0.000    0.000    7.385    0.000    0.000 
#    0.000    0.000    0.000    0.000    0.000    0.000 
#
# Total GULP energy -161197.671123 kJ/mol
# GULP energy per Si atom -12399.820856 kJ/mol
# Density = 2.559090 g / cm^3
# Si number density = 25.649279 Si / 1000 Ang^3
#
#
#
# Elastic Constant Matrix: (Units=GPa)
#
#
# Indices 1 2 3 4 5 6 
#
# 1 117.9060 10.9267 8.4273 0.0000 -14.5334 -0.0001
# 2 10.9267 65.1459 -20.5030 -0.0001 -3.5280 -0.0002
# 3 8.4273 -20.5030 116.4731 0.0000 1.8117 -0.0002
# 4 0.0000 -0.0001 0.0000 18.1859 0.0000 -5.0478
# 5 -14.5334 -3.5280 1.8117 0.0000 38.7105 0.0000
# 6 -0.0001 -0.0002 -0.0002 -5.0478 0.0000 11.4724
#
#
#
# Elastic Compliance Matrix: (Units=1/GPa)
#
#
# Indices 1 2 3 4 5 6 
#
# 1 0.009116 -0.001666 -0.001004 0.000000 0.003318 0.000000
# 2 -0.001666 0.016625 0.003035 0.000000 0.000748 0.000000
# 3 -0.001004 0.003035 0.009201 0.000000 -0.000531 0.000000
# 4 0.000000 0.000000 0.000000 0.062637 0.000000 0.027560
# 5 0.003318 0.000748 -0.000531 0.000000 0.027171 0.000000
# 6 0.000000 0.000000 0.000000 0.027560 0.000000 0.099292
#
#
# Mechanical properties :
#
#
# Convention : Reuss Voigt Hill
#
# Bulk Modulus (GPa) = 28.03174 33.02522 30.52848
# Shear Modulus (GPa) = 21.25817 33.71870 27.48843
#
# Velocity S-wave (km/s) = 2.88201 3.62968 3.27724
# Velocity P-wave (km/s) = 4.69332 5.51994 5.12333
#
# Compressibility (1/GPa) = 0.03567385
#
# Stress axis : x y z
#
# Youngs Moduli (GPa) = 109.69197 60.14914 108.68446
#
# Poissons Ratio (x) = 0.10018 0.10916
# Poissons Ratio (y) = 0.18269 -0.32991
# Poissons Ratio (z) = 0.11017 -0.18258
#
# Static dielectric constant tensor:
#      x y z
#    x 4.236590 0.000000 -0.093330 
#    y 0.000000 4.244490 0.000000 
#    z -0.093330 0.000000 5.281400 
# 
# 
# High freq. dielectric constant tensor:
#      x y z
#    x 1.995940 0.000000 -0.009440 
#    y 0.000000 2.015240 0.000000 
#    z -0.009440 0.000000 2.051310 
# 
# From -- ./inp_files/61036.got.cif
#   From: 2010.03.12/outbox.cif.g09.slc.cpg/sg5_31_cif.got.tgz:61036.got - 2010.03.31 09:47:26.
