data_PCOD8049288
_publ_section_title
;
Structure prediction by ZEFSAII (Michael W. Deem and Ramdas Pophale) SiO2 
 PCOD8049288
Probable space group: C 2
;
_chemical_formula_sum "Si O2"
_cell_formula_units_Z 28
_cell_length_a 8.922047
_cell_length_b 11.814469
_cell_length_c 14.571728
_cell_angle_alpha 90.000000
_cell_angle_beta 113.244104
_cell_angle_gamma 90.000000
_cell_volume 1411.320986
_symmetry_space_group_name_H-M "C 2"
_symmetry_group_IT_number 5
_symmetry_cell_setting 'monoclinic'
loop_
_space_group_symop_operation_xyz
x,y,z
-x,y,-z
1/2+x,1/2+y,z
1/2-x,1/2+y,-z
loop_
_atom_site_type_symbol
_atom_site_label
_atom_site_fract_x
_atom_site_fract_y
_atom_site_fract_z
Si Si1 0.724758 0.170990 0.858453
Si Si2 0.137957 0.108724 0.730506
Si Si3 0.107923 0.279186 0.269177
Si Si4 0.312422 0.201521 0.948004
Si Si5 0.885336 0.764232 0.713587
Si Si6 0.931751 0.884845 0.387756
Si Si7 0.214894 0.408385 0.816728
O O1 0.844270 0.243583 0.822902
O O2 0.541935 0.218786 0.806535
O O3 0.738397 0.040351 0.834528
O O4 0.778704 0.182557 0.977270
O O5 0.226130 0.122401 0.850655
O O6 0.251756 0.163901 0.678848
O O7 0.965476 0.173014 0.693346
O O8 0.104388 0.980044 0.696838
O O9 0.264715 0.317804 0.365030
O O10 0.978068 0.381181 0.233765
O O11 0.294388 0.333998 0.917727
O O12 0.500000 0.164330 0.000000
O O13 0.806497 0.872285 0.745538
O O14 0.934208 0.799542 0.622451
O O15 0.000000 0.933389 0.500000
#
# Coordination Sequence:
#
# PCOD8049288 Si02
#       7
#     4   4   4   4   4   4   4
#     4  11  19  36  59  82 119 160 193 235 287 336
#     4  10  21  40  60  84 126 152 193 243 295 345
#     4   9  22  38  57  88 114 146 204 247 280 350
#     4  10  20  38  55  91 121 161 199 228 284 357
#     4   9  20  39  59  82 119 151 192 250 288 345
#     4  11  23  39  63  88 112 156 200 245 304 348
#     4  10  21  38  57  81 120 157 191 241 290 338
#
# _framework density 19.839569999999998
#
# number of rings (size 3 to 8) (size 9 to 14) (size 15 to 20)
#    0.000    2.286    2.857    1.714    0.000    5.714 
#    5.143    2.143    0.000    0.000    0.000    0.000 
#    0.000    0.000    0.000    0.000    0.000    0.000 
#
# Total GULP energy -173562.656856 kJ/mol
# GULP energy per Si atom -12397.332633 kJ/mol
# Density = 1.979441 g / cm^3
# Si number density = 19.839570 Si / 1000 Ang^3
#
#
#
# Elastic Constant Matrix: (Units=GPa)
#
#
# Indices 1 2 3 4 5 6 
#
# 1 105.3513 20.8768 29.0639 0.0000 12.6934 0.0000
# 2 20.8768 64.6570 34.7937 0.0000 9.4923 0.0000
# 3 29.0639 34.7937 92.6195 0.0000 6.6265 0.0000
# 4 0.0000 0.0000 0.0000 22.4639 0.0000 -1.8582
# 5 12.6934 9.4923 6.6265 0.0000 12.6760 0.0000
# 6 0.0000 0.0000 0.0000 -1.8582 0.0000 17.3954
#
#
#
# Elastic Compliance Matrix: (Units=1/GPa)
#
#
# Indices 1 2 3 4 5 6 
#
# 1 0.011536 -0.000938 -0.002588 0.000000 -0.009497 0.000000
# 2 -0.000938 0.021099 -0.006824 0.000000 -0.011294 0.000000
# 3 -0.002588 -0.006824 0.014151 0.000000 0.000304 0.000000
# 4 0.000000 0.000000 0.000000 0.044913 0.000000 0.004798
# 5 -0.009497 -0.011294 0.000304 0.000000 0.096697 0.000000
# 6 0.000000 0.000000 0.000000 0.004798 0.000000 0.057999
#
#
# Mechanical properties :
#
#
# Convention : Reuss Voigt Hill
#
# Bulk Modulus (GPa) = 38.33458 48.01073 43.17265
# Shear Modulus (GPa) = 18.12976 22.36664 20.24820
#
# Velocity S-wave (km/s) = 3.02622 3.36128 3.19814
# Velocity P-wave (km/s) = 5.61916 6.27027 5.95362
#
# Compressibility (1/GPa) = 0.02608611
#
# Stress axis : x y z
#
# Youngs Moduli (GPa) = 86.68405 47.39528 70.66766
#
# Poissons Ratio (x) = 0.04445 0.18291
# Poissons Ratio (y) = 0.08130 0.48223
# Poissons Ratio (z) = 0.22436 0.32342
#
# Static dielectric constant tensor:
#      x y z
#    x 3.937680 0.000000 -0.056570 
#    y 0.000000 3.414030 0.000000 
#    z -0.056570 0.000000 3.266630 
# 
# 
# High freq. dielectric constant tensor:
#      x y z
#    x 1.798350 0.000000 -0.005210 
#    y 0.000000 1.765130 0.000000 
#    z -0.005210 0.000000 1.741720 
# 
# From -- ./inp_files/50149.got.cif
#   From: 2010.03.12/outbox.cif.g09.slc.cpg/sg5_26_cif.got.tgz:50149.got - 2010.03.31 09:47:26.
