data_PCOD8049670
_publ_section_title
;
Structure prediction by ZEFSAII (Michael W. Deem and Ramdas Pophale) SiO2 
 PCOD8049670
Probable space group: C 2
;
_chemical_formula_sum "Si O2"
_cell_formula_units_Z 26
_cell_length_a 13.750702
_cell_length_b 5.224151
_cell_length_c 14.921226
_cell_angle_alpha 90.000000
_cell_angle_beta 75.504499
_cell_angle_gamma 90.000000
_cell_volume 1037.756612
_symmetry_space_group_name_H-M "C 2"
_symmetry_group_IT_number 5
_symmetry_cell_setting 'monoclinic'
loop_
_space_group_symop_operation_xyz
x,y,z
-x,y,-z
1/2+x,1/2+y,z
1/2-x,1/2+y,-z
loop_
_atom_site_type_symbol
_atom_site_label
_atom_site_fract_x
_atom_site_fract_y
_atom_site_fract_z
Si Si1 0.998851 0.576550 0.192892
Si Si2 0.718137 0.872029 0.956188
Si Si3 0.885236 0.754186 0.558159
Si Si4 0.390187 0.745227 0.478995
Si Si5 0.894276 0.082419 0.274921
Si Si6 0.500000 0.990813 0.000000
Si Si7 0.807837 0.675252 0.763170
O O1 0.940572 0.307684 0.204102
O O2 0.000422 0.669667 0.088971
O O3 0.110673 0.503367 0.202449
O O4 0.953278 0.812838 0.260995
O O5 0.765499 0.879959 0.844861
O O6 0.767022 0.651505 0.005046
O O7 0.599392 0.813644 0.978207
O O8 0.833712 0.500366 0.527888
O O9 0.872536 0.795214 0.667154
O O10 0.000000 0.755360 0.500000
O O11 0.829132 0.998315 0.528335
O O12 0.500000 0.748570 0.500000
O O13 0.394707 0.721012 0.371279
O O14 0.783451 0.018223 0.261337
#
# Coordination Sequence:
#
# PCOD8049670 Si02
#       7
#     4   4   4   4   4   2   4
#     4  12  28  47  75 111 152 196 252 321 380 452
#     4  12  30  51  78 113 154 201 258 317 386 461
#     4  10  22  42  69 105 146 194 243 308 370 440
#     4  10  20  42  68  97 148 190 241 303 369 434
#     4  12  28  47  75 113 150 202 256 309 383 459
#     4  12  28  52  80 108 158 200 252 328 388 448
#     4  12  28  48  81 112 153 202 260 311 386 457
#
# _framework density 25.054046
#
# number of rings (size 3 to 8) (size 9 to 14) (size 15 to 20)
#    0.000    0.615    3.077    4.615    4.308    6.154 
#    0.000    0.000    0.000    0.000    0.000    0.000 
#    0.000    0.000    0.000    0.000    0.000    0.000 
#
# Total GULP energy -161049.829537 kJ/mol
# GULP energy per Si atom -12388.448426 kJ/mol
# Density = 2.499702 g / cm^3
# Si number density = 25.054046 Si / 1000 Ang^3
#
#
#
# Elastic Constant Matrix: (Units=GPa)
#
#
# Indices 1 2 3 4 5 6 
#
# 1 147.3866 14.9898 48.4649 0.0000 15.4800 0.0000
# 2 14.9898 148.8136 25.1078 -0.0001 -5.1460 0.0000
# 3 48.4649 25.1078 178.9733 -0.0001 -3.2906 0.0000
# 4 0.0000 -0.0001 -0.0001 27.5001 0.0000 7.4274
# 5 15.4800 -5.1460 -3.2906 0.0000 50.9780 0.0000
# 6 0.0000 0.0000 0.0000 7.4274 0.0000 9.7204
#
#
#
# Elastic Compliance Matrix: (Units=1/GPa)
#
#
# Indices 1 2 3 4 5 6 
#
# 1 0.007791 -0.000522 -0.002084 0.000000 -0.002553 0.000000
# 2 -0.000522 0.006938 -0.000817 0.000000 0.000806 0.000000
# 3 -0.002084 -0.000817 0.006284 0.000000 0.000956 0.000000
# 4 0.000000 0.000000 0.000000 0.045819 0.000000 -0.035010
# 5 -0.002553 0.000806 0.000956 0.000000 0.020535 0.000000
# 6 0.000000 0.000000 0.000000 -0.035010 0.000000 0.129628
#
#
# Mechanical properties :
#
#
# Convention : Reuss Voigt Hill
#
# Bulk Modulus (GPa) = 70.57972 72.47760 71.52866
# Shear Modulus (GPa) = 21.87585 43.41378 32.64481
#
# Velocity S-wave (km/s) = 2.95811 4.16721 3.61359
# Velocity P-wave (km/s) = 6.31659 7.22119 6.78398
#
# Compressibility (1/GPa) = 0.01416838
#
# Stress axis : x y z
#
# Youngs Moduli (GPa) = 128.34985 144.13141 159.13739
#
# Poissons Ratio (x) = 0.07517 0.33158
# Poissons Ratio (y) = 0.06694 0.13006
# Poissons Ratio (z) = 0.26743 0.11780
#
# Static dielectric constant tensor:
#      x y z
#    x 4.584360 0.000000 -0.053690 
#    y 0.000000 7.954350 0.000000 
#    z -0.053690 0.000000 4.763380 
# 
# 
# High freq. dielectric constant tensor:
#      x y z
#    x 2.010510 0.000000 0.008250 
#    y 0.000000 1.971510 0.000000 
#    z 0.008250 0.000000 2.023070 
# 
# From -- ./inp_files/53848.got.cif
#   From: 2010.03.12/outbox.cif.g09.slc.cpg/sg5_27_cif.got.tgz:53848.got - 2010.03.31 09:47:26.
