data_PCOD8049111
_publ_section_title
;
Structure prediction by ZEFSAII (Michael W. Deem and Ramdas Pophale) SiO2 
 PCOD8049111
Probable space group: C 2
;
_chemical_formula_sum "Si O2"
_cell_formula_units_Z 30
_cell_length_a 9.503913
_cell_length_b 31.063291
_cell_length_c 5.069462
_cell_angle_alpha 90.000000
_cell_angle_beta 102.048407
_cell_angle_gamma 90.000000
_cell_volume 1463.652673
_symmetry_space_group_name_H-M "C 2"
_symmetry_group_IT_number 5
_symmetry_cell_setting 'monoclinic'
loop_
_space_group_symop_operation_xyz
x,y,z
-x,y,-z
1/2+x,1/2+y,z
1/2-x,1/2+y,-z
loop_
_atom_site_type_symbol
_atom_site_label
_atom_site_fract_x
_atom_site_fract_y
_atom_site_fract_z
Si Si1 0.164578 0.492340 0.549526
Si Si2 0.646806 0.197087 0.919427
Si Si3 0.261513 0.243400 0.530130
Si Si4 0.164900 0.547946 0.050868
Si Si5 0.000000 0.195242 0.500000
Si Si6 0.594530 0.326960 0.282667
Si Si7 0.096112 0.922969 0.278735
Si Si8 0.353662 0.628119 0.080498
O O1 0.197328 0.529977 0.772682
O O2 0.262271 0.451334 0.638854
O O3 0.000000 0.476718 0.500000
O O4 0.196447 0.510576 0.272442
O O5 0.724152 0.225309 0.170407
O O6 0.738278 0.154927 0.858493
O O7 0.500000 0.181245 0.000000
O O8 0.624730 0.226310 0.646843
O O9 0.102557 0.227568 0.368415
O O10 0.277480 0.294623 0.581348
O O11 0.273545 0.586553 0.163604
O O12 0.000000 0.564220 0.000000
O O13 0.106745 0.163070 0.687577
O O14 0.500000 0.333473 0.500000
O O15 0.652946 0.374567 0.234443
O O16 0.500000 0.308282 0.000000
O O17 0.000000 0.925973 0.500000
O O18 0.000000 0.940320 0.000000
O O19 0.500000 0.612604 0.000000
#
# Coordination Sequence:
#
# PCOD8049111 Si02
#       8
#     4   4   4   4   2   4   4   4
#     4  10  22  42  62  90 122 158 199 250 308 369
#     4  11  22  36  59  82 110 153 201 245 292 354
#     4  11  21  37  58  82 118 154 201 240 305 342
#     4  10  23  40  63  86 116 157 205 252 294 363
#     4  10  24  40  54  84 126 162 192 266 296 374
#     4  10  20  36  59  88 118 153 199 252 291 354
#     4  10  21  38  62  92 127 157 197 250 309 365
#     4  11  23  40  56  82 121 156 197 250 313 348
#
# _framework density 20.496666999999999
#
# number of rings (size 3 to 8) (size 9 to 14) (size 15 to 20)
#    0.000    1.600    1.333    3.600    1.867    1.600 
#    1.200    2.667    0.000    0.000    0.000    0.000 
#    0.000    0.000    0.000    0.000    0.000    0.000 
#
# Total GULP energy -185860.165578 kJ/mol
# GULP energy per Si atom -12390.677705 kJ/mol
# Density = 2.045002 g / cm^3
# Si number density = 20.496667 Si / 1000 Ang^3
#
#
#
# Elastic Constant Matrix: (Units=GPa)
#
#
# Indices 1 2 3 4 5 6 
#
# 1 120.3215 83.4380 28.7384 0.0000 5.1498 0.0000
# 2 83.4380 125.7424 26.6496 0.0000 13.1801 0.0000
# 3 28.7384 26.6496 95.3078 0.0000 -1.1624 0.0000
# 4 0.0000 0.0000 0.0000 27.3622 0.0000 15.7407
# 5 5.1498 13.1801 -1.1624 0.0000 26.5245 0.0000
# 6 0.0000 0.0000 0.0000 15.7407 0.0000 28.4641
#
#
#
# Elastic Compliance Matrix: (Units=1/GPa)
#
#
# Indices 1 2 3 4 5 6 
#
# 1 0.015821 -0.010310 -0.001864 0.000000 0.001970 0.000000
# 2 -0.010310 0.015694 -0.001351 0.000000 -0.005856 0.000000
# 3 -0.001864 -0.001351 0.011451 0.000000 0.001535 0.000000
# 4 0.000000 0.000000 0.000000 0.053597 0.000000 -0.029639
# 5 0.001970 -0.005856 0.001535 0.000000 0.040296 0.000000
# 6 0.000000 0.000000 0.000000 -0.029639 0.000000 0.051523
#
#
# Mechanical properties :
#
#
# Convention : Reuss Voigt Hill
#
# Bulk Modulus (GPa) = 62.82621 68.78039 65.80330
# Shear Modulus (GPa) = 22.65133 29.97320 26.31226
#
# Velocity S-wave (km/s) = 3.32794 3.82821 3.58681
# Velocity P-wave (km/s) = 6.74429 7.29177 7.02337
#
# Compressibility (1/GPa) = 0.01591692
#
# Stress axis : x y z
#
# Youngs Moduli (GPa) = 63.20521 63.71770 87.33008
#
# Poissons Ratio (x) = 0.65693 0.16277
# Poissons Ratio (y) = 0.65164 0.11798
# Poissons Ratio (z) = 0.11780 0.08608
#
# Static dielectric constant tensor:
#      x y z
#    x 4.079200 0.000000 0.228920 
#    y 0.000000 3.754070 0.000000 
#    z 0.228920 0.000000 3.962890 
# 
# 
# High freq. dielectric constant tensor:
#      x y z
#    x 1.795510 0.000000 -0.001260 
#    y 0.000000 1.795820 0.000000 
#    z -0.001260 0.000000 1.806240 
# 
# From -- ./inp_files/3806.got.cif
#   From: 2010.03.12/outbox.cif.g09.slc.cpg/sg5_2_cif.got.tgz:3806.got - 2010.03.31 09:47:26.
