data_PCOD8049863
_publ_section_title
;
Structure prediction by ZEFSAII (Michael W. Deem and Ramdas Pophale) SiO2 
 PCOD8049863
Probable space group: C 2
;
_chemical_formula_sum "Si O2"
_cell_formula_units_Z 28
_cell_length_a 30.723813
_cell_length_b 7.546884
_cell_length_c 9.623570
_cell_angle_alpha 90.000000
_cell_angle_beta 37.565527
_cell_angle_gamma 90.000000
_cell_volume 1360.418889
_symmetry_space_group_name_H-M "C 2"
_symmetry_group_IT_number 5
_symmetry_cell_setting 'monoclinic'
loop_
_space_group_symop_operation_xyz
x,y,z
-x,y,-z
1/2+x,1/2+y,z
1/2-x,1/2+y,-z
loop_
_atom_site_type_symbol
_atom_site_label
_atom_site_fract_x
_atom_site_fract_y
_atom_site_fract_z
Si Si1 0.710637 0.735710 0.412037
Si Si2 0.403254 0.024787 0.370206
Si Si3 0.562727 0.050120 0.021388
Si Si4 0.343424 0.726644 0.142742
Si Si5 0.625840 0.355563 0.030385
Si Si6 0.844621 0.712452 0.771533
Si Si7 0.737469 0.917691 0.879612
O O1 0.692334 0.694614 0.617901
O O2 0.790480 0.813743 0.207900
O O3 0.707923 0.551734 0.335002
O O4 0.652433 0.862374 0.485588
O O5 0.483118 0.970636 0.212760
O O6 0.382500 0.180978 0.528657
O O7 0.404961 0.101156 0.210431
O O8 0.570863 0.228571 0.089114
O O9 0.606190 0.895848 0.984701
O O10 0.388893 0.554907 0.982464
O O11 0.284401 0.766208 0.174995
O O12 0.609372 0.331571 0.237105
O O13 0.772383 0.819881 0.922551
O O14 0.829077 0.526790 0.889043
#
# Coordination Sequence:
#
# PCOD8049863 Si02
#       7
#     4   4   4   4   4   4   4
#     4  10  21  37  65  99 124 163 214 264 321 367
#     4  10  23  42  67  88 131 171 207 266 323 376
#     4  10  23  46  62  93 127 172 215 258 315 383
#     4  11  21  38  66  91 132 163 210 267 310 379
#     4  11  23  39  64  97 125 167 214 257 321 380
#     4  11  22  37  62  91 134 161 204 264 319 369
#     4  11  21  37  60 101 127 160 212 268 318 376
#
# _framework density 20.581896
#
# number of rings (size 3 to 8) (size 9 to 14) (size 15 to 20)
#    0.000    1.429    2.857    4.286    6.000    0.571 
#    2.571    1.429    3.143    0.000    0.000    0.000 
#    0.000    0.000    0.000    0.000    0.000    0.000 
#
# Total GULP energy -173570.103165 kJ/mol
# GULP energy per Si atom -12397.864512 kJ/mol
# Density = 2.053505 g / cm^3
# Si number density = 20.581896 Si / 1000 Ang^3
#
#
#
# Elastic Constant Matrix: (Units=GPa)
#
#
# Indices 1 2 3 4 5 6 
#
# 1 103.0775 34.0734 19.4337 0.0000 16.2180 0.0000
# 2 34.0734 97.3266 15.8230 0.0000 13.9503 0.0000
# 3 19.4337 15.8230 42.3560 0.0000 8.1968 0.0000
# 4 0.0000 0.0000 0.0000 26.0848 0.0000 5.8758
# 5 16.2180 13.9503 8.1968 0.0000 33.1062 0.0000
# 6 0.0000 0.0000 0.0000 5.8758 0.0000 32.5527
#
#
#
# Elastic Compliance Matrix: (Units=1/GPa)
#
#
# Indices 1 2 3 4 5 6 
#
# 1 0.011982 -0.003077 -0.003637 0.000000 -0.003673 0.000000
# 2 -0.003077 0.012199 -0.002565 0.000000 -0.002998 0.000000
# 3 -0.003637 -0.002565 0.026975 0.000000 -0.003816 0.000000
# 4 0.000000 0.000000 0.000000 0.039961 0.000000 -0.007213
# 5 -0.003673 -0.002998 -0.003816 0.000000 0.034213 0.000000
# 6 0.000000 0.000000 0.000000 -0.007213 0.000000 0.032021
#
#
# Mechanical properties :
#
#
# Convention : Reuss Voigt Hill
#
# Bulk Modulus (GPa) = 30.67799 42.38004 36.52902
# Shear Modulus (GPa) = 26.76998 29.91075 28.34037
#
# Velocity S-wave (km/s) = 3.61037 3.81629 3.71476
# Velocity P-wave (km/s) = 5.68484 6.32886 6.01547
#
# Compressibility (1/GPa) = 0.03259666
#
# Stress axis : x y z
#
# Youngs Moduli (GPa) = 83.45687 81.97612 37.07131
#
# Poissons Ratio (x) = 0.25225 0.13484
# Poissons Ratio (y) = 0.25681 0.09509
# Poissons Ratio (z) = 0.30357 0.21028
#
# Static dielectric constant tensor:
#      x y z
#    x 3.917560 0.000000 0.247390 
#    y 0.000000 3.693280 0.000000 
#    z 0.247390 0.000000 3.653590 
# 
# 
# High freq. dielectric constant tensor:
#      x y z
#    x 1.817230 0.000000 0.025780 
#    y 0.000000 1.799020 0.000000 
#    z 0.025780 0.000000 1.788320 
# 
# From -- ./inp_files/32489.got.cif
#   From: 2010.03.12/outbox.cif.g09.slc.cpg/sg5_17_cif.got.tgz:32489.got - 2010.03.31 09:47:26.
