data_PCOD8049783
_publ_section_title
;
Structure prediction by ZEFSAII (Michael W. Deem and Ramdas Pophale) SiO2 
 PCOD8049783
Probable space group: C 2
;
_chemical_formula_sum "Si O2"
_cell_formula_units_Z 28
_cell_length_a 5.008544
_cell_length_b 30.429447
_cell_length_c 9.733257
_cell_angle_alpha 90.000000
_cell_angle_beta 114.722340
_cell_angle_gamma 90.000000
_cell_volume 1347.456209
_symmetry_space_group_name_H-M "C 2"
_symmetry_group_IT_number 5
_symmetry_cell_setting 'monoclinic'
loop_
_space_group_symop_operation_xyz
x,y,z
-x,y,-z
1/2+x,1/2+y,z
1/2-x,1/2+y,-z
loop_
_atom_site_type_symbol
_atom_site_label
_atom_site_fract_x
_atom_site_fract_y
_atom_site_fract_z
Si Si1 0.341191 0.793260 0.821871
Si Si2 0.679572 0.201719 0.678417
Si Si3 0.313617 0.164437 0.832589
Si Si4 0.361023 0.492747 0.322701
Si Si5 0.315448 0.566696 0.101185
Si Si6 0.852430 0.438241 0.322418
Si Si7 0.341404 0.346926 0.823140
O O1 0.163671 0.750761 0.733384
O O2 0.595487 0.808578 0.772773
O O3 0.096209 0.831902 0.773651
O O4 0.500000 0.783008 0.000000
O O5 0.500000 0.198376 0.500000
O O6 0.531305 0.166448 0.749300
O O7 0.024083 0.191841 0.734273
O O8 0.212712 0.115475 0.845714
O O9 0.500000 0.184667 0.000000
O O10 0.500000 0.502924 0.500000
O O11 0.425272 0.536680 0.249378
O O12 0.522783 0.454483 0.274229
O O13 0.029010 0.474603 0.269569
O O14 0.500000 0.565748 0.000000
O O15 0.000000 0.546644 0.000000
O O16 0.831304 0.391231 0.247866
O O17 0.000000 0.431357 0.500000
O O18 0.500000 0.354734 0.000000
#
# Coordination Sequence:
#
# PCOD8049783 Si02
#       7
#     4   4   4   4   4   4   4
#     4  10  21  38  58  83 117 159 200 244 304 363
#     4  12  25  40  63  96 125 157 208 259 304 361
#     4  11  23  43  65  88 124 167 202 247 312 373
#     4  10  22  39  59  86 121 159 195 239 302 363
#     4  11  23  41  64  92 119 153 204 250 294 355
#     4  10  21  37  57  83 117 158 198 239 298 362
#     4  10  21  36  57  84 114 153 202 248 293 351
#
# _framework density 20.779893999999999
#
# number of rings (size 3 to 8) (size 9 to 14) (size 15 to 20)
#    0.000    1.429    0.000    6.000    0.000    5.143 
#    0.000    1.429    0.000    0.000    0.000    0.000 
#    0.000    0.000    0.000    0.000    0.000    0.000 
#
# Total GULP energy -173547.834401 kJ/mol
# GULP energy per Si atom -12396.273886 kJ/mol
# Density = 2.073260 g / cm^3
# Si number density = 20.779894 Si / 1000 Ang^3
#
#
#
# Elastic Constant Matrix: (Units=GPa)
#
#
# Indices 1 2 3 4 5 6 
#
# 1 126.8487 32.4916 47.5320 0.0000 -4.5086 0.0000
# 2 32.4916 96.8141 49.5125 0.0000 -7.2025 0.0000
# 3 47.5320 49.5125 93.9487 0.0000 -0.1262 0.0000
# 4 0.0000 0.0000 0.0000 24.5140 0.0000 -6.0411
# 5 -4.5086 -7.2025 -0.1262 0.0000 31.8626 0.0000
# 6 0.0000 0.0000 0.0000 -6.0411 0.0000 29.8675
#
#
#
# Elastic Compliance Matrix: (Units=1/GPa)
#
#
# Indices 1 2 3 4 5 6 
#
# 1 0.009845 -0.000918 -0.004495 0.000000 0.001168 0.000000
# 2 -0.000918 0.014553 -0.007201 0.000000 0.003131 0.000000
# 3 -0.004495 -0.007201 0.016710 0.000000 -0.002198 0.000000
# 4 0.000000 0.000000 0.000000 0.042933 0.000000 0.008684
# 5 0.001168 0.003131 -0.002198 0.000000 0.032249 0.000000
# 6 0.000000 0.000000 0.000000 0.008684 0.000000 0.035238
#
#
# Mechanical properties :
#
#
# Convention : Reuss Voigt Hill
#
# Bulk Modulus (GPa) = 62.97498 64.07596 63.52547
# Shear Modulus (GPa) = 27.46514 29.78718 28.62616
#
# Velocity S-wave (km/s) = 3.63949 3.79022 3.71562
# Velocity P-wave (km/s) = 6.93056 7.07508 7.00320
#
# Compressibility (1/GPa) = 0.01587932
#
# Stress axis : x y z
#
# Youngs Moduli (GPa) = 101.57946 68.71532 59.84276
#
# Poissons Ratio (x) = 0.06308 0.26901
# Poissons Ratio (y) = 0.09326 0.43092
# Poissons Ratio (z) = 0.45663 0.49481
#
# Static dielectric constant tensor:
#      x y z
#    x 4.063950 0.000000 0.015920 
#    y 0.000000 3.592290 0.000000 
#    z 0.015920 0.000000 3.653190 
# 
# 
# High freq. dielectric constant tensor:
#      x y z
#    x 1.834870 0.000000 0.002650 
#    y 0.000000 1.812640 0.000000 
#    z 0.002650 0.000000 1.803490 
# 
# From -- ./inp_files/13391.got.cif
#   From: 2010.03.12/outbox.cif.g09.slc.cpg/sg5_7_cif.got.tgz:13391.got - 2010.03.31 09:47:26.
