data_PCOD8049920
_publ_section_title
;
Structure prediction by ZEFSAII (Michael W. Deem and Ramdas Pophale) SiO2 
 PCOD8049920
Probable space group: C 2
;
_chemical_formula_sum "Si O2"
_cell_formula_units_Z 32
_cell_length_a 23.257947
_cell_length_b 14.584663
_cell_length_c 8.812730
_cell_angle_alpha 90.000000
_cell_angle_beta 30.607020
_cell_angle_gamma 90.000000
_cell_volume 1522.023365
_symmetry_space_group_name_H-M "C 2"
_symmetry_group_IT_number 5
_symmetry_cell_setting 'monoclinic'
loop_
_space_group_symop_operation_xyz
x,y,z
-x,y,-z
1/2+x,1/2+y,z
1/2-x,1/2+y,-z
loop_
_atom_site_type_symbol
_atom_site_label
_atom_site_fract_x
_atom_site_fract_y
_atom_site_fract_z
Si Si1 0.964908 0.673390 0.325519
Si Si2 0.892553 0.506507 0.671980
Si Si3 0.192327 0.021484 0.358676
Si Si4 0.335476 0.200418 0.337999
Si Si5 0.372179 0.409459 0.238151
Si Si6 0.122103 0.203186 0.649936
Si Si7 0.238944 0.377614 0.240944
Si Si8 0.904807 0.863448 0.608728
O O1 0.946631 0.603197 0.501384
O O2 0.877254 0.646537 0.390893
O O3 0.945465 0.775602 0.426357
O O4 0.093294 0.670011 0.972262
O O5 0.841523 0.458690 0.638356
O O6 0.000000 0.450679 0.500000
O O7 0.804902 0.527656 0.004597
O O8 0.212885 0.979921 0.481467
O O9 0.110397 0.946956 0.470784
O O10 0.130628 0.120748 0.508068
O O11 0.354515 0.306588 0.335270
O O12 0.205584 0.178573 0.599576
O O13 0.333721 0.413616 0.146935
O O14 0.500000 0.439402 0.000000
O O15 0.160074 0.299052 0.490404
O O16 0.000000 0.213495 0.000000
O O17 0.296687 0.337875 0.957536
O O18 0.000000 0.902535 0.500000
#
# Coordination Sequence:
#
# PCOD8049920 Si02
#       8
#     4   4   4   4   4   4   4   4
#     4  11  20  39  67  98 124 158 207 284 323 371
#     4  11  25  43  62  92 129 170 215 261 321 373
#     4  11  23  40  63  92 125 169 208 258 317 378
#     4  10  21  38  65 100 120 156 220 264 327 369
#     4  11  19  40  67  97 125 157 211 272 323 367
#     4  11  24  42  60  89 132 173 209 252 311 389
#     4  10  25  41  62  94 128 173 217 251 314 391
#     4  11  20  38  67  96 127 153 205 273 326 370
#
# _framework density 21.024645
#
# number of rings (size 3 to 8) (size 9 to 14) (size 15 to 20)
#    0.000    1.250    2.500    4.500    1.750    2.000 
#    4.500    0.625    0.000    0.000    0.000    0.000 
#    0.000    0.000    0.000    0.000    0.000    0.000 
#
# Total GULP energy -198281.617385 kJ/mol
# GULP energy per Si atom -12392.601087 kJ/mol
# Density = 2.097679 g / cm^3
# Si number density = 21.024645 Si / 1000 Ang^3
#
#
#
# Elastic Constant Matrix: (Units=GPa)
#
#
# Indices 1 2 3 4 5 6 
#
# 1 123.3321 31.8469 40.3749 0.0000 -8.5872 0.0000
# 2 31.8469 79.5742 35.1681 0.0000 4.0047 0.0000
# 3 40.3749 35.1681 107.5120 0.0000 -0.3524 0.0000
# 4 0.0000 0.0000 0.0000 24.6674 0.0000 10.3313
# 5 -8.5872 4.0047 -0.3524 0.0000 38.9475 0.0000
# 6 0.0000 0.0000 0.0000 10.3313 0.0000 23.0566
#
#
#
# Elastic Compliance Matrix: (Units=1/GPa)
#
#
# Indices 1 2 3 4 5 6 
#
# 1 0.009931 -0.002868 -0.002783 0.000000 0.002459 0.000000
# 2 -0.002868 0.015614 -0.004038 0.000000 -0.002274 0.000000
# 3 -0.002783 -0.004038 0.011667 0.000000 -0.000093 0.000000
# 4 0.000000 0.000000 0.000000 0.049905 0.000000 -0.022362
# 5 0.002459 -0.002274 -0.000093 0.000000 0.026451 0.000000
# 6 0.000000 0.000000 0.000000 -0.022362 0.000000 0.053391
#
#
# Mechanical properties :
#
#
# Convention : Reuss Voigt Hill
#
# Bulk Modulus (GPa) = 56.07447 58.35535 57.21491
# Shear Modulus (GPa) = 26.00346 30.86952 28.43649
#
# Velocity S-wave (km/s) = 3.52064 3.83594 3.68167
# Velocity P-wave (km/s) = 6.57688 6.88732 6.73389
#
# Compressibility (1/GPa) = 0.01783343
#
# Stress axis : x y z
#
# Youngs Moduli (GPa) = 100.69235 64.04593 85.71221
#
# Poissons Ratio (x) = 0.18371 0.23856
# Poissons Ratio (y) = 0.28882 0.34608
# Poissons Ratio (z) = 0.28025 0.25860
#
# Static dielectric constant tensor:
#      x y z
#    x 4.225160 0.000000 0.079030 
#    y 0.000000 3.706320 0.000000 
#    z 0.079030 0.000000 3.851250 
# 
# 
# High freq. dielectric constant tensor:
#      x y z
#    x 1.834350 0.000000 0.008780 
#    y 0.000000 1.813660 0.000000 
#    z 0.008780 0.000000 1.826310 
# 
# From -- ./inp_files/31030.got.cif
#   From: 2010.03.12/outbox.cif.g09.slc.cpg/sg5_16_cif.got.tgz:31030.got - 2010.03.31 09:47:26.
