data_PCOD8049095
_publ_section_title
;
Structure prediction by ZEFSAII (Michael W. Deem and Ramdas Pophale) SiO2 
 PCOD8049095
Probable space group: C 2
;
_chemical_formula_sum "Si O2"
_cell_formula_units_Z 28
_cell_length_a 8.793131
_cell_length_b 16.750433
_cell_length_c 15.068016
_cell_angle_alpha 90.000000
_cell_angle_beta 44.150303
_cell_angle_gamma 90.000000
_cell_volume 1545.872217
_symmetry_space_group_name_H-M "C 2"
_symmetry_group_IT_number 5
_symmetry_cell_setting 'monoclinic'
loop_
_space_group_symop_operation_xyz
x,y,z
-x,y,-z
1/2+x,1/2+y,z
1/2-x,1/2+y,-z
loop_
_atom_site_type_symbol
_atom_site_label
_atom_site_fract_x
_atom_site_fract_y
_atom_site_fract_z
Si Si1 0.089164 0.945530 0.650090
Si Si2 0.901685 0.052375 0.127663
Si Si3 0.233202 0.461240 0.934191
Si Si4 0.744081 0.114956 0.364629
Si Si5 0.238811 0.886842 0.896602
Si Si6 0.000000 0.338719 0.500000
Si Si7 0.421014 0.778653 0.342868
Si Si8 0.000000 0.877516 0.500000
O O1 0.287898 0.893137 0.604880
O O2 0.041174 0.933375 0.566969
O O3 0.871373 0.921282 0.795992
O O4 0.159164 0.037030 0.629718
O O5 0.743651 0.105060 0.256467
O O6 0.773973 0.971586 0.151405
O O7 0.117105 0.033435 0.094824
O O8 0.000000 0.098307 0.000000
O O9 0.181489 0.399666 0.035689
O O10 0.000000 0.494682 0.000000
O O11 0.500000 0.132866 0.500000
O O12 0.906052 0.186460 0.322618
O O13 0.382138 0.821977 0.788132
O O14 0.000000 0.848409 0.000000
O O15 0.043469 0.283041 0.566458
O O16 0.205105 0.821350 0.398318
#
# Coordination Sequence:
#
# PCOD8049095 Si02
#       8
#     4   4   4   4   4   2   4   2
#     4  10  20  36  58  83 106 147 189 225 268 331
#     4   8  18  36  59  80 104 148 193 220 267 338
#     4   9  16  30  53  82 110 130 178 234 270 302
#     4  11  21  36  57  83 115 146 183 230 286 327
#     4   9  18  34  59  80 103 146 191 220 263 335
#     4  10  20  36  60  74 108 148 192 216 272 328
#     4  11  21  36  55  82 116 143 176 233 280 325
#     4  10  22  34  54  84 112 140 188 228 270 318
#
# _framework density 18.112753000000001
#
# number of rings (size 3 to 8) (size 9 to 14) (size 15 to 20)
#    0.000    2.571    1.429    3.429    2.000    0.571 
#    0.000    5.000    3.143    0.000    0.000    0.000 
#    0.000    0.000    0.000    0.000    0.000    0.000 
#
# Total GULP energy -173508.388218 kJ/mol
# GULP energy per Si atom -12393.456301 kJ/mol
# Density = 1.807153 g / cm^3
# Si number density = 18.112753 Si / 1000 Ang^3
#
#
#
# Elastic Constant Matrix: (Units=GPa)
#
#
# Indices 1 2 3 4 5 6 
#
# 1 86.5938 32.4911 37.2668 0.0001 -1.0127 -0.0001
# 2 32.4911 94.9366 44.5037 -0.0004 8.5936 0.0003
# 3 37.2668 44.5037 130.8624 -0.0010 1.2649 0.0003
# 4 0.0001 -0.0004 -0.0010 13.6323 0.0004 0.3207
# 5 -1.0127 8.5936 1.2649 0.0004 33.1365 -0.0002
# 6 -0.0001 0.0003 0.0003 0.3207 -0.0002 21.9965
#
#
#
# Elastic Compliance Matrix: (Units=1/GPa)
#
#
# Indices 1 2 3 4 5 6 
#
# 1 0.014144 -0.003665 -0.002796 -0.000001 0.001489 0.000000
# 2 -0.003665 0.013805 -0.003617 0.000000 -0.003554 0.000000
# 3 -0.002796 -0.003617 0.009663 0.000001 0.000484 0.000000
# 4 -0.000001 0.000000 0.000001 0.073381 -0.000001 -0.001070
# 5 0.001489 -0.003554 0.000484 -0.000001 0.031127 0.000000
# 6 0.000000 0.000000 0.000000 -0.001070 0.000000 0.045477
#
#
# Mechanical properties :
#
#
# Convention : Reuss Voigt Hill
#
# Bulk Modulus (GPa) = 57.28395 60.10177 58.69286
# Shear Modulus (GPa) = 23.41146 26.96179 25.18663
#
# Velocity S-wave (km/s) = 3.59909 3.86236 3.73305
# Velocity P-wave (km/s) = 6.99759 7.29003 7.14531
#
# Compressibility (1/GPa) = 0.01745690
#
# Stress axis : x y z
#
# Youngs Moduli (GPa) = 70.70166 72.43910 103.48602
#
# Poissons Ratio (x) = 0.26547 0.28934
# Poissons Ratio (y) = 0.25911 0.37428
# Poissons Ratio (z) = 0.19768 0.26199
#
# Static dielectric constant tensor:
#      x y z
#    x 3.396020 0.000000 0.163000 
#    y 0.000000 2.970730 0.000000 
#    z 0.163000 0.000000 3.698290 
# 
# 
# High freq. dielectric constant tensor:
#      x y z
#    x 1.706890 0.000000 0.007020 
#    y 0.000000 1.661020 0.000000 
#    z 0.007020 0.000000 1.722970 
# 
# From -- ./inp_files/51359.got.cif
#   From: 2010.03.12/outbox.cif.g09.slc.cpg/sg5_26_cif.got.tgz:51359.got - 2010.03.31 09:47:26.
