data_PCOD8049177
_publ_section_title
;
Structure prediction by ZEFSAII (Michael W. Deem and Ramdas Pophale) SiO2 
 PCOD8049177
Probable space group: C 2
;
_chemical_formula_sum "Si O2"
_cell_formula_units_Z 28
_cell_length_a 10.476504
_cell_length_b 9.255222
_cell_length_c 20.523249
_cell_angle_alpha 90.000000
_cell_angle_beta 129.978368
_cell_angle_gamma 90.000000
_cell_volume 1524.898148
_symmetry_space_group_name_H-M "C 2"
_symmetry_group_IT_number 5
_symmetry_cell_setting 'monoclinic'
loop_
_space_group_symop_operation_xyz
x,y,z
-x,y,-z
1/2+x,1/2+y,z
1/2-x,1/2+y,-z
loop_
_atom_site_type_symbol
_atom_site_label
_atom_site_fract_x
_atom_site_fract_y
_atom_site_fract_z
Si Si1 0.327465 0.018370 0.094879
Si Si2 0.094152 0.248740 0.964745
Si Si3 0.321127 0.553067 0.824257
Si Si4 0.537746 0.103411 0.273732
Si Si5 0.240302 0.884744 0.317881
Si Si6 0.381689 0.888833 0.592550
Si Si7 0.309961 0.092812 0.453249
O O1 0.195875 0.976647 0.109815
O O2 0.505136 0.058075 0.187282
O O3 0.343399 0.891806 0.049121
O O4 0.258208 0.156316 0.033532
O O5 0.972935 0.164991 0.875063
O O6 0.000000 0.292073 0.000000
O O7 0.353075 0.434901 0.778768
O O8 0.143832 0.635139 0.752123
O O9 0.652341 0.242893 0.316914
O O10 0.623090 0.970153 0.339509
O O11 0.432101 0.847142 0.367929
O O12 0.221866 0.011873 0.364371
O O13 0.281511 0.741911 0.564163
O O14 0.294670 0.992013 0.511421
O O15 0.500000 0.129350 0.500000
#
# Coordination Sequence:
#
# PCOD8049177 Si02
#       7
#     4   4   4   4   4   4   4
#     4   9  21  38  56  81 113 145 186 233 272 330
#     4  10  20  39  55  80 111 147 186 233 276 329
#     4   8  20  35  57  76 115 145 182 228 280 320
#     4   9  20  38  54  83 117 141 187 229 274 327
#     4  10  20  37  57  82 113 148 181 229 277 330
#     4  10  21  39  55  87 114 145 188 228 275 329
#     4  10  22  37  61  82 112 150 185 225 278 328
#
# _framework density 18.361881
#
# number of rings (size 3 to 8) (size 9 to 14) (size 15 to 20)
#    0.857    1.714    0.000    0.857    4.000    1.143 
#    5.143    0.000    0.000    0.000    0.000    0.000 
#    0.000    0.000    0.000    0.000    0.000    0.000 
#
# Total GULP energy -173536.716116 kJ/mol
# GULP energy per Si atom -12395.479723 kJ/mol
# Density = 1.832009 g / cm^3
# Si number density = 18.361881 Si / 1000 Ang^3
#
#
#
# Elastic Constant Matrix: (Units=GPa)
#
#
# Indices 1 2 3 4 5 6 
#
# 1 63.1503 71.0962 37.1549 0.0000 -4.7145 0.0000
# 2 71.0962 146.6489 67.8916 0.0000 -7.1403 0.0000
# 3 37.1549 67.8916 100.4794 0.0000 -9.3181 0.0000
# 4 0.0000 0.0000 0.0000 30.2043 0.0000 -0.8635
# 5 -4.7145 -7.1403 -9.3181 0.0000 14.1710 0.0000
# 6 0.0000 0.0000 0.0000 -0.8635 0.0000 33.6784
#
#
#
# Elastic Compliance Matrix: (Units=1/GPa)
#
#
# Indices 1 2 3 4 5 6 
#
# 1 0.035257 -0.016071 -0.001961 0.000000 0.002342 0.000000
# 2 -0.016071 0.017253 -0.005756 0.000000 -0.000438 0.000000
# 3 -0.001961 -0.005756 0.015162 0.000000 0.006417 0.000000
# 4 0.000000 0.000000 0.000000 0.033132 0.000000 0.000849
# 5 0.002342 -0.000438 0.006417 0.000000 0.075345 0.000000
# 6 0.000000 0.000000 0.000000 0.000849 0.000000 0.029714
#
#
# Mechanical properties :
#
#
# Convention : Reuss Voigt Hill
#
# Bulk Modulus (GPa) = 49.76026 73.61821 61.68923
# Shear Modulus (GPa) = 19.22058 24.55312 21.88685
#
# Velocity S-wave (km/s) = 3.23888 3.66071 3.45624
# Velocity P-wave (km/s) = 6.41450 7.61891 7.04250
#
# Compressibility (1/GPa) = 0.02009636
#
# Stress axis : x y z
#
# Youngs Moduli (GPa) = 28.36335 57.95931 65.95549
#
# Poissons Ratio (x) = 0.93144 0.12936
# Poissons Ratio (y) = 0.45582 0.37963
# Poissons Ratio (z) = 0.05563 0.33361
#
# Static dielectric constant tensor:
#      x y z
#    x 3.188270 0.000000 -0.063420 
#    y 0.000000 3.064440 0.000000 
#    z -0.063420 0.000000 3.583900 
# 
# 
# High freq. dielectric constant tensor:
#      x y z
#    x 1.691410 0.000000 -0.004740 
#    y 0.000000 1.698140 0.000000 
#    z -0.004740 0.000000 1.729650 
# 
# From -- ./inp_files/65060.got.cif
#   From: 2010.03.12/outbox.cif.g09.slc.cpg/sg5_33_cif.got.tgz:65060.got - 2010.03.31 09:47:26.
