data_PCOD8049965
_publ_section_title
;
Structure prediction by ZEFSAII (Michael W. Deem and Ramdas Pophale) SiO2 
 PCOD8049965
Probable space group: C 2
;
_chemical_formula_sum "Si O2"
_cell_formula_units_Z 28
_cell_length_a 5.245893
_cell_length_b 25.483450
_cell_length_c 9.684931
_cell_angle_alpha 90.000000
_cell_angle_beta 120.320677
_cell_angle_gamma 90.000000
_cell_volume 1117.615370
_symmetry_space_group_name_H-M "C 2"
_symmetry_group_IT_number 5
_symmetry_cell_setting 'monoclinic'
loop_
_space_group_symop_operation_xyz
x,y,z
-x,y,-z
1/2+x,1/2+y,z
1/2-x,1/2+y,-z
loop_
_atom_site_type_symbol
_atom_site_label
_atom_site_fract_x
_atom_site_fract_y
_atom_site_fract_z
Si Si1 0.173956 0.095930 0.416254
Si Si2 0.662603 0.851573 0.398292
Si Si3 0.300807 0.209104 0.553206
Si Si4 0.259975 0.966905 0.677078
Si Si5 0.402141 0.514977 0.816833
Si Si6 0.192096 0.316693 0.937601
Si Si7 0.178708 0.699783 0.925541
O O1 0.500000 0.072523 0.500000
O O2 0.181450 0.159203 0.430547
O O3 0.037694 0.072421 0.237740
O O4 0.000000 0.072351 0.500000
O O5 0.500000 0.856604 0.500000
O O6 0.650052 0.906264 0.313554
O O7 0.483422 0.810058 0.253927
O O8 0.000000 0.832156 0.500000
O O9 0.500000 0.242367 0.500000
O O10 0.484130 0.191603 0.735708
O O11 0.000000 0.242517 0.500000
O O12 0.000000 0.981987 0.500000
O O13 0.555722 0.999474 0.723088
O O14 0.117197 0.975303 0.790675
O O15 0.500000 0.518267 0.000000
O O16 0.500000 0.347937 0.000000
O O17 0.278388 0.260764 0.028149
O O18 0.000000 0.347383 0.000000
O O19 0.500000 0.672667 0.000000
O O20 0.000000 0.671553 0.000000
#
# Coordination Sequence:
#
# PCOD8049965 Si02
#       7
#     4   4   4   4   4   4   4
#     4  10  21  39  62  87 122 167 209 259 316 376
#     4  11  23  41  64  93 125 169 220 261 310 378
#     4  10  21  40  65  92 121 165 215 257 315 384
#     4  11  23  41  64  89 126 171 215 262 313 380
#     4  12  24  39  62  95 127 164 215 267 321 374
#     4  10  22  41  62  91 130 167 203 262 326 373
#     4  10  21  41  64  93 128 163 206 262 324 379
#
# _framework density 25.053343000000002
#
# number of rings (size 3 to 8) (size 9 to 14) (size 15 to 20)
#    0.000    1.429    0.000    6.429    0.000    1.714 
#    0.000   25.714    0.000    3.429    0.000    0.000 
#    0.000    0.000    0.000    0.000    0.000    0.000 
#
# Total GULP energy -173435.293187 kJ/mol
# GULP energy per Si atom -12388.235228 kJ/mol
# Density = 2.499632 g / cm^3
# Si number density = 25.053343 Si / 1000 Ang^3
#
#
#
# Elastic Constant Matrix: (Units=GPa)
#
#
# Indices 1 2 3 4 5 6 
#
# 1 281.8418 0.5260 77.0578 0.0000 -11.8871 0.0000
# 2 0.5260 67.1086 27.4697 0.0000 -4.0277 0.0000
# 3 77.0578 27.4697 155.8859 0.0000 -16.2383 0.0000
# 4 0.0000 0.0000 0.0000 -152.0107 0.0000 271.0672
# 5 -11.8871 -4.0277 -16.2383 0.0000 57.5162 0.0000
# 6 0.0000 0.0000 0.0000 271.0672 0.0000 -407.2663
#
#
#
# Elastic Compliance Matrix: (Units=1/GPa)
#
#
# Indices 1 2 3 4 5 6 
#
# 1 0.004154 0.000877 -0.002176 0.000000 0.000306 0.000000
# 2 0.000877 0.016251 -0.003255 0.000000 0.000400 0.000000
# 3 -0.002176 -0.003255 0.008236 0.000000 0.001647 0.000000
# 4 0.000000 0.000000 0.000000 0.035204 0.000000 0.023431
# 5 0.000306 0.000400 0.001647 0.000000 0.017943 0.000000
# 6 0.000000 0.000000 0.000000 0.023431 0.000000 0.013140
#
#
# Mechanical properties :
#
#
# Convention : Reuss Voigt Hill
#
# Bulk Modulus (GPa) = 51.19998 79.43816 65.31907
# Shear Modulus (GPa) = 45.22897 -73.69999 -14.23551
#
# Velocity S-wave (km/s) = 4.25350 -5.42965 -2.38630
# Velocity P-wave (km/s) = 6.67860 2.74439 4.30535
#
# Compressibility (1/GPa) = 0.01953126
#
# Stress axis : x y z
#
# Youngs Moduli (GPa) = 240.71229 61.53521 121.41886
#
# Poissons Ratio (x) = -0.05394 0.26423
# Poissons Ratio (y) = -0.21100 0.39526
# Poissons Ratio (z) = 0.52384 0.20032
#
# Static dielectric constant tensor:
#      x y z
#    x 8.546110 0.000000 -0.414130 
#    y 0.000000 4.071390 0.000000 
#    z -0.414130 0.000000 4.392960 
# 
# 
# High freq. dielectric constant tensor:
#      x y z
#    x 2.045050 0.000000 -0.006950 
#    y 0.000000 1.967110 0.000000 
#    z -0.006950 0.000000 1.991210 
# 
# From -- ./inp_files/13380.got.cif
#   From: 2010.03.12/outbox.cif.g09.slc.cpg/sg5_7_cif.got.tgz:13380.got - 2010.03.31 09:47:26.
