data_PCOD8049854
_publ_section_title
;
Structure prediction by ZEFSAII (Michael W. Deem and Ramdas Pophale) SiO2 
 PCOD8049854
Probable space group: C 2
;
_chemical_formula_sum "Si O2"
_cell_formula_units_Z 24
_cell_length_a 15.499733
_cell_length_b 13.061618
_cell_length_c 10.102237
_cell_angle_alpha 90.000000
_cell_angle_beta 37.622283
_cell_angle_gamma 90.000000
_cell_volume 1248.507505
_symmetry_space_group_name_H-M "C 2"
_symmetry_group_IT_number 5
_symmetry_cell_setting 'monoclinic'
loop_
_space_group_symop_operation_xyz
x,y,z
-x,y,-z
1/2+x,1/2+y,z
1/2-x,1/2+y,-z
loop_
_atom_site_type_symbol
_atom_site_label
_atom_site_fract_x
_atom_site_fract_y
_atom_site_fract_z
Si Si1 0.000000 0.714870 0.000000
Si Si2 0.320480 0.051532 0.361742
Si Si3 0.000000 0.391980 0.000000
Si Si4 0.596021 0.935594 0.497423
Si Si5 0.902767 0.280613 0.869635
Si Si6 0.835710 0.865291 0.026835
Si Si7 0.500524 0.565298 0.160923
O O1 0.875341 0.651259 0.220072
O O2 0.941445 0.779732 0.949712
O O3 0.155257 0.062840 0.587972
O O4 0.367347 0.955621 0.216242
O O5 0.396041 0.029355 0.410002
O O6 0.084512 0.322415 0.998811
O O7 0.500000 0.983640 0.500000
O O8 0.529501 0.829650 0.631121
O O9 0.748151 0.903776 0.259848
O O10 0.755613 0.316160 0.981171
O O11 0.916509 0.158417 0.868176
O O12 0.923829 0.964140 0.873819
O O13 0.500000 0.572101 0.000000
#
# Coordination Sequence:
#
# PCOD8049854 Si02
#       7
#     2   4   2   4   4   4   4
#     4  11  22  39  60  88 126 163 204 253 302 362
#     4  10  21  37  62  89 119 162 201 249 306 357
#     4   9  20  41  60  88 126 159 198 255 300 358
#     4   9  18  36  60  89 122 162 201 250 298 363
#     4  10  22  38  63  90 123 161 205 248 305 364
#     4  11  22  40  61  90 125 162 205 252 304 362
#     4  12  22  39  64  89 120 162 205 252 299 364
#
# _framework density 19.222951999999999
#
# number of rings (size 3 to 8) (size 9 to 14) (size 15 to 20)
#    0.000    1.667    3.333    1.000    0.000    6.667 
#    0.000    2.500    0.000    0.000    0.000    0.000 
#    0.000    0.000    0.000    0.000    0.000    0.000 
#
# Total GULP energy -148711.775495 kJ/mol
# GULP energy per Si atom -12392.647958 kJ/mol
# Density = 1.917920 g / cm^3
# Si number density = 19.222952 Si / 1000 Ang^3
#
#
#
# Elastic Constant Matrix: (Units=GPa)
#
#
# Indices 1 2 3 4 5 6 
#
# 1 133.9978 76.3240 43.5220 0.0000 -4.4734 0.0000
# 2 76.3240 151.0740 52.3660 0.0000 -13.6851 0.0000
# 3 43.5220 52.3660 120.4270 0.0000 -10.5769 0.0000
# 4 0.0000 0.0000 0.0000 42.5906 0.0000 -41.0693
# 5 -4.4734 -13.6851 -10.5769 0.0000 27.1622 0.0000
# 6 0.0000 0.0000 0.0000 -41.0693 0.0000 92.5930
#
#
#
# Elastic Compliance Matrix: (Units=1/GPa)
#
#
# Indices 1 2 3 4 5 6 
#
# 1 0.010854 -0.004958 -0.001894 0.000000 -0.001448 0.000000
# 2 -0.004958 0.010255 -0.002366 0.000000 0.003429 0.000000
# 3 -0.001894 -0.002366 0.010235 0.000000 0.002481 0.000000
# 4 0.000000 0.000000 0.000000 0.041027 0.000000 0.018197
# 5 -0.001448 0.003429 0.002481 0.000000 0.039271 0.000000
# 6 0.000000 0.000000 0.000000 0.018197 0.000000 0.018871
#
#
# Mechanical properties :
#
#
# Convention : Reuss Voigt Hill
#
# Bulk Modulus (GPa) = 77.47400 83.32475 80.39937
# Shear Modulus (GPa) = 32.62618 48.02163 40.32391
#
# Velocity S-wave (km/s) = 4.12424 5.00356 4.58503
# Velocity P-wave (km/s) = 7.94163 8.76478 8.36334
#
# Compressibility (1/GPa) = 0.01290756
#
# Stress axis : x y z
#
# Youngs Moduli (GPa) = 92.13509 97.51388 97.70377
#
# Poissons Ratio (x) = 0.48349 0.18502
# Poissons Ratio (y) = 0.45682 0.23119
# Poissons Ratio (z) = 0.17447 0.23074
#
# Static dielectric constant tensor:
#      x y z
#    x 3.520590 0.000000 -0.341670 
#    y 0.000000 3.598750 0.000000 
#    z -0.341670 0.000000 2.502090 
# 
# 
# High freq. dielectric constant tensor:
#      x y z
#    x 1.748740 0.000000 0.001650 
#    y 0.000000 1.751210 0.000000 
#    z 0.001650 0.000000 1.749880 
# 
# From -- ./inp_files/38960.got.cif
#   From: 2010.03.12/outbox.cif.g09.slc.cpg/sg5_20_cif.got.tgz:38960.got - 2010.03.31 09:47:26.
