data_PCOD8049768
_publ_section_title
;
Structure prediction by ZEFSAII (Michael W. Deem and Ramdas Pophale) SiO2 
 PCOD8049768
Probable space group: C 2
;
_chemical_formula_sum "Si O2"
_cell_formula_units_Z 24
_cell_length_a 17.582971
_cell_length_b 8.478375
_cell_length_c 11.061436
_cell_angle_alpha 90.000000
_cell_angle_beta 136.423026
_cell_angle_gamma 90.000000
_cell_volume 1136.691469
_symmetry_space_group_name_H-M "C 2"
_symmetry_group_IT_number 5
_symmetry_cell_setting 'monoclinic'
loop_
_space_group_symop_operation_xyz
x,y,z
-x,y,-z
1/2+x,1/2+y,z
1/2-x,1/2+y,-z
loop_
_atom_site_type_symbol
_atom_site_label
_atom_site_fract_x
_atom_site_fract_y
_atom_site_fract_z
Si Si1 0.523820 0.405980 0.360116
Si Si2 0.870197 0.380172 0.083977
Si Si3 0.937769 0.062194 0.044283
Si Si4 0.044803 0.540902 0.421631
Si Si5 0.224052 0.389357 0.760125
Si Si6 0.180194 0.029803 0.720317
O O1 0.510012 0.219609 0.357146
O O2 0.642406 0.445531 0.553752
O O3 0.418572 0.494601 0.298994
O O4 0.526793 0.466494 0.226615
O O5 0.810683 0.419194 0.141309
O O6 0.994832 0.444842 0.249186
O O7 0.876689 0.198465 0.051345
O O8 0.799342 0.468992 0.900445
O O9 0.852466 0.929481 0.901682
O O10 0.000000 0.136035 0.000000
O O11 0.172991 0.500402 0.593507
O O12 0.000000 0.480069 0.500000
O O13 0.193683 0.210093 0.698256
#
# Coordination Sequence:
#
# PCOD8049768 Si02
#       6
#     4   4   4   4   4   4
#     4  11  21  38  61  99 130 165 211 271 323 374
#     4  11  21  38  64  97 125 169 216 266 313 381
#     4  12  26  43  64  96 137 173 211 267 331 388
#     4  10  21  35  65  98 130 158 215 276 319 370
#     4  11  21  39  64  96 126 172 217 261 320 381
#     4  11  21  35  66  97 124 162 219 274 311 370
#
# _framework density 21.113909
#
# number of rings (size 3 to 8) (size 9 to 14) (size 15 to 20)
#    0.000    1.000    5.000    3.000    7.000    0.000 
#    0.000   10.000    0.000    0.000    0.000    0.000 
#    0.000    0.000    0.000    0.000    0.000    0.000 
#
# Total GULP energy -148673.097516 kJ/mol
# GULP energy per Si atom -12389.424793 kJ/mol
# Density = 2.106585 g / cm^3
# Si number density = 21.113909 Si / 1000 Ang^3
#
#
#
# Elastic Constant Matrix: (Units=GPa)
#
#
# Indices 1 2 3 4 5 6 
#
# 1 39.4890 20.9436 33.6786 0.0000 -4.0145 0.0000
# 2 20.9436 106.3267 38.3519 0.0000 3.2867 0.0000
# 3 33.6786 38.3519 184.7466 0.0000 1.7124 0.0000
# 4 0.0000 0.0000 0.0000 46.5693 0.0000 3.9706
# 5 -4.0145 3.2867 1.7124 0.0000 11.8140 0.0000
# 6 0.0000 0.0000 0.0000 3.9706 0.0000 7.4591
#
#
#
# Elastic Compliance Matrix: (Units=1/GPa)
#
#
# Indices 1 2 3 4 5 6 
#
# 1 0.033956 -0.005226 -0.005233 0.000000 0.013751 0.000000
# 2 -0.005226 0.011046 -0.001297 0.000000 -0.004661 0.000000
# 3 -0.005233 -0.001297 0.006658 0.000000 -0.002382 0.000000
# 4 0.000000 0.000000 0.000000 0.022494 0.000000 -0.011974
# 5 0.013751 -0.004661 -0.002382 0.000000 0.090960 0.000000
# 6 0.000000 0.000000 0.000000 -0.011974 0.000000 0.140438
#
#
# Mechanical properties :
#
#
# Convention : Reuss Voigt Hill
#
# Bulk Modulus (GPa) = 35.52590 57.39006 46.45798
# Shear Modulus (GPa) = 14.77337 29.00770 21.89054
#
# Velocity S-wave (km/s) = 2.64805 3.71059 3.22340
# Velocity P-wave (km/s) = 5.11976 6.75264 5.99208
#
# Compressibility (1/GPa) = 0.02814848
#
# Stress axis : x y z
#
# Youngs Moduli (GPa) = 29.45001 90.52756 150.19340
#
# Poissons Ratio (x) = 0.47310 0.78590
# Poissons Ratio (y) = 0.15391 0.19484
# Poissons Ratio (z) = 0.15410 0.11744
#
# Static dielectric constant tensor:
#      x y z
#    x 3.216840 0.000000 -0.010590 
#    y 0.000000 3.693930 0.000000 
#    z -0.010590 0.000000 4.505640 
# 
# 
# High freq. dielectric constant tensor:
#      x y z
#    x 1.754180 0.000000 0.002810 
#    y 0.000000 1.833500 0.000000 
#    z 0.002810 0.000000 1.864310 
# 
# From -- ./inp_files/46075.got.cif
#   From: 2010.03.12/outbox.cif.g09.slc.cpg/sg5_24_cif.got.tgz:46075.got - 2010.03.31 09:47:26.
