data_PCOD8049888
_publ_section_title
;
Structure prediction by ZEFSAII (Michael W. Deem and Ramdas Pophale) SiO2 
 PCOD8049888
Probable space group: C 2
;
_chemical_formula_sum "Si O2"
_cell_formula_units_Z 32
_cell_length_a 15.385441
_cell_length_b 8.211943
_cell_length_c 25.784445
_cell_angle_alpha 90.000000
_cell_angle_beta 27.947663
_cell_angle_gamma 90.000000
_cell_volume 1526.778490
_symmetry_space_group_name_H-M "C 2"
_symmetry_group_IT_number 5
_symmetry_cell_setting 'monoclinic'
loop_
_space_group_symop_operation_xyz
x,y,z
-x,y,-z
1/2+x,1/2+y,z
1/2-x,1/2+y,-z
loop_
_atom_site_type_symbol
_atom_site_label
_atom_site_fract_x
_atom_site_fract_y
_atom_site_fract_z
Si Si1 0.637478 0.995780 0.319168
Si Si2 0.683092 0.823441 0.754427
Si Si3 0.275482 0.735959 0.801921
Si Si4 0.537194 0.115799 0.101063
Si Si5 0.510769 0.510402 0.611224
Si Si6 0.087301 0.833997 0.745859
Si Si7 0.381573 0.648913 0.854702
Si Si8 0.283953 0.824326 0.533955
O O1 0.635667 0.906163 0.264369
O O2 0.773699 0.903079 0.285320
O O3 0.432950 0.974007 0.453057
O O4 0.713304 0.177653 0.269057
O O5 0.573875 0.748188 0.762998
O O6 0.529367 0.926592 0.867818
O O7 0.856784 0.944641 0.650572
O O8 0.403891 0.586030 0.716553
O O9 0.270708 0.735469 0.866654
O O10 0.071002 0.719103 0.885612
O O11 0.503629 0.175748 0.178217
O O12 0.753695 0.139363 0.973509
O O13 0.628687 0.648785 0.521789
O O14 0.633309 0.362114 0.568810
O O15 0.195913 0.796147 0.636367
O O16 0.928862 0.963824 0.815264
#
# Coordination Sequence:
#
# PCOD8049888 Si02
#       8
#     4   4   4   4   4   4   4   4
#     4   9  20  37  62  87 128 160 204 259 311 374
#     4  10  22  40  58  93 130 159 207 265 313 369
#     4   9  19  38  62  91 119 164 208 257 318 377
#     4  10  21  39  62  90 127 166 208 261 315 373
#     4  10  21  38  61  89 126 164 204 267 312 380
#     4  10  21  38  62  89 123 168 208 258 310 383
#     4  11  20  39  66  90 123 166 214 259 321 371
#     4  11  20  39  65  89 124 170 216 246 331 374
#
# _framework density 20.959164000000001
#
# number of rings (size 3 to 8) (size 9 to 14) (size 15 to 20)
#    0.000    2.000    1.250    3.000    0.000    0.000 
#    6.750    3.750    0.000    6.000    0.000    0.000 
#    0.000    0.000    0.000    0.000    0.000    0.000 
#
# Total GULP energy -198240.381519 kJ/mol
# GULP energy per Si atom -12390.023845 kJ/mol
# Density = 2.091146 g / cm^3
# Si number density = 20.959164 Si / 1000 Ang^3
#
#
#
# Elastic Constant Matrix: (Units=GPa)
#
#
# Indices 1 2 3 4 5 6 
#
# 1 75.7611 45.3374 35.7845 -0.0005 2.9700 0.0051
# 2 45.3374 111.6527 53.5505 0.0000 1.9376 0.0071
# 3 35.7845 53.5505 117.5475 -0.0051 11.3683 0.0004
# 4 -0.0005 0.0000 -0.0051 30.9069 0.0007 -8.1447
# 5 2.9700 1.9376 11.3683 0.0007 28.2124 -0.0004
# 6 0.0051 0.0071 0.0004 -8.1447 -0.0004 24.8274
#
#
#
# Elastic Compliance Matrix: (Units=1/GPa)
#
#
# Indices 1 2 3 4 5 6 
#
# 1 0.018118 -0.006044 -0.002724 -0.000001 -0.000395 -0.000002
# 2 -0.006044 0.013527 -0.004469 -0.000002 0.001508 -0.000003
# 3 -0.002724 -0.004469 0.011774 0.000003 -0.004151 0.000002
# 4 -0.000001 -0.000002 0.000003 0.035417 -0.000002 0.011619
# 5 -0.000395 0.001508 -0.004151 -0.000002 0.037056 0.000000
# 6 -0.000002 -0.000003 0.000002 0.011619 0.000000 0.044090
#
#
# Mechanical properties :
#
#
# Convention : Reuss Voigt Hill
#
# Bulk Modulus (GPa) = 59.00947 63.81177 61.41062
# Shear Modulus (GPa) = 26.02760 28.14194 27.08477
#
# Velocity S-wave (km/s) = 3.52778 3.66827 3.59871
# Velocity P-wave (km/s) = 6.69397 6.96085 6.82871
#
# Compressibility (1/GPa) = 0.01694643
#
# Stress axis : x y z
#
# Youngs Moduli (GPa) = 55.19289 73.92373 84.93513
#
# Poissons Ratio (x) = 0.44677 0.23139
# Poissons Ratio (y) = 0.33356 0.37954
# Poissons Ratio (z) = 0.15036 0.33034
#
# Static dielectric constant tensor:
#      x y z
#    x 3.634350 0.000000 -0.245880 
#    y 0.000000 4.052960 0.000000 
#    z -0.245880 0.000000 3.790520 
# 
# 
# High freq. dielectric constant tensor:
#      x y z
#    x 1.805330 0.000000 -0.023920 
#    y 0.000000 1.821240 0.000000 
#    z -0.023920 0.000000 1.814400 
# 
# From -- ./inp_files/57703.got.cif
#   From: 2010.03.12/outbox.cif.g09.slc.cpg/sg5_29_cif.got.tgz:57703.got - 2010.03.31 09:47:26.
