data_PCOD8049404
_publ_section_title
;
Structure prediction by ZEFSAII (Michael W. Deem and Ramdas Pophale) SiO2 
 PCOD8049404
Probable space group: C 2
;
_chemical_formula_sum "Si O2"
_cell_formula_units_Z 32
_cell_length_a 11.911159
_cell_length_b 7.893323
_cell_length_c 23.009108
_cell_angle_alpha 90.000000
_cell_angle_beta 52.693947
_cell_angle_gamma 90.000000
_cell_volume 1720.697111
_symmetry_space_group_name_H-M "C 2"
_symmetry_group_IT_number 5
_symmetry_cell_setting 'monoclinic'
loop_
_space_group_symop_operation_xyz
x,y,z
-x,y,-z
1/2+x,1/2+y,z
1/2-x,1/2+y,-z
loop_
_atom_site_type_symbol
_atom_site_label
_atom_site_fract_x
_atom_site_fract_y
_atom_site_fract_z
Si Si1 0.379765 0.902480 0.583142
Si Si2 0.861112 0.781523 0.142305
Si Si3 0.890900 0.250027 0.697855
Si Si4 0.080423 0.058499 0.791322
Si Si5 0.108089 0.620713 0.318245
Si Si6 0.571820 0.433540 0.670342
Si Si7 0.816807 0.246915 0.909087
Si Si8 0.083968 0.515889 0.029995
O O1 0.500000 0.854853 0.500000
O O2 0.364508 0.752921 0.636330
O O3 0.230853 0.917109 0.595833
O O4 0.415522 0.080293 0.605425
O O5 0.749430 0.697933 0.222454
O O6 0.788849 0.834706 0.103726
O O7 0.987233 0.650902 0.093295
O O8 0.928847 0.951875 0.146459
O O9 0.931267 0.445270 0.704249
O O10 0.014361 0.117282 0.670456
O O11 0.226532 0.163909 0.743882
O O12 0.947522 0.181377 0.829534
O O13 0.076640 0.926071 0.738851
O O14 0.019132 0.780013 0.325978
O O15 0.880268 0.366028 0.937962
O O16 0.733875 0.093927 0.965269
O O17 0.000000 0.445063 0.000000
#
# Coordination Sequence:
#
# PCOD8049404 Si02
#       8
#     4   4   4   4   4   4   4   4
#     4   9  21  42  58  89 129 153 202 252 287 366
#     4  10  20  39  55  84 115 146 198 252 289 350
#     4   9  20  39  57  91 119 152 206 243 295 358
#     4  10  21  36  56  86 116 145 199 250 288 361
#     4   8  21  37  55  91 114 155 202 240 296 356
#     4  11  19  39  62  82 123 155 190 253 301 348
#     4  11  22  38  59  81 117 157 191 245 303 348
#     4  10  24  38  56  85 115 155 199 240 299 362
#
# _framework density 18.597114000000001
#
# number of rings (size 3 to 8) (size 9 to 14) (size 15 to 20)
#    0.750    1.500    2.500    0.750    1.750    4.000 
#    4.500    0.625    0.000    0.000    0.000    0.000 
#    0.000    0.000    0.000    0.000    0.000    0.000 
#
# Total GULP energy -198270.523477 kJ/mol
# GULP energy per Si atom -12391.907717 kJ/mol
# Density = 1.855479 g / cm^3
# Si number density = 18.597114 Si / 1000 Ang^3
#
#
#
# Elastic Constant Matrix: (Units=GPa)
#
#
# Indices 1 2 3 4 5 6 
#
# 1 104.0441 45.9573 32.3356 0.0000 -12.7084 0.0000
# 2 45.9573 64.3392 18.0138 0.0000 -8.7992 -0.0001
# 3 32.3356 18.0138 97.7066 0.0000 -12.0038 0.0000
# 4 0.0000 0.0000 0.0000 13.5662 0.0000 -0.2491
# 5 -12.7084 -8.7992 -12.0038 0.0000 28.6129 0.0000
# 6 0.0000 -0.0001 0.0000 -0.2491 0.0000 30.8652
#
#
#
# Elastic Compliance Matrix: (Units=1/GPa)
#
#
# Indices 1 2 3 4 5 6 
#
# 1 0.015063 -0.009602 -0.002905 0.000000 0.002519 0.000000
# 2 -0.009602 0.022950 -0.000749 0.000000 0.002479 0.000000
# 3 -0.002905 -0.000749 0.011753 0.000000 0.003410 0.000000
# 4 0.000000 0.000000 0.000000 0.073724 0.000000 0.000595
# 5 0.002519 0.002479 0.003410 0.000000 0.038261 0.000000
# 6 0.000000 0.000000 0.000000 0.000595 0.000000 0.032404
#
#
# Mechanical properties :
#
#
# Convention : Reuss Voigt Hill
#
# Bulk Modulus (GPa) = 43.00330 50.96704 46.98517
# Shear Modulus (GPa) = 21.88975 25.92774 23.90874
#
# Velocity S-wave (km/s) = 3.43454 3.73792 3.58944
# Velocity P-wave (km/s) = 6.23714 6.78932 6.51908
#
# Compressibility (1/GPa) = 0.02325403
#
# Stress axis : x y z
#
# Youngs Moduli (GPa) = 66.38780 43.57352 85.08258
#
# Poissons Ratio (x) = 0.41837 0.24720
# Poissons Ratio (y) = 0.63743 0.06373
# Poissons Ratio (z) = 0.19288 0.03264
#
# Static dielectric constant tensor:
#      x y z
#    x 3.534340 0.000000 -0.070310 
#    y 0.000000 3.058800 0.000000 
#    z -0.070310 0.000000 3.443960 
# 
# 
# High freq. dielectric constant tensor:
#      x y z
#    x 1.728940 0.000000 -0.006320 
#    y 0.000000 1.691600 0.000000 
#    z -0.006320 0.000000 1.722910 
# 
# From -- ./inp_files/68221.got.cif
#   From: 2010.03.12/outbox.cif.g09.slc.cpg/sg5_35_cif.got.tgz:68221.got - 2010.03.31 09:47:26.
