data_PCOD8049185
_publ_section_title
;
Structure prediction by ZEFSAII (Michael W. Deem and Ramdas Pophale) SiO2 
 PCOD8049185
Probable space group: C 2
;
_chemical_formula_sum "Si O2"
_cell_formula_units_Z 24
_cell_length_a 13.699391
_cell_length_b 12.513532
_cell_length_c 9.661344
_cell_angle_alpha 90.000000
_cell_angle_beta 42.281631
_cell_angle_gamma 90.000000
_cell_volume 1114.265768
_symmetry_space_group_name_H-M "C 2"
_symmetry_group_IT_number 5
_symmetry_cell_setting 'monoclinic'
loop_
_space_group_symop_operation_xyz
x,y,z
-x,y,-z
1/2+x,1/2+y,z
1/2-x,1/2+y,-z
loop_
_atom_site_type_symbol
_atom_site_label
_atom_site_fract_x
_atom_site_fract_y
_atom_site_fract_z
Si Si1 0.262339 0.929330 0.495555
Si Si2 0.648247 0.591510 0.395934
Si Si3 0.714006 0.955773 0.214640
Si Si4 0.023676 0.820429 0.127996
Si Si5 0.270547 0.153834 0.983835
Si Si6 0.505445 0.785755 0.300095
O O1 0.290085 0.978823 0.617800
O O2 0.404379 0.858322 0.305818
O O3 0.123923 0.852493 0.642379
O O4 0.238114 0.024478 0.413325
O O5 0.500000 0.532102 0.500000
O O6 0.752706 0.605119 0.155627
O O7 0.603102 0.708845 0.499446
O O8 0.599886 0.862008 0.301812
O O9 0.875238 0.924550 0.996544
O O10 0.676072 0.065353 0.178855
O O11 0.097786 0.736603 0.152313
O O12 0.000000 0.769830 0.000000
O O13 0.119551 0.211984 0.095066
#
# Coordination Sequence:
#
# PCOD8049185 Si02
#       6
#     4   4   4   4   4   4
#     4  11  21  37  61  85 111 150 192 230 280 340
#     4  10  20  38  59  83 114 151 189 234 282 335
#     4  10  20  37  60  84 111 150 192 232 277 336
#     4   9  18  33  56  81 109 149 192 224 271 343
#     4  10  20  37  59  83 113 148 189 236 280 330
#     4  10  21  40  62  82 115 158 192 224 282 354
#
# _framework density 21.538845999999999
#
# number of rings (size 3 to 8) (size 9 to 14) (size 15 to 20)
#    0.000    2.000    0.000    7.500    0.000    2.667 
#    0.000    6.667    0.000    0.000    0.000    0.000 
#    0.000    0.000    0.000    0.000    0.000    0.000 
#
# Total GULP energy -148755.343041 kJ/mol
# GULP energy per Si atom -12396.278587 kJ/mol
# Density = 2.148982 g / cm^3
# Si number density = 21.538846 Si / 1000 Ang^3
#
#
#
# Elastic Constant Matrix: (Units=GPa)
#
#
# Indices 1 2 3 4 5 6 
#
# 1 99.7153 70.1219 31.6561 0.0000 -14.5101 0.0000
# 2 70.1219 124.2462 40.3877 0.0000 2.0927 0.0000
# 3 31.6561 40.3877 64.3811 0.0000 -12.6679 0.0000
# 4 0.0000 0.0000 0.0000 18.3779 0.0000 -4.9739
# 5 -14.5101 2.0927 -12.6679 0.0000 25.8345 0.0000
# 6 0.0000 0.0000 0.0000 -4.9739 0.0000 47.4460
#
#
#
# Elastic Compliance Matrix: (Units=1/GPa)
#
#
# Indices 1 2 3 4 5 6 
#
# 1 0.019769 -0.011249 -0.000332 0.000000 0.011852 0.000000
# 2 -0.011249 0.016973 -0.007338 0.000000 -0.011291 0.000000
# 3 -0.000332 -0.007338 0.022555 0.000000 0.011468 0.000000
# 4 0.000000 0.000000 0.000000 0.056002 0.000000 0.005871
# 5 0.011852 -0.011291 0.011468 0.000000 0.051903 0.000000
# 6 0.000000 0.000000 0.000000 0.005871 0.000000 0.021692
#
#
# Mechanical properties :
#
#
# Convention : Reuss Voigt Hill
#
# Bulk Modulus (GPa) = 46.59834 63.63043 55.11439
# Shear Modulus (GPa) = 21.37809 28.07681 24.72745
#
# Velocity S-wave (km/s) = 3.15387 3.61438 3.39195
# Velocity P-wave (km/s) = 5.91135 6.85745 6.40190
#
# Compressibility (1/GPa) = 0.02145999
#
# Stress axis : x y z
#
# Youngs Moduli (GPa) = 50.58403 58.91800 44.33555
#
# Poissons Ratio (x) = 0.66277 0.01470
# Poissons Ratio (y) = 0.56903 0.32533
# Poissons Ratio (z) = 0.01677 0.43233
#
# Static dielectric constant tensor:
#      x y z
#    x 4.019530 0.000000 -0.412120 
#    y 0.000000 3.764820 0.000000 
#    z -0.412120 0.000000 3.692990 
# 
# 
# High freq. dielectric constant tensor:
#      x y z
#    x 1.838610 0.000000 -0.030300 
#    y 0.000000 1.836850 0.000000 
#    z -0.030300 0.000000 1.831650 
# 
# From -- ./inp_files/42391.got.cif
#   From: 2010.03.12/outbox.cif.g09.slc.cpg/sg5_22_cif.got.tgz:42391.got - 2010.03.31 09:47:26.
