data_PCOD8049814
_publ_section_title
;
Structure prediction by ZEFSAII (Michael W. Deem and Ramdas Pophale) SiO2 
 PCOD8049814
Probable space group: C 2
;
_chemical_formula_sum "Si O2"
_cell_formula_units_Z 32
_cell_length_a 19.083747
_cell_length_b 5.124440
_cell_length_c 29.379440
_cell_angle_alpha 90.000000
_cell_angle_beta 151.816112
_cell_angle_gamma 90.000000
_cell_volume 1356.982367
_symmetry_space_group_name_H-M "C 2"
_symmetry_group_IT_number 5
_symmetry_cell_setting 'monoclinic'
loop_
_space_group_symop_operation_xyz
x,y,z
-x,y,-z
1/2+x,1/2+y,z
1/2-x,1/2+y,-z
loop_
_atom_site_type_symbol
_atom_site_label
_atom_site_fract_x
_atom_site_fract_y
_atom_site_fract_z
Si Si1 0.857318 0.708420 0.255148
Si Si2 0.174393 0.712280 0.476488
Si Si3 0.853370 0.741314 0.091808
Si Si4 0.207240 0.290311 0.360149
Si Si5 0.359532 0.116433 0.994133
Si Si6 0.302580 0.212046 0.804587
Si Si7 0.889806 0.390990 0.188628
Si Si8 0.826391 0.812070 0.714237
O O1 0.730736 0.505164 0.198611
O O2 0.884230 0.648664 0.217262
O O3 0.004919 0.649005 0.367839
O O4 0.808852 0.007322 0.235379
O O5 0.271578 0.456387 0.522339
O O6 0.180399 0.778852 0.533375
O O7 0.820599 0.759640 0.019618
O O8 0.898883 0.464797 0.140000
O O9 0.002129 0.910261 0.186125
O O10 0.705232 0.826956 0.034575
O O11 0.211420 0.580299 0.342232
O O12 0.040966 0.231598 0.285541
O O13 0.257214 0.072223 0.351594
O O14 0.533910 0.124277 0.085083
O O15 0.265907 0.230430 0.897447
O O16 0.280201 0.207741 0.737513
#
# Coordination Sequence:
#
# PCOD8049814 Si02
#       8
#     4   4   4   4   4   4   4   4
#     4  12  28  49  66 100 143 189 227 276 349 436
#     4  12  25  45  76 103 137 173 230 293 356 405
#     4  10  21  36  65  99 130 171 232 295 330 385
#     4  11  22  41  72 111 124 169 231 310 344 387
#     4  11  22  40  68  99 136 184 230 284 341 403
#     4  11  28  47  67  96 150 196 221 270 350 430
#     4  11  24  40  68 100 139 173 233 292 345 404
#     4  10  22  42  70 100 139 174 233 286 343 395
#
# _framework density 23.581735999999999
#
# number of rings (size 3 to 8) (size 9 to 14) (size 15 to 20)
#    0.000    1.000    3.750    2.250    5.250    0.500 
#    0.000    3.750    0.000    0.000    0.000    0.000 
#    0.000    0.000    0.000    0.000    0.000    0.000 
#
# Total GULP energy -198262.076375 kJ/mol
# GULP energy per Si atom -12391.379773 kJ/mol
# Density = 2.352806 g / cm^3
# Si number density = 23.581736 Si / 1000 Ang^3
#
#
#
# Elastic Constant Matrix: (Units=GPa)
#
#
# Indices 1 2 3 4 5 6 
#
# 1 48.3253 6.8115 19.8858 -0.0116 -5.6113 0.0325
# 2 6.8115 89.5137 15.1865 -0.0834 -2.9502 0.1288
# 3 19.8858 15.1865 102.2583 -0.0139 -15.1643 0.0065
# 4 -0.0116 -0.0834 -0.0139 34.0609 0.0370 -4.2097
# 5 -5.6113 -2.9502 -15.1643 0.0370 34.5368 -0.0250
# 6 0.0325 0.1288 0.0065 -4.2097 -0.0250 49.0191
#
#
#
# Elastic Compliance Matrix: (Units=1/GPa)
#
#
# Indices 1 2 3 4 5 6 
#
# 1 0.022690 -0.000988 -0.003991 0.000000 0.001849 -0.000011
# 2 -0.000988 0.011505 -0.001492 0.000024 0.000167 -0.000027
# 3 -0.003991 -0.001492 0.011404 -0.000004 0.004232 0.000007
# 4 0.000000 0.000024 -0.000004 0.029674 -0.000030 0.002548
# 5 0.001849 0.000167 0.004232 -0.000030 0.031127 0.000011
# 6 -0.000011 -0.000027 0.000007 0.002548 0.000011 0.020619
#
#
# Mechanical properties :
#
#
# Convention : Reuss Voigt Hill
#
# Bulk Modulus (GPa) = 30.62177 35.98499 33.30338
# Shear Modulus (GPa) = 33.14588 36.73759 34.94173
#
# Velocity S-wave (km/s) = 3.75317 3.95128 3.85350
# Velocity P-wave (km/s) = 5.63873 6.00913 5.82687
#
# Compressibility (1/GPa) = 0.03265651
#
# Stress axis : x y z
#
# Youngs Moduli (GPa) = 44.07310 86.91627 87.68574
#
# Poissons Ratio (x) = 0.08591 0.34998
# Poissons Ratio (y) = 0.04356 0.13080
# Poissons Ratio (z) = 0.17591 0.12965
#
# Static dielectric constant tensor:
#      x y z
#    x 4.065870 -0.000110 -0.167250 
#    y -0.000110 4.023780 0.000010 
#    z -0.167250 0.000010 4.380530 
# 
# 
# High freq. dielectric constant tensor:
#      x y z
#    x 1.918860 -0.000010 -0.023790 
#    y -0.000010 1.932900 0.000010 
#    z -0.023790 0.000010 1.940040 
# 
# From -- ./inp_files/72034.got.cif
#   From: 2010.03.12/outbox.cif.g09.slc.cpg/sg5_37_cif.got.tgz:72034.got - 2010.03.31 09:47:26.
