data_PCOD8049175
_publ_section_title
;
Structure prediction by ZEFSAII (Michael W. Deem and Ramdas Pophale) SiO2 
 PCOD8049175
Probable space group: C 2
;
_chemical_formula_sum "Si O2"
_cell_formula_units_Z 30
_cell_length_a 8.123554
_cell_length_b 12.119131
_cell_length_c 14.905487
_cell_angle_alpha 90.000000
_cell_angle_beta 101.691947
_cell_angle_gamma 90.000000
_cell_volume 1437.003678
_symmetry_space_group_name_H-M "C 2"
_symmetry_group_IT_number 5
_symmetry_cell_setting 'monoclinic'
loop_
_space_group_symop_operation_xyz
x,y,z
-x,y,-z
1/2+x,1/2+y,z
1/2-x,1/2+y,-z
loop_
_atom_site_type_symbol
_atom_site_label
_atom_site_fract_x
_atom_site_fract_y
_atom_site_fract_z
Si Si1 0.883653 0.323060 0.342883
Si Si2 0.880364 0.137156 0.556692
Si Si3 0.411960 0.240170 0.575487
Si Si4 0.500000 0.892430 0.000000
Si Si5 0.140746 0.023969 0.126052
Si Si6 0.291440 0.794202 0.132604
Si Si7 0.272873 0.568005 0.060397
Si Si8 0.836939 0.566672 0.320136
O O1 0.026118 0.253129 0.409284
O O2 0.700463 0.315575 0.371549
O O3 0.872290 0.280282 0.239791
O O4 0.935330 0.452136 0.350135
O O5 0.705759 0.151782 0.486106
O O6 0.835351 0.068925 0.640150
O O7 0.000000 0.070879 0.500000
O O8 0.500000 0.304619 0.500000
O O9 0.546767 0.172899 0.650207
O O10 0.435929 0.816838 0.074397
O O11 0.642726 0.969137 0.060787
O O12 0.156194 0.891906 0.116682
O O13 0.273794 0.070545 0.211521
O O14 0.947870 0.044309 0.131822
O O15 0.189999 0.085270 0.040311
O O16 0.198342 0.680640 0.094506
#
# Coordination Sequence:
#
# PCOD8049175 Si02
#       8
#     4   4   4   2   4   4   4   4
#     4  10  21  37  58  83 114 146 185 235 281 331
#     4   9  19  35  55  82 110 141 184 228 279 342
#     4   9  20  37  57  82 109 142 187 227 277 345
#     4  10  22  36  56  86 112 150 202 226 270 348
#     4   9  20  37  56  82 112 146 195 233 275 338
#     4  10  21  37  57  84 112 150 190 228 280 330
#     4  10  20  37  57  78 115 153 180 238 285 319
#     4  10  20  38  58  80 113 150 185 236 284 325
#
# _framework density 20.876771999999999
#
# number of rings (size 3 to 8) (size 9 to 14) (size 15 to 20)
#    0.000    2.400    0.000    1.600    0.000   10.667 
#    0.000   16.000    0.000    0.000    0.000    0.000 
#    0.000    0.000    0.000    0.000    0.000    0.000 
#
# Total GULP energy -185895.761286 kJ/mol
# GULP energy per Si atom -12393.050752 kJ/mol
# Density = 2.082926 g / cm^3
# Si number density = 20.876772 Si / 1000 Ang^3
#
#
#
# Elastic Constant Matrix: (Units=GPa)
#
#
# Indices 1 2 3 4 5 6 
#
# 1 72.1930 5.6419 26.7740 0.0000 4.4302 0.0000
# 2 5.6419 51.6279 24.8120 0.0000 9.4580 0.0000
# 3 26.7740 24.8120 96.6318 0.0000 0.4292 0.0000
# 4 0.0000 0.0000 0.0000 17.4554 0.0000 -0.4221
# 5 4.4302 9.4580 0.4292 0.0000 35.0413 0.0000
# 6 0.0000 0.0000 0.0000 -0.4221 0.0000 22.4208
#
#
#
# Elastic Compliance Matrix: (Units=1/GPa)
#
#
# Indices 1 2 3 4 5 6 
#
# 1 0.015598 0.000869 -0.004535 0.000000 -0.002151 0.000000
# 2 0.000869 0.023433 -0.006229 0.000000 -0.006358 0.000000
# 3 -0.004535 -0.006229 0.013195 0.000000 0.002093 0.000000
# 4 0.000000 0.000000 0.000000 0.057315 0.000000 0.001079
# 5 -0.002151 -0.006358 0.002093 0.000000 0.030500 0.000000
# 6 0.000000 0.000000 0.000000 0.001079 0.000000 0.044622
#
#
# Mechanical properties :
#
#
# Convention : Reuss Voigt Hill
#
# Bulk Modulus (GPa) = 30.83082 37.21205 34.02143
# Shear Modulus (GPa) = 23.22705 25.86515 24.54610
#
# Velocity S-wave (km/s) = 3.33915 3.52368 3.43266
# Velocity P-wave (km/s) = 5.44671 5.86672 5.66061
#
# Compressibility (1/GPa) = 0.03243507
#
# Stress axis : x y z
#
# Youngs Moduli (GPa) = 64.11140 42.67474 75.78389
#
# Poissons Ratio (x) = -0.03709 0.34371
# Poissons Ratio (y) = -0.05572 0.47209
# Poissons Ratio (z) = 0.29077 0.26584
#
# Static dielectric constant tensor:
#      x y z
#    x 3.849240 0.000000 -0.252610 
#    y 0.000000 3.503700 0.000000 
#    z -0.252610 0.000000 4.020200 
# 
# 
# High freq. dielectric constant tensor:
#      x y z
#    x 1.809630 0.000000 -0.006390 
#    y 0.000000 1.798320 0.000000 
#    z -0.006390 0.000000 1.830550 
# 
# From -- ./inp_files/50313.got.cif
#   From: 2010.03.12/outbox.cif.g09.slc.cpg/sg5_26_cif.got.tgz:50313.got - 2010.03.31 09:47:26.
