data_PCOD8049645
_publ_section_title
;
Structure prediction by ZEFSAII (Michael W. Deem and Ramdas Pophale) SiO2 
 PCOD8049645
Probable space group: C 2
;
_chemical_formula_sum "Si O2"
_cell_formula_units_Z 30
_cell_length_a 10.773980
_cell_length_b 14.289132
_cell_length_c 11.485872
_cell_angle_alpha 90.000000
_cell_angle_beta 52.682786
_cell_angle_gamma 90.000000
_cell_volume 1406.281493
_symmetry_space_group_name_H-M "C 2"
_symmetry_group_IT_number 5
_symmetry_cell_setting 'monoclinic'
loop_
_space_group_symop_operation_xyz
x,y,z
-x,y,-z
1/2+x,1/2+y,z
1/2-x,1/2+y,-z
loop_
_atom_site_type_symbol
_atom_site_label
_atom_site_fract_x
_atom_site_fract_y
_atom_site_fract_z
Si Si1 0.495733 0.666470 0.250810
Si Si2 0.272794 0.370043 0.377204
Si Si3 0.773576 0.645747 0.936009
Si Si4 0.000000 0.224305 0.500000
Si Si5 0.094832 0.457493 0.060964
Si Si6 0.677126 0.854202 0.684328
Si Si7 0.379637 0.513927 0.159096
Si Si8 0.863777 0.842646 0.811640
O O1 0.513699 0.658610 0.379737
O O2 0.364274 0.743951 0.296665
O O3 0.458558 0.562370 0.226730
O O4 0.658109 0.692571 0.096252
O O5 0.249469 0.395822 0.525023
O O6 0.243631 0.447792 0.291685
O O7 0.458442 0.362131 0.260003
O O8 0.159109 0.284790 0.410926
O O9 0.885572 0.568342 0.930932
O O10 0.689029 0.598832 0.875560
O O11 0.864791 0.731919 0.830513
O O12 0.984868 0.411725 0.220525
O O13 0.261071 0.403964 0.961066
O O14 0.000000 0.436655 0.000000
O O15 0.802436 0.868801 0.716697
O O16 0.500000 0.462524 0.000000
#
# Coordination Sequence:
#
# PCOD8049645 Si02
#       8
#     4   4   4   2   4   4   4   4
#     4  10  20  42  65  95 129 180 215 267 334 400
#     4  11  25  43  62  99 132 174 217 278 335 394
#     4  11  22  38  71 100 127 170 234 276 316 390
#     4  10  26  44  64  86 142 184 208 258 368 386
#     4  10  23  41  66 100 133 175 221 272 338 391
#     4  10  21  43  67  91 136 180 210 267 345 399
#     4  10  22  40  67 100 128 166 230 274 323 389
#     4  11  21  42  69  96 131 175 229 274 319 407
#
# _framework density 21.332856
#
# number of rings (size 3 to 8) (size 9 to 14) (size 15 to 20)
#    0.000    1.600    2.667    2.000    3.733    2.133 
#   12.000    0.000    0.000    0.000    0.000    0.000 
#    0.000    0.000    0.000    0.000    0.000    0.000 
#
# Total GULP energy -185824.068716 kJ/mol
# GULP energy per Si atom -12388.271248 kJ/mol
# Density = 2.128430 g / cm^3
# Si number density = 21.332856 Si / 1000 Ang^3
#
#
#
# Elastic Constant Matrix: (Units=GPa)
#
#
# Indices 1 2 3 4 5 6 
#
# 1 85.2604 13.1917 31.9615 0.0000 -9.0314 0.0000
# 2 13.1917 76.3724 52.8820 0.0000 2.8175 0.0000
# 3 31.9615 52.8820 124.0198 0.0000 1.0726 0.0000
# 4 0.0000 0.0000 0.0000 37.1291 0.0000 -0.9284
# 5 -9.0314 2.8175 1.0726 0.0000 36.5223 0.0000
# 6 0.0000 0.0000 0.0000 -0.9284 0.0000 21.4166
#
#
#
# Elastic Compliance Matrix: (Units=1/GPa)
#
#
# Indices 1 2 3 4 5 6 
#
# 1 0.013396 -0.000041 -0.003464 0.000000 0.003417 0.000000
# 2 -0.000041 0.018632 -0.007924 0.000000 -0.001215 0.000000
# 3 -0.003464 -0.007924 0.012340 0.000000 -0.000608 0.000000
# 4 0.000000 0.000000 0.000000 0.026962 0.000000 0.001169
# 5 0.003417 -0.001215 -0.000608 0.000000 0.028337 0.000000
# 6 0.000000 0.000000 0.000000 0.001169 0.000000 0.046743
#
#
# Mechanical properties :
#
#
# Convention : Reuss Voigt Hill
#
# Bulk Modulus (GPa) = 46.49058 53.52477 50.00767
# Shear Modulus (GPa) = 28.33843 31.52143 29.92993
#
# Velocity S-wave (km/s) = 3.64867 3.84813 3.74972
# Velocity P-wave (km/s) = 6.29211 6.69992 6.49921
#
# Compressibility (1/GPa) = 0.02150974
#
# Stress axis : x y z
#
# Youngs Moduli (GPa) = 74.65025 53.67053 81.03786
#
# Poissons Ratio (x) = 0.00221 0.28074
# Poissons Ratio (y) = 0.00307 0.64212
# Poissons Ratio (z) = 0.25861 0.42527
#
# Static dielectric constant tensor:
#      x y z
#    x 3.909500 0.000000 0.058060 
#    y 0.000000 3.698850 0.000000 
#    z 0.058060 0.000000 4.153090 
# 
# 
# High freq. dielectric constant tensor:
#      x y z
#    x 1.837360 0.000000 0.011790 
#    y 0.000000 1.826200 0.000000 
#    z 0.011790 0.000000 1.843500 
# 
# From -- ./inp_files/20613.got.cif
#   From: 2010.03.12/outbox.cif.g09.slc.cpg/sg5_11_cif.got.tgz:20613.got - 2010.03.31 09:47:26.
