data_PCOD8049495
_publ_section_title
;
Structure prediction by ZEFSAII (Michael W. Deem and Ramdas Pophale) SiO2 
 PCOD8049495
Probable space group: C 2
;
_chemical_formula_sum "Si O2"
_cell_formula_units_Z 32
_cell_length_a 13.406975
_cell_length_b 15.969955
_cell_length_c 17.542351
_cell_angle_alpha 90.000000
_cell_angle_beta 154.910771
_cell_angle_gamma 90.000000
_cell_volume 1592.641508
_symmetry_space_group_name_H-M "C 2"
_symmetry_group_IT_number 5
_symmetry_cell_setting 'monoclinic'
loop_
_space_group_symop_operation_xyz
x,y,z
-x,y,-z
1/2+x,1/2+y,z
1/2-x,1/2+y,-z
loop_
_atom_site_type_symbol
_atom_site_label
_atom_site_fract_x
_atom_site_fract_y
_atom_site_fract_z
Si Si1 0.671812 0.806210 0.049821
Si Si2 0.827289 0.867888 0.574571
Si Si3 0.241589 0.514368 0.622903
Si Si4 0.629998 0.477060 0.011088
Si Si5 0.541898 0.655009 0.762355
Si Si6 0.872443 0.635559 0.119321
Si Si7 0.995945 0.345409 0.221044
Si Si8 0.630595 0.699491 0.512385
O O1 0.759785 0.718117 0.078366
O O2 0.890302 0.864074 0.227431
O O3 0.500000 0.787423 0.000000
O O4 0.525268 0.858479 0.884684
O O5 0.713929 0.948581 0.535808
O O6 0.743731 0.875952 0.428358
O O7 0.717377 0.786361 0.537716
O O8 0.322110 0.603181 0.644202
O O9 0.000000 0.529862 0.500000
O O10 0.434822 0.473773 0.811081
O O11 0.800592 0.556390 0.120158
O O12 0.778013 0.391615 0.111084
O O13 0.500000 0.484806 0.000000
O O14 0.517385 0.748561 0.771957
O O15 0.535628 0.651926 0.665266
O O16 0.783401 0.622273 0.969616
O O17 0.152794 0.639747 0.315667
O O18 0.500000 0.719804 0.500000
#
# Coordination Sequence:
#
# PCOD8049495 Si02
#       8
#     4   4   4   4   4   4   4   4
#     4  10  20  40  62  85 125 165 202 246 306 367
#     4  10  21  39  61  90 124 153 206 263 296 362
#     4  11  22  39  66  94 125 157 200 264 315 352
#     4  11  22  37  65  96 121 158 201 258 317 354
#     4   9  22  41  56  88 127 156 197 251 301 365
#     4   9  21  39  60  89 124 153 204 260 297 363
#     4  10  21  41  58  89 127 156 202 249 301 370
#     4  10  21  38  62  87 119 166 204 243 309 361
#
# _framework density 20.092407000000001
#
# number of rings (size 3 to 8) (size 9 to 14) (size 15 to 20)
#    0.000    2.000    1.250    1.500    3.500    2.000 
#   11.250    1.250    0.000    0.000    0.000    0.000 
#    0.000    0.000    0.000    0.000    0.000    0.000 
#
# Total GULP energy -198319.939080 kJ/mol
# GULP energy per Si atom -12394.996192 kJ/mol
# Density = 2.004668 g / cm^3
# Si number density = 20.092407 Si / 1000 Ang^3
#
#
#
# Elastic Constant Matrix: (Units=GPa)
#
#
# Indices 1 2 3 4 5 6 
#
# 1 85.2430 16.2025 57.0116 -0.0811 -12.9632 -0.0199
# 2 16.2025 88.8677 31.6345 -0.0002 0.9941 -0.0298
# 3 57.0116 31.6345 138.6853 0.0488 -22.8251 0.0202
# 4 -0.0811 -0.0002 0.0488 11.5068 0.0092 -1.7748
# 5 -12.9632 0.9941 -22.8251 0.0092 30.2002 0.0008
# 6 -0.0199 -0.0298 0.0202 -1.7748 0.0008 21.5065
#
#
#
# Elastic Compliance Matrix: (Units=1/GPa)
#
#
# Indices 1 2 3 4 5 6 
#
# 1 0.016362 -0.000824 -0.006142 0.000144 0.002408 0.000032
# 2 -0.000824 0.012511 -0.003016 0.000013 -0.003045 0.000021
# 3 -0.006142 -0.003016 0.011427 -0.000101 0.006100 -0.000029
# 4 0.000144 0.000013 -0.000101 0.088027 -0.000042 0.007264
# 5 0.002408 -0.003045 0.006100 -0.000042 0.038856 -0.000013
# 6 0.000032 0.000021 -0.000029 0.007264 -0.000013 0.047097
#
#
# Mechanical properties :
#
#
# Convention : Reuss Voigt Hill
#
# Bulk Modulus (GPa) = 49.17359 58.05480 53.61420
# Shear Modulus (GPa) = 20.74490 26.50586 23.62538
#
# Velocity S-wave (km/s) = 3.21670 3.63602 3.43277
# Velocity P-wave (km/s) = 6.19056 6.82526 6.51564
#
# Compressibility (1/GPa) = 0.02033612
#
# Stress axis : x y z
#
# Youngs Moduli (GPa) = 61.11741 79.93194 87.50882
#
# Poissons Ratio (x) = 0.06584 0.53748
# Poissons Ratio (y) = 0.05034 0.26395
# Poissons Ratio (z) = 0.37538 0.24110
#
# Static dielectric constant tensor:
#      x y z
#    x 3.452610 0.000680 -0.198800 
#    y 0.000680 3.609680 -0.001650 
#    z -0.198800 -0.001650 3.743060 
# 
# 
# High freq. dielectric constant tensor:
#      x y z
#    x 1.757730 0.000000 -0.021670 
#    y 0.000000 1.782120 -0.000010 
#    z -0.021670 -0.000010 1.807510 
# 
# From -- ./inp_files/53466.got.cif
#   From: 2010.03.12/outbox.cif.g09.slc.cpg/sg5_27_cif.got.tgz:53466.got - 2010.03.31 09:47:26.
