data_PCOD8049691
_publ_section_title
;
Structure prediction by ZEFSAII (Michael W. Deem and Ramdas Pophale) SiO2 
 PCOD8049691
Probable space group: C 2
;
_chemical_formula_sum "Si O2"
_cell_formula_units_Z 30
_cell_length_a 30.255444
_cell_length_b 9.514545
_cell_length_c 12.175284
_cell_angle_alpha 90.000000
_cell_angle_beta 154.492593
_cell_angle_gamma 90.000000
_cell_volume 1509.290000
_symmetry_space_group_name_H-M "C 2"
_symmetry_group_IT_number 5
_symmetry_cell_setting 'monoclinic'
loop_
_space_group_symop_operation_xyz
x,y,z
-x,y,-z
1/2+x,1/2+y,z
1/2-x,1/2+y,-z
loop_
_atom_site_type_symbol
_atom_site_label
_atom_site_fract_x
_atom_site_fract_y
_atom_site_fract_z
Si Si1 0.024893 0.528980 0.231292
Si Si2 0.500000 0.488484 0.000000
Si Si3 0.182237 0.160770 0.334786
Si Si4 0.029077 0.046013 0.684554
Si Si5 0.790761 0.227089 0.851794
Si Si6 0.514659 0.857234 0.654210
Si Si7 0.650885 0.954132 0.321281
Si Si8 0.564588 0.328204 0.351316
O O1 0.044703 0.452168 0.390822
O O2 0.129189 0.526063 0.391492
O O3 0.992104 0.690172 0.180414
O O4 0.944427 0.446228 0.975577
O O5 0.428185 0.587309 0.912406
O O6 0.432712 0.396219 0.764233
O O7 0.208309 0.222920 0.275941
O O8 0.186731 0.294400 0.426672
O O9 0.264570 0.044199 0.553646
O O10 0.985347 0.935710 0.674656
O O11 0.000000 0.982998 0.500000
O O12 0.970518 0.197015 0.565057
O O13 0.152746 0.081895 0.975654
O O14 0.676629 0.266598 0.639328
O O15 0.862877 0.358454 0.048333
O O16 0.500000 0.920660 0.500000
#
# Coordination Sequence:
#
# PCOD8049691 Si02
#       8
#     4   2   4   4   4   4   4   4
#     4  11  23  39  59  93 130 164 207 267 320 377
#     4  12  24  38  66  94 126 180 212 254 336 396
#     4  12  23  39  63  91 133 166 214 259 328 395
#     4   9  21  44  70  89 126 170 215 270 324 383
#     4  10  20  43  61  93 121 169 213 258 318 386
#     4   9  20  44  67  85 125 170 212 267 324 375
#     4  11  24  39  60  94 129 167 210 261 321 399
#     4  12  24  39  66  96 132 169 215 269 322 389
#
# _framework density 19.876895000000001
#
# number of rings (size 3 to 8) (size 9 to 14) (size 15 to 20)
#    0.800    0.533    4.000    2.400    3.733    0.533 
#    2.400    0.000    0.000    0.000    0.000    0.000 
#    0.000    0.000    0.000    0.000    0.000    0.000 
#
# Total GULP energy -185840.783252 kJ/mol
# GULP energy per Si atom -12389.385550 kJ/mol
# Density = 1.983165 g / cm^3
# Si number density = 19.876895 Si / 1000 Ang^3
#
#
#
# Elastic Constant Matrix: (Units=GPa)
#
#
# Indices 1 2 3 4 5 6 
#
# 1 105.8431 58.5453 43.5205 0.0000 -10.1075 0.0000
# 2 58.5453 125.8492 30.2103 0.0000 1.6197 0.0000
# 3 43.5205 30.2103 74.9136 0.0000 5.6236 0.0000
# 4 0.0000 0.0000 0.0000 24.4561 0.0000 6.7811
# 5 -10.1075 1.6197 5.6236 0.0000 34.9547 0.0000
# 6 0.0000 0.0000 0.0000 6.7811 0.0000 33.1595
#
#
#
# Elastic Compliance Matrix: (Units=1/GPa)
#
#
# Indices 1 2 3 4 5 6 
#
# 1 0.016454 -0.005899 -0.007650 0.000000 0.006262 0.000000
# 2 -0.005899 0.010913 -0.000818 0.000000 -0.002080 0.000000
# 3 -0.007650 -0.000818 0.018510 0.000000 -0.005152 0.000000
# 4 0.000000 0.000000 0.000000 0.043347 0.000000 -0.008864
# 5 0.006262 -0.002080 -0.005152 0.000000 0.031345 0.000000
# 6 0.000000 0.000000 0.000000 -0.008864 0.000000 0.031970
#
#
# Mechanical properties :
#
#
# Convention : Reuss Voigt Hill
#
# Bulk Modulus (GPa) = 58.33225 63.46203 60.89714
# Shear Modulus (GPa) = 26.73965 30.13604 28.43785
#
# Velocity S-wave (km/s) = 3.67176 3.89798 3.78656
# Velocity P-wave (km/s) = 6.88377 7.22882 7.05840
#
# Compressibility (1/GPa) = 0.01714318
#
# Stress axis : x y z
#
# Youngs Moduli (GPa) = 60.77391 91.63160 54.02547
#
# Poissons Ratio (x) = 0.54051 0.41332
# Poissons Ratio (y) = 0.35849 0.04419
# Poissons Ratio (z) = 0.46494 0.07496
#
# Static dielectric constant tensor:
#      x y z
#    x 3.533450 0.000000 0.093840 
#    y 0.000000 3.605900 0.000000 
#    z 0.093840 0.000000 3.608580 
# 
# 
# High freq. dielectric constant tensor:
#      x y z
#    x 1.758680 0.000000 -0.002600 
#    y 0.000000 1.774840 0.000000 
#    z -0.002600 0.000000 1.761310 
# 
# From -- ./inp_files/48363.got.cif
#   From: 2010.03.12/outbox.cif.g09.slc.cpg/sg5_25_cif.got.tgz:48363.got - 2010.03.31 09:47:26.
