data_PCOD8049545
_publ_section_title
;
Structure prediction by ZEFSAII (Michael W. Deem and Ramdas Pophale) SiO2 
 PCOD8049545
Probable space group: C 2
;
_chemical_formula_sum "Si O2"
_cell_formula_units_Z 24
_cell_length_a 15.233340
_cell_length_b 8.042300
_cell_length_c 9.583154
_cell_angle_alpha 90.000000
_cell_angle_beta 79.834869
_cell_angle_gamma 90.000000
_cell_volume 1155.613927
_symmetry_space_group_name_H-M "C 2"
_symmetry_group_IT_number 5
_symmetry_cell_setting 'monoclinic'
loop_
_space_group_symop_operation_xyz
x,y,z
-x,y,-z
1/2+x,1/2+y,z
1/2-x,1/2+y,-z
loop_
_atom_site_type_symbol
_atom_site_label
_atom_site_fract_x
_atom_site_fract_y
_atom_site_fract_z
Si Si1 0.919773 0.659520 0.267278
Si Si2 0.945669 0.302841 0.154209
Si Si3 0.500000 0.362686 0.000000
Si Si4 0.177908 0.068270 0.948285
Si Si5 0.500000 0.335741 0.500000
Si Si6 0.764130 0.258860 0.799825
Si Si7 0.054611 0.155064 0.358155
O O1 0.932987 0.462941 0.253506
O O2 0.942413 0.718482 0.416337
O O3 0.817230 0.700873 0.271005
O O4 0.983401 0.748186 0.138131
O O5 0.849449 0.222868 0.143527
O O6 0.001143 0.168081 0.227583
O O7 0.000000 0.349765 0.000000
O O8 0.586302 0.473338 0.011141
O O9 0.249166 0.948783 0.853047
O O10 0.226239 0.135677 0.071947
O O11 0.565300 0.457718 0.390950
O O12 0.851640 0.249795 0.679767
O O13 0.000000 0.242347 0.500000
#
# Coordination Sequence:
#
# PCOD8049545 Si02
#       7
#     4   4   2   4   2   4   4
#     4  11  24  40  68 101 134 179 231 277 338 405
#     4  12  22  43  70 100 137 184 227 281 344 410
#     4  10  20  40  68 100 132 180 220 280 342 412
#     4  11  21  36  70 101 139 170 224 296 343 388
#     4  10  24  48  64  94 138 190 222 270 348 420
#     4  11  22  41  66 106 135 174 235 287 337 397
#     4  10  24  45  70  92 144 185 225 270 349 414
#
# _framework density 20.768181999999999
#
# number of rings (size 3 to 8) (size 9 to 14) (size 15 to 20)
#    0.500    0.667    3.333    4.000    1.167    0.000 
#    3.000    1.667    0.000    0.000    0.000    0.000 
#    0.000    0.000    0.000    0.000    0.000    0.000 
#
# Total GULP energy -148800.779776 kJ/mol
# GULP energy per Si atom -12400.064981 kJ/mol
# Density = 2.072091 g / cm^3
# Si number density = 20.768182 Si / 1000 Ang^3
#
#
#
# Elastic Constant Matrix: (Units=GPa)
#
#
# Indices 1 2 3 4 5 6 
#
# 1 126.3056 52.2764 73.3254 0.0000 7.4333 0.0000
# 2 52.2764 139.0029 60.4117 0.0000 4.2543 0.0000
# 3 73.3254 60.4117 127.6415 0.0000 17.9505 0.0000
# 4 0.0000 0.0000 0.0000 40.2337 0.0000 2.2812
# 5 7.4333 4.2543 17.9505 0.0000 42.5727 0.0000
# 6 0.0000 0.0000 0.0000 2.2812 0.0000 26.6828
#
#
#
# Elastic Compliance Matrix: (Units=1/GPa)
#
#
# Indices 1 2 3 4 5 6 
#
# 1 0.012306 -0.001932 -0.006250 0.000000 0.000680 0.000000
# 2 -0.001932 0.009398 -0.003458 0.000000 0.000856 0.000000
# 3 -0.006250 -0.003458 0.013670 0.000000 -0.004327 0.000000
# 4 0.000000 0.000000 0.000000 0.024976 0.000000 -0.002135
# 5 0.000680 0.000856 -0.004327 0.000000 0.025109 0.000000
# 6 0.000000 0.000000 0.000000 -0.002135 0.000000 0.037660
#
#
# Mechanical properties :
#
#
# Convention : Reuss Voigt Hill
#
# Bulk Modulus (GPa) = 82.69949 84.99746 83.84848
# Shear Modulus (GPa) = 33.23800 35.69361 34.46581
#
# Velocity S-wave (km/s) = 4.00488 4.15018 4.07818
# Velocity P-wave (km/s) = 7.82893 7.99881 7.91432
#
# Compressibility (1/GPa) = 0.01209197
#
# Stress axis : x y z
#
# Youngs Moduli (GPa) = 81.26441 106.41082 73.15199
#
# Poissons Ratio (x) = 0.20562 0.45721
# Poissons Ratio (y) = 0.15703 0.25297
# Poissons Ratio (z) = 0.50791 0.36799
#
# Static dielectric constant tensor:
#      x y z
#    x 3.745850 0.000000 0.054460 
#    y 0.000000 3.867370 0.000000 
#    z 0.054460 0.000000 3.673890 
# 
# 
# High freq. dielectric constant tensor:
#      x y z
#    x 1.802750 0.000000 0.014630 
#    y 0.000000 1.819330 0.000000 
#    z 0.014630 0.000000 1.809420 
# 
# From -- ./inp_files/22887.got.cif
#   From: 2010.03.12/outbox.cif.g09.slc.cpg/sg5_12_cif.got.tgz:22887.got - 2010.03.31 09:47:26.
