data_PCOD8049664
_publ_section_title
;
Structure prediction by ZEFSAII (Michael W. Deem and Ramdas Pophale) SiO2 
 PCOD8049664
Probable space group: C 2
;
_chemical_formula_sum "Si O2"
_cell_formula_units_Z 22
_cell_length_a 7.943613
_cell_length_b 24.248136
_cell_length_c 5.338579
_cell_angle_alpha 90.000000
_cell_angle_beta 63.769097
_cell_angle_gamma 90.000000
_cell_volume 922.410610
_symmetry_space_group_name_H-M "C 2"
_symmetry_group_IT_number 5
_symmetry_cell_setting 'monoclinic'
loop_
_space_group_symop_operation_xyz
x,y,z
-x,y,-z
1/2+x,1/2+y,z
1/2-x,1/2+y,-z
loop_
_atom_site_type_symbol
_atom_site_label
_atom_site_fract_x
_atom_site_fract_y
_atom_site_fract_z
Si Si1 0.500000 0.003510 0.500000
Si Si2 0.804318 0.576029 0.269570
Si Si3 0.624274 0.192777 0.673207
Si Si4 0.217275 0.309548 0.357085
Si Si5 0.775549 0.366424 0.155022
Si Si6 0.820017 0.979123 0.951375
O O1 0.334286 0.041275 0.499773
O O2 0.618291 0.968267 0.223536
O O3 0.742135 0.637830 0.389600
O O4 0.663083 0.539669 0.191121
O O5 0.000000 0.581567 0.000000
O O6 0.500000 0.190167 0.500000
O O7 0.758573 0.244986 0.600254
O O8 0.500000 0.196568 0.000000
O O9 0.308253 0.340391 0.535342
O O10 0.000000 0.323163 0.500000
O O11 0.303207 0.331741 0.036065
O O12 0.690496 0.428189 0.231935
O O13 0.000000 0.364754 0.000000
O O14 0.000000 0.971880 0.000000
#
# Coordination Sequence:
#
# PCOD8049664 Si02
#       6
#     2   4   4   4   4   4
#     4  10  20  42  68  86 136 178 208 274 346 398
#     4   9  20  40  63  93 128 176 217 267 338 405
#     4  11  22  41  68  96 130 174 223 275 332 399
#     4  10  23  42  65  94 129 175 219 272 335 393
#     4  10  22  42  67  90 132 181 218 271 340 401
#     4  11  25  41  65 103 132 173 230 278 336 409
#
# _framework density 23.850549000000001
#
# number of rings (size 3 to 8) (size 9 to 14) (size 15 to 20)
#    0.000    1.818    0.909    2.727    6.364    2.909 
#    3.273    0.909    0.000    0.000    0.000    0.000 
#    0.000    0.000    0.000    0.000    0.000    0.000 
#
# Total GULP energy -136293.018261 kJ/mol
# GULP energy per Si atom -12390.274387 kJ/mol
# Density = 2.379626 g / cm^3
# Si number density = 23.850549 Si / 1000 Ang^3
#
#
#
# Elastic Constant Matrix: (Units=GPa)
#
#
# Indices 1 2 3 4 5 6 
#
# 1 65.9365 40.9027 29.2053 0.0000 29.5789 0.0000
# 2 40.9027 186.2268 40.3798 0.0000 27.5715 0.0000
# 3 29.2053 40.3798 120.9058 0.0000 41.7777 0.0000
# 4 0.0000 0.0000 0.0000 25.0108 0.0000 -0.5507
# 5 29.5789 27.5715 41.7777 0.0000 30.9863 0.0000
# 6 0.0000 0.0000 0.0000 -0.5507 0.0000 23.6642
#
#
#
# Elastic Compliance Matrix: (Units=1/GPa)
#
#
# Indices 1 2 3 4 5 6 
#
# 1 0.028967 -0.002710 0.004923 0.000000 -0.031876 0.000000
# 2 -0.002710 0.006444 -0.000768 0.000000 -0.002112 0.000000
# 3 0.004923 -0.000768 0.016337 0.000000 -0.026042 0.000000
# 4 0.000000 0.000000 0.000000 0.040003 0.000000 0.000931
# 5 -0.031876 -0.002112 -0.026042 0.000000 0.099691 0.000000
# 6 0.000000 0.000000 0.000000 0.000931 0.000000 0.042280
#
#
# Mechanical properties :
#
#
# Convention : Reuss Voigt Hill
#
# Bulk Modulus (GPa) = 18.30267 66.00497 42.15382
# Shear Modulus (GPa) = 20.07669 33.43768 26.75719
#
# Velocity S-wave (km/s) = 2.90448 3.74835 3.35306
# Velocity P-wave (km/s) = 4.35184 6.81674 5.71868
#
# Compressibility (1/GPa) = 0.05463683
#
# Stress axis : x y z
#
# Youngs Moduli (GPa) = 34.52256 155.17846 61.21120
#
# Poissons Ratio (x) = 0.42056 -0.30132
# Poissons Ratio (y) = 0.09356 0.04701
# Poissons Ratio (z) = -0.16994 0.11917
#
# Static dielectric constant tensor:
#      x y z
#    x 4.025090 0.000000 0.521470 
#    y 0.000000 4.871410 0.000000 
#    z 0.521470 0.000000 4.582670 
# 
# 
# High freq. dielectric constant tensor:
#      x y z
#    x 1.929860 0.000000 0.023920 
#    y 0.000000 1.957840 0.000000 
#    z 0.023920 0.000000 1.947590 
# 
# From -- ./inp_files/3252.got.cif
#   From: 2010.03.12/outbox.cif.g09.slc.cpg/sg5_2_cif.got.tgz:3252.got - 2010.03.31 09:47:26.
