data_PCOD8049666
_publ_section_title
;
Structure prediction by ZEFSAII (Michael W. Deem and Ramdas Pophale) SiO2 
 PCOD8049666
Probable space group: C 2
;
_chemical_formula_sum "Si O2"
_cell_formula_units_Z 22
_cell_length_a 10.755256
_cell_length_b 8.970596
_cell_length_c 13.706073
_cell_angle_alpha 90.000000
_cell_angle_beta 131.183182
_cell_angle_gamma 90.000000
_cell_volume 995.231352
_symmetry_space_group_name_H-M "C 2"
_symmetry_group_IT_number 5
_symmetry_cell_setting 'monoclinic'
loop_
_space_group_symop_operation_xyz
x,y,z
-x,y,-z
1/2+x,1/2+y,z
1/2-x,1/2+y,-z
loop_
_atom_site_type_symbol
_atom_site_label
_atom_site_fract_x
_atom_site_fract_y
_atom_site_fract_z
Si Si1 0.654726 0.829730 0.680235
Si Si2 0.500000 0.390244 0.500000
Si Si3 0.156218 0.773506 0.028655
Si Si4 0.064104 0.097129 0.927173
Si Si5 0.177249 0.161163 0.511283
Si Si6 0.767671 0.648225 0.348952
O O1 0.726096 0.826497 0.824655
O O2 0.756110 0.725080 0.653780
O O3 0.468368 0.775819 0.588673
O O4 0.649129 0.000975 0.647843
O O5 0.607925 0.493810 0.484633
O O6 0.373946 0.290932 0.367893
O O7 0.258049 0.669515 0.006825
O O8 0.000000 0.689382 0.000000
O O9 0.085332 0.918153 0.934628
O O10 0.926324 0.151660 0.778769
O O11 0.000000 0.149959 0.000000
O O12 0.298330 0.158370 0.482160
#
# Coordination Sequence:
#
# PCOD8049666 Si02
#       6
#     4   2   4   4   4   4
#     4  10  20  42  68  90 135 175 221 273 342 397
#     4  10  24  38  62 102 128 162 224 262 340 396
#     4  11  23  48  67  99 135 185 229 285 331 403
#     4  11  25  45  69  98 138 179 234 280 337 397
#     4  10  23  42  64  97 132 173 218 282 336 407
#     4  12  21  43  68  93 136 174 219 281 333 405
#
# _framework density 22.105414
#
# number of rings (size 3 to 8) (size 9 to 14) (size 15 to 20)
#    0.000    1.455    5.455    2.182    0.000    2.182 
#    9.818    0.000    0.000    0.000    0.000    0.000 
#    0.000    0.000    0.000    0.000    0.000    0.000 
#
# Total GULP energy -136311.616488 kJ/mol
# GULP energy per Si atom -12391.965135 kJ/mol
# Density = 2.205510 g / cm^3
# Si number density = 22.105414 Si / 1000 Ang^3
#
#
#
# Elastic Constant Matrix: (Units=GPa)
#
#
# Indices 1 2 3 4 5 6 
#
# 1 111.7023 44.0489 11.5713 0.0000 1.6638 0.0000
# 2 44.0489 115.2961 12.6009 0.0000 8.2570 0.0000
# 3 11.5713 12.6009 50.0087 0.0000 4.3268 0.0000
# 4 0.0000 0.0000 0.0000 19.0287 0.0000 4.6725
# 5 1.6638 8.2570 4.3268 0.0000 39.8425 0.0000
# 6 0.0000 0.0000 0.0000 4.6725 0.0000 23.4173
#
#
#
# Elastic Compliance Matrix: (Units=1/GPa)
#
#
# Indices 1 2 3 4 5 6 
#
# 1 0.010657 -0.003944 -0.001519 0.000000 0.000537 0.000000
# 2 -0.003944 0.010483 -0.001570 0.000000 -0.001837 0.000000
# 3 -0.001519 -0.001570 0.020906 0.000000 -0.001882 0.000000
# 4 0.000000 0.000000 0.000000 0.055260 0.000000 -0.011026
# 5 0.000537 -0.001837 -0.001882 0.000000 0.025662 0.000000
# 6 0.000000 0.000000 0.000000 -0.011026 0.000000 0.044904
#
#
# Mechanical properties :
#
#
# Convention : Reuss Voigt Hill
#
# Bulk Modulus (GPa) = 35.73792 45.93881 40.83836
# Shear Modulus (GPa) = 26.14195 30.37676 28.25935
#
# Velocity S-wave (km/s) = 3.44263 3.71101 3.57934
# Velocity P-wave (km/s) = 5.65725 6.26011 5.96630
#
# Compressibility (1/GPa) = 0.02798149
#
# Stress axis : x y z
#
# Youngs Moduli (GPa) = 93.83542 95.38989 47.83251
#
# Poissons Ratio (x) = 0.37622 0.07264
# Poissons Ratio (y) = 0.37009 0.07510
# Poissons Ratio (z) = 0.14249 0.14976
#
# Static dielectric constant tensor:
#      x y z
#    x 4.049820 0.000000 -0.082110 
#    y 0.000000 4.005780 0.000000 
#    z -0.082110 0.000000 4.200060 
# 
# 
# High freq. dielectric constant tensor:
#      x y z
#    x 1.875190 0.000000 -0.000180 
#    y 0.000000 1.868350 0.000000 
#    z -0.000180 0.000000 1.857790 
# 
# From -- ./inp_files/52175.got.cif
#   From: 2010.03.12/outbox.cif.g09.slc.cpg/sg5_27_cif.got.tgz:52175.got - 2010.03.31 09:47:26.
