data_PCOD8049879
_publ_section_title
;
Structure prediction by ZEFSAII (Michael W. Deem and Ramdas Pophale) SiO2 
 PCOD8049879
Probable space group: C 2
;
_chemical_formula_sum "Si O2"
_cell_formula_units_Z 24
_cell_length_a 9.154336
_cell_length_b 8.763419
_cell_length_c 14.303768
_cell_angle_alpha 90.000000
_cell_angle_beta 104.500514
_cell_angle_gamma 90.000000
_cell_volume 1110.942207
_symmetry_space_group_name_H-M "C 2"
_symmetry_group_IT_number 5
_symmetry_cell_setting 'monoclinic'
loop_
_space_group_symop_operation_xyz
x,y,z
-x,y,-z
1/2+x,1/2+y,z
1/2-x,1/2+y,-z
loop_
_atom_site_type_symbol
_atom_site_label
_atom_site_fract_x
_atom_site_fract_y
_atom_site_fract_z
Si Si1 0.893294 0.107340 0.609831
Si Si2 0.140916 0.765530 0.463058
Si Si3 0.731267 0.673153 0.701392
Si Si4 0.801262 0.986777 0.128584
Si Si5 0.324154 0.675324 0.961749
Si Si6 0.347364 0.478327 0.796493
O O1 0.792710 0.236700 0.545447
O O2 0.838685 0.093710 0.707748
O O3 0.064945 0.164428 0.630234
O O4 0.874599 0.945772 0.554850
O O5 0.148514 0.675370 0.364753
O O6 0.000000 0.701864 0.500000
O O7 0.755958 0.531153 0.776268
O O8 0.749861 0.827532 0.763353
O O9 0.976896 0.941224 0.157661
O O10 0.714973 0.843988 0.074210
O O11 0.757902 0.126386 0.051890
O O12 0.269431 0.558650 0.872566
O O13 0.500000 0.662410 0.000000
#
# Coordination Sequence:
#
# PCOD8049879 Si02
#       6
#     4   4   4   4   4   4
#     4  10  23  41  61  87 121 158 201 250 300 357
#     4  11  23  40  61  88 121 159 202 252 302 354
#     4  10  21  41  62  86 123 160 200 250 300 354
#     4  10  21  38  60  89 122 157 199 247 295 353
#     4  10  21  38  60  88 121 156 197 242 294 356
#     4   9  21  38  58  86 119 156 199 247 296 354
#
# _framework density 21.603283999999999
#
# number of rings (size 3 to 8) (size 9 to 14) (size 15 to 20)
#    0.000    2.000    0.000    2.500    0.000    9.333 
#    0.000    8.333    0.000    0.000    0.000    0.000 
#    0.000    0.000    0.000    0.000    0.000    0.000 
#
# Total GULP energy -148784.477262 kJ/mol
# GULP energy per Si atom -12398.706439 kJ/mol
# Density = 2.155411 g / cm^3
# Si number density = 21.603284 Si / 1000 Ang^3
#
#
#
# Elastic Constant Matrix: (Units=GPa)
#
#
# Indices 1 2 3 4 5 6 
#
# 1 67.9724 48.4132 59.3099 0.0000 -17.0904 0.0000
# 2 48.4132 102.4083 55.8639 0.0000 8.1536 0.0000
# 3 59.3099 55.8639 138.4326 0.0000 -5.1932 0.0000
# 4 0.0000 0.0000 0.0000 55.2942 0.0000 11.9546
# 5 -17.0904 8.1536 -5.1932 0.0000 24.6318 0.0000
# 6 0.0000 0.0000 0.0000 11.9546 0.0000 29.5414
#
#
#
# Elastic Compliance Matrix: (Units=1/GPa)
#
#
# Indices 1 2 3 4 5 6 
#
# 1 0.047539 -0.019322 -0.011181 0.000000 0.037023 0.000000
# 2 -0.019322 0.021087 -0.001004 0.000000 -0.020598 0.000000
# 3 -0.011181 -0.001004 0.012238 0.000000 -0.004846 0.000000
# 4 0.000000 0.000000 0.000000 0.019819 0.000000 -0.008020
# 5 0.037023 -0.020598 -0.004846 0.000000 0.072082 0.000000
# 6 0.000000 0.000000 0.000000 -0.008020 0.000000 0.037096
#
#
# Mechanical properties :
#
#
# Convention : Reuss Voigt Hill
#
# Bulk Modulus (GPa) = 56.02619 70.66524 63.34572
# Shear Modulus (GPa) = 17.93231 31.57525 24.75378
#
# Velocity S-wave (km/s) = 2.88422 3.82723 3.38869
# Velocity P-wave (km/s) = 6.08951 7.23268 6.68557
#
# Compressibility (1/GPa) = 0.01784880
#
# Stress axis : x y z
#
# Youngs Moduli (GPa) = 21.03527 47.42251 81.71561
#
# Poissons Ratio (x) = 0.91631 0.91369
# Poissons Ratio (y) = 0.40645 0.08203
# Poissons Ratio (z) = 0.23520 0.04761
#
# Static dielectric constant tensor:
#      x y z
#    x 3.717980 0.000000 -0.102470 
#    y 0.000000 3.664760 0.000000 
#    z -0.102470 0.000000 4.529670 
# 
# 
# High freq. dielectric constant tensor:
#      x y z
#    x 1.827490 0.000000 -0.003140 
#    y 0.000000 1.836900 0.000000 
#    z -0.003140 0.000000 1.879940 
# 
# From -- ./inp_files/49929.got.cif
#   From: 2010.03.12/outbox.cif.g09.slc.cpg/sg5_25_cif.got.tgz:49929.got - 2010.03.31 09:47:26.
