data_PCOD8049866
_publ_section_title
;
Structure prediction by ZEFSAII (Michael W. Deem and Ramdas Pophale) SiO2 
 PCOD8049866
Probable space group: C 2
;
_chemical_formula_sum "Si O2"
_cell_formula_units_Z 30
_cell_length_a 10.477177
_cell_length_b 8.808073
_cell_length_c 28.067004
_cell_angle_alpha 90.000000
_cell_angle_beta 33.924908
_cell_angle_gamma 90.000000
_cell_volume 1445.565732
_symmetry_space_group_name_H-M "C 2"
_symmetry_group_IT_number 5
_symmetry_cell_setting 'monoclinic'
loop_
_space_group_symop_operation_xyz
x,y,z
-x,y,-z
1/2+x,1/2+y,z
1/2-x,1/2+y,-z
loop_
_atom_site_type_symbol
_atom_site_label
_atom_site_fract_x
_atom_site_fract_y
_atom_site_fract_z
Si Si1 0.270415 0.407310 0.528002
Si Si2 0.500000 0.135354 0.500000
Si Si3 0.775241 0.060065 0.623332
Si Si4 0.603164 0.402938 0.179971
Si Si5 0.704867 0.902457 0.374881
Si Si6 0.035886 0.904021 0.092451
Si Si7 0.591822 0.048803 0.185376
Si Si8 0.541379 0.045757 0.092463
O O1 0.385464 0.240688 0.495014
O O2 0.188844 0.459406 0.605908
O O3 0.457540 0.525790 0.449582
O O4 0.056132 0.400936 0.560833
O O5 0.706912 0.031998 0.414624
O O6 0.736788 0.237151 0.622141
O O7 0.635150 0.016728 0.713830
O O8 0.377586 0.446393 0.279450
O O9 0.557965 0.458656 0.140225
O O10 0.816657 0.490282 0.135414
O O11 0.659712 0.225142 0.164546
O O12 0.054899 0.724796 0.083506
O O13 0.796473 0.954161 0.144581
O O14 0.236473 0.976022 0.999976
O O15 0.536897 0.993697 0.148946
#
# Coordination Sequence:
#
# PCOD8049866 Si02
#       8
#     4   2   4   4   4   4   4   4
#     4  10  21  38  56  82 118 153 191 240 287 337
#     4  10  22  34  56  86 112 148 198 238 282 342
#     4   9  20  38  58  82 115 152 193 238 289 340
#     4  10  24  40  59  88 121 153 195 244 291 346
#     4  11  21  37  59  82 113 155 193 235 289 342
#     4  11  23  42  64  87 120 155 192 240 294 352
#     4  10  22  41  62  86 118 155 195 244 292 345
#     4  11  24  40  62  91 119 152 194 241 294 350
#
# _framework density 20.753119000000002
#
# number of rings (size 3 to 8) (size 9 to 14) (size 15 to 20)
#    0.000    1.867    0.000    4.000    0.000   11.733 
#    0.000    4.000    0.000    0.000    0.000    0.000 
#    0.000    0.000    0.000    0.000    0.000    0.000 
#
# Total GULP energy -186024.256960 kJ/mol
# GULP energy per Si atom -12401.617131 kJ/mol
# Density = 2.070588 g / cm^3
# Si number density = 20.753119 Si / 1000 Ang^3
#
#
#
# Elastic Constant Matrix: (Units=GPa)
#
#
# Indices 1 2 3 4 5 6 
#
# 1 105.5510 34.1357 43.0428 0.0090 0.9355 0.0021
# 2 34.1357 87.7972 54.7615 0.0175 8.6721 0.0042
# 3 43.0428 54.7615 154.0101 0.0048 16.1584 0.0027
# 4 0.0090 0.0175 0.0048 51.0831 -0.0083 1.2260
# 5 0.9355 8.6721 16.1584 -0.0083 39.3890 -0.0021
# 6 0.0021 0.0042 0.0027 1.2260 -0.0021 31.5047
#
#
#
# Elastic Compliance Matrix: (Units=1/GPa)
#
#
# Indices 1 2 3 4 5 6 
#
# 1 0.011387 -0.003195 -0.002186 0.000000 0.001330 0.000000
# 2 -0.003195 0.015581 -0.004488 -0.000005 -0.001513 -0.000001
# 3 -0.002186 -0.004488 0.008977 0.000001 -0.002643 0.000000
# 4 0.000000 -0.000005 0.000001 0.019594 0.000005 -0.000763
# 5 0.001330 -0.001513 -0.002643 0.000005 0.026773 0.000002
# 6 0.000000 -0.000001 0.000000 -0.000763 0.000002 0.031771
#
#
# Mechanical properties :
#
#
# Convention : Reuss Voigt Hill
#
# Bulk Modulus (GPa) = 61.70406 67.91534 64.80970
# Shear Modulus (GPa) = 35.91300 38.75659 37.33480
#
# Velocity S-wave (km/s) = 4.16443 4.32615 4.24606
# Velocity P-wave (km/s) = 7.27463 7.59938 7.43878
#
# Compressibility (1/GPa) = 0.01620639
#
# Stress axis : x y z
#
# Youngs Moduli (GPa) = 87.81917 64.17964 111.39343
#
# Poissons Ratio (x) = 0.20507 0.24349
# Poissons Ratio (y) = 0.28061 0.49998
# Poissons Ratio (z) = 0.19196 0.28807
#
# Static dielectric constant tensor:
#      x y z
#    x 3.506070 -0.000030 0.739130 
#    y -0.000030 3.907470 0.000120 
#    z 0.739130 0.000120 1.817670 
# 
# 
# High freq. dielectric constant tensor:
#      x y z
#    x 1.810410 0.000000 0.004950 
#    y 0.000000 1.819900 0.000000 
#    z 0.004950 0.000000 1.823790 
# 
# From -- ./inp_files/71696.got.cif
#   From: 2010.03.12/outbox.cif.g09.slc.cpg/sg5_36_cif.got.tgz:71696.got - 2010.03.31 09:47:26.
