data_PCOD8049333
_publ_section_title
;
Structure prediction by ZEFSAII (Michael W. Deem and Ramdas Pophale) SiO2 
 PCOD8049333
Probable space group: C 2
;
_chemical_formula_sum "Si O2"
_cell_formula_units_Z 16
_cell_length_a 12.991507
_cell_length_b 7.571273
_cell_length_c 19.649885
_cell_angle_alpha 90.000000
_cell_angle_beta 27.954184
_cell_angle_gamma 90.000000
_cell_volume 906.032912
_symmetry_space_group_name_H-M "C 2"
_symmetry_group_IT_number 5
_symmetry_cell_setting 'monoclinic'
loop_
_space_group_symop_operation_xyz
x,y,z
-x,y,-z
1/2+x,1/2+y,z
1/2-x,1/2+y,-z
loop_
_atom_site_type_symbol
_atom_site_label
_atom_site_fract_x
_atom_site_fract_y
_atom_site_fract_z
Si Si1 0.756552 0.328320 0.838393
Si Si2 0.852609 0.009734 0.871588
Si Si3 0.722470 0.857516 0.331019
Si Si4 0.411849 0.126342 0.844329
O O1 0.826461 0.132625 0.820973
O O2 0.826910 0.352186 0.719984
O O3 0.893245 0.470503 0.801554
O O4 0.500000 0.362111 0.000000
O O5 0.793139 0.806444 0.886527
O O6 0.687798 0.077082 0.024971
O O7 0.102923 0.014552 0.754475
O O8 0.500000 0.897477 0.500000
O O9 0.830328 0.671282 0.292653
#
# Coordination Sequence:
#
# PCOD8049333 Si02
#       4
#     4   4   4   4
#     4  12  20  38  66  86 117 162 191 243 298 339
#     4  10  20  38  62  90 116 150 207 236 280 367
#     4  10  24  42  58  89 127 148 194 257 289 337
#     4  10  20  38  62  90 116 150 207 236 280 367
#
# _framework density 17.659402
#
# number of rings (size 3 to 8) (size 9 to 14) (size 15 to 20)
#    1.500    0.000    7.500    0.000    0.000    3.000 
#    4.500    1.250    0.000    0.000    0.000    0.000 
#    0.000    0.000    0.000    0.000    0.000    0.000 
#
# Total GULP energy -99139.592023 kJ/mol
# GULP energy per Si atom -12392.449003 kJ/mol
# Density = 1.761921 g / cm^3
# Si number density = 17.659402 Si / 1000 Ang^3
#
#
#
# Elastic Constant Matrix: (Units=GPa)
#
#
# Indices 1 2 3 4 5 6 
#
# 1 68.6765 -6.7953 19.5538 -0.0002 15.8194 0.0012
# 2 -6.7953 55.0362 -4.3576 -0.0011 3.7134 0.0011
# 3 19.5538 -4.3576 64.0569 -0.0031 11.6568 0.0053
# 4 -0.0002 -0.0011 -0.0031 19.2302 0.0008 -6.6181
# 5 15.8194 3.7134 11.6568 0.0008 29.4263 -0.0010
# 6 0.0012 0.0011 0.0053 -6.6181 -0.0010 42.0839
#
#
#
# Elastic Compliance Matrix: (Units=1/GPa)
#
#
# Indices 1 2 3 4 5 6 
#
# 1 0.017805 0.002469 -0.003738 0.000000 -0.008403 0.000000
# 2 0.002469 0.018862 0.001298 0.000001 -0.004222 -0.000001
# 3 -0.003738 0.001298 0.017787 0.000002 -0.005200 -0.000002
# 4 0.000000 0.000001 0.000002 0.054977 -0.000002 0.008646
# 5 -0.008403 -0.004222 -0.005200 -0.000002 0.041093 0.000002
# 6 0.000000 -0.000001 -0.000002 0.008646 0.000002 0.025122
#
#
# Mechanical properties :
#
#
# Convention : Reuss Voigt Hill
#
# Bulk Modulus (GPa) = 18.34449 22.73015 20.53732
# Shear Modulus (GPa) = 25.80523 30.10599 27.95561
#
# Velocity S-wave (km/s) = 3.82681 4.13342 3.98307
# Velocity P-wave (km/s) = 5.47142 5.97324 5.72783
#
# Compressibility (1/GPa) = 0.05451228
#
# Stress axis : x y z
#
# Youngs Moduli (GPa) = 56.16327 53.01569 56.22152
#
# Poissons Ratio (x) = -0.13092 0.21016
# Poissons Ratio (y) = -0.13869 -0.07296
# Poissons Ratio (z) = 0.20994 -0.06880
#
# Static dielectric constant tensor:
#      x y z
#    x 3.427890 0.000000 0.059490 
#    y 0.000000 3.368680 0.000000 
#    z 0.059490 0.000000 3.023850 
# 
# 
# High freq. dielectric constant tensor:
#      x y z
#    x 1.683650 0.000000 0.003260 
#    y 0.000000 1.679630 0.000000 
#    z 0.003260 0.000000 1.663280 
# 
# From -- ./inp_files/17889.got.cif
#   From: 2010.03.12/outbox.cif.g09.slc.cpg/sg5_9_cif.got.tgz:17889.got - 2010.03.31 09:47:26.
