data_PCOD8049219
_publ_section_title
;
Structure prediction by ZEFSAII (Michael W. Deem and Ramdas Pophale) SiO2 
 PCOD8049219
Probable space group: C 2
;
_chemical_formula_sum "Si O2"
_cell_formula_units_Z 32
_cell_length_a 11.173808
_cell_length_b 14.943232
_cell_length_c 14.591178
_cell_angle_alpha 90.000000
_cell_angle_beta 41.108901
_cell_angle_gamma 90.000000
_cell_volume 1601.868177
_symmetry_space_group_name_H-M "C 2"
_symmetry_group_IT_number 5
_symmetry_cell_setting 'monoclinic'
loop_
_space_group_symop_operation_xyz
x,y,z
-x,y,-z
1/2+x,1/2+y,z
1/2-x,1/2+y,-z
loop_
_atom_site_type_symbol
_atom_site_label
_atom_site_fract_x
_atom_site_fract_y
_atom_site_fract_z
Si Si1 0.790203 0.590500 0.608200
Si Si2 0.262435 0.239988 0.297786
Si Si3 0.100004 0.211603 0.581905
Si Si4 0.657956 0.179321 0.078841
Si Si5 0.158602 0.938705 0.788557
Si Si6 0.961769 0.308194 0.832244
Si Si7 0.336577 0.702405 0.152646
Si Si8 0.240751 0.980400 0.942633
O O1 0.705672 0.624568 0.561184
O O2 0.750674 0.485215 0.646087
O O3 0.684673 0.636778 0.751160
O O4 0.000000 0.615015 0.500000
O O5 0.224712 0.249829 0.428091
O O6 0.449989 0.189507 0.167757
O O7 0.270515 0.337781 0.247736
O O8 0.099226 0.185154 0.342964
O O9 0.075289 0.287119 0.674252
O O10 0.668644 0.213675 0.179397
O O11 0.709299 0.075083 0.041326
O O12 0.790975 0.238684 0.938334
O O13 0.221974 0.990335 0.843836
O O14 0.940591 0.940543 0.906150
O O15 0.901781 0.410564 0.869550
O O16 0.095470 0.296576 0.843203
O O17 0.500000 0.657365 0.000000
#
# Coordination Sequence:
#
# PCOD8049219 Si02
#       8
#     4   4   4   4   4   4   4   4
#     4  11  22  37  63  93 116 157 210 257 302 371
#     4  11  23  41  60  88 128 166 199 251 316 371
#     4  10  23  39  58  88 127 161 198 252 312 367
#     4  11  21  38  65  90 124 165 206 251 314 366
#     4  11  22  37  62  96 122 153 208 267 300 362
#     4  10  20  37  61  89 125 160 202 257 307 360
#     4   9  18  35  59  86 121 155 196 252 302 352
#     4  11  21  37  63  97 121 157 211 262 304 363
#
# _framework density 19.976675
#
# number of rings (size 3 to 8) (size 9 to 14) (size 15 to 20)
#    0.000    1.500    3.750    3.000    3.500    0.500 
#    0.000    1.250    5.500    0.000    0.000    0.000 
#    0.000    0.000    0.000    0.000    0.000    0.000 
#
# Total GULP energy -198345.956964 kJ/mol
# GULP energy per Si atom -12396.622310 kJ/mol
# Density = 1.993121 g / cm^3
# Si number density = 19.976675 Si / 1000 Ang^3
#
#
#
# Elastic Constant Matrix: (Units=GPa)
#
#
# Indices 1 2 3 4 5 6 
#
# 1 85.5652 28.9520 22.2511 -0.0002 -14.8769 -0.0004
# 2 28.9520 90.8478 17.0390 -0.0008 -8.3600 0.0003
# 3 22.2511 17.0390 71.5414 -0.0011 2.1779 0.0006
# 4 -0.0002 -0.0008 -0.0011 18.7807 0.0005 2.1796
# 5 -14.8769 -8.3600 2.1779 0.0005 30.2558 -0.0001
# 6 -0.0004 0.0003 0.0006 2.1796 -0.0001 31.4232
#
#
#
# Elastic Compliance Matrix: (Units=1/GPa)
#
#
# Indices 1 2 3 4 5 6 
#
# 1 0.015081 -0.003418 -0.004083 -0.000001 0.006765 0.000000
# 2 -0.003418 0.012654 -0.002010 0.000000 0.001961 0.000000
# 3 -0.004083 -0.002010 0.015839 0.000001 -0.003703 0.000000
# 4 -0.000001 0.000000 0.000001 0.053678 -0.000001 -0.003723
# 5 0.006765 0.001961 -0.003703 -0.000001 0.037186 0.000000
# 6 0.000000 0.000000 0.000000 -0.003723 0.000000 0.032082
#
#
# Mechanical properties :
#
#
# Convention : Reuss Voigt Hill
#
# Bulk Modulus (GPa) = 40.72853 42.71540 41.72196
# Shear Modulus (GPa) = 25.80947 28.07277 26.94112
#
# Velocity S-wave (km/s) = 3.59831 3.75277 3.67635
# Velocity P-wave (km/s) = 6.13972 6.34088 6.24111
#
# Compressibility (1/GPa) = 0.02455282
#
# Stress axis : x y z
#
# Youngs Moduli (GPa) = 66.30697 79.02524 63.13432
#
# Poissons Ratio (x) = 0.27011 0.25775
# Poissons Ratio (y) = 0.22664 0.12693
# Poissons Ratio (z) = 0.27070 0.15888
#
# Static dielectric constant tensor:
#      x y z
#    x 3.829150 0.000000 0.028770 
#    y 0.000000 3.444160 0.000000 
#    z 0.028770 0.000000 3.702580 
# 
# 
# High freq. dielectric constant tensor:
#      x y z
#    x 1.774200 0.000000 -0.000360 
#    y 0.000000 1.756020 0.000000 
#    z -0.000360 0.000000 1.785190 
# 
# From -- ./inp_files/29861.got.cif
#   From: 2010.03.12/outbox.cif.g09.slc.cpg/sg5_15_cif.got.tgz:29861.got - 2010.03.31 09:47:26.
