data_PCOD8049510
_publ_section_title
;
Structure prediction by ZEFSAII (Michael W. Deem and Ramdas Pophale) SiO2 
 PCOD8049510
Probable space group: C 2
;
_chemical_formula_sum "Si O2"
_cell_formula_units_Z 18
_cell_length_a 9.230773
_cell_length_b 15.282034
_cell_length_c 8.127827
_cell_angle_alpha 90.000000
_cell_angle_beta 131.218162
_cell_angle_gamma 90.000000
_cell_volume 862.443236
_symmetry_space_group_name_H-M "C 2"
_symmetry_group_IT_number 5
_symmetry_cell_setting 'monoclinic'
loop_
_space_group_symop_operation_xyz
x,y,z
-x,y,-z
1/2+x,1/2+y,z
1/2-x,1/2+y,-z
loop_
_atom_site_type_symbol
_atom_site_label
_atom_site_fract_x
_atom_site_fract_y
_atom_site_fract_z
Si Si1 0.671153 0.908600 0.336805
Si Si2 0.236037 0.930771 0.966573
Si Si3 0.435991 0.551689 0.638748
Si Si4 0.000000 0.792692 0.000000
Si Si5 0.685037 0.732037 0.528665
O O1 0.762340 0.908105 0.224655
O O2 0.701993 0.810369 0.414829
O O3 0.785047 0.972614 0.544602
O O4 0.453328 0.943131 0.188276
O O5 0.139578 0.852889 0.995563
O O6 0.115753 0.022980 0.891094
O O7 0.500000 0.564245 0.500000
O O8 0.337253 0.645239 0.603928
O O9 0.126983 0.729283 0.212151
O O10 0.500000 0.749315 0.500000
#
# Coordination Sequence:
#
# PCOD8049510 Si02
#       5
#     4   4   4   2   4
#     4  10  20  40  64  86 123 165 201 251 306 365
#     4  10  21  38  64  87 120 160 205 247 309 357
#     4   9  20  37  60  89 122 158 202 245 306 361
#     4  12  22  36  66  92 118 164 206 250 302 360
#     4  11  22  37  64  93 127 157 206 254 303 360
#
# _framework density 20.870939
#
# number of rings (size 3 to 8) (size 9 to 14) (size 15 to 20)
#    0.000    1.778    4.444    0.000    0.000    5.333 
#    0.000    2.222    9.778    0.000    0.000    0.000 
#    0.000    0.000    0.000    0.000    0.000    0.000 
#
# Total GULP energy -111542.729995 kJ/mol
# GULP energy per Si atom -12393.636666 kJ/mol
# Density = 2.082344 g / cm^3
# Si number density = 20.870939 Si / 1000 Ang^3
#
#
#
# Elastic Constant Matrix: (Units=GPa)
#
#
# Indices 1 2 3 4 5 6 
#
# 1 65.2412 24.8621 14.3619 0.0000 14.8051 0.0000
# 2 24.8621 170.4824 50.7736 0.0000 13.4538 0.0000
# 3 14.3619 50.7736 105.6517 0.0000 23.4389 0.0000
# 4 0.0000 0.0000 0.0000 22.4939 0.0000 11.5261
# 5 14.8051 13.4538 23.4389 0.0000 15.0709 0.0000
# 6 0.0000 0.0000 0.0000 11.5261 0.0000 21.5579
#
#
#
# Elastic Compliance Matrix: (Units=1/GPa)
#
#
# Indices 1 2 3 4 5 6 
#
# 1 0.020839 -0.002202 0.003559 0.000000 -0.024041 0.000000
# 2 -0.002202 0.007101 -0.003339 0.000000 0.001016 0.000000
# 3 0.003559 -0.003339 0.016337 0.000000 -0.025923 0.000000
# 4 0.000000 0.000000 0.000000 0.061232 0.000000 -0.032738
# 5 -0.024041 0.001016 -0.025923 0.000000 0.129380 0.000000
# 6 0.000000 0.000000 0.000000 -0.032738 0.000000 0.063890
#
#
# Mechanical properties :
#
#
# Convention : Reuss Voigt Hill
#
# Bulk Modulus (GPa) = 24.80566 57.93006 41.36786
# Shear Modulus (GPa) = 15.81382 28.58305 22.19844
#
# Velocity S-wave (km/s) = 2.75561 3.70471 3.26483
# Velocity P-wave (km/s) = 4.69421 6.79091 5.83747
#
# Compressibility (1/GPa) = 0.04031338
#
# Stress axis : x y z
#
# Youngs Moduli (GPa) = 47.98723 140.82662 61.21100
#
# Poissons Ratio (x) = 0.31006 -0.21783
# Poissons Ratio (y) = 0.10565 0.20437
# Poissons Ratio (z) = -0.17077 0.47018
#
# Static dielectric constant tensor:
#      x y z
#    x 3.712020 0.000000 0.319680 
#    y 0.000000 4.111320 0.000000 
#    z 0.319680 0.000000 4.019720 
# 
# 
# High freq. dielectric constant tensor:
#      x y z
#    x 1.807090 0.000000 0.022350 
#    y 0.000000 1.811700 0.000000 
#    z 0.022350 0.000000 1.820770 
# 
# From -- ./inp_files/15518.got.cif
#   From: 2010.03.12/outbox.cif.g09.slc.cpg/sg5_8_cif.got.tgz:15518.got - 2010.03.31 09:47:26.
