data_PCOD8049807
_publ_section_title
;
Structure prediction by ZEFSAII (Michael W. Deem and Ramdas Pophale) SiO2 
 PCOD8049807
Probable space group: C 2
;
_chemical_formula_sum "Si O2"
_cell_formula_units_Z 28
_cell_length_a 25.597955
_cell_length_b 8.527156
_cell_length_c 9.328664
_cell_angle_alpha 90.000000
_cell_angle_beta 137.893081
_cell_angle_gamma 90.000000
_cell_volume 1365.331830
_symmetry_space_group_name_H-M "C 2"
_symmetry_group_IT_number 5
_symmetry_cell_setting 'monoclinic'
loop_
_space_group_symop_operation_xyz
x,y,z
-x,y,-z
1/2+x,1/2+y,z
1/2-x,1/2+y,-z
loop_
_atom_site_type_symbol
_atom_site_label
_atom_site_fract_x
_atom_site_fract_y
_atom_site_fract_z
Si Si1 0.395859 0.243720 0.909512
Si Si2 0.835205 0.085697 0.382614
Si Si3 0.676087 0.093904 0.710790
Si Si4 0.180026 0.436227 0.171651
Si Si5 0.228332 0.371609 0.586152
Si Si6 0.182720 0.282348 0.910492
Si Si7 0.437598 0.303442 0.670420
O O1 0.318736 0.335558 0.799742
O O2 0.409612 0.250362 0.769188
O O3 0.386736 0.061876 0.933815
O O4 0.468841 0.311919 0.146615
O O5 0.829482 0.238307 0.472253
O O6 0.854940 0.142650 0.260299
O O7 0.751995 0.999814 0.222035
O O8 0.905897 0.977477 0.576551
O O9 0.593200 0.176102 0.507878
O O10 0.712109 0.036613 0.631237
O O11 0.670258 0.946359 0.803169
O O12 0.726860 0.232440 0.885193
O O13 0.214620 0.372733 0.389088
O O14 0.144864 0.301343 0.993606
#
# Coordination Sequence:
#
# PCOD8049807 Si02
#       7
#     4   4   4   4   4   4   4
#     4  10  22  36  63  94 117 158 197 260 305 358
#     4  10  21  36  61  93 118 162 205 252 300 365
#     4  11  20  37  62  90 116 164 203 255 294 367
#     4  11  19  37  61  96 120 155 208 254 293 365
#     4  10  21  36  65  93 118 150 210 257 298 350
#     4  11  21  35  63  89 124 156 215 246 303 353
#     4  11  20  39  64  87 127 154 205 248 318 364
#
# _framework density 20.507835
#
# number of rings (size 3 to 8) (size 9 to 14) (size 15 to 20)
#    0.000    1.429    5.714    0.000    2.000    0.000 
#    0.000    0.714   22.000    0.000    0.000    0.000 
#    0.000    0.000    0.000    0.000    0.000    0.000 
#
# Total GULP energy -173498.532521 kJ/mol
# GULP energy per Si atom -12392.752323 kJ/mol
# Density = 2.046116 g / cm^3
# Si number density = 20.507835 Si / 1000 Ang^3
#
#
#
# Elastic Constant Matrix: (Units=GPa)
#
#
# Indices 1 2 3 4 5 6 
#
# 1 60.8621 36.3522 57.3336 0.0000 -6.6137 0.0000
# 2 36.3522 96.1040 69.7082 0.0000 5.2283 0.0000
# 3 57.3336 69.7082 147.1878 0.0000 -0.6664 0.0000
# 4 0.0000 0.0000 0.0000 42.1266 0.0000 -9.5819
# 5 -6.6137 5.2283 -0.6664 0.0000 37.5131 0.0000
# 6 0.0000 0.0000 0.0000 -9.5819 0.0000 28.7574
#
#
#
# Elastic Compliance Matrix: (Units=1/GPa)
#
#
# Indices 1 2 3 4 5 6 
#
# 1 0.027931 -0.004547 -0.008702 0.000000 0.005404 0.000000
# 2 -0.004547 0.016799 -0.006200 0.000000 -0.003253 0.000000
# 3 -0.008702 -0.006200 0.013118 0.000000 -0.000437 0.000000
# 4 0.000000 0.000000 0.000000 0.025684 0.000000 0.008558
# 5 0.005404 -0.003253 -0.000437 0.000000 0.028056 0.000000
# 6 0.000000 0.000000 0.000000 0.008558 0.000000 0.037625
#
#
# Mechanical properties :
#
#
# Convention : Reuss Voigt Hill
#
# Bulk Modulus (GPa) = 52.76847 70.10464 61.43655
# Shear Modulus (GPa) = 25.71645 31.06342 28.38993
#
# Velocity S-wave (km/s) = 3.54500 3.89615 3.72472
# Velocity P-wave (km/s) = 6.52248 7.38231 6.96568
#
# Compressibility (1/GPa) = 0.01895071
#
# Stress axis : x y z
#
# Youngs Moduli (GPa) = 35.80217 59.52648 76.23250
#
# Poissons Ratio (x) = 0.27069 0.66336
# Poissons Ratio (y) = 0.16281 0.47261
# Poissons Ratio (z) = 0.31155 0.36904
#
# Static dielectric constant tensor:
#      x y z
#    x 3.592070 0.000000 -0.330750 
#    y 0.000000 3.907900 0.000000 
#    z -0.330750 0.000000 3.847960 
# 
# 
# High freq. dielectric constant tensor:
#      x y z
#    x 1.768300 0.000000 -0.032110 
#    y 0.000000 1.809320 0.000000 
#    z -0.032110 0.000000 1.804950 
# 
# From -- ./inp_files/31731.got.cif
#   From: 2010.03.12/outbox.cif.g09.slc.cpg/sg5_16_cif.got.tgz:31731.got - 2010.03.31 09:47:26.
