data_PCOD8049310
_publ_section_title
;
Structure prediction by ZEFSAII (Michael W. Deem and Ramdas Pophale) SiO2 
 PCOD8049310
Probable space group: C 2
;
_chemical_formula_sum "Si O2"
_cell_formula_units_Z 30
_cell_length_a 11.410016
_cell_length_b 8.135009
_cell_length_c 29.395675
_cell_angle_alpha 90.000000
_cell_angle_beta 32.841583
_cell_angle_gamma 90.000000
_cell_volume 1479.727829
_symmetry_space_group_name_H-M "C 2"
_symmetry_group_IT_number 5
_symmetry_cell_setting 'monoclinic'
loop_
_space_group_symop_operation_xyz
x,y,z
-x,y,-z
1/2+x,1/2+y,z
1/2-x,1/2+y,-z
loop_
_atom_site_type_symbol
_atom_site_label
_atom_site_fract_x
_atom_site_fract_y
_atom_site_fract_z
Si Si1 0.370435 0.289360 0.233829
Si Si2 0.584953 0.637096 0.612904
Si Si3 0.769494 0.064854 0.094129
Si Si4 0.721894 0.964967 0.364572
Si Si5 0.500000 0.705568 0.500000
Si Si6 0.211115 0.484339 0.535125
Si Si7 0.310392 0.246055 0.028307
Si Si8 0.523557 0.461941 0.886245
O O1 0.591038 0.202475 0.148017
O O2 0.397544 0.392056 0.271882
O O3 0.334381 0.412524 0.203706
O O4 0.172173 0.161977 0.301641
O O5 0.668759 0.589433 0.635855
O O6 0.642533 0.491288 0.558658
O O7 0.707651 0.799344 0.555447
O O8 0.795613 0.030794 0.138922
O O9 0.696777 0.901836 0.090263
O O10 0.000000 0.129443 0.000000
O O11 0.601045 0.813181 0.427372
O O12 0.530660 0.051127 0.397676
O O13 0.307498 0.596545 0.543033
O O14 0.146253 0.100536 0.073011
O O15 0.500000 0.181598 0.000000
O O16 0.402485 0.307874 0.949682
#
# Coordination Sequence:
#
# PCOD8049310 Si02
#       8
#     4   4   4   4   2   4   4   4
#     4  11  24  40  60  97 132 164 213 267 320 377
#     4  11  23  44  64  90 131 168 218 271 323 387
#     4   9  21  41  64  91 127 168 213 258 314 380
#     4  11  24  43  63  94 132 164 218 267 317 399
#     4  12  22  40  68  94 124 162 218 264 324 392
#     4  11  22  41  67  93 117 168 212 263 325 383
#     4   9  20  37  63  91 117 163 214 254 310 385
#     4  10  20  38  60  89 126 160 207 260 313 378
#
# _framework density 20.273997000000001
#
# number of rings (size 3 to 8) (size 9 to 14) (size 15 to 20)
#    0.000    1.867    4.000    1.600    1.867    6.933 
#    0.000    2.667    0.000    0.000    0.000    0.000 
#    0.000    0.000    0.000    0.000    0.000    0.000 
#
# Total GULP energy -185954.724156 kJ/mol
# GULP energy per Si atom -12396.981610 kJ/mol
# Density = 2.022785 g / cm^3
# Si number density = 20.273997 Si / 1000 Ang^3
#
#
#
# Elastic Constant Matrix: (Units=GPa)
#
#
# Indices 1 2 3 4 5 6 
#
# 1 101.4860 42.0844 41.4290 0.0007 9.0459 -0.0002
# 2 42.0844 66.9190 46.9973 0.0005 0.5165 -0.0016
# 3 41.4290 46.9973 105.3699 0.0047 11.5465 -0.0078
# 4 0.0007 0.0005 0.0047 29.4569 0.0000 5.4542
# 5 9.0459 0.5165 11.5465 0.0000 35.2470 0.0009
# 6 -0.0002 -0.0016 -0.0078 5.4542 0.0009 25.0831
#
#
#
# Elastic Compliance Matrix: (Units=1/GPa)
#
#
# Indices 1 2 3 4 5 6 
#
# 1 0.013955 -0.007457 -0.001847 0.000000 -0.002867 -0.000001
# 2 -0.007457 0.026048 -0.009183 0.000002 0.004541 -0.000002
# 3 -0.001847 -0.009183 0.014776 -0.000003 -0.004232 0.000005
# 4 0.000000 0.000002 -0.000003 0.035372 0.000001 -0.007691
# 5 -0.002867 0.004541 -0.004232 0.000001 0.030427 -0.000002
# 6 -0.000001 -0.000002 0.000005 -0.007691 -0.000002 0.041540
#
#
# Mechanical properties :
#
#
# Convention : Reuss Voigt Hill
#
# Bulk Modulus (GPa) = 56.16508 59.42179 57.79343
# Shear Modulus (GPa) = 24.38699 27.50837 25.94768
#
# Velocity S-wave (km/s) = 3.47200 3.68751 3.58138
# Velocity P-wave (km/s) = 6.62089 6.89227 6.75794
#
# Compressibility (1/GPa) = 0.01780466
#
# Stress axis : x y z
#
# Youngs Moduli (GPa) = 71.65682 38.39120 67.67678
#
# Poissons Ratio (x) = 0.28630 0.12497
# Poissons Ratio (y) = 0.53437 0.62150
# Poissons Ratio (z) = 0.13232 0.35256
#
# Static dielectric constant tensor:
#      x y z
#    x 3.954970 0.000000 0.229900 
#    y 0.000000 3.528340 0.000000 
#    z 0.229900 0.000000 3.588760 
# 
# 
# High freq. dielectric constant tensor:
#      x y z
#    x 1.812750 0.000000 0.015730 
#    y 0.000000 1.779480 0.000000 
#    z 0.015730 0.000000 1.780370 
# 
# From -- ./inp_files/71684.got.cif
#   From: 2010.03.12/outbox.cif.g09.slc.cpg/sg5_36_cif.got.tgz:71684.got - 2010.03.31 09:47:26.
