data_PCOD8049876
_publ_section_title
;
Structure prediction by ZEFSAII (Michael W. Deem and Ramdas Pophale) SiO2 
 PCOD8049876
Probable space group: C 2
;
_chemical_formula_sum "Si O2"
_cell_formula_units_Z 32
_cell_length_a 12.521603
_cell_length_b 18.637857
_cell_length_c 9.238975
_cell_angle_alpha 90.000000
_cell_angle_beta 46.160429
_cell_angle_gamma 90.000000
_cell_volume 1555.194854
_symmetry_space_group_name_H-M "C 2"
_symmetry_group_IT_number 5
_symmetry_cell_setting 'monoclinic'
loop_
_space_group_symop_operation_xyz
x,y,z
-x,y,-z
1/2+x,1/2+y,z
1/2-x,1/2+y,-z
loop_
_atom_site_type_symbol
_atom_site_label
_atom_site_fract_x
_atom_site_fract_y
_atom_site_fract_z
Si Si1 0.855842 0.792530 0.052738
Si Si2 0.355558 0.672156 0.227865
Si Si3 0.621068 0.255043 0.279998
Si Si4 0.338742 0.908405 0.428923
Si Si5 0.169838 0.013468 0.790863
Si Si6 0.844153 0.914739 0.682615
Si Si7 0.636146 0.750654 0.474497
Si Si8 0.181050 0.433644 0.111452
O O1 0.780206 0.738073 0.239054
O O2 0.742376 0.856755 0.113672
O O3 0.897144 0.741583 0.875526
O O4 0.000000 0.824740 0.000000
O O5 0.274144 0.727553 0.198990
O O6 0.287966 0.592670 0.306160
O O7 0.371676 0.702509 0.374471
O O8 0.500000 0.659678 0.000000
O O9 0.500000 0.218217 0.500000
O O10 0.603380 0.339916 0.300778
O O11 0.218598 0.958140 0.621059
O O12 0.270061 0.898377 0.336735
O O13 0.356025 0.833512 0.491945
O O14 0.504385 0.938568 0.263524
O O15 0.275328 0.998866 0.827113
O O16 0.000000 0.001744 0.000000
O O17 0.000000 0.956078 0.500000
O O18 0.753117 0.955862 0.890998
O O19 0.500000 0.731358 0.500000
#
# Coordination Sequence:
#
# PCOD8049876 Si02
#       8
#     4   4   4   4   4   4   4   4
#     4  11  22  35  61  96 131 166 215 280 334 391
#     4  11  25  42  65  90 130 184 220 275 329 411
#     4  10  21  38  59  91 127 171 215 265 335 392
#     4  12  22  39  65  99 130 167 218 281 343 389
#     4  11  24  43  63  91 129 177 227 263 334 405
#     4  10  22  36  62  97 132 167 213 274 330 393
#     4  12  22  39  65 100 131 168 224 286 341 392
#     4  11  22  38  62  96 127 170 216 277 335 391
#
# _framework density 20.576201000000001
#
# number of rings (size 3 to 8) (size 9 to 14) (size 15 to 20)
#    0.000    1.000    3.750    3.375    5.250    1.000 
#    0.000    4.375    0.000    1.500    0.000    0.000 
#    0.000    0.000    0.000    0.000    0.000    0.000 
#
# Total GULP energy -198241.042991 kJ/mol
# GULP energy per Si atom -12390.065187 kJ/mol
# Density = 2.052937 g / cm^3
# Si number density = 20.576201 Si / 1000 Ang^3
#
#
#
# Elastic Constant Matrix: (Units=GPa)
#
#
# Indices 1 2 3 4 5 6 
#
# 1 121.4584 6.8736 46.9940 0.0001 8.2349 0.0001
# 2 6.8736 66.3324 36.8387 0.0000 7.5505 0.0000
# 3 46.9940 36.8387 150.2364 0.0001 16.6724 0.0001
# 4 0.0001 0.0000 0.0001 318.0000 -0.0001 230.0738
# 5 8.2349 7.5505 16.6724 -0.0001 40.2341 -0.0001
# 6 0.0001 0.0000 0.0001 230.0738 -0.0001 183.7384
#
#
#
# Elastic Compliance Matrix: (Units=1/GPa)
#
#
# Indices 1 2 3 4 5 6 
#
# 1 0.009425 0.000814 -0.003057 0.000000 -0.000815 0.000000
# 2 0.000814 0.017618 -0.004391 0.000000 -0.001653 0.000000
# 3 -0.003057 -0.004391 0.008939 0.000000 -0.002255 0.000000
# 4 0.000000 0.000000 0.000000 0.033438 0.000000 -0.041871
# 5 -0.000815 -0.001653 -0.002255 0.000000 0.026266 0.000000
# 6 0.000000 0.000000 0.000000 -0.041871 0.000000 0.057873
#
#
# Mechanical properties :
#
#
# Convention : Reuss Voigt Hill
#
# Bulk Modulus (GPa) = 44.02602 57.71555 50.87079
# Shear Modulus (GPa) = 28.66964 124.88255 76.77610
#
# Velocity S-wave (km/s) = 3.73680 7.79900 6.11507
# Velocity P-wave (km/s) = 6.32939 10.45035 8.63919
#
# Compressibility (1/GPa) = 0.02271384
#
# Stress axis : x y z
#
# Youngs Moduli (GPa) = 106.09602 56.75964 111.86315
#
# Poissons Ratio (x) = -0.04621 0.34202
# Poissons Ratio (y) = -0.08637 0.49122
# Poissons Ratio (z) = 0.32438 0.24924
#
# Static dielectric constant tensor:
#      x y z
#    x 3.669950 0.000000 -0.783430 
#    y 0.000000 3.353510 0.000000 
#    z -0.783430 0.000000 -2.358400 
# 
# 
# High freq. dielectric constant tensor:
#      x y z
#    x 1.816560 0.000000 0.005000 
#    y 0.000000 1.754270 0.000000 
#    z 0.005000 0.000000 1.834360 
# 
# From -- ./inp_files/21934.got.cif
#   From: 2010.03.12/outbox.cif.g09.slc.cpg/sg5_11_cif.got.tgz:21934.got - 2010.03.31 09:47:26.
