data_PCOD8049964
_publ_section_title
;
Structure prediction by ZEFSAII (Michael W. Deem and Ramdas Pophale) SiO2 
 PCOD8049964
Probable space group: C 2
;
_chemical_formula_sum "Si O2"
_cell_formula_units_Z 20
_cell_length_a 15.077829
_cell_length_b 7.795441
_cell_length_c 10.661596
_cell_angle_alpha 90.000000
_cell_angle_beta 134.999783
_cell_angle_gamma 90.000000
_cell_volume 886.111497
_symmetry_space_group_name_H-M "C 2"
_symmetry_group_IT_number 5
_symmetry_cell_setting 'monoclinic'
loop_
_space_group_symop_operation_xyz
x,y,z
-x,y,-z
1/2+x,1/2+y,z
1/2-x,1/2+y,-z
loop_
_atom_site_type_symbol
_atom_site_label
_atom_site_fract_x
_atom_site_fract_y
_atom_site_fract_z
Si Si1 0.500000 0.522550 0.500000
Si Si2 0.854251 0.269967 0.504180
Si Si3 0.898950 0.417088 0.136003
Si Si4 0.649927 0.275137 0.795680
Si Si5 0.762944 0.128013 0.661897
Si Si6 0.500000 0.772544 0.000000
O O1 0.375537 0.630582 0.416035
O O2 0.540497 0.414520 0.664962
O O3 0.757743 0.203324 0.514993
O O4 0.790841 0.437443 0.382233
O O5 0.998248 0.303778 0.689434
O O6 0.908608 0.607662 0.199439
O O7 0.934374 0.408506 0.025863
O O8 0.757247 0.341784 0.999506
O O9 0.691181 0.241322 0.692935
O O10 0.908507 0.136582 0.842888
#
# Coordination Sequence:
#
# PCOD8049964 Si02
#       6
#     2   4   4   4   4   2
#     4  12  24  38  60  88 120 158 200 244 292 346
#     4  11  22  40  61  89 120 156 196 243 293 350
#     4  10  21  39  62  87 120 155 195 242 293 350
#     4  11  22  40  61  89 120 156 196 243 293 350
#     4  10  21  39  62  87 120 155 195 242 293 350
#     4   8  20  40  64  90 120 154 196 240 292 354
#
# _framework density 22.570525
#
# number of rings (size 3 to 8) (size 9 to 14) (size 15 to 20)
#    0.000    1.600    0.000    4.800    0.000    0.000 
#    0.000    4.000    0.000    0.000    0.000    0.000 
#    0.000    0.000    0.000    0.000    0.000    0.000 
#
# Total GULP energy -123930.270560 kJ/mol
# GULP energy per Si atom -12393.027056 kJ/mol
# Density = 2.251915 g / cm^3
# Si number density = 22.570525 Si / 1000 Ang^3
#
#
#
# Elastic Constant Matrix: (Units=GPa)
#
#
# Indices 1 2 3 4 5 6 
#
# 1 68.5491 44.5900 26.2152 0.0000 0.7436 0.0000
# 2 44.5900 137.8791 44.5953 0.0000 0.0013 0.0000
# 3 26.2152 44.5953 68.5541 0.0000 -0.7408 0.0000
# 4 0.0000 0.0000 0.0000 41.5313 0.0000 0.0009
# 5 0.7436 0.0013 -0.7408 0.0000 26.7763 0.0000
# 6 0.0000 0.0000 0.0000 0.0009 0.0000 41.5318
#
#
#
# Elastic Compliance Matrix: (Units=1/GPa)
#
#
# Indices 1 2 3 4 5 6 
#
# 1 0.019407 -0.004906 -0.004237 0.000000 -0.000656 0.000000
# 2 -0.004906 0.010426 -0.004906 0.000000 0.000000 0.000000
# 3 -0.004237 -0.004906 0.019406 0.000000 0.000655 0.000000
# 4 0.000000 0.000000 0.000000 0.024078 0.000000 0.000000
# 5 -0.000656 0.000000 0.000655 0.000000 0.037383 0.000000
# 6 0.000000 0.000000 0.000000 0.000000 0.000000 0.024078
#
#
# Mechanical properties :
#
#
# Convention : Reuss Voigt Hill
#
# Bulk Modulus (GPa) = 47.30234 56.19814 51.75024
# Shear Modulus (GPa) = 29.42514 32.60666 31.01590
#
# Velocity S-wave (km/s) = 3.61459 3.80499 3.71101
# Velocity P-wave (km/s) = 6.19866 6.65258 6.42963
#
# Compressibility (1/GPa) = 0.02114060
#
# Stress axis : x y z
#
# Youngs Moduli (GPa) = 51.52883 95.91281 51.53039
#
# Poissons Ratio (x) = 0.47052 0.21834
# Poissons Ratio (y) = 0.25278 0.25283
# Poissons Ratio (z) = 0.21833 0.47059
#
# Static dielectric constant tensor:
#      x y z
#    x 4.145520 0.000000 -0.000010 
#    y 0.000000 3.831350 0.000000 
#    z -0.000010 0.000000 4.145530 
# 
# 
# High freq. dielectric constant tensor:
#      x y z
#    x 1.890570 0.000000 0.000000 
#    y 0.000000 1.882330 0.000000 
#    z 0.000000 0.000000 1.890570 
# 
# From -- ./inp_files/43703.got.cif
#   From: 2010.03.12/outbox.cif.g09.slc.cpg/sg5_22_cif.got.tgz:43703.got - 2010.03.31 09:47:26.
