data_PCOD8049552
_publ_section_title
;
Structure prediction by ZEFSAII (Michael W. Deem and Ramdas Pophale) SiO2 
 PCOD8049552
Probable space group: C 2
;
_chemical_formula_sum "Si O2"
_cell_formula_units_Z 26
_cell_length_a 15.773635
_cell_length_b 13.262861
_cell_length_c 9.264468
_cell_angle_alpha 90.000000
_cell_angle_beta 41.735135
_cell_angle_gamma 90.000000
_cell_volume 1290.209614
_symmetry_space_group_name_H-M "C 2"
_symmetry_group_IT_number 5
_symmetry_cell_setting 'monoclinic'
loop_
_space_group_symop_operation_xyz
x,y,z
-x,y,-z
1/2+x,1/2+y,z
1/2-x,1/2+y,-z
loop_
_atom_site_type_symbol
_atom_site_label
_atom_site_fract_x
_atom_site_fract_y
_atom_site_fract_z
Si Si1 0.363306 0.205990 0.223248
Si Si2 0.368905 0.497298 0.084081
Si Si3 0.131845 0.510107 0.594009
Si Si4 0.850243 0.294651 0.325157
Si Si5 0.260023 0.809925 0.860886
Si Si6 0.113219 0.213602 0.037750
Si Si7 0.500000 0.940446 0.500000
O O1 0.382338 0.097937 0.270983
O O2 0.289810 0.276861 0.430418
O O3 0.275695 0.211881 0.190468
O O4 0.500000 0.249783 0.000000
O O5 0.263253 0.517601 0.340597
O O6 0.348842 0.396759 0.012245
O O7 0.500000 0.486956 0.000000
O O8 0.369542 0.593195 0.976011
O O9 0.123583 0.412839 0.705698
O O10 0.014302 0.510028 0.626055
O O11 0.966260 0.239584 0.264105
O O12 0.850260 0.254566 0.164272
O O13 0.286425 0.769148 0.986070
O O14 0.380809 0.866851 0.642492
#
# Coordination Sequence:
#
# PCOD8049552 Si02
#       7
#     4   4   4   4   4   4   2
#     4  12  25  41  63 100 136 173 210 274 337 384
#     4  11  21  40  67  93 131 176 209 260 337 394
#     4  11  23  39  69  95 128 175 223 266 330 387
#     4  11  22  43  67  96 128 174 222 271 319 396
#     4  11  23  39  65  98 133 168 216 277 322 388
#     4  11  22  41  71  96 126 173 230 267 318 397
#     4  10  20  40  68  92 132 170 226 266 322 392
#
# _framework density 20.151762999999999
#
# number of rings (size 3 to 8) (size 9 to 14) (size 15 to 20)
#    0.000    0.923    7.692    0.462    2.154    3.692 
#    0.000    0.000    0.000    1.846    0.000    0.000 
#    0.000    0.000    0.000    0.000    0.000    0.000 
#
# Total GULP energy -161089.090031 kJ/mol
# GULP energy per Si atom -12391.468464 kJ/mol
# Density = 2.010590 g / cm^3
# Si number density = 20.151763 Si / 1000 Ang^3
#
#
#
# Elastic Constant Matrix: (Units=GPa)
#
#
# Indices 1 2 3 4 5 6 
#
# 1 154.3748 78.3882 37.4951 0.0000 1.1771 0.0000
# 2 78.3882 143.1845 21.8392 0.0000 8.2318 0.0000
# 3 37.4951 21.8392 91.0497 0.0000 -15.3250 0.0000
# 4 0.0000 0.0000 0.0000 18.5191 0.0000 5.6281
# 5 1.1771 8.2318 -15.3250 0.0000 26.3249 0.0000
# 6 0.0000 0.0000 0.0000 5.6281 0.0000 46.9254
#
#
#
# Elastic Compliance Matrix: (Units=1/GPa)
#
#
# Indices 1 2 3 4 5 6 
#
# 1 0.009622 -0.004786 -0.002921 0.000000 -0.000634 0.000000
# 2 -0.004786 0.009957 -0.001004 0.000000 -0.003484 0.000000
# 3 -0.002921 -0.001004 0.013860 0.000000 0.008513 0.000000
# 4 0.000000 0.000000 0.000000 0.056041 0.000000 -0.006721
# 5 -0.000634 -0.003484 0.008513 0.000000 0.044061 0.000000
# 6 0.000000 0.000000 0.000000 -0.006721 0.000000 0.022117
#
#
# Mechanical properties :
#
#
# Convention : Reuss Voigt Hill
#
# Bulk Modulus (GPa) = 62.43320 73.78376 68.10848
# Shear Modulus (GPa) = 28.02390 35.07963 31.55176
#
# Velocity S-wave (km/s) = 3.73318 4.17678 3.96119
# Velocity P-wave (km/s) = 7.04492 7.74301 7.40220
#
# Compressibility (1/GPa) = 0.01601712
#
# Stress axis : x y z
#
# Youngs Moduli (GPa) = 103.92584 100.42712 72.15130
#
# Poissons Ratio (x) = 0.48062 0.21078
# Poissons Ratio (y) = 0.49736 0.07244
# Poissons Ratio (z) = 0.30361 0.10083
#
# Static dielectric constant tensor:
#      x y z
#    x 4.060320 0.000000 -0.160600 
#    y 0.000000 3.889560 0.000000 
#    z -0.160600 0.000000 3.657430 
# 
# 
# High freq. dielectric constant tensor:
#      x y z
#    x 1.791680 0.000000 -0.009220 
#    y 0.000000 1.790030 0.000000 
#    z -0.009220 0.000000 1.775530 
# 
# From -- ./inp_files/24780.got.cif
#   From: 2010.03.12/outbox.cif.g09.slc.cpg/sg5_13_cif.got.tgz:24780.got - 2010.03.31 09:47:26.
