data_PCOD8049931
_publ_section_title
;
Structure prediction by ZEFSAII (Michael W. Deem and Ramdas Pophale) SiO2 
 PCOD8049931
Probable space group: C 2
;
_chemical_formula_sum "Si O2"
_cell_formula_units_Z 30
_cell_length_a 15.024249
_cell_length_b 8.707256
_cell_length_c 11.740452
_cell_angle_alpha 90.000000
_cell_angle_beta 117.627002
_cell_angle_gamma 90.000000
_cell_volume 1360.771929
_symmetry_space_group_name_H-M "C 2"
_symmetry_group_IT_number 5
_symmetry_cell_setting 'monoclinic'
loop_
_space_group_symop_operation_xyz
x,y,z
-x,y,-z
1/2+x,1/2+y,z
1/2-x,1/2+y,-z
loop_
_atom_site_type_symbol
_atom_site_label
_atom_site_fract_x
_atom_site_fract_y
_atom_site_fract_z
Si Si1 0.904107 0.890970 0.006809
Si Si2 0.308404 0.387395 0.396118
Si Si3 0.218105 0.451191 0.757874
Si Si4 0.497797 0.839649 0.337097
Si Si5 0.719026 0.269678 0.866169
Si Si6 0.500000 0.577436 0.500000
Si Si7 0.823601 0.558484 0.506331
Si Si8 0.435549 0.748055 0.063191
O O1 0.875858 0.820650 0.113477
O O2 0.931951 0.065259 0.051301
O O3 0.814247 0.861483 0.863215
O O4 0.000000 0.813208 0.000000
O O5 0.262774 0.343830 0.246848
O O6 0.409752 0.466468 0.416128
O O7 0.236218 0.509204 0.416080
O O8 0.330061 0.242999 0.493939
O O9 0.117596 0.351765 0.693190
O O10 0.200402 0.590760 0.834524
O O11 0.238866 0.499939 0.640226
O O12 0.537607 0.684021 0.418380
O O13 0.501285 0.811042 0.205845
O O14 0.564154 0.985662 0.416897
O O15 0.820673 0.307844 0.997254
O O16 0.500000 0.819146 0.000000
#
# Coordination Sequence:
#
# PCOD8049931 Si02
#       8
#     4   4   4   4   4   2   4   4
#     4  10  21  41  67  98 130 175 225 282 339 406
#     4  11  26  43  68 102 137 179 228 287 334 416
#     4  10  22  40  66  92 136 176 219 279 341 402
#     4  12  22  43  69  95 134 182 224 276 337 414
#     4  10  21  41  65  95 134 173 223 283 336 401
#     4  12  26  40  70  98 128 182 230 276 348 398
#     4  11  24  44  68  99 141 178 230 275 346 398
#     4  10  21  38  67  95 127 175 222 269 340 403
#
# _framework density 22.046309999999998
#
# number of rings (size 3 to 8) (size 9 to 14) (size 15 to 20)
#    0.000    1.333    2.667    2.400    3.733    5.333 
#    0.000    0.667    0.000    0.000    0.000    0.000 
#    0.000    0.000    0.000    0.000    0.000    0.000 
#
# Total GULP energy -185915.261161 kJ/mol
# GULP energy per Si atom -12394.350744 kJ/mol
# Density = 2.199613 g / cm^3
# Si number density = 22.046310 Si / 1000 Ang^3
#
#
#
# Elastic Constant Matrix: (Units=GPa)
#
#
# Indices 1 2 3 4 5 6 
#
# 1 130.9074 24.0614 33.2866 0.0000 -12.4721 0.0000
# 2 24.0614 66.5645 25.3461 0.0000 -1.0675 0.0000
# 3 33.2866 25.3461 119.6592 0.0000 -10.7462 0.0000
# 4 0.0000 0.0000 0.0000 28.0175 0.0000 -1.4154
# 5 -12.4721 -1.0675 -10.7462 0.0000 42.9408 0.0000
# 6 0.0000 0.0000 0.0000 -1.4154 0.0000 30.9409
#
#
#
# Elastic Compliance Matrix: (Units=1/GPa)
#
#
# Indices 1 2 3 4 5 6 
#
# 1 0.008724 -0.002465 -0.001721 0.000000 0.002042 0.000000
# 2 -0.002465 0.017047 -0.003019 0.000000 -0.001048 0.000000
# 3 -0.001721 -0.003019 0.009640 0.000000 0.001838 0.000000
# 4 0.000000 0.000000 0.000000 0.035775 0.000000 0.001636
# 5 0.002042 -0.001048 0.001838 0.000000 0.024315 0.000000
# 6 0.000000 0.000000 0.000000 0.001636 0.000000 0.032395
#
#
# Mechanical properties :
#
#
# Convention : Reuss Voigt Hill
#
# Bulk Modulus (GPa) = 47.61909 53.61326 50.61618
# Shear Modulus (GPa) = 33.48788 36.00896 34.74842
#
# Velocity S-wave (km/s) = 3.90164 4.04584 3.97439
# Velocity P-wave (km/s) = 6.47638 6.79679 6.63852
#
# Compressibility (1/GPa) = 0.02099998
#
# Stress axis : x y z
#
# Youngs Moduli (GPa) = 114.62119 58.66117 103.72963
#
# Poissons Ratio (x) = 0.14463 0.17855
# Poissons Ratio (y) = 0.28260 0.31318
# Poissons Ratio (z) = 0.19730 0.17711
#
# Static dielectric constant tensor:
#      x y z
#    x 4.116410 0.000000 0.026270 
#    y 0.000000 3.792810 0.000000 
#    z 0.026270 0.000000 4.116190 
# 
# 
# High freq. dielectric constant tensor:
#      x y z
#    x 1.872250 0.000000 -0.005540 
#    y 0.000000 1.847470 0.000000 
#    z -0.005540 0.000000 1.879460 
# 
# From -- ./inp_files/42055.got.cif
#   From: 2010.03.12/outbox.cif.g09.slc.cpg/sg5_22_cif.got.tgz:42055.got - 2010.03.31 09:47:26.
