data_PCOD8049765
_publ_section_title
;
Structure prediction by ZEFSAII (Michael W. Deem and Ramdas Pophale) SiO2 
 PCOD8049765
Probable space group: C 2
;
_chemical_formula_sum "Si O2"
_cell_formula_units_Z 32
_cell_length_a 29.269671
_cell_length_b 9.936427
_cell_length_c 10.692265
_cell_angle_alpha 90.000000
_cell_angle_beta 150.495556
_cell_angle_gamma 90.000000
_cell_volume 1531.497024
_symmetry_space_group_name_H-M "C 2"
_symmetry_group_IT_number 5
_symmetry_cell_setting 'monoclinic'
loop_
_space_group_symop_operation_xyz
x,y,z
-x,y,-z
1/2+x,1/2+y,z
1/2-x,1/2+y,-z
loop_
_atom_site_type_symbol
_atom_site_label
_atom_site_fract_x
_atom_site_fract_y
_atom_site_fract_z
Si Si1 0.175416 0.424310 0.469872
Si Si2 0.161376 0.427771 0.149393
Si Si3 0.003631 0.115375 0.655149
Si Si4 0.664432 0.119792 0.767289
Si Si5 0.548996 0.892329 0.385662
Si Si6 0.285354 0.660499 0.828724
Si Si7 0.314788 0.203566 0.897551
Si Si8 0.990499 0.818740 0.625270
O O1 0.157825 0.384898 0.285584
O O2 0.078321 0.426208 0.313411
O O3 0.220526 0.572323 0.583446
O O4 0.238538 0.316073 0.692263
O O5 0.224432 0.318549 0.226890
O O6 0.207772 0.573117 0.240185
O O7 0.057436 0.435054 0.845098
O O8 0.000000 0.137450 0.500000
O O9 0.941802 0.231880 0.570666
O O10 0.965704 0.970311 0.609514
O O11 0.109918 0.119339 0.951077
O O12 0.758303 0.128087 0.908725
O O13 0.593340 0.223860 0.531913
O O14 0.616067 0.972235 0.643011
O O15 0.687282 0.158057 0.962889
O O16 0.413301 0.264879 0.088641
O O17 0.000000 0.815854 0.500000
#
# Coordination Sequence:
#
# PCOD8049765 Si02
#       8
#     4   4   4   4   4   4   4   4
#     4  11  23  42  60  87 121 167 212 249 300 366
#     4  11  23  41  63  86 119 168 211 250 301 362
#     4  10  21  35  59  87 125 156 187 244 322 367
#     4  10  22  38  61  92 124 147 203 251 322 365
#     4  10  23  38  63  91 120 157 207 260 301 365
#     4  10  23  39  58  90 122 156 195 262 304 364
#     4  11  22  37  64  90 122 162 199 258 307 373
#     4   9  18  37  56  84 120 157 184 237 313 373
#
# _framework density 20.894589
#
# number of rings (size 3 to 8) (size 9 to 14) (size 15 to 20)
#    0.000    1.750    2.500    1.125    5.250    2.000 
#    0.000    0.000    0.000    0.000    0.000    0.000 
#    0.000    0.000    0.000    0.000    0.000    0.000 
#
# Total GULP energy -198414.817553 kJ/mol
# GULP energy per Si atom -12400.926097 kJ/mol
# Density = 2.084703 g / cm^3
# Si number density = 20.894589 Si / 1000 Ang^3
#
#
#
# Elastic Constant Matrix: (Units=GPa)
#
#
# Indices 1 2 3 4 5 6 
#
# 1 68.4717 28.9921 16.5482 0.0000 -6.3108 0.0000
# 2 28.9921 150.9413 25.4696 0.0000 10.2312 0.0000
# 3 16.5482 25.4696 44.5346 0.0000 0.4467 0.0000
# 4 0.0000 0.0000 0.0000 27.6546 0.0000 3.3464
# 5 -6.3108 10.2312 0.4467 0.0000 29.3059 0.0000
# 6 0.0000 0.0000 0.0000 3.3464 0.0000 28.1218
#
#
#
# Elastic Compliance Matrix: (Units=1/GPa)
#
#
# Indices 1 2 3 4 5 6 
#
# 1 0.017440 -0.002850 -0.004899 0.000000 0.004825 0.000000
# 2 -0.002850 0.007986 -0.003474 0.000000 -0.003349 0.000000
# 3 -0.004899 -0.003474 0.026264 0.000000 -0.000242 0.000000
# 4 0.000000 0.000000 0.000000 0.036689 0.000000 -0.004366
# 5 0.004825 -0.003349 -0.000242 0.000000 0.036335 0.000000
# 6 0.000000 0.000000 0.000000 -0.004366 0.000000 0.036079
#
#
# Mechanical properties :
#
#
# Convention : Reuss Voigt Hill
#
# Bulk Modulus (GPa) = 34.19593 45.10751 39.65172
# Shear Modulus (GPa) = 25.90844 29.87897 27.89371
#
# Velocity S-wave (km/s) = 3.52513 3.78562 3.65769
# Velocity P-wave (km/s) = 5.74196 6.38301 6.07096
#
# Compressibility (1/GPa) = 0.02924324
#
# Stress axis : x y z
#
# Youngs Moduli (GPa) = 57.33917 125.22190 38.07458
#
# Poissons Ratio (x) = 0.35692 0.18652
# Poissons Ratio (y) = 0.16343 0.13229
# Poissons Ratio (z) = 0.28089 0.43508
#
# Static dielectric constant tensor:
#      x y z
#    x 3.463590 0.000000 0.149810 
#    y 0.000000 4.097810 0.000000 
#    z 0.149810 0.000000 3.656630 
# 
# 
# High freq. dielectric constant tensor:
#      x y z
#    x 1.794780 0.000000 0.010580 
#    y 0.000000 1.836950 0.000000 
#    z 0.010580 0.000000 1.805320 
# 
# From -- ./inp_files/48410.got.cif
#   From: 2010.03.12/outbox.cif.g09.slc.cpg/sg5_25_cif.got.tgz:48410.got - 2010.03.31 09:47:26.
