data_PCOD8049237
_publ_section_title
;
Structure prediction by ZEFSAII (Michael W. Deem and Ramdas Pophale) SiO2 
 PCOD8049237
Probable space group: C 2
;
_chemical_formula_sum "Si O2"
_cell_formula_units_Z 28
_cell_length_a 13.730032
_cell_length_b 12.288100
_cell_length_c 8.702346
_cell_angle_alpha 90.000000
_cell_angle_beta 104.768995
_cell_angle_gamma 90.000000
_cell_volume 1419.717077
_symmetry_space_group_name_H-M "C 2"
_symmetry_group_IT_number 5
_symmetry_cell_setting 'monoclinic'
loop_
_space_group_symop_operation_xyz
x,y,z
-x,y,-z
1/2+x,1/2+y,z
1/2-x,1/2+y,-z
loop_
_atom_site_type_symbol
_atom_site_label
_atom_site_fract_x
_atom_site_fract_y
_atom_site_fract_z
Si Si1 0.107897 0.569600 0.613582
Si Si2 0.389696 0.081844 0.020792
Si Si3 0.382512 0.316049 0.480533
Si Si4 0.886346 0.035860 0.000445
Si Si5 0.234169 0.915371 0.826246
Si Si6 0.772129 0.241890 0.057990
Si Si7 0.231506 0.909810 0.292205
O O1 0.108567 0.552807 0.798331
O O2 0.139847 0.691162 0.574625
O O3 0.184760 0.478128 0.577575
O O4 0.000000 0.541559 0.500000
O O5 0.500000 0.076199 0.000000
O O6 0.344037 0.201765 0.981512
O O7 0.317662 0.008033 0.884348
O O8 0.500000 0.343202 0.500000
O O9 0.308423 0.398666 0.360873
O O10 0.350199 0.341838 0.641957
O O11 0.822856 0.007018 0.823407
O O12 0.851026 0.143778 0.077479
O O13 0.000000 0.049829 0.000000
O O14 0.865835 0.937490 0.110142
O O15 0.286737 0.805158 0.904206
O O16 0.790290 0.322045 0.209216
#
# Coordination Sequence:
#
# PCOD8049237 Si02
#       7
#     4   4   4   4   4   4   4
#     4  11  24  43  60  93 130 160 206 262 311 373
#     4  11  23  38  65  95 118 163 213 257 306 369
#     4  11  24  39  64  95 125 164 208 255 318 371
#     4  10  20  37  62  89 120 159 205 259 298 365
#     4  10  20  40  59  89 123 159 209 254 302 371
#     4  10  20  39  61  87 123 159 211 248 305 363
#     4  11  23  42  62  90 129 164 199 262 315 363
#
# _framework density 19.722238000000001
#
# number of rings (size 3 to 8) (size 9 to 14) (size 15 to 20)
#    0.000    1.429    5.714    0.857    6.000    4.000 
#    0.000    1.429    0.000    3.429    0.000    0.000 
#    0.000    0.000    0.000    0.000    0.000    0.000 
#
# Total GULP energy -173450.583846 kJ/mol
# GULP energy per Si atom -12389.327418 kJ/mol
# Density = 1.967735 g / cm^3
# Si number density = 19.722238 Si / 1000 Ang^3
#
#
#
# Elastic Constant Matrix: (Units=GPa)
#
#
# Indices 1 2 3 4 5 6 
#
# 1 89.0764 1.8430 -4.9603 0.0000 -2.9227 0.0000
# 2 1.8430 46.2743 -0.6366 0.0000 2.2364 0.0000
# 3 -4.9603 -0.6366 50.1718 0.0000 6.0275 0.0000
# 4 0.0000 0.0000 0.0000 -27.3268 0.0000 7.2190
# 5 -2.9227 2.2364 6.0275 0.0000 28.0460 0.0000
# 6 0.0000 0.0000 0.0000 7.2190 0.0000 23.3388
#
#
#
# Elastic Compliance Matrix: (Units=1/GPa)
#
#
# Indices 1 2 3 4 5 6 
#
# 1 0.011325 -0.000486 0.000993 0.000000 0.001006 0.000000
# 2 -0.000486 0.021727 0.000454 0.000000 -0.001881 0.000000
# 3 0.000993 0.000454 0.020558 0.000000 -0.004351 0.000000
# 4 0.000000 0.000000 0.000000 -0.033830 0.000000 0.010464
# 5 0.001006 -0.001881 -0.004351 0.000000 0.036846 0.000000
# 6 0.000000 0.000000 0.000000 0.010464 0.000000 0.039611
#
#
# Mechanical properties :
#
#
# Convention : Reuss Voigt Hill
#
# Bulk Modulus (GPa) = 18.00828 19.77941 18.89385
# Shear Modulus (GPa) = 44.31626 17.43001 30.87313
#
# Velocity S-wave (km/s) = 4.74542 2.97606 3.96080
# Velocity P-wave (km/s) = 6.25908 4.67547 5.52431
#
# Compressibility (1/GPa) = 0.05553001
#
# Stress axis : x y z
#
# Youngs Moduli (GPa) = 88.30298 46.02617 48.64255
#
# Poissons Ratio (x) = 0.02237 -0.04829
# Poissons Ratio (y) = 0.04291 -0.02206
# Poissons Ratio (z) = -0.08765 -0.02088
#
# Static dielectric constant tensor:
#      x y z
#    x 3.948150 0.000000 0.064340 
#    y 0.000000 3.782670 0.000000 
#    z 0.064340 0.000000 3.537450 
# 
# 
# High freq. dielectric constant tensor:
#      x y z
#    x 1.761130 0.000000 0.000980 
#    y 0.000000 1.777710 0.000000 
#    z 0.000980 0.000000 1.760450 
# 
# From -- ./inp_files/23665.got.cif
#   From: 2010.03.12/outbox.cif.g09.slc.cpg/sg5_12_cif.got.tgz:23665.got - 2010.03.31 09:47:26.
