data_PCOD8049246
_publ_section_title
;
Structure prediction by ZEFSAII (Michael W. Deem and Ramdas Pophale) SiO2 
 PCOD8049246
Probable space group: C 2
;
_chemical_formula_sum "Si O2"
_cell_formula_units_Z 30
_cell_length_a 8.722980
_cell_length_b 17.273235
_cell_length_c 10.897779
_cell_angle_alpha 90.000000
_cell_angle_beta 93.378821
_cell_angle_gamma 90.000000
_cell_volume 1639.158522
_symmetry_space_group_name_H-M "C 2"
_symmetry_group_IT_number 5
_symmetry_cell_setting 'monoclinic'
loop_
_space_group_symop_operation_xyz
x,y,z
-x,y,-z
1/2+x,1/2+y,z
1/2-x,1/2+y,-z
loop_
_atom_site_type_symbol
_atom_site_label
_atom_site_fract_x
_atom_site_fract_y
_atom_site_fract_z
Si Si1 0.074089 0.335730 0.706025
Si Si2 0.346996 0.666603 0.248556
Si Si3 0.675575 0.160574 0.486578
Si Si4 0.367470 0.071047 0.920932
Si Si5 0.000000 0.934208 0.500000
Si Si6 0.726731 0.826103 0.449572
Si Si7 0.135284 0.493337 0.837386
Si Si8 0.127179 0.059933 0.338499
O O1 0.107267 0.255099 0.778226
O O2 0.162076 0.340054 0.581911
O O3 0.131818 0.403724 0.797876
O O4 0.894533 0.342720 0.664282
O O5 0.215389 0.667520 0.345553
O O6 0.272395 0.624851 0.127006
O O7 0.499630 0.621265 0.292138
O O8 0.500000 0.138212 0.500000
O O9 0.715487 0.238459 0.561831
O O10 0.779991 0.092160 0.541900
O O11 0.460157 0.027774 0.813833
O O12 0.500000 0.121470 0.000000
O O13 0.311884 0.004788 0.017161
O O14 0.867345 0.882643 0.435240
O O15 0.950239 0.982303 0.616461
O O16 0.256251 0.542373 0.765021
#
# Coordination Sequence:
#
# PCOD8049246 Si02
#       8
#     4   4   4   4   2   4   4   4
#     4  10  20  37  63  83 121 156 195 237 304 352
#     4  11  21  38  62  85 122 157 192 253 288 348
#     4  11  21  35  57  88 128 159 190 230 299 366
#     4   8  22  43  62  79 115 154 208 245 287 343
#     4  12  22  32  52  90 132 150 190 228 294 358
#     4  10  21  35  53  91 123 160 184 236 296 367
#     4   9  21  41  60  83 114 154 201 246 284 352
#     4  12  22  36  58  97 118 153 197 241 297 356
#
# _framework density 18.302074000000001
#
# number of rings (size 3 to 8) (size 9 to 14) (size 15 to 20)
#    0.800    0.800    4.667    0.800    1.867    1.600 
#    0.000    2.667    2.933    0.000    0.000    0.000 
#    0.000    0.000    0.000    0.000    0.000    0.000 
#
# Total GULP energy -185881.067914 kJ/mol
# GULP energy per Si atom -12392.071194 kJ/mol
# Density = 1.826042 g / cm^3
# Si number density = 18.302074 Si / 1000 Ang^3
#
#
#
# Elastic Constant Matrix: (Units=GPa)
#
#
# Indices 1 2 3 4 5 6 
#
# 1 80.3971 48.6730 36.3601 0.0000 17.7519 0.0000
# 2 48.6730 114.2261 38.7944 0.0000 8.9445 0.0000
# 3 36.3601 38.7944 68.8832 0.0000 7.0501 0.0000
# 4 0.0000 0.0000 0.0000 100.4303 0.0000 55.1532
# 5 17.7519 8.9445 7.0501 0.0000 29.2792 0.0000
# 6 0.0000 0.0000 0.0000 55.1532 0.0000 68.0129
#
#
#
# Elastic Compliance Matrix: (Units=1/GPa)
#
#
# Indices 1 2 3 4 5 6 
#
# 1 0.021247 -0.005979 -0.006886 0.000000 -0.009398 0.000000
# 2 -0.005979 0.012610 -0.004022 0.000000 0.000741 0.000000
# 3 -0.006886 -0.004022 0.020366 0.000000 0.000500 0.000000
# 4 0.000000 0.000000 0.000000 0.017952 0.000000 -0.014557
# 5 -0.009398 0.000741 0.000500 0.000000 0.039505 0.000000
# 6 0.000000 0.000000 0.000000 -0.014557 0.000000 0.026508
#
#
# Mechanical properties :
#
#
# Convention : Reuss Voigt Hill
#
# Bulk Modulus (GPa) = 48.90095 56.79570 52.84833
# Shear Modulus (GPa) = 27.96752 48.85641 38.41196
#
# Velocity S-wave (km/s) = 3.91334 5.17227 4.58621
# Velocity P-wave (km/s) = 6.86992 8.17127 7.54869
#
# Compressibility (1/GPa) = 0.02044950
#
# Stress axis : x y z
#
# Youngs Moduli (GPa) = 47.06456 79.30106 49.10124
#
# Poissons Ratio (x) = 0.47415 0.33812
# Poissons Ratio (y) = 0.28140 0.19747
# Poissons Ratio (z) = 0.32410 0.31893
#
# Static dielectric constant tensor:
#      x y z
#    x 3.486720 0.000000 -0.040890 
#    y 0.000000 3.362800 0.000000 
#    z -0.040890 0.000000 3.091610 
# 
# 
# High freq. dielectric constant tensor:
#      x y z
#    x 1.720460 0.000000 -0.002840 
#    y 0.000000 1.708810 0.000000 
#    z -0.002840 0.000000 1.681390 
# 
# From -- ./inp_files/36872.got.cif
#   From: 2010.03.12/outbox.cif.g09.slc.cpg/sg5_19_cif.got.tgz:36872.got - 2010.03.31 09:47:26.
