data_PCOD8049233
_publ_section_title
;
Structure prediction by ZEFSAII (Michael W. Deem and Ramdas Pophale) SiO2 
 PCOD8049233
Probable space group: C 2
;
_chemical_formula_sum "Si O2"
_cell_formula_units_Z 32
_cell_length_a 8.164822
_cell_length_b 16.409066
_cell_length_c 12.036691
_cell_angle_alpha 90.000000
_cell_angle_beta 94.437374
_cell_angle_gamma 90.000000
_cell_volume 1607.807094
_symmetry_space_group_name_H-M "C 2"
_symmetry_group_IT_number 5
_symmetry_cell_setting 'monoclinic'
loop_
_space_group_symop_operation_xyz
x,y,z
-x,y,-z
1/2+x,1/2+y,z
1/2-x,1/2+y,-z
loop_
_atom_site_type_symbol
_atom_site_label
_atom_site_fract_x
_atom_site_fract_y
_atom_site_fract_z
Si Si1 0.868202 0.528850 0.843161
Si Si2 0.804922 0.174854 0.800509
Si Si3 0.845772 0.086209 0.366419
Si Si4 0.862909 0.246130 0.251994
Si Si5 0.712460 0.558696 0.398191
Si Si6 0.675421 0.514289 0.055102
Si Si7 0.358864 0.931529 0.251595
Si Si8 0.980572 0.703764 0.874532
O O1 0.722914 0.551475 0.751777
O O2 0.989482 0.605585 0.862717
O O3 0.967481 0.454916 0.794074
O O4 0.803036 0.505831 0.960829
O O5 0.762206 0.138000 0.677177
O O6 0.827347 0.105066 0.894840
O O7 0.647175 0.232663 0.819613
O O8 0.974485 0.226269 0.812744
O O9 0.864766 0.184388 0.356370
O O10 0.733453 0.072939 0.470224
O O11 0.018260 0.040008 0.388367
O O12 0.869326 0.338825 0.292798
O O13 0.692412 0.237276 0.176801
O O14 0.819334 0.483510 0.359535
O O15 0.719136 0.448106 0.151866
O O16 0.500000 0.489172 0.000000
O O17 0.000000 0.734262 0.000000
#
# Coordination Sequence:
#
# PCOD8049233 Si02
#       8
#     4   4   4   4   4   4   4   4
#     4  11  19  36  58  88 117 155 207 243 285 354
#     4  10  20  37  62  88 112 161 204 246 292 353
#     4   9  20  39  64  85 108 158 206 243 286 363
#     4  10  24  40  56  93 125 151 194 255 308 351
#     4   9  18  39  65  83 113 151 205 244 292 359
#     4  11  20  36  62  85 116 165 208 242 287 354
#     4  11  22  39  57  88 127 149 189 254 311 347
#     4  11  19  37  60  84 118 162 206 241 285 360
#
# _framework density 19.902885999999999
#
# number of rings (size 3 to 8) (size 9 to 14) (size 15 to 20)
#    0.000    1.750    3.750    3.375    0.000    1.000 
#    9.000    5.000    2.750    0.000    0.000    0.000 
#    0.000    0.000    0.000    0.000    0.000    0.000 
#
# Total GULP energy -198310.107401 kJ/mol
# GULP energy per Si atom -12394.381713 kJ/mol
# Density = 1.985759 g / cm^3
# Si number density = 19.902886 Si / 1000 Ang^3
#
#
#
# Elastic Constant Matrix: (Units=GPa)
#
#
# Indices 1 2 3 4 5 6 
#
# 1 113.4130 25.0939 17.7668 0.0000 -21.8284 0.0000
# 2 25.0939 87.4222 14.3332 0.0000 -10.2004 0.0000
# 3 17.7668 14.3332 96.6414 0.0000 -25.0437 0.0000
# 4 0.0000 0.0000 0.0000 13.1423 0.0000 -4.2924
# 5 -21.8284 -10.2004 -25.0437 0.0000 30.5346 0.0000
# 6 0.0000 0.0000 0.0000 -4.2924 0.0000 18.1400
#
#
#
# Elastic Compliance Matrix: (Units=1/GPa)
#
#
# Indices 1 2 3 4 5 6 
#
# 1 0.010637 -0.002268 0.000197 0.000000 0.007008 0.000000
# 2 -0.002268 0.012453 -0.000980 0.000000 0.001735 0.000000
# 3 0.000197 -0.000980 0.013218 0.000000 0.010654 0.000000
# 4 0.000000 0.000000 0.000000 0.082463 0.000000 0.019513
# 5 0.007008 0.001735 0.010654 0.000000 0.047077 0.000000
# 6 0.000000 0.000000 0.000000 0.019513 0.000000 0.059744
#
#
# Mechanical properties :
#
#
# Convention : Reuss Voigt Hill
#
# Bulk Modulus (GPa) = 33.10751 45.76270 39.43511
# Shear Modulus (GPa) = 20.68136 28.38221 24.53178
#
# Velocity S-wave (km/s) = 3.22703 3.78038 3.51461
# Velocity P-wave (km/s) = 5.52771 6.48830 6.02717
#
# Compressibility (1/GPa) = 0.03020462
#
# Stress axis : x y z
#
# Youngs Moduli (GPa) = 94.01043 80.30276 75.65652
#
# Poissons Ratio (x) = 0.18212 -0.01489
# Poissons Ratio (y) = 0.21320 0.07418
# Poissons Ratio (z) = -0.01851 0.07874
#
# Static dielectric constant tensor:
#      x y z
#    x 3.809560 0.000000 -0.126600 
#    y 0.000000 3.250150 0.000000 
#    z -0.126600 0.000000 3.745220 
# 
# 
# High freq. dielectric constant tensor:
#      x y z
#    x 1.794770 0.000000 -0.006500 
#    y 0.000000 1.729970 0.000000 
#    z -0.006500 0.000000 1.776370 
# 
# From -- ./inp_files/36841.got.cif
#   From: 2010.03.12/outbox.cif.g09.slc.cpg/sg5_19_cif.got.tgz:36841.got - 2010.03.31 09:47:26.
