data_PCOD8049390
_publ_section_title
;
Structure prediction by ZEFSAII (Michael W. Deem and Ramdas Pophale) SiO2 
 PCOD8049390
Probable space group: C 2
;
_chemical_formula_sum "Si O2"
_cell_formula_units_Z 24
_cell_length_a 15.545875
_cell_length_b 8.272800
_cell_length_c 15.828508
_cell_angle_alpha 90.000000
_cell_angle_beta 146.313473
_cell_angle_gamma 90.000000
_cell_volume 1129.082661
_symmetry_space_group_name_H-M "C 2"
_symmetry_group_IT_number 5
_symmetry_cell_setting 'monoclinic'
loop_
_space_group_symop_operation_xyz
x,y,z
-x,y,-z
1/2+x,1/2+y,z
1/2-x,1/2+y,-z
loop_
_atom_site_type_symbol
_atom_site_label
_atom_site_fract_x
_atom_site_fract_y
_atom_site_fract_z
Si Si1 0.375433 0.324840 0.625329
Si Si2 0.071118 0.299588 0.668896
Si Si3 0.422520 0.174367 0.349971
Si Si4 0.870669 0.330964 0.830440
Si Si5 0.572189 0.696149 0.295136
Si Si6 0.737223 0.660477 0.662660
O O1 0.517499 0.269264 0.683128
O O2 0.391405 0.510168 0.662047
O O3 0.217307 0.303374 0.444449
O O4 0.372775 0.227545 0.712345
O O5 0.035599 0.487238 0.627510
O O6 0.227273 0.252485 0.745562
O O7 0.080091 0.253646 0.775718
O O8 0.927528 0.189671 0.517918
O O9 0.500000 0.236888 0.500000
O O10 0.239614 0.207547 0.208417
O O11 0.956859 0.232031 0.826733
O O12 0.768476 0.474043 0.707290
O O13 0.000000 0.399200 0.000000
#
# Coordination Sequence:
#
# PCOD8049390 Si02
#       6
#     4   4   4   4   4   4
#     4  11  21  36  67  99 122 163 218 280 313 361
#     4  10  20  38  68 101 123 155 218 277 315 362
#     4  12  22  39  66  98 126 166 217 268 314 370
#     4  12  27  43  61  94 139 177 206 256 328 396
#     4  11  21  38  62  95 132 163 214 268 323 374
#     4  10  20  39  63  96 130 159 214 263 320 371
#
# _framework density 21.256193
#
# number of rings (size 3 to 8) (size 9 to 14) (size 15 to 20)
#    0.000    1.000    3.333    7.000    2.333    0.000 
#    0.000   10.000    0.000    0.000    0.000    0.000 
#    0.000    0.000    0.000    0.000    0.000    0.000 
#
# Total GULP energy -148759.191833 kJ/mol
# GULP energy per Si atom -12396.599319 kJ/mol
# Density = 2.120781 g / cm^3
# Si number density = 21.256193 Si / 1000 Ang^3
#
#
#
# Elastic Constant Matrix: (Units=GPa)
#
#
# Indices 1 2 3 4 5 6 
#
# 1 211.5639 44.9255 32.4181 0.0000 -28.3786 0.0000
# 2 44.9255 128.7706 39.5164 0.0000 -17.2464 0.0000
# 3 32.4181 39.5164 53.1687 0.0000 -6.0731 0.0000
# 4 0.0000 0.0000 0.0000 10.0760 0.0000 -1.3749
# 5 -28.3786 -17.2464 -6.0731 0.0000 17.5257 0.0000
# 6 0.0000 0.0000 0.0000 -1.3749 0.0000 37.0320
#
#
#
# Elastic Compliance Matrix: (Units=1/GPa)
#
#
# Indices 1 2 3 4 5 6 
#
# 1 0.006428 -0.000155 -0.002741 0.000000 0.009306 0.000000
# 2 -0.000155 0.011143 -0.007251 0.000000 0.008202 0.000000
# 3 -0.002741 -0.007251 0.025558 0.000000 -0.002717 0.000000
# 4 0.000000 0.000000 0.000000 0.099751 0.000000 0.003703
# 5 0.009306 0.008202 -0.002717 0.000000 0.079258 0.000000
# 6 0.000000 0.000000 0.000000 0.003703 0.000000 0.027141
#
#
# Mechanical properties :
#
#
# Convention : Reuss Voigt Hill
#
# Bulk Modulus (GPa) = 43.79106 69.69147 56.74126
# Shear Modulus (GPa) = 18.03852 31.36962 24.70407
#
# Velocity S-wave (km/s) = 2.91628 3.84577 3.41281
# Velocity P-wave (km/s) = 5.65560 7.25103 6.50243
#
# Compressibility (1/GPa) = 0.02283571
#
# Stress axis : x y z
#
# Youngs Moduli (GPa) = 155.57122 89.73906 39.12686
#
# Poissons Ratio (x) = 0.01391 0.10725
# Poissons Ratio (y) = 0.02412 0.28370
# Poissons Ratio (z) = 0.42643 0.65067
#
# Static dielectric constant tensor:
#      x y z
#    x 5.293040 0.000000 -0.574950 
#    y 0.000000 3.747540 0.000000 
#    z -0.574950 0.000000 3.353320 
# 
# 
# High freq. dielectric constant tensor:
#      x y z
#    x 1.874410 0.000000 -0.022070 
#    y 0.000000 1.844420 0.000000 
#    z -0.022070 0.000000 1.754140 
# 
# From -- ./inp_files/54255.got.cif
#   From: 2010.03.12/outbox.cif.g09.slc.cpg/sg5_28_cif.got.tgz:54255.got - 2010.03.31 09:47:26.
