data_PCOD8049975
_publ_section_title
;
Structure prediction by ZEFSAII (Michael W. Deem and Ramdas Pophale) SiO2 
 PCOD8049975
Probable space group: C 2
;
_chemical_formula_sum "Si O2"
_cell_formula_units_Z 30
_cell_length_a 15.508584
_cell_length_b 11.271490
_cell_length_c 18.039648
_cell_angle_alpha 90.000000
_cell_angle_beta 152.165700
_cell_angle_gamma 90.000000
_cell_volume 1472.381642
_symmetry_space_group_name_H-M "C 2"
_symmetry_group_IT_number 5
_symmetry_cell_setting 'monoclinic'
loop_
_space_group_symop_operation_xyz
x,y,z
-x,y,-z
1/2+x,1/2+y,z
1/2-x,1/2+y,-z
loop_
_atom_site_type_symbol
_atom_site_label
_atom_site_fract_x
_atom_site_fract_y
_atom_site_fract_z
Si Si1 0.280756 0.016720 0.680664
Si Si2 0.476555 0.562579 0.821053
Si Si3 0.352843 0.797562 0.651606
Si Si4 0.404437 0.563396 0.318431
Si Si5 0.000000 0.975179 0.000000
Si Si6 0.719841 0.794844 0.852821
Si Si7 0.625676 0.164102 0.900230
Si Si8 0.026901 0.871474 0.298351
O O1 0.266594 0.029797 0.758307
O O2 0.451627 0.078965 0.771669
O O3 0.098916 0.071659 0.506693
O O4 0.291412 0.876870 0.674079
O O5 0.358709 0.664389 0.689322
O O6 0.441437 0.553561 0.883301
O O7 0.420085 0.438908 0.738205
O O8 0.693373 0.586291 0.975274
O O9 0.552008 0.844562 0.775170
O O10 0.207015 0.816550 0.474496
O O11 0.371757 0.696043 0.267749
O O12 0.411728 0.466164 0.259013
O O13 0.819219 0.897243 0.881654
O O14 0.872172 0.734446 0.020690
O O15 0.604893 0.259658 0.818394
#
# Coordination Sequence:
#
# PCOD8049975 Si02
#       8
#     4   4   4   4   2   4   4   4
#     4  10  22  38  63  96 122 166 204 268 315 372
#     4  11  25  43  63 100 129 169 215 266 321 389
#     4  10  23  42  68  88 130 172 216 256 319 384
#     4  10  21  39  62  93 128 157 218 258 306 376
#     4  12  24  42  64  96 142 164 208 274 324 382
#     4  11  21  40  62  91 124 169 210 261 315 378
#     4  11  22  38  67  92 126 164 218 256 325 377
#     4  11  22  42  67  92 127 171 215 266 311 380
#
# _framework density 20.375152
#
# number of rings (size 3 to 8) (size 9 to 14) (size 15 to 20)
#    0.000    1.333    4.000    2.400    3.733    1.067 
#    0.000    0.000    0.000    0.000    0.000    0.000 
#    0.000    0.000    0.000    0.000    0.000    0.000 
#
# Total GULP energy -185953.370670 kJ/mol
# GULP energy per Si atom -12396.891378 kJ/mol
# Density = 2.032878 g / cm^3
# Si number density = 20.375152 Si / 1000 Ang^3
#
#
#
# Elastic Constant Matrix: (Units=GPa)
#
#
# Indices 1 2 3 4 5 6 
#
# 1 103.2708 33.7222 31.6323 0.0011 -14.2905 -0.0006
# 2 33.7222 88.1374 53.6839 0.0021 -3.2413 -0.0016
# 3 31.6323 53.6839 74.7440 0.0003 -4.1876 -0.0016
# 4 0.0011 0.0021 0.0003 40.2949 0.0005 -3.0030
# 5 -14.2905 -3.2413 -4.1876 0.0005 25.8159 -0.0008
# 6 -0.0006 -0.0016 -0.0016 -3.0030 -0.0008 31.0149
#
#
#
# Elastic Compliance Matrix: (Units=1/GPa)
#
#
# Indices 1 2 3 4 5 6 
#
# 1 0.012290 -0.002699 -0.002927 0.000000 0.005990 0.000000
# 2 -0.002699 0.020763 -0.013834 -0.000001 -0.001131 0.000000
# 3 -0.002927 -0.013834 0.024589 0.000001 0.000631 0.000001
# 4 0.000000 -0.000001 0.000001 0.024997 -0.000001 0.002420
# 5 0.005990 -0.001131 0.000631 -0.000001 0.042012 0.000001
# 6 0.000000 0.000000 0.000001 0.002420 0.000001 0.032477
#
#
# Mechanical properties :
#
#
# Convention : Reuss Voigt Hill
#
# Bulk Modulus (GPa) = 53.41284 56.02545 54.71914
# Shear Modulus (GPa) = 24.71702 29.23272 26.97487
#
# Velocity S-wave (km/s) = 3.48673 3.79188 3.64251
# Velocity P-wave (km/s) = 6.51777 6.83578 6.67867
#
# Compressibility (1/GPa) = 0.01872209
#
# Stress axis : x y z
#
# Youngs Moduli (GPa) = 81.36649 48.16204 40.66826
#
# Poissons Ratio (x) = 0.13000 0.11904
# Poissons Ratio (y) = 0.21962 0.56260
# Poissons Ratio (z) = 0.23816 0.66627
#
# Static dielectric constant tensor:
#      x y z
#    x 3.892100 0.000000 -0.154400 
#    y 0.000000 3.708420 0.000000 
#    z -0.154400 0.000000 3.740880 
# 
# 
# High freq. dielectric constant tensor:
#      x y z
#    x 1.792990 0.000000 -0.011090 
#    y 0.000000 1.800940 0.000000 
#    z -0.011090 0.000000 1.798010 
# 
# From -- ./inp_files/30945.got.cif
#   From: 2010.03.12/outbox.cif.g09.slc.cpg/sg5_16_cif.got.tgz:30945.got - 2010.03.31 09:47:26.
