data_PCOD8049253
_publ_section_title
;
Structure prediction by ZEFSAII (Michael W. Deem and Ramdas Pophale) SiO2 
 PCOD8049253
Probable space group: C 2
;
_chemical_formula_sum "Si O2"
_cell_formula_units_Z 30
_cell_length_a 16.288789
_cell_length_b 13.962383
_cell_length_c 11.604110
_cell_angle_alpha 90.000000
_cell_angle_beta 147.937684
_cell_angle_gamma 90.000000
_cell_volume 1400.957269
_symmetry_space_group_name_H-M "C 2"
_symmetry_group_IT_number 5
_symmetry_cell_setting 'monoclinic'
loop_
_space_group_symop_operation_xyz
x,y,z
-x,y,-z
1/2+x,1/2+y,z
1/2-x,1/2+y,-z
loop_
_atom_site_type_symbol
_atom_site_label
_atom_site_fract_x
_atom_site_fract_y
_atom_site_fract_z
Si Si1 0.406302 0.122290 0.775271
Si Si2 0.500000 0.413380 0.000000
Si Si3 0.343941 0.483251 0.261309
Si Si4 0.080387 0.304403 0.706454
Si Si5 0.838526 0.407141 0.758926
Si Si6 0.184186 0.642699 0.959829
Si Si7 0.267654 0.802354 0.454464
Si Si8 0.709468 0.477624 0.053622
O O1 0.252844 0.187719 0.581572
O O2 0.358714 0.010960 0.721143
O O3 0.500000 0.152737 0.000000
O O4 0.503300 0.154567 0.774858
O O5 0.635558 0.350064 0.217711
O O6 0.578147 0.480824 0.995701
O O7 0.500000 0.521677 0.500000
O O8 0.271063 0.405715 0.259732
O O9 0.234377 0.576409 0.128529
O O10 0.365555 0.441458 0.157449
O O11 0.215532 0.239410 0.922242
O O12 0.155826 0.403601 0.752903
O O13 0.000000 0.254664 0.500000
O O14 0.944522 0.328644 0.634129
O O15 0.754123 0.336862 0.569762
O O16 0.000000 0.367627 0.000000
O O17 0.217239 0.584119 0.879746
#
# Coordination Sequence:
#
# PCOD8049253 Si02
#       8
#     4   2   4   4   4   4   4   4
#     4  11  19  40  65  96 128 165 219 273 311 374
#     4  12  22  42  60 100 134 168 212 266 334 378
#     4  10  20  37  63  93 121 160 211 257 317 363
#     4  12  22  39  65  94 126 166 219 267 314 371
#     4  11  22  42  68  92 129 167 215 264 319 380
#     4  10  22  38  64  93 125 164 212 267 316 366
#     4  12  25  36  67 100 130 165 214 271 323 382
#     4  10  23  41  64  93 133 166 209 269 318 383
#
# _framework density 21.413927999999999
#
# number of rings (size 3 to 8) (size 9 to 14) (size 15 to 20)
#    0.800    0.267    4.667    4.400    1.867    0.000 
#    0.000    0.000   11.733    0.800    0.000    0.000 
#    0.000    0.000    0.000    0.000    0.000    0.000 
#
# Total GULP energy -185871.995146 kJ/mol
# GULP energy per Si atom -12391.466343 kJ/mol
# Density = 2.136519 g / cm^3
# Si number density = 21.413928 Si / 1000 Ang^3
#
#
#
# Elastic Constant Matrix: (Units=GPa)
#
#
# Indices 1 2 3 4 5 6 
#
# 1 143.3933 17.3015 18.4981 0.0000 1.7244 0.0000
# 2 17.3015 72.3136 21.9026 0.0000 -5.6612 0.0000
# 3 18.4981 21.9026 64.9004 0.0000 -7.3486 0.0000
# 4 0.0000 0.0000 0.0000 -7.8638 0.0000 5.5208
# 5 1.7244 -5.6612 -7.3486 0.0000 33.1321 0.0000
# 6 0.0000 0.0000 0.0000 5.5208 0.0000 16.5843
#
#
#
# Elastic Compliance Matrix: (Units=1/GPa)
#
#
# Indices 1 2 3 4 5 6 
#
# 1 0.007372 -0.001305 -0.001774 0.000000 -0.001000 0.000000
# 2 -0.001305 0.015709 -0.004737 0.000000 0.001701 0.000000
# 3 -0.001774 -0.004737 0.017880 0.000000 0.003249 0.000000
# 4 0.000000 0.000000 0.000000 -0.103076 0.000000 0.034313
# 5 -0.001000 0.001701 0.003249 0.000000 0.031246 0.000000
# 6 0.000000 0.000000 0.000000 0.034313 0.000000 0.048875
#
#
# Mechanical properties :
#
#
# Convention : Reuss Voigt Hill
#
# Bulk Modulus (GPa) = 39.47933 44.00130 41.74032
# Shear Modulus (GPa) = 118.81805 23.23087 71.02446
#
# Velocity S-wave (km/s) = 7.45700 3.29728 5.76536
# Velocity P-wave (km/s) = 9.62386 5.92357 7.99085
#
# Compressibility (1/GPa) = 0.02532971
#
# Stress axis : x y z
#
# Youngs Moduli (GPa) = 135.64553 63.65875 55.92729
#
# Poissons Ratio (x) = 0.08306 0.09922
# Poissons Ratio (y) = 0.17699 0.26492
# Poissons Ratio (z) = 0.24065 0.30154
#
# Static dielectric constant tensor:
#      x y z
#    x 4.911880 0.000000 0.540780 
#    y 0.000000 3.482080 0.000000 
#    z 0.540780 0.000000 3.856490 
# 
# 
# High freq. dielectric constant tensor:
#      x y z
#    x 1.850440 0.000000 0.013350 
#    y 0.000000 1.810560 0.000000 
#    z 0.013350 0.000000 1.825720 
# 
# From -- ./inp_files/44934.got.cif
#   From: 2010.03.12/outbox.cif.g09.slc.cpg/sg5_23_cif.got.tgz:44934.got - 2010.03.31 09:47:26.
