data_PCOD8049795
_publ_section_title
;
Structure prediction by ZEFSAII (Michael W. Deem and Ramdas Pophale) SiO2 
 PCOD8049795
Probable space group: C 2
;
_chemical_formula_sum "Si O2"
_cell_formula_units_Z 30
_cell_length_a 5.193722
_cell_length_b 12.970938
_cell_length_c 22.699001
_cell_angle_alpha 90.000000
_cell_angle_beta 93.948517
_cell_angle_gamma 90.000000
_cell_volume 1525.543967
_symmetry_space_group_name_H-M "C 2"
_symmetry_group_IT_number 5
_symmetry_cell_setting 'monoclinic'
loop_
_space_group_symop_operation_xyz
x,y,z
-x,y,-z
1/2+x,1/2+y,z
1/2-x,1/2+y,-z
loop_
_atom_site_type_symbol
_atom_site_label
_atom_site_fract_x
_atom_site_fract_y
_atom_site_fract_z
Si Si1 0.540515 0.757790 0.214819
Si Si2 0.986379 0.435940 0.876795
Si Si3 0.496720 0.348225 0.068458
Si Si4 0.094385 0.668488 0.404159
Si Si5 0.945870 0.257042 0.648876
Si Si6 0.000000 0.809913 0.500000
Si Si7 0.523814 0.170152 0.160126
Si Si8 0.395871 0.931861 0.563524
O O1 0.542979 0.867111 0.182004
O O2 0.592095 0.781676 0.283508
O O3 0.269224 0.700212 0.203314
O O4 0.765667 0.684321 0.194044
O O5 0.766946 0.406582 0.920173
O O6 0.950114 0.553054 0.858323
O O7 0.264900 0.421245 0.910641
O O8 0.516356 0.238975 0.101361
O O9 0.500000 0.322884 0.000000
O O10 0.308308 0.682305 0.356776
O O11 0.181175 0.732116 0.464303
O O12 0.087904 0.549074 0.419253
O O13 0.808818 0.701716 0.379909
O O14 0.023602 0.363618 0.617183
O O15 0.109853 0.885413 0.552384
O O16 0.500000 0.909114 0.500000
#
# Coordination Sequence:
#
# PCOD8049795 Si02
#       8
#     4   4   4   4   4   2   4   4
#     4  10  22  40  61  85 119 152 203 249 292 345
#     4  10  21  39  62  86 119 166 202 239 295 344
#     4  10  21  36  58  94 128 155 198 245 287 346
#     4  11  24  39  61  86 117 150 190 234 299 355
#     4  11  25  41  59  91 117 149 196 251 291 353
#     4  10  22  38  60  84 116 150 186 230 286 364
#     4  10  21  40  63  87 118 164 197 242 296 344
#     4  11  23  39  63  85 116 153 189 233 303 363
#
# _framework density 19.665115
#
# number of rings (size 3 to 8) (size 9 to 14) (size 15 to 20)
#    0.000    1.600    2.000    2.000    1.867    3.200 
#    0.000    0.000    0.000    0.000    0.000    0.000 
#    0.000    0.000    0.000    0.000    0.000    0.000 
#
# Total GULP energy -185956.552044 kJ/mol
# GULP energy per Si atom -12397.103470 kJ/mol
# Density = 1.962036 g / cm^3
# Si number density = 19.665115 Si / 1000 Ang^3
#
#
#
# Elastic Constant Matrix: (Units=GPa)
#
#
# Indices 1 2 3 4 5 6 
#
# 1 87.2468 32.1906 19.9523 0.0000 -5.6413 0.0000
# 2 32.1906 136.0733 50.2434 0.0000 4.2163 0.0000
# 3 19.9523 50.2434 134.7344 0.0000 -6.8224 0.0000
# 4 0.0000 0.0000 0.0000 12.3227 0.0000 -0.7066
# 5 -5.6413 4.2163 -6.8224 0.0000 21.6346 0.0000
# 6 0.0000 0.0000 0.0000 -0.7066 0.0000 19.8489
#
#
#
# Elastic Compliance Matrix: (Units=1/GPa)
#
#
# Indices 1 2 3 4 5 6 
#
# 1 0.012934 -0.002944 -0.000628 0.000000 0.003748 0.000000
# 2 -0.002944 0.009351 -0.003234 0.000000 -0.003610 0.000000
# 3 -0.000628 -0.003234 0.008886 0.000000 0.003269 0.000000
# 4 0.000000 0.000000 0.000000 0.081317 0.000000 0.002895
# 5 0.003748 -0.003610 0.003269 0.000000 0.048934 0.000000
# 6 0.000000 0.000000 0.000000 0.002895 0.000000 0.050484
#
#
# Mechanical properties :
#
#
# Convention : Reuss Voigt Hill
#
# Bulk Modulus (GPa) = 56.94693 62.53633 59.74163
# Shear Modulus (GPa) = 21.61024 27.80578 24.70801
#
# Velocity S-wave (km/s) = 3.31858 3.76435 3.54847
# Velocity P-wave (km/s) = 6.61099 7.12485 6.87272
#
# Compressibility (1/GPa) = 0.01756021
#
# Stress axis : x y z
#
# Youngs Moduli (GPa) = 77.31608 106.93527 112.53064
#
# Poissons Ratio (x) = 0.31483 0.07063
# Poissons Ratio (y) = 0.22763 0.36393
# Poissons Ratio (z) = 0.04853 0.34583
#
# Static dielectric constant tensor:
#      x y z
#    x 3.851540 0.000000 -0.036860 
#    y 0.000000 3.458010 0.000000 
#    z -0.036860 0.000000 3.568790 
# 
# 
# High freq. dielectric constant tensor:
#      x y z
#    x 1.777900 0.000000 -0.005420 
#    y 0.000000 1.768210 0.000000 
#    z -0.005420 0.000000 1.765780 
# 
# From -- ./inp_files/64020.got.cif
#   From: 2010.03.12/outbox.cif.g09.slc.cpg/sg5_33_cif.got.tgz:64020.got - 2010.03.31 09:47:26.
