data_PCOD8049584
_publ_section_title
;
Structure prediction by ZEFSAII (Michael W. Deem and Ramdas Pophale) SiO2 
 PCOD8049584
Probable space group: C 2
;
_chemical_formula_sum "Si O2"
_cell_formula_units_Z 20
_cell_length_a 27.211375
_cell_length_b 5.189306
_cell_length_c 7.519566
_cell_angle_alpha 90.000000
_cell_angle_beta 133.123718
_cell_angle_gamma 90.000000
_cell_volume 775.003441
_symmetry_space_group_name_H-M "C 2"
_symmetry_group_IT_number 5
_symmetry_cell_setting 'monoclinic'
loop_
_space_group_symop_operation_xyz
x,y,z
-x,y,-z
1/2+x,1/2+y,z
1/2-x,1/2+y,-z
loop_
_atom_site_type_symbol
_atom_site_label
_atom_site_fract_x
_atom_site_fract_y
_atom_site_fract_z
Si Si1 0.145716 0.835150 0.368346
Si Si2 0.407182 0.114888 0.419974
Si Si3 0.714358 0.793521 0.973659
Si Si4 0.943876 0.617590 0.125232
Si Si5 0.822186 0.337917 0.727773
O O1 0.130339 0.813781 0.540491
O O2 0.195021 0.602326 0.422067
O O3 0.184912 0.098921 0.424809
O O4 0.076251 0.820878 0.079680
O O5 0.360525 0.861410 0.282698
O O6 0.421471 0.240355 0.261918
O O7 0.478010 0.036066 0.685824
O O8 0.767768 0.002310 0.033236
O O9 0.723124 0.812134 0.208438
O O10 0.900685 0.357103 0.986134
#
# Coordination Sequence:
#
# PCOD8049584 Si02
#       5
#     4   4   4   4   4
#     4  10  20  41  63 104 132 164 209 278 332 397
#     4  10  20  42  69  98 131 182 218 261 347 388
#     4  11  24  44  68  96 131 182 232 278 321 394
#     4   8  20  41  64 103 134 168 211 274 322 417
#     4   9  21  41  65  92 140 159 211 279 328 381
#
# _framework density 25.806338
#
# number of rings (size 3 to 8) (size 9 to 14) (size 15 to 20)
#    1.200    1.200    0.000    1.800    0.000    1.600 
#   14.400    6.000    0.000    0.000    0.000    0.000 
#    0.000    0.000    0.000    0.000    0.000    0.000 
#
# Total GULP energy -123903.111375 kJ/mol
# GULP energy per Si atom -12390.311137 kJ/mol
# Density = 2.574760 g / cm^3
# Si number density = 25.806338 Si / 1000 Ang^3
#
#
#
# Elastic Constant Matrix: (Units=GPa)
#
#
# Indices 1 2 3 4 5 6 
#
# 1 138.7963 29.1133 19.0124 0.0000 -17.7038 0.0000
# 2 29.1133 111.7764 5.1458 0.0000 -20.1667 0.0000
# 3 19.0124 5.1458 102.0473 0.0000 -5.4666 0.0000
# 4 0.0000 0.0000 0.0000 11.7441 0.0000 -22.7612
# 5 -17.7038 -20.1667 -5.4666 0.0000 41.7473 0.0000
# 6 0.0000 0.0000 0.0000 -22.7612 0.0000 22.7547
#
#
#
# Elastic Compliance Matrix: (Units=1/GPa)
#
#
# Indices 1 2 3 4 5 6 
#
# 1 0.008028 -0.001586 -0.001283 0.000000 0.002470 0.000000
# 2 -0.001586 0.010120 0.000011 0.000000 0.004217 0.000000
# 3 -0.001283 0.000011 0.010080 0.000000 0.000781 0.000000
# 4 0.000000 0.000000 0.000000 -0.090714 0.000000 -0.090740
# 5 0.002470 0.004217 0.000781 0.000000 0.027141 0.000000
# 6 0.000000 0.000000 0.000000 -0.090740 0.000000 -0.046819
#
#
# Mechanical properties :
#
#
# Convention : Reuss Voigt Hill
#
# Bulk Modulus (GPa) = 44.42279 51.01812 47.72045
# Shear Modulus (GPa) = -72.52426 35.20578 -18.65924
#
# Velocity S-wave (km/s) = -5.30700 3.69756 -2.69187
# Velocity P-wave (km/s) = 4.50567 6.16780 2.97831
#
# Compressibility (1/GPa) = 0.02251097
#
# Stress axis : x y z
#
# Youngs Moduli (GPa) = 124.55723 98.81438 99.20856
#
# Poissons Ratio (x) = 0.15675 0.12733
# Poissons Ratio (y) = 0.19759 -0.00111
# Poissons Ratio (z) = 0.15986 -0.00110
#
# Static dielectric constant tensor:
#      x y z
#    x 4.682140 0.000000 -0.051830 
#    y 0.000000 3.912280 0.000000 
#    z -0.051830 0.000000 4.889680 
# 
# 
# High freq. dielectric constant tensor:
#      x y z
#    x 2.036400 0.000000 -0.000880 
#    y 0.000000 1.984270 0.000000 
#    z -0.000880 0.000000 2.066520 
# 
# From -- ./inp_files/31327.got.cif
#   From: 2010.03.12/outbox.cif.g09.slc.cpg/sg5_16_cif.got.tgz:31327.got - 2010.03.31 09:47:26.
