data_PCOD8049654
_publ_section_title
;
Structure prediction by ZEFSAII (Michael W. Deem and Ramdas Pophale) SiO2 
 PCOD8049654
Probable space group: C 2
;
_chemical_formula_sum "Si O2"
_cell_formula_units_Z 24
_cell_length_a 11.264020
_cell_length_b 13.975120
_cell_length_c 13.679226
_cell_angle_alpha 90.000000
_cell_angle_beta 32.761723
_cell_angle_gamma 90.000000
_cell_volume 1165.266792
_symmetry_space_group_name_H-M "C 2"
_symmetry_group_IT_number 5
_symmetry_cell_setting 'monoclinic'
loop_
_space_group_symop_operation_xyz
x,y,z
-x,y,-z
1/2+x,1/2+y,z
1/2-x,1/2+y,-z
loop_
_atom_site_type_symbol
_atom_site_label
_atom_site_fract_x
_atom_site_fract_y
_atom_site_fract_z
Si Si1 0.466455 0.209690 0.293680
Si Si2 0.500000 0.477169 0.000000
Si Si3 0.318376 0.777437 0.199695
Si Si4 0.500000 0.423136 0.500000
Si Si5 0.741937 0.888916 0.351813
Si Si6 0.134169 0.122924 0.064267
Si Si7 0.136001 0.046780 0.587483
O O1 0.614037 0.228540 0.286540
O O2 0.372826 0.308978 0.320114
O O3 0.277346 0.135180 0.450860
O O4 0.625178 0.169504 0.098525
O O5 0.348328 0.410491 0.172665
O O6 0.645092 0.543607 0.970822
O O7 0.437018 0.697694 0.182346
O O8 0.221177 0.860687 0.334486
O O9 0.500000 0.821187 0.000000
O O10 0.543394 0.487064 0.562882
O O11 0.500000 0.849549 0.500000
O O12 0.726563 0.983568 0.430130
O O13 0.085039 0.080421 0.204418
#
# Coordination Sequence:
#
# PCOD8049654 Si02
#       7
#     4   2   4   2   4   4   4
#     4  11  22  44  64  94 129 171 210 263 323 374
#     4  10  20  42  66  94 124 162 220 270 308 374
#     4  10  21  41  69  93 121 167 220 268 311 371
#     4  12  24  44  60  98 134 168 210 266 324 384
#     4  11  25  42  66  97 131 169 214 262 320 383
#     4  10  21  42  69  94 123 168 220 266 314 375
#     4  11  26  40  68  93 131 171 216 260 321 380
#
# _framework density 20.596143000000001
#
# number of rings (size 3 to 8) (size 9 to 14) (size 15 to 20)
#    0.000    1.333    4.167    2.000    3.500    2.667 
#    6.000    0.000    0.000    0.000    0.000    0.000 
#    0.000    0.000    0.000    0.000    0.000    0.000 
#
# Total GULP energy -148810.678080 kJ/mol
# GULP energy per Si atom -12400.889840 kJ/mol
# Density = 2.054927 g / cm^3
# Si number density = 20.596143 Si / 1000 Ang^3
#
#
#
# Elastic Constant Matrix: (Units=GPa)
#
#
# Indices 1 2 3 4 5 6 
#
# 1 61.9114 26.4878 40.6088 -0.0048 22.4486 0.0025
# 2 26.4878 105.7695 60.2979 -0.0116 17.4277 0.0058
# 3 40.6088 60.2979 107.4569 -0.0216 19.8830 0.0059
# 4 -0.0048 -0.0116 -0.0216 -37.7793 0.0108 -13.3109
# 5 22.4486 17.4277 19.8830 0.0108 30.5746 -0.0019
# 6 0.0025 0.0058 0.0059 -13.3109 -0.0019 12.2242
#
#
#
# Elastic Compliance Matrix: (Units=1/GPa)
#
#
# Indices 1 2 3 4 5 6 
#
# 1 0.026129 -0.000081 -0.007148 -0.000001 -0.014490 -0.000006
# 2 -0.000081 0.014190 -0.007328 0.000000 -0.003263 -0.000004
# 3 -0.007148 -0.007328 0.016342 -0.000004 -0.001202 -0.000007
# 4 -0.000001 0.000000 -0.000004 -0.019130 0.000009 -0.020831
# 5 -0.014490 -0.003263 -0.001202 0.000009 0.045988 0.000022
# 6 -0.000006 -0.000004 -0.000007 -0.020831 0.000022 0.059122
#
#
# Mechanical properties :
#
#
# Convention : Reuss Voigt Hill
#
# Bulk Modulus (GPa) = 36.30148 58.88076 47.59112
# Shear Modulus (GPa) = 27.63388 10.85346 19.24367
#
# Velocity S-wave (km/s) = 3.66690 2.29806 3.06000
# Velocity P-wave (km/s) = 5.96589 5.97426 5.97008
#
# Compressibility (1/GPa) = 0.02754708
#
# Stress axis : x y z
#
# Youngs Moduli (GPa) = 38.27148 70.47100 61.19293
#
# Poissons Ratio (x) = 0.00572 0.43739
# Poissons Ratio (y) = 0.00310 0.44843
# Poissons Ratio (z) = 0.27355 0.51642
#
# Static dielectric constant tensor:
#      x y z
#    x 3.575310 0.000000 0.146010 
#    y 0.000000 3.834480 0.000020 
#    z 0.146010 0.000020 4.007840 
# 
# 
# High freq. dielectric constant tensor:
#      x y z
#    x 1.788490 0.000000 0.012350 
#    y 0.000000 1.808950 0.000000 
#    z 0.012350 0.000000 1.821200 
# 
# From -- ./inp_files/19389.got.cif
#   From: 2010.03.12/outbox.cif.g09.slc.cpg/sg5_10_cif.got.tgz:19389.got - 2010.03.31 09:47:26.
