data_PCOD8049350
_publ_section_title
;
Structure prediction by ZEFSAII (Michael W. Deem and Ramdas Pophale) SiO2 
 PCOD8049350
Probable space group: C 2
;
_chemical_formula_sum "Si O2"
_cell_formula_units_Z 20
_cell_length_a 8.861003
_cell_length_b 14.272035
_cell_length_c 11.522182
_cell_angle_alpha 90.000000
_cell_angle_beta 45.638158
_cell_angle_gamma 90.000000
_cell_volume 1041.770828
_symmetry_space_group_name_H-M "C 2"
_symmetry_group_IT_number 5
_symmetry_cell_setting 'monoclinic'
loop_
_space_group_symop_operation_xyz
x,y,z
-x,y,-z
1/2+x,1/2+y,z
1/2-x,1/2+y,-z
loop_
_atom_site_type_symbol
_atom_site_label
_atom_site_fract_x
_atom_site_fract_y
_atom_site_fract_z
Si Si1 0.927027 0.958360 0.408001
Si Si2 0.846927 0.621979 0.474271
Si Si3 0.000000 0.732743 0.000000
Si Si4 0.917634 0.124298 0.799727
Si Si5 0.500000 0.704698 0.000000
Si Si6 0.947988 0.774904 0.775492
O O1 0.921531 0.852341 0.365762
O O2 0.000000 0.960130 0.500000
O O3 0.087257 0.014733 0.235770
O O4 0.697773 0.011084 0.527724
O O5 0.621582 0.671016 0.626392
O O6 0.000000 0.632361 0.500000
O O7 0.948428 0.673717 0.309133
O O8 0.795250 0.669806 0.131411
O O9 0.032216 0.795626 0.097584
O O10 0.946462 0.135968 0.922105
O O11 0.298227 0.772181 0.130182
#
# Coordination Sequence:
#
# PCOD8049350 Si02
#       6
#     4   4   2   4   2   4
#     4  10  22  37  60  91 114 155 208 241 289 346
#     4  10  20  41  62  87 118 158 200 244 291 351
#     4  10  22  38  58  88 124 160 190 248 300 354
#     4   9  21  38  60  87 119 160 195 242 302 344
#     4  10  20  38  64  82 120 164 190 246 306 350
#     4  11  21  39  62  88 121 157 202 242 298 353
#
# _framework density 19.198080999999998
#
# number of rings (size 3 to 8) (size 9 to 14) (size 15 to 20)
#    1.200    0.800    2.000    1.800    0.000    1.600 
#    3.600    0.000    0.000    0.000    0.000    0.000 
#    0.000    0.000    0.000    0.000    0.000    0.000 
#
# Total GULP energy -123892.732210 kJ/mol
# GULP energy per Si atom -12389.273221 kJ/mol
# Density = 1.915439 g / cm^3
# Si number density = 19.198081 Si / 1000 Ang^3
#
#
#
# Elastic Constant Matrix: (Units=GPa)
#
#
# Indices 1 2 3 4 5 6 
#
# 1 114.6612 35.4485 44.7063 -0.0002 0.6940 0.0003
# 2 35.4485 92.4293 36.3658 -0.0001 2.8746 0.0001
# 3 44.7063 36.3658 79.6686 -0.0005 -7.6786 0.0001
# 4 -0.0002 -0.0001 -0.0005 34.3559 0.0002 0.6843
# 5 0.6940 2.8746 -7.6786 0.0002 47.7589 -0.0002
# 6 0.0003 0.0001 0.0001 0.6843 -0.0002 14.4168
#
#
#
# Elastic Compliance Matrix: (Units=1/GPa)
#
#
# Indices 1 2 3 4 5 6 
#
# 1 0.011589 -0.002220 -0.005579 0.000000 -0.000932 0.000000
# 2 -0.002220 0.013765 -0.005195 0.000000 -0.001631 0.000000
# 3 -0.005579 -0.005195 0.018377 0.000000 0.003348 0.000000
# 4 0.000000 0.000000 0.000000 0.029135 0.000000 -0.001383
# 5 -0.000932 -0.001631 0.003348 0.000000 0.021589 0.000000
# 6 0.000000 0.000000 0.000000 -0.001383 0.000000 0.069429
#
#
# Mechanical properties :
#
#
# Convention : Reuss Voigt Hill
#
# Bulk Modulus (GPa) = 56.36327 57.75559 57.05943
# Shear Modulus (GPa) = 25.53812 30.65555 28.09683
#
# Velocity S-wave (km/s) = 3.65121 4.00034 3.82975
# Velocity P-wave (km/s) = 6.87005 7.17539 7.02438
#
# Compressibility (1/GPa) = 0.01774205
#
# Stress axis : x y z
#
# Youngs Moduli (GPa) = 86.28981 72.64720 54.41661
#
# Poissons Ratio (x) = 0.16131 0.30361
# Poissons Ratio (y) = 0.19160 0.28267
# Poissons Ratio (z) = 0.48145 0.37737
#
# Static dielectric constant tensor:
#      x y z
#    x 3.554370 0.000000 -0.062290 
#    y 0.000000 3.199010 0.000000 
#    z -0.062290 0.000000 3.602570 
# 
# 
# High freq. dielectric constant tensor:
#      x y z
#    x 1.758140 0.000000 0.006150 
#    y 0.000000 1.709350 0.000000 
#    z 0.006150 0.000000 1.751370 
# 
# From -- ./inp_files/14634.got.cif
#   From: 2010.03.12/outbox.cif.g09.slc.cpg/sg5_8_cif.got.tgz:14634.got - 2010.03.31 09:47:26.
