data_PCOD8049908
_publ_section_title
;
Structure prediction by ZEFSAII (Michael W. Deem and Ramdas Pophale) SiO2 
 PCOD8049908
Probable space group: C 2
;
_chemical_formula_sum "Si O2"
_cell_formula_units_Z 30
_cell_length_a 16.422748
_cell_length_b 9.252970
_cell_length_c 20.451244
_cell_angle_alpha 90.000000
_cell_angle_beta 150.398757
_cell_angle_gamma 90.000000
_cell_volume 1535.108713
_symmetry_space_group_name_H-M "C 2"
_symmetry_group_IT_number 5
_symmetry_cell_setting 'monoclinic'
loop_
_space_group_symop_operation_xyz
x,y,z
-x,y,-z
1/2+x,1/2+y,z
1/2-x,1/2+y,-z
loop_
_atom_site_type_symbol
_atom_site_label
_atom_site_fract_x
_atom_site_fract_y
_atom_site_fract_z
Si Si1 0.938739 0.471550 0.065507
Si Si2 0.435430 0.549997 0.198524
Si Si3 0.048037 0.533196 0.779588
Si Si4 0.384351 0.655993 0.022519
Si Si5 0.000000 0.933004 0.000000
Si Si6 0.696378 0.216479 0.221585
Si Si7 0.508565 0.778321 0.656933
Si Si8 0.330141 0.283910 0.646505
O O1 0.956992 0.444972 0.155912
O O2 0.952364 0.310482 0.044964
O O3 0.085780 0.570568 0.139155
O O4 0.760703 0.539118 0.923280
O O5 0.466313 0.612750 0.148156
O O6 0.520014 0.659139 0.307801
O O7 0.527398 0.398203 0.270117
O O8 0.079580 0.423779 0.741450
O O9 0.881263 0.626018 0.654528
O O10 0.186226 0.657431 0.887195
O O11 0.414093 0.530206 0.992908
O O12 0.132407 0.835365 0.127515
O O13 0.698013 0.276194 0.295626
O O14 0.881969 0.201536 0.323584
O O15 0.337687 0.828280 0.505789
#
# Coordination Sequence:
#
# PCOD8049908 Si02
#       8
#     4   4   4   4   2   4   4   4
#     4  10  22  39  63  89 131 154 200 276 325 364
#     4  11  22  38  64  94 121 164 218 257 320 366
#     4  10  21  38  63  92 120 162 213 258 315 369
#     4  11  21  38  62  93 126 158 202 273 320 374
#     4  12  22  36  64  90 124 156 208 260 316 378
#     4  11  24  40  62  96 124 165 210 258 321 375
#     4  12  23  40  64  92 126 173 215 254 304 389
#     4  11  23  42  62  90 131 171 211 256 306 382
#
# _framework density 19.542591000000002
#
# number of rings (size 3 to 8) (size 9 to 14) (size 15 to 20)
#    0.000    1.067    5.333    2.000    0.000    1.600 
#    0.000    0.000    0.000    0.000    3.467    0.000 
#    0.000    0.000    0.000    0.000    0.000    0.000 
#
# Total GULP energy -185932.997169 kJ/mol
# GULP energy per Si atom -12395.533145 kJ/mol
# Density = 1.949811 g / cm^3
# Si number density = 19.542591 Si / 1000 Ang^3
#
#
#
# Elastic Constant Matrix: (Units=GPa)
#
#
# Indices 1 2 3 4 5 6 
#
# 1 95.1658 48.9762 36.9421 -0.0002 -5.4456 0.0000
# 2 48.9762 134.2177 54.4105 -0.0006 -13.0256 -0.0001
# 3 36.9421 54.4105 107.9261 -0.0018 -5.4233 -0.0004
# 4 -0.0002 -0.0006 -0.0018 27.0818 -0.0003 -2.2704
# 5 -5.4456 -13.0256 -5.4233 -0.0003 29.9895 0.0000
# 6 0.0000 -0.0001 -0.0004 -2.2704 0.0000 36.2537
#
#
#
# Elastic Compliance Matrix: (Units=1/GPa)
#
#
# Indices 1 2 3 4 5 6 
#
# 1 0.013536 -0.003817 -0.002693 0.000000 0.000313 0.000000
# 2 -0.003817 0.010764 -0.003956 0.000000 0.003267 0.000000
# 3 -0.002693 -0.003956 0.012182 0.000001 -0.000004 0.000000
# 4 0.000000 0.000000 0.000001 0.037120 0.000000 0.002325
# 5 0.000313 0.003267 -0.000004 0.000000 0.034820 0.000000
# 6 0.000000 0.000000 0.000000 0.002325 0.000000 0.027729
#
#
# Mechanical properties :
#
#
# Convention : Reuss Voigt Hill
#
# Bulk Modulus (GPa) = 64.31198 68.66301 66.48750
# Shear Modulus (GPa) = 30.81361 31.79704 31.30532
#
# Velocity S-wave (km/s) = 3.97513 4.03806 4.00672
# Velocity P-wave (km/s) = 7.35180 7.54670 7.44988
#
# Compressibility (1/GPa) = 0.01554920
#
# Stress axis : x y z
#
# Youngs Moduli (GPa) = 73.87855 92.90051 82.09104
#
# Poissons Ratio (x) = 0.35461 0.22108
# Poissons Ratio (y) = 0.28200 0.32475
# Poissons Ratio (z) = 0.19896 0.36752
#
# Static dielectric constant tensor:
#      x y z
#    x 3.636710 0.000000 0.017490 
#    y 0.000000 3.474800 0.000000 
#    z 0.017490 0.000000 3.432620 
# 
# 
# High freq. dielectric constant tensor:
#      x y z
#    x 1.757570 0.000000 -0.006630 
#    y 0.000000 1.766500 0.000000 
#    z -0.006630 0.000000 1.756180 
# 
# From -- ./inp_files/66598.got.cif
#   From: 2010.03.12/outbox.cif.g09.slc.cpg/sg5_34_cif.got.tgz:66598.got - 2010.03.31 09:47:26.
