data_PCOD8049418
_publ_section_title
;
Structure prediction by ZEFSAII (Michael W. Deem and Ramdas Pophale) SiO2 
 PCOD8049418
Probable space group: C 2
;
_chemical_formula_sum "Si O2"
_cell_formula_units_Z 24
_cell_length_a 15.793557
_cell_length_b 16.268309
_cell_length_c 8.715399
_cell_angle_alpha 90.000000
_cell_angle_beta 145.459417
_cell_angle_gamma 90.000000
_cell_volume 1269.652604
_symmetry_space_group_name_H-M "C 2"
_symmetry_group_IT_number 5
_symmetry_cell_setting 'monoclinic'
loop_
_space_group_symop_operation_xyz
x,y,z
-x,y,-z
1/2+x,1/2+y,z
1/2-x,1/2+y,-z
loop_
_atom_site_type_symbol
_atom_site_label
_atom_site_fract_x
_atom_site_fract_y
_atom_site_fract_z
Si Si1 0.451243 0.028350 0.597636
Si Si2 0.102695 0.365397 0.946734
Si Si3 0.202507 0.317595 0.414817
Si Si4 0.110459 0.836310 0.802568
Si Si5 0.144946 0.941985 0.141053
Si Si6 0.452992 0.199770 0.756246
O O1 0.500000 0.051778 0.500000
O O2 0.469282 0.105849 0.733757
O O3 0.551920 0.954953 0.814127
O O4 0.277516 0.006537 0.335601
O O5 0.957822 0.304945 0.740679
O O6 0.177363 0.373655 0.225936
O O7 0.219466 0.325646 0.002672
O O8 0.316048 0.363038 0.697084
O O9 0.281170 0.231938 0.483660
O O10 0.000000 0.859526 0.500000
O O11 0.062217 0.751744 0.809883
O O12 0.105233 0.912361 0.911182
O O13 0.000000 0.985091 0.000000
O O14 0.500000 0.209494 0.000000
#
# Coordination Sequence:
#
# PCOD8049418 Si02
#       6
#     4   4   4   4   4   4
#     4  11  25  40  61  92 128 159 199 259 314 352
#     4  10  22  38  66  91 117 162 211 251 295 363
#     4  10  20  39  63  91 120 161 208 243 301 362
#     4  12  20  38  67  92 119 158 211 256 294 363
#     4  11  20  40  63  91 120 163 209 249 295 369
#     4  12  24  41  61  91 126 163 200 250 312 365
#
# _framework density 18.902808
#
# number of rings (size 3 to 8) (size 9 to 14) (size 15 to 20)
#    0.000    1.000    6.667    0.500    4.667    0.000 
#    3.000    0.000    0.000    0.000    0.000    0.000 
#    0.000    0.000    0.000    0.000    0.000    0.000 
#
# Total GULP energy -148798.384874 kJ/mol
# GULP energy per Si atom -12399.865406 kJ/mol
# Density = 1.885978 g / cm^3
# Si number density = 18.902808 Si / 1000 Ang^3
#
#
#
# Elastic Constant Matrix: (Units=GPa)
#
#
# Indices 1 2 3 4 5 6 
#
# 1 154.0001 44.5975 64.1730 0.0000 27.0978 0.0000
# 2 44.5975 85.7835 43.5859 0.0000 12.6753 0.0000
# 3 64.1730 43.5859 112.1793 0.0000 -0.6082 0.0000
# 4 0.0000 0.0000 0.0000 27.0072 0.0000 -7.4244
# 5 27.0978 12.6753 -0.6082 0.0000 49.2292 0.0000
# 6 0.0000 0.0000 0.0000 -7.4244 0.0000 47.4034
#
#
#
# Elastic Compliance Matrix: (Units=1/GPa)
#
#
# Indices 1 2 3 4 5 6 
#
# 1 0.010039 -0.001912 -0.005028 0.000000 -0.005096 0.000000
# 2 -0.001912 0.015640 -0.005000 0.000000 -0.003036 0.000000
# 3 -0.005028 -0.005000 0.013756 0.000000 0.004225 0.000000
# 4 0.000000 0.000000 0.000000 0.038693 0.000000 0.006060
# 5 -0.005096 -0.003036 0.004225 0.000000 0.023952 0.000000
# 6 0.000000 0.000000 0.000000 0.006060 0.000000 0.022045
#
#
# Mechanical properties :
#
#
# Convention : Reuss Voigt Hill
#
# Bulk Modulus (GPa) = 64.28031 72.96396 68.62214
# Shear Modulus (GPa) = 32.63965 38.03508 35.33736
#
# Velocity S-wave (km/s) = 4.15988 4.49055 4.32837
# Velocity P-wave (km/s) = 7.55991 8.09754 7.83334
#
# Compressibility (1/GPa) = 0.01555686
#
# Stress axis : x y z
#
# Youngs Moduli (GPa) = 99.61360 63.93866 72.69615
#
# Poissons Ratio (x) = 0.12222 0.36549
# Poissons Ratio (y) = 0.19042 0.36346
# Poissons Ratio (z) = 0.50083 0.31967
#
# Static dielectric constant tensor:
#      x y z
#    x 3.902150 0.000000 0.093210 
#    y 0.000000 3.106690 0.000000 
#    z 0.093210 0.000000 3.620550 
# 
# 
# High freq. dielectric constant tensor:
#      x y z
#    x 1.762140 0.000000 -0.000070 
#    y 0.000000 1.693430 0.000000 
#    z -0.000070 0.000000 1.748320 
# 
# From -- ./inp_files/24487.got.cif
#   From: 2010.03.12/outbox.cif.g09.slc.cpg/sg5_13_cif.got.tgz:24487.got - 2010.03.31 09:47:26.
