data_PCOD8049102
_publ_section_title
;
Structure prediction by ZEFSAII (Michael W. Deem and Ramdas Pophale) SiO2 
 PCOD8049102
Probable space group: C 2
;
_chemical_formula_sum "Si O2"
_cell_formula_units_Z 30
_cell_length_a 19.582683
_cell_length_b 14.654227
_cell_length_c 5.540808
_cell_angle_alpha 90.000000
_cell_angle_beta 62.964699
_cell_angle_gamma 90.000000
_cell_volume 1416.291513
_symmetry_space_group_name_H-M "C 2"
_symmetry_group_IT_number 5
_symmetry_cell_setting 'monoclinic'
loop_
_space_group_symop_operation_xyz
x,y,z
-x,y,-z
1/2+x,1/2+y,z
1/2-x,1/2+y,-z
loop_
_atom_site_type_symbol
_atom_site_label
_atom_site_fract_x
_atom_site_fract_y
_atom_site_fract_z
Si Si1 0.083893 0.440130 0.475674
Si Si2 0.272080 0.722695 0.439055
Si Si3 0.673871 0.381051 0.765653
Si Si4 0.587174 0.412216 0.408831
Si Si5 0.771183 0.549522 0.753621
Si Si6 0.850546 0.102248 0.687496
Si Si7 0.000000 0.364847 0.000000
Si Si8 0.115907 0.276984 0.118849
O O1 0.141026 0.522850 0.334650
O O2 0.069233 0.426985 0.785382
O O3 0.128460 0.348418 0.315750
O O4 0.000000 0.461071 0.500000
O O5 0.223259 0.787738 0.693308
O O6 0.220205 0.647025 0.390402
O O7 0.335429 0.663155 0.477578
O O8 0.315198 0.789778 0.182726
O O9 0.621064 0.371735 0.607284
O O10 0.726458 0.472791 0.663624
O O11 0.630732 0.382402 0.093076
O O12 0.500000 0.381560 0.500000
O O13 0.589985 0.520953 0.449991
O O14 0.728565 0.561360 0.077941
O O15 0.889269 0.170485 0.814730
O O16 0.968413 0.300654 0.841831
#
# Coordination Sequence:
#
# PCOD8049102 Si02
#       8
#     4   4   4   4   4   4   2   4
#     4  10  22  39  61  92 128 174 209 269 337 399
#     4  11  23  39  66  95 126 166 229 276 332 387
#     4  11  24  43  70 100 132 180 221 278 334 395
#     4  11  25  45  68  95 138 181 224 273 338 402
#     4  10  22  40  64  96 129 167 226 273 329 402
#     4  10  22  38  61  97 122 170 220 277 333 388
#     4  10  20  36  58  88 128 168 204 250 350 400
#     4  10  21  35  58  94 126 162 209 268 334 395
#
# _framework density 21.182078000000001
#
# number of rings (size 3 to 8) (size 9 to 14) (size 15 to 20)
#    0.000    1.600    1.333    2.800    7.467    4.800 
#    0.000    0.667    5.867    0.000    0.000    0.000 
#    0.000    0.000    0.000    0.000    0.000    0.000 
#
# Total GULP energy -185871.315586 kJ/mol
# GULP energy per Si atom -12391.421039 kJ/mol
# Density = 2.113387 g / cm^3
# Si number density = 21.182078 Si / 1000 Ang^3
#
#
#
# Elastic Constant Matrix: (Units=GPa)
#
#
# Indices 1 2 3 4 5 6 
#
# 1 76.4298 10.7033 24.4626 0.0000 -2.8191 0.0000
# 2 10.7033 72.4795 29.6372 0.0000 -10.7509 0.0000
# 3 24.4626 29.6372 109.3865 0.0000 4.9135 0.0000
# 4 0.0000 0.0000 0.0000 31.0022 0.0000 -5.7147
# 5 -2.8191 -10.7509 4.9135 0.0000 32.2789 0.0000
# 6 0.0000 0.0000 0.0000 -5.7147 0.0000 30.6814
#
#
#
# Elastic Compliance Matrix: (Units=1/GPa)
#
#
# Indices 1 2 3 4 5 6 
#
# 1 0.014211 -0.000617 -0.003079 0.000000 0.001504 0.000000
# 2 -0.000617 0.016722 -0.004673 0.000000 0.006227 0.000000
# 3 -0.003079 -0.004673 0.011255 0.000000 -0.003538 0.000000
# 4 0.000000 0.000000 0.000000 0.033403 0.000000 0.006222
# 5 0.001504 0.006227 -0.003538 0.000000 0.033724 0.000000
# 6 0.000000 0.000000 0.000000 0.006222 0.000000 0.033752
#
#
# Mechanical properties :
#
#
# Convention : Reuss Voigt Hill
#
# Bulk Modulus (GPa) = 39.28783 43.10022 41.19403
# Shear Modulus (GPa) = 29.71112 31.69200 30.70156
#
# Velocity S-wave (km/s) = 3.74927 3.87223 3.81124
# Velocity P-wave (km/s) = 6.10988 6.35483 6.23356
#
# Compressibility (1/GPa) = 0.02545318
#
# Stress axis : x y z
#
# Youngs Moduli (GPa) = 70.36760 59.80031 88.84706
#
# Poissons Ratio (x) = 0.03687 0.27352
# Poissons Ratio (y) = 0.04339 0.41514
# Poissons Ratio (z) = 0.21663 0.27942
#
# Static dielectric constant tensor:
#      x y z
#    x 3.674110 0.000000 0.158710 
#    y 0.000000 3.784170 0.000000 
#    z 0.158710 0.000000 4.080000 
# 
# 
# High freq. dielectric constant tensor:
#      x y z
#    x 1.818970 0.000000 0.009110 
#    y 0.000000 1.817220 0.000000 
#    z 0.009110 0.000000 1.838730 
# 
# From -- ./inp_files/8546.got.cif
#   From: 2010.03.12/outbox.cif.g09.slc.cpg/sg5_5_cif.got.tgz:8546.got - 2010.03.31 09:47:26.
