data_PCOD8049322
_publ_section_title
;
Structure prediction by ZEFSAII (Michael W. Deem and Ramdas Pophale) SiO2 
 PCOD8049322
Probable space group: C 2
;
_chemical_formula_sum "Si O2"
_cell_formula_units_Z 28
_cell_length_a 9.152891
_cell_length_b 33.057168
_cell_length_c 5.036886
_cell_angle_alpha 90.000000
_cell_angle_beta 61.634039
_cell_angle_gamma 90.000000
_cell_volume 1341.018183
_symmetry_space_group_name_H-M "C 2"
_symmetry_group_IT_number 5
_symmetry_cell_setting 'monoclinic'
loop_
_space_group_symop_operation_xyz
x,y,z
-x,y,-z
1/2+x,1/2+y,z
1/2-x,1/2+y,-z
loop_
_atom_site_type_symbol
_atom_site_label
_atom_site_fract_x
_atom_site_fract_y
_atom_site_fract_z
Si Si1 0.815723 0.986180 0.777527
Si Si2 0.614715 0.659241 0.144668
Si Si3 0.697296 0.803037 0.840727
Si Si4 0.609327 0.223831 0.158762
Si Si5 0.889946 0.070168 0.846953
Si Si6 0.307046 0.941996 0.611121
Si Si7 0.196542 0.351734 0.341319
O O1 0.698756 0.966319 0.659413
O O2 0.000000 0.984448 0.500000
O O3 0.764964 0.033186 0.882669
O O4 0.801063 0.962472 0.065550
O O5 0.500000 0.662633 0.500000
O O6 0.691522 0.613988 0.023170
O O7 0.500000 0.672830 0.000000
O O8 0.771240 0.688181 0.041318
O O9 0.783070 0.761042 0.829406
O O10 0.761132 0.819928 0.504358
O O11 0.500000 0.796250 0.000000
O O12 0.756666 0.836373 0.003459
O O13 0.500000 0.208089 0.500000
O O14 0.500000 0.236834 0.000000
O O15 0.000000 0.079486 0.500000
O O16 0.000000 0.055108 0.000000
O O17 0.500000 0.941024 0.500000
O O18 0.235532 0.896427 0.647864
O O19 0.000000 0.353011 0.500000
#
# Coordination Sequence:
#
# PCOD8049322 Si02
#       7
#     4   4   4   4   4   4   4
#     4  11  21  37  59  86 119 154 192 237 289 343
#     4  10  21  40  66  88 109 153 206 237 268 340
#     4  10  20  38  62  82 105 152 205 236 269 340
#     4  12  25  40  58  89 128 152 175 236 309 348
#     4   9  18  35  60  86 113 148 196 243 277 323
#     4  11  22  38  59  86 118 153 193 241 291 340
#     4   9  19  36  59  83 109 146 198 246 278 322
#
# _framework density 20.879656000000001
#
# number of rings (size 3 to 8) (size 9 to 14) (size 15 to 20)
#    0.000    1.714    0.000    5.571    0.000    4.000 
#    0.000    9.286    0.000    0.000    0.000    0.000 
#    0.000    0.000    0.000    0.000    0.000    0.000 
#
# Total GULP energy -173545.752317 kJ/mol
# GULP energy per Si atom -12396.125165 kJ/mol
# Density = 2.083213 g / cm^3
# Si number density = 20.879656 Si / 1000 Ang^3
#
#
#
# Elastic Constant Matrix: (Units=GPa)
#
#
# Indices 1 2 3 4 5 6 
#
# 1 84.6012 60.8279 29.2331 0.0000 23.4516 0.0000
# 2 60.8279 171.3270 35.0976 0.0000 5.4748 0.0000
# 3 29.2331 35.0976 97.9877 0.0000 18.7980 0.0000
# 4 0.0000 0.0000 0.0000 31.9075 0.0000 6.9761
# 5 23.4516 5.4748 18.7980 0.0000 37.0728 0.0000
# 6 0.0000 0.0000 0.0000 6.9761 0.0000 31.4640
#
#
#
# Elastic Compliance Matrix: (Units=1/GPa)
#
#
# Indices 1 2 3 4 5 6 
#
# 1 0.020016 -0.006436 -0.001573 0.000000 -0.010914 0.000000
# 2 -0.006436 0.008370 -0.001797 0.000000 0.003746 0.000000
# 3 -0.001573 -0.001797 0.012270 0.000000 -0.004961 0.000000
# 4 0.000000 0.000000 0.000000 0.032937 0.000000 -0.007303
# 5 -0.010914 0.003746 -0.004961 0.000000 0.035841 0.000000
# 6 0.000000 0.000000 0.000000 -0.007303 0.000000 0.033402
#
#
# Mechanical properties :
#
#
# Convention : Reuss Voigt Hill
#
# Bulk Modulus (GPa) = 47.51442 67.13701 57.32572
# Shear Modulus (GPa) = 29.50539 35.33935 32.42237
#
# Velocity S-wave (km/s) = 3.76322 4.11849 3.94486
# Velocity P-wave (km/s) = 6.45664 7.40541 6.94724
#
# Compressibility (1/GPa) = 0.02104624
#
# Stress axis : x y z
#
# Youngs Moduli (GPa) = 49.95964 119.47363 81.50050
#
# Poissons Ratio (x) = 0.76889 0.12817
# Poissons Ratio (y) = 0.32152 0.14643
# Poissons Ratio (z) = 0.07857 0.21466
#
# Static dielectric constant tensor:
#      x y z
#    x 3.644380 0.000000 0.329930 
#    y 0.000000 4.171490 0.000000 
#    z 0.329930 0.000000 3.977810 
# 
# 
# High freq. dielectric constant tensor:
#      x y z
#    x 1.799250 0.000000 0.029440 
#    y 0.000000 1.834540 0.000000 
#    z 0.029440 0.000000 1.821300 
# 
# From -- ./inp_files/3870.got.cif
#   From: 2010.03.12/outbox.cif.g09.slc.cpg/sg5_2_cif.got.tgz:3870.got - 2010.03.31 09:47:26.
