data_PCOD8049298
_publ_section_title
;
Structure prediction by ZEFSAII (Michael W. Deem and Ramdas Pophale) SiO2 
 PCOD8049298
Probable space group: C 2
;
_chemical_formula_sum "Si O2"
_cell_formula_units_Z 32
_cell_length_a 23.323470
_cell_length_b 8.436399
_cell_length_c 19.149358
_cell_angle_alpha 90.000000
_cell_angle_beta 22.116004
_cell_angle_gamma 90.000000
_cell_volume 1418.567222
_symmetry_space_group_name_H-M "C 2"
_symmetry_group_IT_number 5
_symmetry_cell_setting 'monoclinic'
loop_
_space_group_symop_operation_xyz
x,y,z
-x,y,-z
1/2+x,1/2+y,z
1/2-x,1/2+y,-z
loop_
_atom_site_type_symbol
_atom_site_label
_atom_site_fract_x
_atom_site_fract_y
_atom_site_fract_z
Si Si1 0.323972 0.279500 0.698798
Si Si2 0.179571 0.648527 0.155227
Si Si3 0.096666 0.638060 0.742964
Si Si4 0.110231 0.993129 0.192935
Si Si5 0.331060 0.297946 0.205356
Si Si6 0.238684 0.605299 0.846618
Si Si7 0.831784 0.595513 0.552678
Si Si8 0.696005 0.360212 0.517616
O O1 0.500000 0.330424 0.500000
O O2 0.286589 0.146975 0.800043
O O3 0.228670 0.439201 0.817128
O O4 0.283298 0.202040 0.672388
O O5 0.191772 0.829599 0.118108
O O6 0.011294 0.577397 0.333276
O O7 0.309103 0.556017 0.967687
O O8 0.144572 0.647717 0.770354
O O9 0.161883 0.477557 0.634929
O O10 0.146301 0.802657 0.650111
O O11 0.916304 0.629235 0.935934
O O12 0.932935 0.961940 0.377901
O O13 0.130702 0.105705 0.239468
O O14 0.244153 0.242865 0.232065
O O15 0.232616 0.422382 0.360367
O O16 0.500000 0.368341 0.000000
O O17 0.757796 0.695118 0.572807
#
# Coordination Sequence:
#
# PCOD8049298 Si02
#       8
#     4   4   4   4   4   4   4   4
#     4   9  19  36  57  85 119 154 200 253 307 364
#     4   9  20  35  56  87 120 153 198 255 310 364
#     4  11  24  42  61  90 127 164 205 255 310 373
#     4  10  21  39  63  90 122 160 207 260 309 365
#     4  10  23  39  59  89 124 160 207 258 308 373
#     4  10  21  40  62  87 123 163 205 256 310 367
#     4  10  20  38  59  86 120 158 204 255 305 364
#     4  11  24  41  64  90 125 166 209 258 308 372
#
# _framework density 22.557974000000002
#
# number of rings (size 3 to 8) (size 9 to 14) (size 15 to 20)
#    0.000    2.000    0.000    3.750    0.000    7.000 
#    0.000    5.625    0.000    0.000    0.000    0.000 
#    0.000    0.000    0.000    0.000    0.000    0.000 
#
# Total GULP energy -198322.038570 kJ/mol
# GULP energy per Si atom -12395.127411 kJ/mol
# Density = 2.250663 g / cm^3
# Si number density = 22.557974 Si / 1000 Ang^3
#
#
#
# Elastic Constant Matrix: (Units=GPa)
#
#
# Indices 1 2 3 4 5 6 
#
# 1 82.3617 20.3436 31.2340 -0.0011 13.8174 0.0000
# 2 20.3436 73.3900 34.8992 -0.0016 -0.5866 0.0001
# 3 31.2340 34.8992 51.1139 -0.0010 15.2802 0.0004
# 4 -0.0011 -0.0016 -0.0010 51.0195 0.0005 14.7086
# 5 13.8174 -0.5866 15.2802 0.0005 22.5476 0.0001
# 6 0.0000 0.0001 0.0004 14.7086 0.0001 20.6096
#
#
#
# Elastic Compliance Matrix: (Units=1/GPa)
#
#
# Indices 1 2 3 4 5 6 
#
# 1 0.016107 -0.000664 -0.008068 0.000000 -0.004420 0.000000
# 2 -0.000664 0.023387 -0.019897 0.000000 0.014499 0.000000
# 3 -0.008068 -0.019897 0.046094 0.000001 -0.026811 -0.000001
# 4 0.000000 0.000000 0.000001 0.024678 -0.000001 -0.017612
# 5 -0.004420 0.014499 -0.026811 -0.000001 0.065606 0.000001
# 6 0.000000 0.000000 -0.000001 -0.017612 0.000001 0.061090
#
#
# Mechanical properties :
#
#
# Convention : Reuss Voigt Hill
#
# Bulk Modulus (GPa) = 35.29668 42.20215 38.74941
# Shear Modulus (GPa) = 16.46558 26.86126 21.66342
#
# Velocity S-wave (km/s) = 2.70464 3.45449 3.10230
# Velocity P-wave (km/s) = 5.04326 5.88730 5.48155
#
# Compressibility (1/GPa) = 0.02833128
#
# Stress axis : x y z
#
# Youngs Moduli (GPa) = 62.08666 42.75791 21.69458
#
# Poissons Ratio (x) = 0.02838 0.17502
# Poissons Ratio (y) = 0.04120 0.43166
# Poissons Ratio (z) = 0.50089 0.85077
#
# Static dielectric constant tensor:
#      x y z
#    x 4.223900 0.000000 0.300650 
#    y 0.000000 3.868990 0.000000 
#    z 0.300650 0.000000 4.009230 
# 
# 
# High freq. dielectric constant tensor:
#      x y z
#    x 1.894680 0.000000 0.027280 
#    y 0.000000 1.875780 0.000000 
#    z 0.027280 0.000000 1.883160 
# 
# From -- ./inp_files/67576.got.cif
#   From: 2010.03.12/outbox.cif.g09.slc.cpg/sg5_34_cif.got.tgz:67576.got - 2010.03.31 09:47:26.
