data_PCOD8049448
_publ_section_title
;
Structure prediction by ZEFSAII (Michael W. Deem and Ramdas Pophale) SiO2 
 PCOD8049448
Probable space group: C 2
;
_chemical_formula_sum "Si O2"
_cell_formula_units_Z 32
_cell_length_a 14.398196
_cell_length_b 15.195494
_cell_length_c 10.283302
_cell_angle_alpha 90.000000
_cell_angle_beta 39.371304
_cell_angle_gamma 90.000000
_cell_volume 1427.183884
_symmetry_space_group_name_H-M "C 2"
_symmetry_group_IT_number 5
_symmetry_cell_setting 'monoclinic'
loop_
_space_group_symop_operation_xyz
x,y,z
-x,y,-z
1/2+x,1/2+y,z
1/2-x,1/2+y,-z
loop_
_atom_site_type_symbol
_atom_site_label
_atom_site_fract_x
_atom_site_fract_y
_atom_site_fract_z
Si Si1 0.412071 0.714690 0.895528
Si Si2 0.286918 0.741125 0.315904
Si Si3 0.168585 0.944066 0.845932
Si Si4 0.601052 0.070360 0.517186
Si Si5 0.130679 0.021273 0.152258
Si Si6 0.589380 0.074974 0.026766
Si Si7 0.673877 0.272340 0.965730
Si Si8 0.461443 0.359867 0.400012
O O1 0.576028 0.748019 0.736164
O O2 0.425198 0.614012 0.838330
O O3 0.326905 0.725940 0.122537
O O4 0.329396 0.768071 0.872237
O O5 0.181437 0.660750 0.466412
O O6 0.208873 0.834640 0.430062
O O7 0.278692 0.992203 0.627773
O O8 0.189019 0.837501 0.824097
O O9 0.000000 0.970805 0.000000
O O10 0.209888 0.973499 0.946447
O O11 0.500000 0.081299 0.500000
O O12 0.497985 0.048961 0.749677
O O13 0.251742 0.027978 0.135696
O O14 0.992064 0.964493 0.354011
O O15 0.619702 0.178303 0.975492
O O16 0.500000 0.038688 0.000000
O O17 0.552512 0.308894 0.193969
O O18 0.500000 0.323195 0.500000
#
# Coordination Sequence:
#
# PCOD8049448 Si02
#       8
#     4   4   4   4   4   4   4   4
#     4  10  20  39  66  97 139 181 234 295 348 407
#     4  11  20  36  68 104 128 183 248 285 336 434
#     4  11  22  40  68 103 136 175 235 296 346 405
#     4  12  21  40  71 103 132 182 241 286 338 422
#     4  10  22  41  65  98 143 180 220 302 351 406
#     4  11  23  44  71 100 141 185 233 284 359 421
#     4  10  21  41  68  93 138 183 221 290 353 411
#     4  11  21  39  64  98 135 182 239 279 351 419
#
# _framework density 22.421778
#
# number of rings (size 3 to 8) (size 9 to 14) (size 15 to 20)
#    0.000    1.250    5.000    2.250    0.000    0.000 
#    6.750    6.250    0.000    0.000    0.000    0.000 
#    0.000    0.000    0.000    0.000    0.000    0.000 
#
# Total GULP energy -198349.829008 kJ/mol
# GULP energy per Si atom -12396.864313 kJ/mol
# Density = 2.237074 g / cm^3
# Si number density = 22.421778 Si / 1000 Ang^3
#
#
#
# Elastic Constant Matrix: (Units=GPa)
#
#
# Indices 1 2 3 4 5 6 
#
# 1 126.1041 38.7344 51.6267 0.0000 -19.6283 0.0000
# 2 38.7344 107.1634 54.9385 0.0001 -22.2457 0.0000
# 3 51.6267 54.9385 96.7332 0.0000 -25.1395 0.0000
# 4 0.0000 0.0001 0.0000 4.1128 0.0000 -0.3916
# 5 -19.6283 -22.2457 -25.1395 0.0000 37.0650 0.0000
# 6 0.0000 0.0000 0.0000 -0.3916 0.0000 21.8338
#
#
#
# Elastic Compliance Matrix: (Units=1/GPa)
#
#
# Indices 1 2 3 4 5 6 
#
# 1 0.010366 -0.001093 -0.004438 0.000000 0.001824 0.000000
# 2 -0.001093 0.013650 -0.006301 0.000000 0.003340 0.000000
# 3 -0.004438 -0.006301 0.017835 0.000000 0.005965 0.000000
# 4 0.000000 0.000000 0.000000 0.243557 0.000000 0.004368
# 5 0.001824 0.003340 0.005965 0.000000 0.033996 0.000000
# 6 0.000000 0.000000 0.000000 0.004368 0.000000 0.045879
#
#
# Mechanical properties :
#
#
# Convention : Reuss Voigt Hill
#
# Bulk Modulus (GPa) = 54.98285 68.95554 61.96919
# Shear Modulus (GPa) = 12.65791 24.91574 18.78682
#
# Velocity S-wave (km/s) = 2.37858 3.33713 2.89776
# Velocity P-wave (km/s) = 5.66735 6.75790 6.23650
#
# Compressibility (1/GPa) = 0.01818749
#
# Stress axis : x y z
#
# Youngs Moduli (GPa) = 96.46527 73.25807 56.06991
#
# Poissons Ratio (x) = 0.08010 0.24882
# Poissons Ratio (y) = 0.10547 0.35330
# Poissons Ratio (z) = 0.42808 0.46160
#
# Static dielectric constant tensor:
#      x y z
#    x 4.169280 0.000000 -0.171780 
#    y 0.000000 4.274420 0.000000 
#    z -0.171780 0.000000 4.030160 
# 
# 
# High freq. dielectric constant tensor:
#      x y z
#    x 1.890700 0.000000 -0.011860 
#    y 0.000000 1.879660 0.000000 
#    z -0.011860 0.000000 1.868250 
# 
# From -- ./inp_files/43071.got.cif
#   From: 2010.03.12/outbox.cif.g09.slc.cpg/sg5_22_cif.got.tgz:43071.got - 2010.03.31 09:47:26.
