data_PCOD8049179
_publ_section_title
;
Structure prediction by ZEFSAII (Michael W. Deem and Ramdas Pophale) SiO2 
 PCOD8049179
Probable space group: C 2
;
_chemical_formula_sum "Si O2"
_cell_formula_units_Z 28
_cell_length_a 5.113936
_cell_length_b 31.203973
_cell_length_c 9.326404
_cell_angle_alpha 90.000000
_cell_angle_beta 116.343346
_cell_angle_gamma 90.000000
_cell_volume 1333.707486
_symmetry_space_group_name_H-M "C 2"
_symmetry_group_IT_number 5
_symmetry_cell_setting 'monoclinic'
loop_
_space_group_symop_operation_xyz
x,y,z
-x,y,-z
1/2+x,1/2+y,z
1/2-x,1/2+y,-z
loop_
_atom_site_type_symbol
_atom_site_label
_atom_site_fract_x
_atom_site_fract_y
_atom_site_fract_z
Si Si1 0.119772 0.789020 0.688197
Si Si2 0.633460 0.192686 0.689940
Si Si3 0.872624 0.143704 0.310638
Si Si4 0.787633 0.470671 0.820217
Si Si5 0.323702 0.564808 0.107151
Si Si6 0.711844 0.430726 0.182106
Si Si7 0.246924 0.331523 0.825421
O O1 0.129691 0.740676 0.752149
O O2 0.439187 0.809596 0.788171
O O3 0.000000 0.788687 0.500000
O O4 0.867523 0.815533 0.704402
O O5 0.500000 0.191513 0.500000
O O6 0.460963 0.160338 0.755398
O O7 0.967083 0.178117 0.752605
O O8 0.940586 0.098463 0.251191
O O9 0.000000 0.140239 0.500000
O O10 0.685054 0.519302 0.814815
O O11 0.497620 0.441063 0.733070
O O12 0.999782 0.461314 0.736020
O O13 0.000000 0.454612 0.000000
O O14 0.500000 0.562535 0.000000
O O15 0.000000 0.581006 0.000000
O O16 0.813469 0.381986 0.197256
O O17 0.500000 0.444923 0.000000
O O18 0.500000 0.320094 0.000000
#
# Coordination Sequence:
#
# PCOD8049179 Si02
#       7
#     4   4   4   4   4   4   4
#     4  11  22  39  61  83 112 152 195 234 281 341
#     4   9  19  36  58  79 102 144 195 227 257 331
#     4  10  20  37  58  78 105 144 186 224 270 330
#     4   9  16  29  49  75 105 141 179 216 259 321
#     4  11  21  34  54  84 114 137 175 230 280 323
#     4   9  17  30  51  77 105 141 182 219 262 323
#     4  11  22  37  58  88 118 145 186 242 291 331
#
# _framework density 20.994108000000001
#
# number of rings (size 3 to 8) (size 9 to 14) (size 15 to 20)
#    0.000    2.000    0.000    5.571    0.000    4.571 
#    0.000    7.143    0.000    5.143    0.000    0.000 
#    0.000    0.000    0.000    0.000    0.000    0.000 
#
# Total GULP energy -173456.426177 kJ/mol
# GULP energy per Si atom -12389.744727 kJ/mol
# Density = 2.094632 g / cm^3
# Si number density = 20.994108 Si / 1000 Ang^3
#
#
#
# Elastic Constant Matrix: (Units=GPa)
#
#
# Indices 1 2 3 4 5 6 
#
# 1 171.5618 70.1956 8.4459 0.0000 -9.3094 0.0000
# 2 70.1956 129.9864 26.5316 0.0000 -5.1616 0.0000
# 3 8.4459 26.5316 21.8720 0.0000 -3.8452 0.0000
# 4 0.0000 0.0000 0.0000 63.1173 0.0000 0.9936
# 5 -9.3094 -5.1616 -3.8452 0.0000 20.9319 0.0000
# 6 0.0000 0.0000 0.0000 0.9936 0.0000 40.6860
#
#
#
# Elastic Compliance Matrix: (Units=1/GPa)
#
#
# Indices 1 2 3 4 5 6 
#
# 1 0.007766 -0.004746 0.003265 0.000000 0.002884 0.000000
# 2 -0.004746 0.013126 -0.014356 0.000000 -0.001511 0.000000
# 3 0.003265 -0.014356 0.063559 0.000000 0.009588 0.000000
# 4 0.000000 0.000000 0.000000 0.015850 0.000000 -0.000387
# 5 0.002884 -0.001511 0.009588 0.000000 0.050445 0.000000
# 6 0.000000 0.000000 0.000000 -0.000387 0.000000 0.024588
#
#
# Mechanical properties :
#
#
# Convention : Reuss Voigt Hill
#
# Bulk Modulus (GPa) = 18.94700 59.30735 39.12718
# Shear Modulus (GPa) = 22.26177 39.49687 30.87932
#
# Velocity S-wave (km/s) = 3.25988 4.34214 3.83934
# Velocity P-wave (km/s) = 4.81805 7.31093 6.19126
#
# Compressibility (1/GPa) = 0.05277880
#
# Stress axis : x y z
#
# Youngs Moduli (GPa) = 128.76037 76.18396 15.73334
#
# Poissons Ratio (x) = 0.36156 -0.05137
# Poissons Ratio (y) = 0.61109 0.22586
# Poissons Ratio (z) = -0.42040 1.09366
#
# Static dielectric constant tensor:
#      x y z
#    x 4.330400 0.000000 0.003840 
#    y 0.000000 3.772550 0.000000 
#    z 0.003840 0.000000 3.329880 
# 
# 
# High freq. dielectric constant tensor:
#      x y z
#    x 1.854350 0.000000 -0.001880 
#    y 0.000000 1.829920 0.000000 
#    z -0.001880 0.000000 1.765380 
# 
# From -- ./inp_files/13390.got.cif
#   From: 2010.03.12/outbox.cif.g09.slc.cpg/sg5_7_cif.got.tgz:13390.got - 2010.03.31 09:47:26.
