data_PCOD8049108
_publ_section_title
;
Structure prediction by ZEFSAII (Michael W. Deem and Ramdas Pophale) SiO2 
 PCOD8049108
Probable space group: C 2
;
_chemical_formula_sum "Si O2"
_cell_formula_units_Z 24
_cell_length_a 16.903113
_cell_length_b 8.999849
_cell_length_c 13.117808
_cell_angle_alpha 90.000000
_cell_angle_beta 34.778461
_cell_angle_gamma 90.000000
_cell_volume 1138.272874
_symmetry_space_group_name_H-M "C 2"
_symmetry_group_IT_number 5
_symmetry_cell_setting 'monoclinic'
loop_
_space_group_symop_operation_xyz
x,y,z
-x,y,-z
1/2+x,1/2+y,z
1/2-x,1/2+y,-z
loop_
_atom_site_type_symbol
_atom_site_label
_atom_site_fract_x
_atom_site_fract_y
_atom_site_fract_z
Si Si1 0.862892 0.552070 0.581088
Si Si2 0.610315 0.552205 0.966468
Si Si3 0.278029 0.243678 0.088673
Si Si4 0.497025 0.755913 0.746603
Si Si5 0.464318 0.094880 0.263579
Si Si6 0.242291 0.229240 0.353242
O O1 0.748035 0.634156 0.772953
O O2 0.907292 0.647962 0.435184
O O3 0.778829 0.405994 0.634122
O O4 0.000000 0.508775 0.500000
O O5 0.651384 0.404352 0.982716
O O6 0.500000 0.502180 0.000000
O O7 0.533909 0.666282 0.119920
O O8 0.133900 0.270499 0.186752
O O9 0.250766 0.168134 0.228422
O O10 0.373916 0.135676 0.919628
O O11 0.613954 0.668736 0.556616
O O12 0.551159 0.917158 0.725396
O O13 0.382942 0.180737 0.260779
#
# Coordination Sequence:
#
# PCOD8049108 Si02
#       6
#     4   4   4   4   4   4
#     4  10  20  39  61  85 115 156 196 234 284 350
#     4  11  22  38  60  86 118 156 193 234 287 349
#     4  11  21  40  63  86 114 156 197 234 284 351
#     4  11  23  40  60  88 119 151 192 244 290 336
#     4  11  22  37  61  90 117 149 194 245 288 334
#     4  10  20  36  59  85 115 152 192 233 283 344
#
# _framework density 21.084575000000001
#
# number of rings (size 3 to 8) (size 9 to 14) (size 15 to 20)
#    0.000    1.333    0.000   10.000    0.000    2.667 
#    0.000    1.667    0.000    0.000    0.000    0.000 
#    0.000    0.000    0.000    0.000    0.000    0.000 
#
# Total GULP energy -148757.909663 kJ/mol
# GULP energy per Si atom -12396.492472 kJ/mol
# Density = 2.103659 g / cm^3
# Si number density = 21.084575 Si / 1000 Ang^3
#
#
#
# Elastic Constant Matrix: (Units=GPa)
#
#
# Indices 1 2 3 4 5 6 
#
# 1 92.6252 18.4388 7.7032 0.0000 -10.7288 0.0000
# 2 18.4388 39.2526 22.2807 0.0000 4.5234 0.0000
# 3 7.7032 22.2807 143.0388 0.0000 18.0904 0.0000
# 4 0.0000 0.0000 0.0000 37.0301 0.0000 -2.0527
# 5 -10.7288 4.5234 18.0904 0.0000 46.9520 0.0000
# 6 0.0000 0.0000 0.0000 -2.0527 0.0000 18.8550
#
#
#
# Elastic Compliance Matrix: (Units=1/GPa)
#
#
# Indices 1 2 3 4 5 6 
#
# 1 0.012440 -0.006160 -0.000152 0.000000 0.003495 0.000000
# 2 -0.006160 0.031048 -0.004150 0.000000 -0.002800 0.000000
# 3 -0.000152 -0.004150 0.007989 0.000000 -0.002713 0.000000
# 4 0.000000 0.000000 0.000000 0.027169 0.000000 0.002958
# 5 0.003495 -0.002800 -0.002713 0.000000 0.023412 0.000000
# 6 0.000000 0.000000 0.000000 0.002958 0.000000 0.053358
#
#
# Mechanical properties :
#
#
# Convention : Reuss Voigt Hill
#
# Bulk Modulus (GPa) = 32.73161 41.30690 37.01925
# Shear Modulus (GPa) = 26.80601 35.66703 31.23652
#
# Velocity S-wave (km/s) = 3.56948 4.11739 3.85318
# Velocity P-wave (km/s) = 5.70490 6.49903 6.11487
#
# Compressibility (1/GPa) = 0.03055151
#
# Stress axis : x y z
#
# Youngs Moduli (GPa) = 80.38651 32.20812 125.17280
#
# Poissons Ratio (x) = 0.19840 0.01908
# Poissons Ratio (y) = 0.49517 0.51953
# Poissons Ratio (z) = 0.01225 0.13368
#
# Static dielectric constant tensor:
#      x y z
#    x 3.933820 0.000000 0.211800 
#    y 0.000000 3.337160 0.000000 
#    z 0.211800 0.000000 4.674440 
# 
# 
# High freq. dielectric constant tensor:
#      x y z
#    x 1.834790 0.000000 0.003540 
#    y 0.000000 1.777930 0.000000 
#    z 0.003540 0.000000 1.863860 
# 
# From -- ./inp_files/55699.got.cif
#   From: 2010.03.12/outbox.cif.g09.slc.cpg/sg5_28_cif.got.tgz:55699.got - 2010.03.31 09:47:26.
