data_PCOD8049009
_publ_section_title
;
Structure prediction by ZEFSAII (Michael W. Deem and Ramdas Pophale) SiO2 
 PCOD8049009
Probable space group: C 2
;
_chemical_formula_sum "Si O2"
_cell_formula_units_Z 22
_cell_length_a 21.667502
_cell_length_b 9.168615
_cell_length_c 14.097193
_cell_angle_alpha 90.000000
_cell_angle_beta 20.903115
_cell_angle_gamma 90.000000
_cell_volume 999.209206
_symmetry_space_group_name_H-M "C 2"
_symmetry_group_IT_number 5
_symmetry_cell_setting 'monoclinic'
loop_
_space_group_symop_operation_xyz
x,y,z
-x,y,-z
1/2+x,1/2+y,z
1/2-x,1/2+y,-z
loop_
_atom_site_type_symbol
_atom_site_label
_atom_site_fract_x
_atom_site_fract_y
_atom_site_fract_z
Si Si1 0.074807 0.564490 0.497561
Si Si2 0.935844 0.995792 0.392945
Si Si3 0.799563 0.767045 0.986499
Si Si4 0.000000 0.103451 0.500000
Si Si5 0.141702 0.295441 0.869247
Si Si6 0.012520 0.317937 0.251235
O O1 0.246395 0.662900 0.247496
O O2 0.000000 0.527225 0.500000
O O3 0.114808 0.419367 0.502784
O O4 0.929810 0.642651 0.767830
O O5 0.753398 0.912154 0.648282
O O6 0.987068 0.997746 0.429834
O O7 0.924998 0.157450 0.366100
O O8 0.093249 0.901949 0.120572
O O9 0.669017 0.706922 0.253492
O O10 0.694280 0.814805 0.044846
O O11 0.048420 0.374418 0.092873
O O12 0.000000 0.232334 0.000000
#
# Coordination Sequence:
#
# PCOD8049009 Si02
#       6
#     4   4   4   2   4   4
#     4  11  23  41  66  98 132 165 210 268 323 379
#     4  10  22  37  60  91 124 164 208 259 315 377
#     4  10  20  36  61  93 131 162 200 260 323 374
#     4  10  20  34  58  96 126 156 202 262 318 372
#     4  11  25  45  64  88 130 176 217 259 313 381
#     4  11  22  37  62  95 125 165 210 262 319 376
#
# _framework density 22.017412
#
# number of rings (size 3 to 8) (size 9 to 14) (size 15 to 20)
#    0.000    1.455    1.818    4.364    7.636    1.455 
#    0.000    0.909    0.000    0.000    0.000    0.000 
#    0.000    0.000    0.000    0.000    0.000    0.000 
#
# Total GULP energy -136361.057410 kJ/mol
# GULP energy per Si atom -12396.459765 kJ/mol
# Density = 2.196730 g / cm^3
# Si number density = 22.017412 Si / 1000 Ang^3
#
#
#
# Elastic Constant Matrix: (Units=GPa)
#
#
# Indices 1 2 3 4 5 6 
#
# 1 64.7731 16.2012 26.4808 0.0000 -7.3604 0.0000
# 2 16.2012 110.2089 40.1712 0.0000 -2.9797 0.0000
# 3 26.4808 40.1712 83.9618 0.0000 0.5276 0.0000
# 4 0.0000 0.0000 0.0000 19.8647 0.0000 7.7855
# 5 -7.3604 -2.9797 0.5276 0.0000 20.0774 0.0000
# 6 0.0000 0.0000 0.0000 7.7855 0.0000 15.7516
#
#
#
# Elastic Compliance Matrix: (Units=1/GPa)
#
#
# Indices 1 2 3 4 5 6 
#
# 1 0.018678 -0.000479 -0.005705 0.000000 0.006926 0.000000
# 2 -0.000479 0.011066 -0.005153 0.000000 0.001602 0.000000
# 3 -0.005705 -0.005153 0.016196 0.000000 -0.003282 0.000000
# 4 0.000000 0.000000 0.000000 0.062435 0.000000 -0.030860
# 5 0.006926 0.001602 -0.003282 0.000000 0.052670 0.000000
# 6 0.000000 0.000000 0.000000 -0.030860 0.000000 0.078739
#
#
# Mechanical properties :
#
#
# Convention : Reuss Voigt Hill
#
# Bulk Modulus (GPa) = 42.98422 47.18333 45.08378
# Shear Modulus (GPa) = 18.50384 22.87811 20.69097
#
# Velocity S-wave (km/s) = 2.90214 3.22699 3.06887
# Velocity P-wave (km/s) = 5.54934 5.94653 5.75136
#
# Compressibility (1/GPa) = 0.02326435
#
# Stress axis : x y z
#
# Youngs Moduli (GPa) = 53.53964 90.36838 61.74440
#
# Poissons Ratio (x) = 0.04328 0.35226
# Poissons Ratio (y) = 0.02564 0.31819
# Poissons Ratio (z) = 0.30545 0.46571
#
# Static dielectric constant tensor:
#      x y z
#    x 3.431810 0.000000 0.121920 
#    y 0.000000 4.171750 0.000000 
#    z 0.121920 0.000000 4.135180 
# 
# 
# High freq. dielectric constant tensor:
#      x y z
#    x 1.815040 0.000000 0.021910 
#    y 0.000000 1.874350 0.000000 
#    z 0.021910 0.000000 1.874120 
# 
# From -- ./inp_files/57577.got.cif
#   From: 2010.03.12/outbox.cif.g09.slc.cpg/sg5_29_cif.got.tgz:57577.got - 2010.03.31 09:47:26.
