data_PCOD8049226
_publ_section_title
;
Structure prediction by ZEFSAII (Michael W. Deem and Ramdas Pophale) SiO2 
 PCOD8049226
Probable space group: C 2
;
_chemical_formula_sum "Si O2"
_cell_formula_units_Z 32
_cell_length_a 13.887161
_cell_length_b 11.687234
_cell_length_c 9.757572
_cell_angle_alpha 90.000000
_cell_angle_beta 77.898247
_cell_angle_gamma 90.000000
_cell_volume 1548.483967
_symmetry_space_group_name_H-M "C 2"
_symmetry_group_IT_number 5
_symmetry_cell_setting 'monoclinic'
loop_
_space_group_symop_operation_xyz
x,y,z
-x,y,-z
1/2+x,1/2+y,z
1/2-x,1/2+y,-z
loop_
_atom_site_type_symbol
_atom_site_label
_atom_site_fract_x
_atom_site_fract_y
_atom_site_fract_z
Si Si1 0.774639 0.942280 0.380906
Si Si2 0.714865 0.233986 0.814113
Si Si3 0.608826 0.619154 0.097304
Si Si4 0.989081 0.653428 0.153375
Si Si5 0.907227 0.593695 0.617551
Si Si6 0.278478 0.310011 0.650544
Si Si7 0.373516 0.357515 0.899511
Si Si8 0.611836 0.648476 0.784483
O O1 0.763540 0.820895 0.312475
O O2 0.788172 0.912955 0.537844
O O3 0.669751 0.996637 0.387738
O O4 0.859259 0.025730 0.293928
O O5 0.808292 0.154038 0.818261
O O6 0.627417 0.153315 0.780960
O O7 0.685921 0.303093 0.957825
O O8 0.592489 0.484993 0.081908
O O9 0.505683 0.669033 0.186605
O O10 0.641546 0.659723 0.935841
O O11 0.056354 0.581033 0.236149
O O12 0.026592 0.785023 0.150605
O O13 0.000000 0.598383 0.000000
O O14 0.862693 0.716769 0.593709
O O15 0.000000 0.568652 0.500000
O O16 0.300980 0.362344 0.791736
O O17 0.170799 0.248561 0.685854
#
# Coordination Sequence:
#
# PCOD8049226 Si02
#       8
#     4   4   4   4   4   4   4   4
#     4  11  23  39  65  88 126 166 204 255 314 381
#     4  11  21  37  61  93 119 163 208 254 310 364
#     4  11  22  37  66  92 126 160 209 264 301 380
#     4   9  20  35  62  89 118 154 204 258 300 356
#     4  10  22  40  59  86 125 164 200 250 309 365
#     4  10  22  41  62  90 129 160 203 257 314 379
#     4  10  20  37  61  92 120 158 210 255 303 370
#     4  10  22  41  62  91 125 165 205 255 324 359
#
# _framework density 20.665372999999999
#
# number of rings (size 3 to 8) (size 9 to 14) (size 15 to 20)
#    0.000    1.750    2.500    1.500    5.250    5.000 
#    0.000    1.250    2.750    0.000    0.000    0.000 
#    0.000    0.000    0.000    0.000    0.000    0.000 
#
# Total GULP energy -198331.095743 kJ/mol
# GULP energy per Si atom -12395.693484 kJ/mol
# Density = 2.061834 g / cm^3
# Si number density = 20.665373 Si / 1000 Ang^3
#
#
#
# Elastic Constant Matrix: (Units=GPa)
#
#
# Indices 1 2 3 4 5 6 
#
# 1 112.1130 10.9999 37.0565 0.0000 4.9297 0.0000
# 2 10.9999 20.1887 15.6991 0.0000 0.4643 0.0000
# 3 37.0565 15.6991 99.1909 0.0000 9.7299 0.0000
# 4 0.0000 0.0000 0.0000 42.6372 0.0000 0.3163
# 5 4.9297 0.4643 9.7299 0.0000 36.1541 0.0000
# 6 0.0000 0.0000 0.0000 0.3163 0.0000 19.0383
#
#
#
# Elastic Compliance Matrix: (Units=1/GPa)
#
#
# Indices 1 2 3 4 5 6 
#
# 1 0.010341 -0.003028 -0.003337 0.000000 -0.000473 0.000000
# 2 -0.003028 0.057476 -0.008149 0.000000 0.001868 0.000000
# 3 -0.003337 -0.008149 0.012904 0.000000 -0.002913 0.000000
# 4 0.000000 0.000000 0.000000 0.023457 0.000000 -0.000390
# 5 -0.000473 0.001868 -0.002913 0.000000 0.028484 0.000000
# 6 0.000000 0.000000 0.000000 -0.000390 0.000000 0.052532
#
#
# Mechanical properties :
#
#
# Convention : Reuss Voigt Hill
#
# Bulk Modulus (GPa) = 19.34532 39.88929 29.61731
# Shear Modulus (GPa) = 21.60268 30.74838 26.17553
#
# Velocity S-wave (km/s) = 3.23670 3.86154 3.56285
# Velocity P-wave (km/s) = 4.83217 6.26309 5.59358
#
# Compressibility (1/GPa) = 0.05169208
#
# Stress axis : x y z
#
# Youngs Moduli (GPa) = 96.70638 17.39850 77.49589
#
# Poissons Ratio (x) = 0.05268 0.25864
# Poissons Ratio (y) = 0.29282 0.63151
# Poissons Ratio (z) = 0.32276 0.14178
#
# Static dielectric constant tensor:
#      x y z
#    x 3.870620 0.000000 0.135810 
#    y 0.000000 3.477100 0.000000 
#    z 0.135810 0.000000 3.944770 
# 
# 
# High freq. dielectric constant tensor:
#      x y z
#    x 1.816960 0.000000 0.002990 
#    y 0.000000 1.783180 0.000000 
#    z 0.002990 0.000000 1.813180 
# 
# From -- ./inp_files/23633.got.cif
#   From: 2010.03.12/outbox.cif.g09.slc.cpg/sg5_12_cif.got.tgz:23633.got - 2010.03.31 09:47:26.
