data_PCOD8049071
_publ_section_title
;
Structure prediction by ZEFSAII (Michael W. Deem and Ramdas Pophale) SiO2 
 PCOD8049071
Probable space group: C 2
;
_chemical_formula_sum "Si O2"
_cell_formula_units_Z 24
_cell_length_a 13.393797
_cell_length_b 15.186953
_cell_length_c 7.670699
_cell_angle_alpha 90.000000
_cell_angle_beta 137.834499
_cell_angle_gamma 90.000000
_cell_volume 1047.392347
_symmetry_space_group_name_H-M "C 2"
_symmetry_group_IT_number 5
_symmetry_cell_setting 'monoclinic'
loop_
_space_group_symop_operation_xyz
x,y,z
-x,y,-z
1/2+x,1/2+y,z
1/2-x,1/2+y,-z
loop_
_atom_site_type_symbol
_atom_site_label
_atom_site_fract_x
_atom_site_fract_y
_atom_site_fract_z
Si Si1 0.500000 0.606501 0.000000
Si Si2 0.466349 0.005538 0.158373
Si Si3 0.924323 0.700643 0.224930
Si Si4 0.343787 0.482416 0.321697
Si Si5 0.500000 0.314366 0.000000
Si Si6 0.596428 0.671492 0.772066
Si Si7 0.781272 0.963452 0.641076
O O1 0.500788 0.665831 0.175350
O O2 0.648092 0.546262 0.163883
O O3 0.451033 0.097600 0.235375
O O4 0.602555 0.955288 0.429917
O O5 0.500000 0.024135 0.000000
O O6 0.311043 0.947947 0.968403
O O7 0.000000 0.733096 0.500000
O O8 0.001664 0.754164 0.171289
O O9 0.749004 0.722982 0.007711
O O10 0.500000 0.427256 0.500000
O O11 0.366808 0.577792 0.268002
O O12 0.323051 0.487035 0.499164
O O13 0.648176 0.373744 0.197133
O O14 0.500000 0.723564 0.500000
#
# Coordination Sequence:
#
# PCOD8049071 Si02
#       7
#     2   4   4   4   2   4   4
#     4  11  18  32  60  96 126 167 220 285 324 382
#     4   9  18  35  67  99 124 161 223 280 314 380
#     4  11  23  41  66  96 130 179 222 270 333 402
#     4   9  16  33  60  97 125 159 211 277 319 372
#     4  11  26  42  64  88 146 179 210 269 348 398
#     4  10  20  35  64  99 129 164 222 285 325 378
#     4  10  20  36  60  96 127 173 216 267 331 389
#
# _framework density 22.914048000000001
#
# number of rings (size 3 to 8) (size 9 to 14) (size 15 to 20)
#    0.000    2.000    4.167    1.000    0.000    2.000 
#    0.000    0.000   14.667    0.000    0.000    0.000 
#    0.000    0.000    0.000    0.000    0.000    0.000 
#
# Total GULP energy -148663.188785 kJ/mol
# GULP energy per Si atom -12388.599065 kJ/mol
# Density = 2.286189 g / cm^3
# Si number density = 22.914048 Si / 1000 Ang^3
#
#
#
# Elastic Constant Matrix: (Units=GPa)
#
#
# Indices 1 2 3 4 5 6 
#
# 1 89.3675 26.8136 69.9313 0.0000 6.6370 0.0000
# 2 26.8136 36.6713 31.5645 0.0000 -1.7294 0.0000
# 3 69.9313 31.5645 223.9204 0.0000 31.8843 0.0000
# 4 0.0000 0.0000 0.0000 3.0635 0.0000 4.5722
# 5 6.6370 -1.7294 31.8843 0.0000 61.8563 0.0000
# 6 0.0000 0.0000 0.0000 4.5722 0.0000 3.9336
#
#
#
# Elastic Compliance Matrix: (Units=1/GPa)
#
#
# Indices 1 2 3 4 5 6 
#
# 1 0.017063 -0.008976 -0.004066 0.000000 0.000014 0.000000
# 2 -0.008976 0.036422 -0.002820 0.000000 0.003435 0.000000
# 3 -0.004066 -0.002820 0.006564 0.000000 -0.003026 0.000000
# 4 0.000000 0.000000 0.000000 -0.444261 0.000000 0.516385
# 5 0.000014 0.003435 -0.003026 0.000000 0.017821 0.000000
# 6 0.000000 0.000000 0.000000 0.516385 0.000000 -0.345995
#
#
# Mechanical properties :
#
#
# Convention : Reuss Voigt Hill
#
# Bulk Modulus (GPa) = 35.30401 67.39758 51.35079
# Shear Modulus (GPa) = -7.44911 28.54733 10.54911
#
# Velocity S-wave (km/s) = -1.80498 3.53348 2.14797
# Velocity P-wave (km/s) = 3.33117 6.79149 5.34888
#
# Compressibility (1/GPa) = 0.02832539
#
# Stress axis : x y z
#
# Youngs Moduli (GPa) = 58.60505 27.45601 152.34716
#
# Poissons Ratio (x) = 0.24646 0.61938
# Poissons Ratio (y) = 0.52607 0.42960
# Poissons Ratio (z) = 0.23826 0.07742
#
# Static dielectric constant tensor:
#      x y z
#    x 4.708900 0.000000 1.019930 
#    y 0.000000 3.406620 0.000000 
#    z 1.019930 0.000000 5.890480 
# 
# 
# High freq. dielectric constant tensor:
#      x y z
#    x 1.907010 0.000000 0.002420 
#    y 0.000000 1.834580 0.000000 
#    z 0.002420 0.000000 1.939480 
# 
# From -- ./inp_files/24764.got.cif
#   From: 2010.03.12/outbox.cif.g09.slc.cpg/sg5_13_cif.got.tgz:24764.got - 2010.03.31 09:47:26.
