data_PCOD8049999
_publ_section_title
;
Structure prediction by ZEFSAII (Michael W. Deem and Ramdas Pophale) SiO2 
 PCOD8049999
Probable space group: C 2
;
_chemical_formula_sum "Si O2"
_cell_formula_units_Z 22
_cell_length_a 9.185125
_cell_length_b 11.827158
_cell_length_c 11.604502
_cell_angle_alpha 90.000000
_cell_angle_beta 116.825252
_cell_angle_gamma 90.000000
_cell_volume 1124.981084
_symmetry_space_group_name_H-M "C 2"
_symmetry_group_IT_number 5
_symmetry_cell_setting 'monoclinic'
loop_
_space_group_symop_operation_xyz
x,y,z
-x,y,-z
1/2+x,1/2+y,z
1/2-x,1/2+y,-z
loop_
_atom_site_type_symbol
_atom_site_label
_atom_site_fract_x
_atom_site_fract_y
_atom_site_fract_z
Si Si1 0.604865 0.482500 0.365605
Si Si2 0.777545 0.043125 0.352770
Si Si3 0.425632 0.950023 0.181602
Si Si4 0.364272 0.597300 0.866411
Si Si5 0.839802 0.298864 0.364966
Si Si6 0.000000 0.313416 0.000000
O O1 0.419325 0.468456 0.343033
O O2 0.708171 0.543347 0.503416
O O3 0.607922 0.562515 0.255375
O O4 0.686631 0.360844 0.371111
O O5 0.787962 0.172263 0.315085
O O6 0.610907 0.988561 0.253783
O O7 0.380834 0.859801 0.261579
O O8 0.312948 0.059977 0.152969
O O9 0.394742 0.891539 0.047547
O O10 0.376645 0.733762 0.881502
O O11 0.500000 0.540739 0.000000
O O12 0.000000 0.301052 0.500000
#
# Coordination Sequence:
#
# PCOD8049999 Si02
#       6
#     4   4   4   4   4   2
#     4  10  21  39  64  91 127 159 204 255 305 367
#     4  11  23  38  66  94 123 161 207 262 300 365
#     4  11  24  41  64  92 120 167 211 250 308 371
#     4   9  23  43  61  88 127 163 200 258 304 362
#     4  11  21  39  62  89 129 163 195 255 318 355
#     4  10  24  40  66  86 128 164 204 260 300 364
#
# _framework density 19.555883000000001
#
# number of rings (size 3 to 8) (size 9 to 14) (size 15 to 20)
#    0.545    1.091    3.636    1.091    2.545    1.455 
#    3.273    5.455    0.000    0.000    0.000    0.000 
#    0.000    0.000    0.000    0.000    0.000    0.000 
#
# Total GULP energy -136391.249148 kJ/mol
# GULP energy per Si atom -12399.204468 kJ/mol
# Density = 1.951137 g / cm^3
# Si number density = 19.555883 Si / 1000 Ang^3
#
#
#
# Elastic Constant Matrix: (Units=GPa)
#
#
# Indices 1 2 3 4 5 6 
#
# 1 132.9141 55.3344 42.9677 0.0000 -1.2269 0.0000
# 2 55.3344 82.0015 21.0096 0.0000 -6.2042 0.0000
# 3 42.9677 21.0096 83.1369 0.0000 -10.4188 0.0000
# 4 0.0000 0.0000 0.0000 32.2397 0.0000 1.1177
# 5 -1.2269 -6.2042 -10.4188 0.0000 32.6386 0.0000
# 6 0.0000 0.0000 0.0000 1.1177 0.0000 23.0130
#
#
#
# Elastic Compliance Matrix: (Units=1/GPa)
#
#
# Indices 1 2 3 4 5 6 
#
# 1 0.011952 -0.007042 -0.004697 0.000000 -0.002389 0.000000
# 2 -0.007042 0.017258 -0.000358 0.000000 0.002902 0.000000
# 3 -0.004697 -0.000358 0.015120 0.000000 0.004582 0.000000
# 4 0.000000 0.000000 0.000000 0.031070 0.000000 -0.001509
# 5 -0.002389 0.002902 0.004582 0.000000 0.032563 0.000000
# 6 0.000000 0.000000 0.000000 -0.001509 0.000000 0.043527
#
#
# Mechanical properties :
#
#
# Convention : Reuss Voigt Hill
#
# Bulk Modulus (GPa) = 49.66144 59.63067 54.64606
# Shear Modulus (GPa) = 27.41272 29.49430 28.45351
#
# Velocity S-wave (km/s) = 3.74807 3.88778 3.81856
# Velocity P-wave (km/s) = 6.64684 7.12122 6.88811
#
# Compressibility (1/GPa) = 0.02013635
#
# Stress axis : x y z
#
# Youngs Moduli (GPa) = 83.66934 57.94295 66.13551
#
# Poissons Ratio (x) = 0.40806 0.31062
# Poissons Ratio (y) = 0.58923 0.02368
# Poissons Ratio (z) = 0.39297 0.02074
#
# Static dielectric constant tensor:
#      x y z
#    x 3.637260 0.000000 -0.095630 
#    y 0.000000 3.529870 0.000000 
#    z -0.095630 0.000000 3.566860 
# 
# 
# High freq. dielectric constant tensor:
#      x y z
#    x 1.766100 0.000000 -0.011010 
#    y 0.000000 1.754760 0.000000 
#    z -0.011010 0.000000 1.767090 
# 
# From -- ./inp_files/35171.got.cif
#   From: 2010.03.12/outbox.cif.g09.slc.cpg/sg5_18_cif.got.tgz:35171.got - 2010.03.31 09:47:26.
