data_PCOD8049221
_publ_section_title
;
Structure prediction by ZEFSAII (Michael W. Deem and Ramdas Pophale) SiO2 
 PCOD8049221
Probable space group: C 2
;
_chemical_formula_sum "Si O2"
_cell_formula_units_Z 32
_cell_length_a 14.904569
_cell_length_b 20.035825
_cell_length_c 15.032145
_cell_angle_alpha 90.000000
_cell_angle_beta 160.643984
_cell_angle_gamma 90.000000
_cell_volume 1487.813646
_symmetry_space_group_name_H-M "C 2"
_symmetry_group_IT_number 5
_symmetry_cell_setting 'monoclinic'
loop_
_space_group_symop_operation_xyz
x,y,z
-x,y,-z
1/2+x,1/2+y,z
1/2-x,1/2+y,-z
loop_
_atom_site_type_symbol
_atom_site_label
_atom_site_fract_x
_atom_site_fract_y
_atom_site_fract_z
Si Si1 0.756976 0.660230 0.007442
Si Si2 0.564239 0.969131 0.460008
Si Si3 0.277666 0.266112 0.721309
Si Si4 0.268386 0.989130 0.709118
Si Si5 0.958441 0.806433 0.209827
Si Si6 0.194331 0.130233 0.555816
Si Si7 0.937214 0.059414 0.039006
Si Si8 0.079577 0.387056 0.301393
O O1 0.574564 0.655081 0.747790
O O2 0.588677 0.625589 0.927296
O O3 0.818418 0.735430 0.096655
O O4 0.043545 0.623532 0.262268
O O5 0.500000 0.941617 0.500000
O O6 0.610497 0.910954 0.432303
O O7 0.830208 0.013250 0.705873
O O8 0.329013 0.015916 0.205164
O O9 0.371436 0.304550 0.721713
O O10 0.254470 0.186681 0.685202
O O11 0.000000 0.296121 0.500000
O O12 0.500000 0.283025 0.000000
O O13 0.382533 0.945392 0.735069
O O14 0.000000 0.954499 0.500000
O O15 0.155877 0.059638 0.567093
O O16 0.500000 0.998813 0.000000
O O17 0.188099 0.829905 0.496026
O O18 0.722658 0.860570 0.992065
O O19 0.000000 0.086079 0.000000
#
# Coordination Sequence:
#
# PCOD8049221 Si02
#       8
#     4   4   4   4   4   4   4   4
#     4  11  21  39  62  90 120 159 200 251 316 374
#     4  10  22  39  63  93 121 153 196 249 314 380
#     4  11  21  38  61  91 124 153 191 251 315 379
#     4  12  25  42  65  95 126 168 218 267 317 371
#     4  11  25  40  60  87 122 169 213 245 296 374
#     4  11  22  38  64  93 123 155 196 256 322 382
#     4  10  20  37  61  90 118 145 193 257 314 368
#     4  12  24  43  63  87 128 172 212 258 300 362
#
# _framework density 21.50807
#
# number of rings (size 3 to 8) (size 9 to 14) (size 15 to 20)
#    0.000    1.000    0.000    9.000    0.000    1.500 
#    0.000    1.875    0.000    0.000    0.000    0.000 
#    0.000    0.000    0.000    0.000    0.000    0.000 
#
# Total GULP energy -198377.399547 kJ/mol
# GULP energy per Si atom -12398.587472 kJ/mol
# Density = 2.145912 g / cm^3
# Si number density = 21.508070 Si / 1000 Ang^3
#
#
#
# Elastic Constant Matrix: (Units=GPa)
#
#
# Indices 1 2 3 4 5 6 
#
# 1 75.1305 39.8924 22.7872 -0.0015 17.1192 0.0000
# 2 39.8924 87.1707 33.1306 -0.0034 6.0510 -0.0007
# 3 22.7872 33.1306 141.1398 -0.0084 17.8457 -0.0025
# 4 -0.0015 -0.0034 -0.0084 44.7698 -0.0010 10.8190
# 5 17.1192 6.0510 17.8457 -0.0010 39.5231 0.0002
# 6 0.0000 -0.0007 -0.0025 10.8190 0.0002 22.0830
#
#
#
# Elastic Compliance Matrix: (Units=1/GPa)
#
#
# Indices 1 2 3 4 5 6 
#
# 1 0.019388 -0.008272 -0.000304 0.000000 -0.006994 0.000000
# 2 -0.008272 0.016139 -0.002751 0.000000 0.002354 0.000000
# 3 -0.000304 -0.002751 0.008177 0.000001 -0.003139 0.000000
# 4 0.000000 0.000000 0.000001 0.025336 0.000000 -0.012413
# 5 -0.006994 0.002354 -0.003139 0.000000 0.029388 -0.000001
# 6 0.000000 0.000000 0.000000 -0.012413 -0.000001 0.051365
#
#
# Mechanical properties :
#
#
# Convention : Reuss Voigt Hill
#
# Bulk Modulus (GPa) = 47.50306 55.00682 51.25494
# Shear Modulus (GPa) = 27.86083 35.11724 31.48904
#
# Velocity S-wave (km/s) = 3.60302 4.04511 3.83045
# Velocity P-wave (km/s) = 6.28038 6.88823 6.59132
#
# Compressibility (1/GPa) = 0.02105127
#
# Stress axis : x y z
#
# Youngs Moduli (GPa) = 51.57799 61.96130 122.29596
#
# Poissons Ratio (x) = 0.51252 0.03721
# Poissons Ratio (y) = 0.42663 0.33639
# Poissons Ratio (z) = 0.01569 0.17043
#
# Static dielectric constant tensor:
#      x y z
#    x 3.900380 0.000000 0.181230 
#    y 0.000000 3.700060 0.000000 
#    z 0.181230 0.000000 4.077320 
# 
# 
# High freq. dielectric constant tensor:
#      x y z
#    x 1.837690 0.000000 0.015690 
#    y 0.000000 1.839210 0.000000 
#    z 0.015690 0.000000 1.868760 
# 
# From -- ./inp_files/55006.got.cif
#   From: 2010.03.12/outbox.cif.g09.slc.cpg/sg5_28_cif.got.tgz:55006.got - 2010.03.31 09:47:26.
