data_PCOD8049832
_publ_section_title
;
Structure prediction by ZEFSAII (Michael W. Deem and Ramdas Pophale) SiO2 
 PCOD8049832
Probable space group: C 2
;
_chemical_formula_sum "Si O2"
_cell_formula_units_Z 30
_cell_length_a 18.687004
_cell_length_b 14.837465
_cell_length_c 12.810084
_cell_angle_alpha 90.000000
_cell_angle_beta 25.901942
_cell_angle_gamma 90.000000
_cell_volume 1551.551105
_symmetry_space_group_name_H-M "C 2"
_symmetry_group_IT_number 5
_symmetry_cell_setting 'monoclinic'
loop_
_space_group_symop_operation_xyz
x,y,z
-x,y,-z
1/2+x,1/2+y,z
1/2-x,1/2+y,-z
loop_
_atom_site_type_symbol
_atom_site_label
_atom_site_fract_x
_atom_site_fract_y
_atom_site_fract_z
Si Si1 0.543292 0.545950 0.827029
Si Si2 0.431222 0.699007 0.704260
Si Si3 0.097922 0.237313 0.693634
Si Si4 0.795542 0.863175 0.951885
Si Si5 0.247457 0.316388 0.786827
Si Si6 0.500000 0.173038 0.500000
Si Si7 0.844776 0.879882 0.445163
Si Si8 0.252142 0.057522 0.936392
O O1 0.633135 0.643656 0.708925
O O2 0.659984 0.474527 0.612012
O O3 0.500000 0.511763 0.000000
O O4 0.367969 0.560371 0.004236
O O5 0.500000 0.690029 0.500000
O O6 0.572717 0.715922 0.604308
O O7 0.307926 0.781519 0.869358
O O8 0.338256 0.605484 0.848326
O O9 0.254368 0.302416 0.497496
O O10 0.939652 0.286440 0.951097
O O11 0.820893 0.861740 0.794284
O O12 0.965843 0.856346 0.788746
O O13 0.699982 0.955639 0.100089
O O14 0.363881 0.229911 0.614972
O O15 0.258926 0.384281 0.672753
O O16 0.417185 0.111252 0.696180
#
# Coordination Sequence:
#
# PCOD8049832 Si02
#       8
#     4   4   4   4   4   2   4   4
#     4  10  21  38  55  83 118 150 199 238 298 353
#     4  10  21  41  58  83 122 153 191 246 301 353
#     4  10  22  39  59  86 114 162 197 240 299 345
#     4  10  21  37  57  90 114 153 199 239 301 346
#     4  11  19  38  62  86 120 151 201 245 289 350
#     4  12  18  38  62  90 114 150 200 246 278 354
#     4  11  21  35  61  85 116 157 198 247 291 344
#     4  10  22  36  59  90 113 154 197 240 295 344
#
# _framework density 19.335488999999999
#
# number of rings (size 3 to 8) (size 9 to 14) (size 15 to 20)
#    0.000    1.600    5.333    1.200    0.933    5.333 
#    2.400    0.000    0.000    6.400    0.000    0.000 
#    0.000    0.000    0.000    0.000    0.000    0.000 
#
# Total GULP energy -185952.870025 kJ/mol
# GULP energy per Si atom -12396.858002 kJ/mol
# Density = 1.929148 g / cm^3
# Si number density = 19.335489 Si / 1000 Ang^3
#
#
#
# Elastic Constant Matrix: (Units=GPa)
#
#
# Indices 1 2 3 4 5 6 
#
# 1 75.3275 36.4988 50.4621 -0.0007 16.0422 0.0006
# 2 36.4988 103.5766 37.3284 -0.0004 -4.2389 0.0003
# 3 50.4621 37.3284 84.0028 -0.0007 22.6961 0.0012
# 4 -0.0007 -0.0004 -0.0007 31.5176 0.0007 3.6640
# 5 16.0422 -4.2389 22.6961 0.0007 33.3271 -0.0011
# 6 0.0006 0.0003 0.0012 3.6640 -0.0011 16.0376
#
#
#
# Elastic Compliance Matrix: (Units=1/GPa)
#
#
# Indices 1 2 3 4 5 6 
#
# 1 0.023902 -0.004616 -0.011078 0.000000 -0.004548 0.000000
# 2 -0.004616 0.013479 -0.005245 0.000000 0.007509 0.000001
# 3 -0.011078 -0.005245 0.024056 0.000001 -0.011717 -0.000002
# 4 0.000000 0.000000 0.000001 0.032594 -0.000002 -0.007447
# 5 -0.004548 0.007509 -0.011717 -0.000002 0.041129 0.000004
# 6 0.000000 0.000001 -0.000002 -0.007447 0.000004 0.064055
#
#
# Mechanical properties :
#
#
# Convention : Reuss Voigt Hill
#
# Bulk Modulus (GPa) = 51.13193 56.83173 53.98183
# Shear Modulus (GPa) = 20.19276 25.41765 22.80520
#
# Velocity S-wave (km/s) = 3.23513 3.62962 3.43803
# Velocity P-wave (km/s) = 6.36056 6.85724 6.61357
#
# Compressibility (1/GPa) = 0.01955725
#
# Stress axis : x y z
#
# Youngs Moduli (GPa) = 41.83731 74.18916 41.57003
#
# Poissons Ratio (x) = 0.34248 0.46052
# Poissons Ratio (y) = 0.19313 0.21805
# Poissons Ratio (z) = 0.46349 0.38914
#
# Static dielectric constant tensor:
#      x y z
#    x 3.549600 0.000000 0.056820 
#    y 0.000000 3.794670 0.000000 
#    z 0.056820 0.000000 3.398930 
# 
# 
# High freq. dielectric constant tensor:
#      x y z
#    x 1.749960 0.000000 0.003550 
#    y 0.000000 1.756070 0.000000 
#    z 0.003550 0.000000 1.739820 
# 
# From -- ./inp_files/44882.got.cif
#   From: 2010.03.12/outbox.cif.g09.slc.cpg/sg5_23_cif.got.tgz:44882.got - 2010.03.31 09:47:26.
