data_PCOD8049140
_publ_section_title
;
Structure prediction by ZEFSAII (Michael W. Deem and Ramdas Pophale) SiO2 
 PCOD8049140
Probable space group: C 2
;
_chemical_formula_sum "Si O2"
_cell_formula_units_Z 30
_cell_length_a 12.341824
_cell_length_b 14.160603
_cell_length_c 18.565494
_cell_angle_alpha 90.000000
_cell_angle_beta 27.059781
_cell_angle_gamma 90.000000
_cell_volume 1476.055023
_symmetry_space_group_name_H-M "C 2"
_symmetry_group_IT_number 5
_symmetry_cell_setting 'monoclinic'
loop_
_space_group_symop_operation_xyz
x,y,z
-x,y,-z
1/2+x,1/2+y,z
1/2-x,1/2+y,-z
loop_
_atom_site_type_symbol
_atom_site_label
_atom_site_fract_x
_atom_site_fract_y
_atom_site_fract_z
Si Si1 0.608187 0.549740 0.857322
Si Si2 0.678227 0.406387 0.060936
Si Si3 0.213304 0.194248 0.527997
Si Si4 0.741503 0.837625 0.395471
Si Si5 0.000000 0.374519 0.000000
Si Si6 0.142044 0.487099 0.566050
Si Si7 0.047029 0.334348 0.735041
Si Si8 0.773100 0.749912 0.734070
O O1 0.441932 0.502068 0.895696
O O2 0.603100 0.658573 0.837355
O O3 0.874865 0.508285 0.697175
O O4 0.500000 0.534239 0.000000
O O5 0.469723 0.334980 0.208768
O O6 0.866687 0.431591 0.014083
O O7 0.798870 0.351187 0.923121
O O8 0.208900 0.234803 0.450003
O O9 0.015665 0.248660 0.694595
O O10 0.456304 0.219488 0.423998
O O11 0.193750 0.081439 0.530131
O O12 0.500000 0.866230 0.500000
O O13 0.785734 0.918318 0.428526
O O14 0.209407 0.312151 0.841313
O O15 0.129240 0.433365 0.650263
O O16 0.241742 0.306600 0.678966
#
# Coordination Sequence:
#
# PCOD8049140 Si02
#       8
#     4   4   4   4   2   4   4   4
#     4  11  20  35  62  97 125 163 214 271 313 370
#     4  11  22  38  64  91 132 164 213 262 320 382
#     4  10  22  40  60  89 126 162 218 263 313 377
#     4  11  22  39  61  91 124 170 209 264 320 376
#     4  10  20  38  58  92 120 172 202 266 318 366
#     4  10  22  38  61  90 127 163 217 260 318 375
#     4  10  22  37  60  95 123 167 204 266 326 369
#     4  10  20  36  63  89 124 158 220 262 309 371
#
# _framework density 20.324445000000001
#
# number of rings (size 3 to 8) (size 9 to 14) (size 15 to 20)
#    0.000    1.600    4.667    0.400    1.867    0.000 
#    0.000    2.667    0.000    3.200    0.000    0.000 
#    0.000    0.000    0.000    0.000    0.000    0.000 
#
# Total GULP energy -185926.954295 kJ/mol
# GULP energy per Si atom -12395.130286 kJ/mol
# Density = 2.027819 g / cm^3
# Si number density = 20.324445 Si / 1000 Ang^3
#
#
#
# Elastic Constant Matrix: (Units=GPa)
#
#
# Indices 1 2 3 4 5 6 
#
# 1 93.5145 46.0445 23.4488 -0.0009 13.6233 0.0005
# 2 46.0445 112.2559 27.7924 -0.0515 14.9173 0.0080
# 3 23.4488 27.7924 97.2796 -0.0545 20.4438 -0.0061
# 4 -0.0009 -0.0515 -0.0545 24.0170 -0.0084 -1.5230
# 5 13.6233 14.9173 20.4438 -0.0084 28.8745 -0.0127
# 6 0.0005 0.0080 -0.0061 -1.5230 -0.0127 30.4632
#
#
#
# Elastic Compliance Matrix: (Units=1/GPa)
#
#
# Indices 1 2 3 4 5 6 
#
# 1 0.013917 -0.004981 -0.001283 -0.000014 -0.003084 -0.000001
# 2 -0.004981 0.011687 -0.001602 0.000020 -0.002554 -0.000003
# 3 -0.001283 -0.001602 0.012624 0.000023 -0.007505 0.000001
# 4 -0.000014 0.000020 0.000023 0.041770 -0.000007 0.002088
# 5 -0.003084 -0.002554 -0.007505 -0.000007 0.042721 0.000017
# 6 -0.000001 -0.000003 0.000001 0.002088 0.000017 0.032931
#
#
# Mechanical properties :
#
#
# Convention : Reuss Voigt Hill
#
# Bulk Modulus (GPa) = 44.45199 55.29126 49.87162
# Shear Modulus (GPa) = 27.95167 30.38857 29.17012
#
# Velocity S-wave (km/s) = 3.71249 3.87094 3.79254
# Velocity P-wave (km/s) = 6.34787 6.87330 6.61581
#
# Compressibility (1/GPa) = 0.02249618
#
# Stress axis : x y z
#
# Youngs Moduli (GPa) = 71.85386 85.56413 79.21526
#
# Poissons Ratio (x) = 0.42618 0.10167
# Poissons Ratio (y) = 0.35789 0.12688
# Poissons Ratio (z) = 0.09222 0.13704
#
# Static dielectric constant tensor:
#      x y z
#    x 3.634740 0.000010 0.210260 
#    y 0.000010 3.749730 0.000070 
#    z 0.210260 0.000070 3.813440 
# 
# 
# High freq. dielectric constant tensor:
#      x y z
#    x 1.788050 0.000000 0.018980 
#    y 0.000000 1.779330 0.000010 
#    z 0.018980 0.000010 1.801650 
# 
# From -- ./inp_files/20676.got.cif
#   From: 2010.03.12/outbox.cif.g09.slc.cpg/sg5_11_cif.got.tgz:20676.got - 2010.03.31 09:47:26.
