data_PCOD8049485
_publ_section_title
;
Structure prediction by ZEFSAII (Michael W. Deem and Ramdas Pophale) SiO2 
 PCOD8049485
Probable space group: C 2
;
_chemical_formula_sum "Si O2"
_cell_formula_units_Z 28
_cell_length_a 9.058051
_cell_length_b 12.669890
_cell_length_c 13.783679
_cell_angle_alpha 90.000000
_cell_angle_beta 64.081538
_cell_angle_gamma 90.000000
_cell_volume 1422.767189
_symmetry_space_group_name_H-M "C 2"
_symmetry_group_IT_number 5
_symmetry_cell_setting 'monoclinic'
loop_
_space_group_symop_operation_xyz
x,y,z
-x,y,-z
1/2+x,1/2+y,z
1/2-x,1/2+y,-z
loop_
_atom_site_type_symbol
_atom_site_label
_atom_site_fract_x
_atom_site_fract_y
_atom_site_fract_z
Si Si1 0.075235 0.926890 0.871520
Si Si2 0.114092 0.047825 0.242999
Si Si3 0.334371 0.399290 0.590223
Si Si4 0.561930 0.185439 0.874472
Si Si5 0.878823 0.542454 0.459252
Si Si6 0.860483 0.583205 0.771879
Si Si7 0.811358 0.186850 0.350369
O O1 0.099662 0.805643 0.830176
O O2 0.257916 0.976661 0.820937
O O3 0.955049 0.989123 0.832501
O O4 0.000000 0.935717 0.000000
O O5 0.282578 0.108389 0.174503
O O6 0.989761 0.137865 0.317205
O O7 0.139585 0.959822 0.317048
O O8 0.500000 0.347134 0.500000
O O9 0.280848 0.474947 0.517851
O O10 0.190136 0.313284 0.644584
O O11 0.409463 0.140421 0.856807
O O12 0.500000 0.189002 0.000000
O O13 0.817094 0.647232 0.531551
O O14 0.000000 0.482220 0.500000
O O15 0.968408 0.562683 0.332070
O O16 0.747729 0.659681 0.740756
#
# Coordination Sequence:
#
# PCOD8049485 Si02
#       7
#     4   4   4   4   4   4   4
#     4  10  23  41  62  89 120 158 201 248 303 353
#     4  11  23  41  62  91 120 158 204 244 295 359
#     4  12  22  40  62  90 125 159 199 246 291 356
#     4  11  23  39  63  91 118 155 203 252 301 350
#     4  10  21  40  56  90 121 158 200 239 296 357
#     4  10  20  40  61  82 123 159 194 247 297 353
#     4  10  23  40  60  88 125 160 198 241 299 357
#
# _framework density 19.679960000000001
#
# number of rings (size 3 to 8) (size 9 to 14) (size 15 to 20)
#    0.000    1.429    2.857    3.000    2.000    0.000 
#    2.571    0.000    0.000    6.000    0.000    0.000 
#    0.000    0.000    0.000    0.000    0.000    0.000 
#
# Total GULP energy -173555.397778 kJ/mol
# GULP energy per Si atom -12396.814127 kJ/mol
# Density = 1.963517 g / cm^3
# Si number density = 19.679960 Si / 1000 Ang^3
#
#
#
# Elastic Constant Matrix: (Units=GPa)
#
#
# Indices 1 2 3 4 5 6 
#
# 1 91.6470 53.5052 28.7635 0.0000 10.3658 0.0000
# 2 53.5052 127.5080 36.9391 0.0000 6.9105 0.0000
# 3 28.7635 36.9391 71.4370 0.0000 3.5647 0.0000
# 4 0.0000 0.0000 0.0000 25.0874 0.0000 -4.0001
# 5 10.3658 6.9105 3.5647 0.0000 33.4740 0.0000
# 6 0.0000 0.0000 0.0000 -4.0001 0.0000 34.9890
#
#
#
# Elastic Compliance Matrix: (Units=1/GPa)
#
#
# Indices 1 2 3 4 5 6 
#
# 1 0.015441 -0.005347 -0.003286 0.000000 -0.003328 0.000000
# 2 -0.005347 0.011142 -0.003595 0.000000 -0.000262 0.000000
# 3 -0.003286 -0.003595 0.017184 0.000000 -0.000070 0.000000
# 4 0.000000 0.000000 0.000000 0.040601 0.000000 0.004642
# 5 -0.003328 -0.000262 -0.000070 0.000000 0.030966 0.000000
# 6 0.000000 0.000000 0.000000 0.004642 0.000000 0.029111
#
#
# Mechanical properties :
#
#
# Convention : Reuss Voigt Hill
#
# Bulk Modulus (GPa) = 51.78708 58.77861 55.28285
# Shear Modulus (GPa) = 28.51620 30.13568 29.32594
#
# Velocity S-wave (km/s) = 3.81070 3.91741 3.86442
# Velocity P-wave (km/s) = 6.76267 7.09884 6.93279
#
# Compressibility (1/GPa) = 0.01930984
#
# Stress axis : x y z
#
# Youngs Moduli (GPa) = 64.76323 89.74941 58.19298
#
# Poissons Ratio (x) = 0.47989 0.19124
# Poissons Ratio (y) = 0.34629 0.20923
# Poissons Ratio (z) = 0.21283 0.32269
#
# Static dielectric constant tensor:
#      x y z
#    x 3.770840 0.000000 0.001360 
#    y 0.000000 3.586890 0.000000 
#    z 0.001360 0.000000 3.585330 
# 
# 
# High freq. dielectric constant tensor:
#      x y z
#    x 1.780340 0.000000 0.004860 
#    y 0.000000 1.763470 0.000000 
#    z 0.004860 0.000000 1.768330 
# 
# From -- ./inp_files/50249.got.cif
#   From: 2010.03.12/outbox.cif.g09.slc.cpg/sg5_26_cif.got.tgz:50249.got - 2010.03.31 09:47:26.
