data_PCOD8049475
_publ_section_title
;
Structure prediction by ZEFSAII (Michael W. Deem and Ramdas Pophale) SiO2 
 PCOD8049475
Probable space group: C 2
;
_chemical_formula_sum "Si O2"
_cell_formula_units_Z 24
_cell_length_a 11.415607
_cell_length_b 8.499942
_cell_length_c 22.948763
_cell_angle_alpha 90.000000
_cell_angle_beta 147.561921
_cell_angle_gamma 90.000000
_cell_volume 1194.409255
_symmetry_space_group_name_H-M "C 2"
_symmetry_group_IT_number 5
_symmetry_cell_setting 'monoclinic'
loop_
_space_group_symop_operation_xyz
x,y,z
-x,y,-z
1/2+x,1/2+y,z
1/2-x,1/2+y,-z
loop_
_atom_site_type_symbol
_atom_site_label
_atom_site_fract_x
_atom_site_fract_y
_atom_site_fract_z
Si Si1 0.519263 0.126960 0.642788
Si Si2 0.326100 0.883583 0.993483
Si Si3 0.226665 0.731153 0.066262
Si Si4 0.181506 0.820781 0.814432
Si Si5 0.606942 0.618885 0.291576
Si Si6 0.683757 0.350390 0.532530
O O1 0.609652 0.174612 0.744628
O O2 0.716511 0.071196 0.683807
O O3 0.413524 0.280885 0.568323
O O4 0.350562 0.986005 0.583470
O O5 0.224573 0.769204 0.900244
O O6 0.244802 0.054405 0.942770
O O7 0.223077 0.849153 0.011671
O O8 0.585645 0.885209 0.109283
O O9 0.434140 0.750657 0.195889
O O10 0.000000 0.768680 0.000000
O O11 0.004989 0.958902 0.733871
O O12 0.711072 0.699839 0.391597
O O13 0.500000 0.420638 0.500000
#
# Coordination Sequence:
#
# PCOD8049475 Si02
#       6
#     4   4   4   4   4   4
#     4  11  22  41  64  87 123 157 203 253 305 358
#     4  10  21  39  58  89 125 161 202 245 293 356
#     4  11  21  40  61  87 127 164 200 245 298 355
#     4  10  20  40  60  86 127 159 196 251 298 352
#     4  10  21  39  61  87 121 162 199 247 301 356
#     4  10  24  41  62  91 118 154 207 254 301 360
#
# _framework density 20.093616000000001
#
# number of rings (size 3 to 8) (size 9 to 14) (size 15 to 20)
#    0.000    1.667    5.000    1.000    0.000    5.333 
#    3.000    0.000    0.000    0.000    0.000    0.000 
#    0.000    0.000    0.000    0.000    0.000    0.000 
#
# Total GULP energy -148737.649694 kJ/mol
# GULP energy per Si atom -12394.804141 kJ/mol
# Density = 2.004788 g / cm^3
# Si number density = 20.093616 Si / 1000 Ang^3
#
#
#
# Elastic Constant Matrix: (Units=GPa)
#
#
# Indices 1 2 3 4 5 6 
#
# 1 80.9230 36.5903 23.8094 0.0000 8.4448 0.0000
# 2 36.5903 45.7153 21.9722 0.0000 11.9984 0.0000
# 3 23.8094 21.9722 86.7664 0.0000 11.0747 0.0000
# 4 0.0000 0.0000 0.0000 16.0756 0.0000 -11.2699
# 5 8.4448 11.9984 11.0747 0.0000 27.8833 0.0000
# 6 0.0000 0.0000 0.0000 -11.2699 0.0000 12.4855
#
#
#
# Elastic Compliance Matrix: (Units=1/GPa)
#
#
# Indices 1 2 3 4 5 6 
#
# 1 0.019599 -0.015211 -0.001690 0.000000 0.001281 0.000000
# 2 -0.015211 0.038863 -0.004341 0.000000 -0.010392 0.000000
# 3 -0.001690 -0.004341 0.013467 0.000000 -0.002969 0.000000
# 4 0.000000 0.000000 0.000000 0.169408 0.000000 0.152914
# 5 0.001281 -0.010392 -0.002969 0.000000 0.041127 0.000000
# 6 0.000000 0.000000 0.000000 0.152914 0.000000 0.218120
#
#
# Mechanical properties :
#
#
# Convention : Reuss Voigt Hill
#
# Bulk Modulus (GPa) = 33.96045 42.01648 37.98847
# Shear Modulus (GPa) = 9.04354 20.02441 14.53398
#
# Velocity S-wave (km/s) = 2.12379 3.16025 2.69237
# Velocity P-wave (km/s) = 4.79080 5.85423 5.34901
#
# Compressibility (1/GPa) = 0.02944602
#
# Stress axis : x y z
#
# Youngs Moduli (GPa) = 51.02417 25.73147 74.25484
#
# Poissons Ratio (x) = 0.39139 0.12546
# Poissons Ratio (y) = 0.77611 0.32235
# Poissons Ratio (z) = 0.08621 0.11170
#
# Static dielectric constant tensor:
#      x y z
#    x 3.938010 0.000000 -0.194100 
#    y 0.000000 3.343810 0.000000 
#    z -0.194100 0.000000 4.067700 
# 
# 
# High freq. dielectric constant tensor:
#      x y z
#    x 1.794200 0.000000 -0.001520 
#    y 0.000000 1.755480 0.000000 
#    z -0.001520 0.000000 1.806330 
# 
# From -- ./inp_files/38274.got.cif
#   From: 2010.03.12/outbox.cif.g09.slc.cpg/sg5_20_cif.got.tgz:38274.got - 2010.03.31 09:47:26.
