data_PCOD8049825
_publ_section_title
;
Structure prediction by ZEFSAII (Michael W. Deem and Ramdas Pophale) SiO2 
 PCOD8049825
Probable space group: C 2
;
_chemical_formula_sum "Si O2"
_cell_formula_units_Z 30
_cell_length_a 5.064265
_cell_length_b 23.306628
_cell_length_c 11.617420
_cell_angle_alpha 90.000000
_cell_angle_beta 100.692471
_cell_angle_gamma 90.000000
_cell_volume 1347.406857
_symmetry_space_group_name_H-M "C 2"
_symmetry_group_IT_number 5
_symmetry_cell_setting 'monoclinic'
loop_
_space_group_symop_operation_xyz
x,y,z
-x,y,-z
1/2+x,1/2+y,z
1/2-x,1/2+y,-z
loop_
_atom_site_type_symbol
_atom_site_label
_atom_site_fract_x
_atom_site_fract_y
_atom_site_fract_z
Si Si1 0.560665 0.382700 0.756062
Si Si2 0.777893 0.730436 0.893278
Si Si3 0.500000 0.705784 0.500000
Si Si4 0.387220 0.855331 0.105998
Si Si5 0.472908 0.502525 0.365767
Si Si6 0.455425 0.267462 0.656253
Si Si7 0.471234 0.076207 0.364913
Si Si8 0.356586 0.677496 0.720901
O O1 0.383005 0.382986 0.860054
O O2 0.587303 0.446044 0.710806
O O3 0.432588 0.336745 0.656440
O O4 0.862398 0.358561 0.788448
O O5 0.672652 0.789986 0.937274
O O6 0.884599 0.741987 0.775404
O O7 0.536613 0.683833 0.851634
O O8 0.000000 0.704817 0.000000
O O9 0.763075 0.746340 0.537953
O O10 0.504958 0.661945 0.611090
O O11 0.500000 0.887673 0.000000
O O12 0.500000 0.484273 0.500000
O O13 0.748240 0.526948 0.338466
O O14 0.239929 0.549975 0.331225
O O15 0.753775 0.240751 0.670598
O O16 0.500000 0.096405 0.500000
O O17 0.378923 0.130561 0.279113
#
# Coordination Sequence:
#
# PCOD8049825 Si02
#       8
#     4   4   2   4   4   4   4   4
#     4  11  22  40  62  93 133 165 222 262 330 392
#     4  10  22  37  59  93 133 168 214 263 326 398
#     4  10  22  34  54  92 132 170 218 254 342 390
#     4  11  21  39  64  95 129 169 213 272 323 392
#     4  10  23  41  61  92 126 177 216 269 314 384
#     4  10  21  37  56  93 127 174 204 263 331 393
#     4  10  22  39  63  87 124 171 229 260 315 378
#     4  11  22  37  61  91 128 170 215 274 323 387
#
# _framework density 22.264989
#
# number of rings (size 3 to 8) (size 9 to 14) (size 15 to 20)
#    0.000    1.600    1.333    4.000    6.533    1.067 
#    3.600    0.000    0.000    0.800    3.467    0.000 
#    0.000    0.000    0.000    0.000    0.000    0.000 
#
# Total GULP energy -185844.751262 kJ/mol
# GULP energy per Si atom -12389.650084 kJ/mol
# Density = 2.221431 g / cm^3
# Si number density = 22.264989 Si / 1000 Ang^3
#
#
#
# Elastic Constant Matrix: (Units=GPa)
#
#
# Indices 1 2 3 4 5 6 
#
# 1 75.1185 13.9470 28.2687 0.0000 22.2140 0.0000
# 2 13.9470 96.8503 37.8937 0.0000 14.6784 0.0000
# 3 28.2687 37.8937 95.3204 0.0000 26.5856 0.0000
# 4 0.0000 0.0000 0.0000 19.3190 0.0000 8.5952
# 5 22.2140 14.6784 26.5856 0.0000 43.3084 0.0000
# 6 0.0000 0.0000 0.0000 8.5952 0.0000 24.1273
#
#
#
# Elastic Compliance Matrix: (Units=1/GPa)
#
#
# Indices 1 2 3 4 5 6 
#
# 1 0.016393 -0.000215 -0.002958 0.000000 -0.006520 0.000000
# 2 -0.000215 0.012301 -0.004457 0.000000 -0.001322 0.000000
# 3 -0.002958 -0.004457 0.014836 0.000000 -0.006079 0.000000
# 4 0.000000 0.000000 0.000000 0.061512 0.000000 -0.021913
# 5 -0.006520 -0.001322 -0.006079 0.000000 0.030615 0.000000
# 6 0.000000 0.000000 0.000000 -0.021913 0.000000 0.049253
#
#
# Mechanical properties :
#
#
# Convention : Reuss Voigt Hill
#
# Bulk Modulus (GPa) = 35.37442 47.50089 41.43766
# Shear Modulus (GPa) = 23.85574 29.82960 26.84267
#
# Velocity S-wave (km/s) = 3.27685 3.66424 3.47594
# Velocity P-wave (km/s) = 5.49903 6.26760 5.89585
#
# Compressibility (1/GPa) = 0.02826901
#
# Stress axis : x y z
#
# Youngs Moduli (GPa) = 61.00019 81.29677 67.40549
#
# Poissons Ratio (x) = 0.01751 0.19936
# Poissons Ratio (y) = 0.01314 0.30045
# Poissons Ratio (z) = 0.18041 0.36236
#
# Static dielectric constant tensor:
#      x y z
#    x 4.488420 0.000000 0.013780 
#    y 0.000000 3.745220 0.000000 
#    z 0.013780 0.000000 3.927020 
# 
# 
# High freq. dielectric constant tensor:
#      x y z
#    x 1.901550 0.000000 0.005370 
#    y 0.000000 1.840840 0.000000 
#    z 0.005370 0.000000 1.860770 
# 
# From -- ./inp_files/34261.got.cif
#   From: 2010.03.12/outbox.cif.g09.slc.cpg/sg5_18_cif.got.tgz:34261.got - 2010.03.31 09:47:26.
