data_PCOD8049167
_publ_section_title
;
Structure prediction by ZEFSAII (Michael W. Deem and Ramdas Pophale) SiO2 
 PCOD8049167
Probable space group: C 2
;
_chemical_formula_sum "Si O2"
_cell_formula_units_Z 30
_cell_length_a 11.818030
_cell_length_b 14.058659
_cell_length_c 8.976799
_cell_angle_alpha 90.000000
_cell_angle_beta 78.159304
_cell_angle_gamma 90.000000
_cell_volume 1459.720775
_symmetry_space_group_name_H-M "C 2"
_symmetry_group_IT_number 5
_symmetry_cell_setting 'monoclinic'
loop_
_space_group_symop_operation_xyz
x,y,z
-x,y,-z
1/2+x,1/2+y,z
1/2-x,1/2+y,-z
loop_
_atom_site_type_symbol
_atom_site_label
_atom_site_fract_x
_atom_site_fract_y
_atom_site_fract_z
Si Si1 0.679283 0.694780 0.488812
Si Si2 0.077601 0.261123 0.222495
Si Si3 0.928553 0.097513 0.206160
Si Si4 0.171260 0.577518 0.753573
Si Si5 0.284029 0.309291 0.968855
Si Si6 0.151339 0.356331 0.713401
Si Si7 0.000000 0.682457 0.000000
Si Si8 0.650168 0.523019 0.061674
O O1 0.586566 0.715258 0.384595
O O2 0.630797 0.616496 0.619230
O O3 0.796181 0.648173 0.390751
O O4 0.703682 0.797141 0.559490
O O5 0.012494 0.184794 0.136910
O O6 0.988643 0.350072 0.246777
O O7 0.203649 0.285973 0.130836
O O8 0.022285 0.011109 0.171947
O O9 0.837794 0.079594 0.098684
O O10 0.174193 0.468439 0.695895
O O11 0.269094 0.585605 0.853148
O O12 0.051011 0.613220 0.857462
O O13 0.212736 0.300851 0.834327
O O14 0.308805 0.418828 0.982467
O O15 0.400745 0.246647 0.948455
#
# Coordination Sequence:
#
# PCOD8049167 Si02
#       8
#     4   4   4   4   4   4   2   4
#     4  11  23  42  68  99 133 175 212 279 335 391
#     4  11  22  40  70  94 128 168 220 270 326 386
#     4  10  20  36  67  97 122 160 224 269 321 376
#     4  11  25  43  65  96 134 174 220 272 334 388
#     4  11  24  42  64  94 134 173 220 266 329 388
#     4  10  25  42  67 101 126 172 227 273 325 387
#     4  12  24  42  66  90 138 172 216 268 336 388
#     4  10  22  38  64 100 122 169 224 273 320 386
#
# _framework density 20.551874000000002
#
# number of rings (size 3 to 8) (size 9 to 14) (size 15 to 20)
#    0.000    1.333    2.667    2.800   14.933    1.067 
#    2.400    3.333    0.000    0.000    0.000    0.000 
#    0.000    0.000    0.000    0.000    0.000    0.000 
#
# Total GULP energy -185828.935244 kJ/mol
# GULP energy per Si atom -12388.595683 kJ/mol
# Density = 2.050510 g / cm^3
# Si number density = 20.551874 Si / 1000 Ang^3
#
#
#
# Elastic Constant Matrix: (Units=GPa)
#
#
# Indices 1 2 3 4 5 6 
#
# 1 98.7138 33.4784 64.8130 0.0000 -17.5258 0.0000
# 2 33.4784 88.9858 70.4725 0.0000 -10.2031 0.0000
# 3 64.8130 70.4725 136.7818 0.0000 -9.0149 0.0000
# 4 0.0000 0.0000 0.0000 33.7492 0.0000 3.5524
# 5 -17.5258 -10.2031 -9.0149 0.0000 37.7287 0.0000
# 6 0.0000 0.0000 0.0000 3.5524 0.0000 27.2459
#
#
#
# Elastic Compliance Matrix: (Units=1/GPa)
#
#
# Indices 1 2 3 4 5 6 
#
# 1 0.015822 0.000579 -0.007418 0.000000 0.005734 0.000000
# 2 0.000579 0.019309 -0.010019 0.000000 0.003097 0.000000
# 3 -0.007418 -0.010019 0.015831 0.000000 -0.002372 0.000000
# 4 0.000000 0.000000 0.000000 0.030043 0.000000 -0.003917
# 5 0.005734 0.003097 -0.002372 0.000000 0.029439 0.000000
# 6 0.000000 0.000000 0.000000 -0.003917 0.000000 0.037213
#
#
# Mechanical properties :
#
#
# Convention : Reuss Voigt Hill
#
# Bulk Modulus (GPa) = 57.97722 73.55657 65.76690
# Shear Modulus (GPa) = 26.72046 30.12593 28.42319
#
# Velocity S-wave (km/s) = 3.60967 3.83279 3.72290
# Velocity P-wave (km/s) = 6.75606 7.44684 7.10985
#
# Compressibility (1/GPa) = 0.01724815
#
# Stress axis : x y z
#
# Youngs Moduli (GPa) = 63.20245 51.78811 63.16568
#
# Poissons Ratio (x) = -0.03000 0.46855
# Poissons Ratio (y) = -0.03662 0.63286
# Poissons Ratio (z) = 0.46882 0.51886
#
# Static dielectric constant tensor:
#      x y z
#    x 3.945220 0.000000 0.073660 
#    y 0.000000 3.771060 0.000000 
#    z 0.073660 0.000000 3.763860 
# 
# 
# High freq. dielectric constant tensor:
#      x y z
#    x 1.800980 0.000000 0.004430 
#    y 0.000000 1.807750 0.000000 
#    z 0.004430 0.000000 1.802920 
# 
# From -- ./inp_files/20382.got.cif
#   From: 2010.03.12/outbox.cif.g09.slc.cpg/sg5_11_cif.got.tgz:20382.got - 2010.03.31 09:47:26.
