data_PCOD8049738
_publ_section_title
;
Structure prediction by ZEFSAII (Michael W. Deem and Ramdas Pophale) SiO2 
 PCOD8049738
Probable space group: C 2
;
_chemical_formula_sum "Si O2"
_cell_formula_units_Z 24
_cell_length_a 15.853038
_cell_length_b 7.832357
_cell_length_c 9.115942
_cell_angle_alpha 90.000000
_cell_angle_beta 74.004694
_cell_angle_gamma 90.000000
_cell_volume 1088.073833
_symmetry_space_group_name_H-M "C 2"
_symmetry_group_IT_number 5
_symmetry_cell_setting 'monoclinic'
loop_
_space_group_symop_operation_xyz
x,y,z
-x,y,-z
1/2+x,1/2+y,z
1/2-x,1/2+y,-z
loop_
_atom_site_type_symbol
_atom_site_label
_atom_site_fract_x
_atom_site_fract_y
_atom_site_fract_z
Si Si1 0.000000 0.805380 0.500000
Si Si2 0.318244 0.288011 0.624426
Si Si3 0.834453 0.286883 0.818500
Si Si4 0.500000 0.342433 0.000000
Si Si5 0.667149 0.669556 0.493862
Si Si6 0.832281 0.666895 0.936518
Si Si7 0.003237 0.070592 0.740700
O O1 0.089863 0.698526 0.479025
O O2 0.969640 0.923266 0.649249
O O3 0.319831 0.484832 0.580895
O O4 0.241396 0.194511 0.577820
O O5 0.307069 0.273499 0.804052
O O6 0.831170 0.303668 0.642028
O O7 0.842212 0.470695 0.887929
O O8 0.920384 0.183514 0.828574
O O9 0.746781 0.189544 0.911457
O O10 0.576654 0.227188 0.033241
O O11 0.456295 0.469596 0.140250
O O12 0.575606 0.686764 0.625330
#
# Coordination Sequence:
#
# PCOD8049738 Si02
#       7
#     2   4   4   2   4   4   4
#     4  10  20  46  70  94 140 182 228 286 348 402
#     4  11  23  45  67 107 136 186 236 284 353 414
#     4  12  25  49  70 102 144 187 239 295 349 420
#     4  12  26  48  72 104 144 186 234 288 358 430
#     4  11  24  44  75 103 141 184 239 291 351 417
#     4  12  28  45  72 103 145 190 235 293 353 421
#     4  11  23  47  74  98 142 186 229 294 351 418
#
# _framework density 22.057327000000001
#
# number of rings (size 3 to 8) (size 9 to 14) (size 15 to 20)
#    0.000    0.667    5.000    3.000    9.333    0.667 
#    9.000    0.000    0.000    0.000    0.000    0.000 
#    0.000    0.000    0.000    0.000    0.000    0.000 
#
# Total GULP energy -148755.682939 kJ/mol
# GULP energy per Si atom -12396.306912 kJ/mol
# Density = 2.200712 g / cm^3
# Si number density = 22.057327 Si / 1000 Ang^3
#
#
#
# Elastic Constant Matrix: (Units=GPa)
#
#
# Indices 1 2 3 4 5 6 
#
# 1 185.3443 46.5013 77.5517 0.0000 -2.5704 0.0000
# 2 46.5013 68.0518 58.9310 0.0000 -1.9059 0.0000
# 3 77.5517 58.9310 140.5088 0.0000 -0.7041 0.0000
# 4 0.0000 0.0000 0.0000 35.3961 0.0000 -0.4563
# 5 -2.5704 -1.9059 -0.7041 0.0000 50.1504 0.0000
# 6 0.0000 0.0000 0.0000 -0.4563 0.0000 45.1401
#
#
#
# Elastic Compliance Matrix: (Units=1/GPa)
#
#
# Indices 1 2 3 4 5 6 
#
# 1 0.007247 -0.002328 -0.003022 0.000000 0.000241 0.000000
# 2 -0.002328 0.023851 -0.008715 0.000000 0.000665 0.000000
# 3 -0.003022 -0.008715 0.012439 0.000000 -0.000311 0.000000
# 4 0.000000 0.000000 0.000000 0.028255 0.000000 0.000286
# 5 0.000241 0.000665 -0.000311 0.000000 0.019973 0.000000
# 6 0.000000 0.000000 0.000000 0.000286 0.000000 0.022156
#
#
# Mechanical properties :
#
#
# Convention : Reuss Voigt Hill
#
# Bulk Modulus (GPa) = 64.90990 84.43033 74.67011
# Shear Modulus (GPa) = 33.96983 40.19871 37.08427
#
# Velocity S-wave (km/s) = 3.92863 4.27367 4.10477
# Velocity P-wave (km/s) = 7.07605 7.91916 7.50945
#
# Compressibility (1/GPa) = 0.01540597
#
# Stress axis : x y z
#
# Youngs Moduli (GPa) = 137.97878 41.92640 80.39337
#
# Poissons Ratio (x) = 0.09762 0.24298
# Poissons Ratio (y) = 0.32125 0.70064
# Poissons Ratio (z) = 0.41703 0.36539
#
# Static dielectric constant tensor:
#      x y z
#    x 3.851270 0.000000 -0.385960 
#    y 0.000000 3.770980 0.000000 
#    z -0.385960 0.000000 3.800260 
# 
# 
# High freq. dielectric constant tensor:
#      x y z
#    x 1.885710 0.000000 -0.001740 
#    y 0.000000 1.849990 0.000000 
#    z -0.001740 0.000000 1.883170 
# 
# From -- ./inp_files/22819.got.cif
#   From: 2010.03.12/outbox.cif.g09.slc.cpg/sg5_12_cif.got.tgz:22819.got - 2010.03.31 09:47:26.
