data_PCOD8049939
_publ_section_title
;
Structure prediction by ZEFSAII (Michael W. Deem and Ramdas Pophale) SiO2 
 PCOD8049939
Probable space group: C 2
;
_chemical_formula_sum "Si O2"
_cell_formula_units_Z 24
_cell_length_a 23.674218
_cell_length_b 8.967720
_cell_length_c 16.461258
_cell_angle_alpha 90.000000
_cell_angle_beta 161.656175
_cell_angle_gamma 90.000000
_cell_volume 1099.874350
_symmetry_space_group_name_H-M "C 2"
_symmetry_group_IT_number 5
_symmetry_cell_setting 'monoclinic'
loop_
_space_group_symop_operation_xyz
x,y,z
-x,y,-z
1/2+x,1/2+y,z
1/2-x,1/2+y,-z
loop_
_atom_site_type_symbol
_atom_site_label
_atom_site_fract_x
_atom_site_fract_y
_atom_site_fract_z
Si Si1 0.954852 0.606140 0.606040
Si Si2 0.691232 0.318364 0.725505
Si Si3 0.925780 0.864317 0.685787
Si Si4 0.820691 0.865395 0.723371
Si Si5 0.301400 0.563357 0.385543
Si Si6 0.834715 0.102751 0.045156
O O1 0.831094 0.689066 0.371567
O O2 0.982870 0.708642 0.723151
O O3 0.857301 0.456306 0.500365
O O4 0.146079 0.562209 0.828732
O O5 0.500000 0.359794 0.500000
O O6 0.758560 0.473958 0.777557
O O7 0.821794 0.256584 0.974901
O O8 0.833671 0.834219 0.645677
O O9 0.775674 0.949381 0.426180
O O10 0.105857 0.968084 0.934925
O O11 0.819583 0.708907 0.770644
O O12 0.000000 0.949554 0.000000
O O13 0.512807 0.615712 0.676513
#
# Coordination Sequence:
#
# PCOD8049939 Si02
#       6
#     4   4   4   4   4   4
#     4  10  21  38  70  91 131 170 222 280 335 397
#     4   9  18  40  62  95 129 166 214 277 336 395
#     4   9  21  42  62  94 124 170 228 262 337 401
#     4  12  24  41  57  94 137 175 217 271 337 411
#     4   9  22  40  63  94 129 168 232 265 332 411
#     4   9  20  39  71  96 123 170 227 282 338 389
#
# _framework density 21.820672999999999
#
# number of rings (size 3 to 8) (size 9 to 14) (size 15 to 20)
#    1.000    1.333    0.000    2.000    2.333    0.000 
#    9.000    4.167    0.000    0.000    0.000    0.000 
#    0.000    0.000    0.000    0.000    0.000    0.000 
#
# Total GULP energy -148687.200340 kJ/mol
# GULP energy per Si atom -12390.600028 kJ/mol
# Density = 2.177101 g / cm^3
# Si number density = 21.820673 Si / 1000 Ang^3
#
#
#
# Elastic Constant Matrix: (Units=GPa)
#
#
# Indices 1 2 3 4 5 6 
#
# 1 116.1889 59.4941 25.8913 0.0000 17.5245 0.0000
# 2 59.4941 123.8491 33.0015 0.0000 16.1313 0.0000
# 3 25.8913 33.0015 76.3726 0.0000 8.5368 0.0000
# 4 0.0000 0.0000 0.0000 22.0526 0.0000 -0.1341
# 5 17.5245 16.1313 8.5368 0.0000 29.9560 0.0000
# 6 0.0000 0.0000 0.0000 -0.1341 0.0000 31.7658
#
#
#
# Elastic Compliance Matrix: (Units=1/GPa)
#
#
# Indices 1 2 3 4 5 6 
#
# 1 0.012036 -0.004852 -0.001538 0.000000 -0.003990 0.000000
# 2 -0.004852 0.011548 -0.003065 0.000000 -0.002507 0.000000
# 3 -0.001538 -0.003065 0.015137 0.000000 -0.001764 0.000000
# 4 0.000000 0.000000 0.000000 0.045347 0.000000 0.000191
# 5 -0.003990 -0.002507 -0.001764 0.000000 0.037569 0.000000
# 6 0.000000 0.000000 0.000000 0.000191 0.000000 0.031481
#
#
# Mechanical properties :
#
#
# Convention : Reuss Voigt Hill
#
# Bulk Modulus (GPa) = 50.47715 61.46493 55.97104
# Shear Modulus (GPa) = 27.99060 29.95646 28.97353
#
# Velocity S-wave (km/s) = 3.58544 3.70922 3.64785
# Velocity P-wave (km/s) = 6.35008 6.82450 6.59156
#
# Compressibility (1/GPa) = 0.01981094
#
# Stress axis : x y z
#
# Youngs Moduli (GPa) = 83.08656 86.59146 66.06537
#
# Poissons Ratio (x) = 0.42016 0.10158
# Poissons Ratio (y) = 0.40316 0.20249
# Poissons Ratio (z) = 0.12775 0.26541
#
# Static dielectric constant tensor:
#      x y z
#    x 3.906200 0.000000 -0.028940 
#    y 0.000000 3.799830 0.000000 
#    z -0.028940 0.000000 3.562510 
# 
# 
# High freq. dielectric constant tensor:
#      x y z
#    x 1.854360 0.000000 0.004530 
#    y 0.000000 1.853750 0.000000 
#    z 0.004530 0.000000 1.836730 
# 
# From -- ./inp_files/63310.got.cif
#   From: 2010.03.12/outbox.cif.g09.slc.cpg/sg5_32_cif.got.tgz:63310.got - 2010.03.31 09:47:26.
