data_PCOD8049992
_publ_section_title
;
Structure prediction by ZEFSAII (Michael W. Deem and Ramdas Pophale) SiO2 
 PCOD8049992
Probable space group: C 2
;
_chemical_formula_sum "Si O2"
_cell_formula_units_Z 26
_cell_length_a 11.692054
_cell_length_b 8.666898
_cell_length_c 15.967372
_cell_angle_alpha 90.000000
_cell_angle_beta 125.565706
_cell_angle_gamma 90.000000
_cell_volume 1316.189109
_symmetry_space_group_name_H-M "C 2"
_symmetry_group_IT_number 5
_symmetry_cell_setting 'monoclinic'
loop_
_space_group_symop_operation_xyz
x,y,z
-x,y,-z
1/2+x,1/2+y,z
1/2-x,1/2+y,-z
loop_
_atom_site_type_symbol
_atom_site_label
_atom_site_fract_x
_atom_site_fract_y
_atom_site_fract_z
Si Si1 0.277956 0.445520 0.371096
Si Si2 0.500000 0.200852 0.500000
Si Si3 0.495492 0.948246 0.636551
Si Si4 0.000000 0.769943 0.000000
Si Si5 0.868399 0.489273 0.028775
Si Si6 0.500000 0.700368 0.500000
Si Si7 0.665122 0.841665 0.153285
Si Si8 0.270440 0.492558 0.854605
O O1 0.360761 0.304397 0.448650
O O2 0.362746 0.602071 0.420910
O O3 0.263888 0.414699 0.266295
O O4 0.125970 0.464012 0.347062
O O5 0.504587 0.102037 0.585905
O O6 0.463173 0.802542 0.564762
O O7 0.641820 0.925881 0.746659
O O8 0.899095 0.874623 0.899391
O O9 0.085927 0.663951 0.971909
O O10 0.764942 0.498261 0.062324
O O11 0.002972 0.381154 0.104128
O O12 0.786636 0.417308 0.914092
O O13 0.681939 0.658013 0.159047
#
# Coordination Sequence:
#
# PCOD8049992 Si02
#       8
#     4   2   4   2   4   2   4   4
#     4  11  21  43  64  88 123 162 202 249 309 359
#     4  10  22  42  62  90 122 156 206 254 304 358
#     4  11  23  39  65  91 121 161 200 256 305 357
#     4  10  24  38  60  90 122 158 198 246 292 364
#     4  10  23  42  60  87 126 157 203 250 298 365
#     4  10  26  40  62  92 124 156 210 254 298 364
#     4  10  21  39  64  89 119 162 200 247 302 364
#     4  12  22  40  64  91 123 160 201 247 307 356
#
# _framework density 19.754000000000001
#
# number of rings (size 3 to 8) (size 9 to 14) (size 15 to 20)
#    0.000    1.538    3.077    2.769    4.308    0.000 
#    0.000    1.538    0.000    0.000    0.000    0.000 
#    0.000    0.000    0.000    0.000    0.000    0.000 
#
# Total GULP energy -161249.663534 kJ/mol
# GULP energy per Si atom -12403.820272 kJ/mol
# Density = 1.970904 g / cm^3
# Si number density = 19.754000 Si / 1000 Ang^3
#
#
#
# Elastic Constant Matrix: (Units=GPa)
#
#
# Indices 1 2 3 4 5 6 
#
# 1 47.8152 29.1786 27.0058 0.0000 6.5396 0.0000
# 2 29.1786 115.5393 35.1890 0.0000 6.4436 0.0000
# 3 27.0058 35.1890 107.8162 0.0000 7.8032 0.0000
# 4 0.0000 0.0000 0.0000 0.5631 0.0000 -11.0155
# 5 6.5396 6.4436 7.8032 0.0000 34.6656 0.0000
# 6 0.0000 0.0000 0.0000 -11.0155 0.0000 13.1332
#
#
#
# Elastic Compliance Matrix: (Units=1/GPa)
#
#
# Indices 1 2 3 4 5 6 
#
# 1 0.027296 -0.005227 -0.004909 0.000000 -0.003073 0.000000
# 2 -0.005227 0.010653 -0.002130 0.000000 -0.000514 0.000000
# 3 -0.004909 -0.002130 0.011288 0.000000 -0.001219 0.000000
# 4 0.000000 0.000000 0.000000 -0.115257 0.000000 -0.096672
# 5 -0.003073 -0.000514 -0.001219 0.000000 0.029797 0.000000
# 6 0.000000 0.000000 0.000000 -0.096672 0.000000 -0.004942
#
#
# Mechanical properties :
#
#
# Convention : Reuss Voigt Hill
#
# Bulk Modulus (GPa) = 40.47801 50.43528 45.45664
# Shear Modulus (GPa) = -595.43246 21.65885 -286.88680
#
# Velocity S-wave (km/s) = -17.38039 3.31483 -12.06420
# Velocity P-wave (km/s) = 19.55084 6.34333 13.07665
#
# Compressibility (1/GPa) = 0.02470477
#
# Stress axis : x y z
#
# Youngs Moduli (GPa) = 36.63495 93.87362 88.58890
#
# Poissons Ratio (x) = 0.49069 0.43486
# Poissons Ratio (y) = 0.19149 0.18872
# Poissons Ratio (z) = 0.17983 0.19998
#
# Static dielectric constant tensor:
#      x y z
#    x 3.371190 0.000000 0.019380 
#    y 0.000000 3.702930 0.000000 
#    z 0.019380 0.000000 3.755940 
# 
# 
# High freq. dielectric constant tensor:
#      x y z
#    x 1.758330 0.000000 0.002760 
#    y 0.000000 1.782720 0.000000 
#    z 0.002760 0.000000 1.783470 
# 
# From -- ./inp_files/38404.got.cif
#   From: 2010.03.12/outbox.cif.g09.slc.cpg/sg5_20_cif.got.tgz:38404.got - 2010.03.31 09:47:26.
