data_PCOD8049482
_publ_section_title
;
Structure prediction by ZEFSAII (Michael W. Deem and Ramdas Pophale) SiO2 
 PCOD8049482
Probable space group: C 2
;
_chemical_formula_sum "Si O2"
_cell_formula_units_Z 32
_cell_length_a 19.733107
_cell_length_b 11.639102
_cell_length_c 8.392360
_cell_angle_alpha 90.000000
_cell_angle_beta 50.330930
_cell_angle_gamma 90.000000
_cell_volume 1483.698010
_symmetry_space_group_name_H-M "C 2"
_symmetry_group_IT_number 5
_symmetry_cell_setting 'monoclinic'
loop_
_space_group_symop_operation_xyz
x,y,z
-x,y,-z
1/2+x,1/2+y,z
1/2-x,1/2+y,-z
loop_
_atom_site_type_symbol
_atom_site_label
_atom_site_fract_x
_atom_site_fract_y
_atom_site_fract_z
Si Si1 0.609577 0.169730 0.949776
Si Si2 0.794712 0.125994 0.548224
Si Si3 0.948956 0.548087 0.262926
Si Si4 0.099401 0.090547 0.322449
Si Si5 0.093462 0.303239 0.823767
Si Si6 0.775897 0.539168 0.665487
Si Si7 0.833625 0.882146 0.968900
Si Si8 0.200888 0.253461 0.959546
O O1 0.715205 0.155190 0.790440
O O2 0.577878 0.154963 0.814399
O O3 0.552286 0.077112 0.144245
O O4 0.597841 0.295467 0.047373
O O5 0.861078 0.058008 0.563579
O O6 0.845027 0.235469 0.394202
O O7 0.758025 0.042330 0.466268
O O8 0.934244 0.427086 0.199748
O O9 0.883000 0.547420 0.512177
O O10 0.000000 0.121179 0.500000
O O11 0.108518 0.987119 0.183272
O O12 0.140794 0.209416 0.194988
O O13 0.144452 0.323109 0.913682
O O14 0.000000 0.237190 0.000000
O O15 0.740727 0.642870 0.818178
O O16 0.740122 0.421633 0.792938
O O17 0.781581 0.829635 0.897965
#
# Coordination Sequence:
#
# PCOD8049482 Si02
#       8
#     4   4   4   4   4   4   4   4
#     4  10  20  40  60  95 129 166 202 272 316 384
#     4  10  21  41  67  87 132 165 216 270 314 391
#     4  10  21  37  65  95 130 153 224 266 315 378
#     4  11  24  43  59  94 127 166 221 264 323 383
#     4  11  21  38  67  98 122 165 216 270 327 373
#     4   9  22  41  61  96 120 172 222 257 319 393
#     4  11  23  41  67  88 132 177 211 259 339 385
#     4  10  23  40  65  90 131 169 213 265 327 393
#
# _framework density 21.567731999999999
#
# number of rings (size 3 to 8) (size 9 to 14) (size 15 to 20)
#    0.000    1.750    2.500    1.500    3.500    1.000 
#    4.500    0.000    0.000    0.000    0.000    0.000 
#    0.000    0.000    0.000    0.000    0.000    0.000 
#
# Total GULP energy -198238.281234 kJ/mol
# GULP energy per Si atom -12389.892577 kJ/mol
# Density = 2.151864 g / cm^3
# Si number density = 21.567732 Si / 1000 Ang^3
#
#
#
# Elastic Constant Matrix: (Units=GPa)
#
#
# Indices 1 2 3 4 5 6 
#
# 1 67.4865 26.0893 38.7612 0.0000 -9.2187 0.0000
# 2 26.0893 75.2085 18.2072 0.0000 -0.8357 0.0000
# 3 38.7612 18.2072 110.0659 0.0000 -21.1672 0.0000
# 4 0.0000 0.0000 0.0000 19.1740 0.0000 -7.9098
# 5 -9.2187 -0.8357 -21.1672 0.0000 38.2206 0.0000
# 6 0.0000 0.0000 0.0000 -7.9098 0.0000 28.4070
#
#
#
# Elastic Compliance Matrix: (Units=1/GPa)
#
#
# Indices 1 2 3 4 5 6 
#
# 1 0.020708 -0.005700 -0.006058 0.000000 0.001515 0.000000
# 2 -0.005700 0.015460 -0.000839 0.000000 -0.001501 0.000000
# 3 -0.006058 -0.000839 0.012393 0.000000 0.005384 0.000000
# 4 0.000000 0.000000 0.000000 0.058922 0.000000 0.016407
# 5 0.001515 -0.001501 0.005384 0.000000 0.029478 0.000000
# 6 0.000000 0.000000 0.000000 0.016407 0.000000 0.039771
#
#
# Mechanical properties :
#
#
# Convention : Reuss Voigt Hill
#
# Bulk Modulus (GPa) = 42.79568 46.54182 44.66875
# Shear Modulus (GPa) = 23.84183 28.47386 26.15784
#
# Velocity S-wave (km/s) = 3.32842 3.63741 3.48634
# Velocity P-wave (km/s) = 5.88700 6.26635 6.07963
#
# Compressibility (1/GPa) = 0.02336684
#
# Stress axis : x y z
#
# Youngs Moduli (GPa) = 48.29088 64.68295 80.68966
#
# Poissons Ratio (x) = 0.36869 0.48884
# Poissons Ratio (y) = 0.27525 0.06769
# Poissons Ratio (z) = 0.29256 0.05426
#
# Static dielectric constant tensor:
#      x y z
#    x 4.011630 0.000000 -0.299840 
#    y 0.000000 3.709520 0.000000 
#    z -0.299840 0.000000 4.576380 
# 
# 
# High freq. dielectric constant tensor:
#      x y z
#    x 1.833550 0.000000 -0.012110 
#    y 0.000000 1.829790 0.000000 
#    z -0.012110 0.000000 1.865580 
# 
# From -- ./inp_files/29611.got.cif
#   From: 2010.03.12/outbox.cif.g09.slc.cpg/sg5_15_cif.got.tgz:29611.got - 2010.03.31 09:47:26.
