data_PCOD8049755
_publ_section_title
;
Structure prediction by ZEFSAII (Michael W. Deem and Ramdas Pophale) SiO2 
 PCOD8049755
Probable space group: C 2
;
_chemical_formula_sum "Si O2"
_cell_formula_units_Z 22
_cell_length_a 5.366314
_cell_length_b 18.613645
_cell_length_c 13.262557
_cell_angle_alpha 90.000000
_cell_angle_beta 112.674217
_cell_angle_gamma 90.000000
_cell_volume 1222.364635
_symmetry_space_group_name_H-M "C 2"
_symmetry_group_IT_number 5
_symmetry_cell_setting 'monoclinic'
loop_
_space_group_symop_operation_xyz
x,y,z
-x,y,-z
1/2+x,1/2+y,z
1/2-x,1/2+y,-z
loop_
_atom_site_type_symbol
_atom_site_label
_atom_site_fract_x
_atom_site_fract_y
_atom_site_fract_z
Si Si1 0.285990 0.948770 0.796460
Si Si2 0.678799 0.192363 0.431176
Si Si3 0.870631 0.904108 0.879120
Si Si4 0.269678 0.034422 0.605345
Si Si5 0.000000 0.420811 0.500000
Si Si6 0.411519 0.333099 0.687017
O O1 0.603850 0.947930 0.870184
O O2 0.204300 0.872364 0.729953
O O3 0.214378 0.015833 0.713078
O O4 0.098504 0.957984 0.866947
O O5 0.500000 0.211244 0.500000
O O6 0.595833 0.112971 0.380518
O O7 0.581140 0.248116 0.330388
O O8 0.000000 0.199508 0.500000
O O9 0.791409 0.844916 0.781760
O O10 0.000000 0.868645 0.000000
O O11 0.000000 0.035509 0.500000
O O12 0.458991 0.972069 0.590368
O O13 0.244743 0.369622 0.569685
#
# Coordination Sequence:
#
# PCOD8049755 Si02
#       6
#     4   4   4   4   2   4
#     4  10  21  34  60  82 106 149 189 235 277 329
#     4  11  25  35  51  83 124 154 181 223 276 343
#     4  10  21  37  58  86 109 140 195 246 285 317
#     4  11  20  35  52  84 120 154 181 221 284 338
#     4  12  18  36  54  86 118 148 188 228 276 346
#     4  10  23  32  60  83 113 151 186 235 272 336
#
# _framework density 17.997903000000001
#
# number of rings (size 3 to 8) (size 9 to 14) (size 15 to 20)
#    1.091    0.364    5.455    0.545    5.091    0.000 
#    0.000    0.000    0.000    2.182    0.000    0.000 
#    0.000    0.000    0.000    0.000    0.000    0.000 
#
# Total GULP energy -136280.598221 kJ/mol
# GULP energy per Si atom -12389.145293 kJ/mol
# Density = 1.795694 g / cm^3
# Si number density = 17.997903 Si / 1000 Ang^3
#
#
#
# Elastic Constant Matrix: (Units=GPa)
#
#
# Indices 1 2 3 4 5 6 
#
# 1 113.8623 14.3885 26.1229 0.0000 -2.6859 0.0000
# 2 14.3885 82.5630 30.1519 0.0000 2.8091 0.0000
# 3 26.1229 30.1519 87.5081 0.0000 1.5121 0.0000
# 4 0.0000 0.0000 0.0000 -5.6133 0.0000 -17.2836
# 5 -2.6859 2.8091 1.5121 0.0000 21.1674 0.0000
# 6 0.0000 0.0000 0.0000 -17.2836 0.0000 10.5971
#
#
#
# Elastic Compliance Matrix: (Units=1/GPa)
#
#
# Indices 1 2 3 4 5 6 
#
# 1 0.009511 -0.000757 -0.002604 0.000000 0.001493 0.000000
# 2 -0.000757 0.013963 -0.004557 0.000000 -0.001624 0.000000
# 3 -0.002604 -0.004557 0.013787 0.000000 -0.000711 0.000000
# 4 0.000000 0.000000 0.000000 -0.029584 0.000000 -0.048250
# 5 0.001493 -0.001624 -0.000711 0.000000 0.047698 0.000000
# 6 0.000000 0.000000 0.000000 -0.048250 0.000000 0.015671
#
#
# Mechanical properties :
#
#
# Convention : Reuss Voigt Hill
#
# Bulk Modulus (GPa) = 46.67508 47.25112 46.96310
# Shear Modulus (GPa) = 53.17717 19.44824 36.31270
#
# Velocity S-wave (km/s) = 5.44155 3.29079 4.49665
# Velocity P-wave (km/s) = 8.09139 6.38355 7.28767
#
# Compressibility (1/GPa) = 0.02142471
#
# Stress axis : x y z
#
# Youngs Moduli (GPa) = 105.14251 71.61555 72.53016
#
# Poissons Ratio (x) = 0.05423 0.18887
# Poissons Ratio (y) = 0.07962 0.33053
# Poissons Ratio (z) = 0.27380 0.32636
#
# Static dielectric constant tensor:
#      x y z
#    x 3.379630 0.000000 -0.124420 
#    y 0.000000 3.311310 0.000000 
#    z -0.124420 0.000000 3.236870 
# 
# 
# High freq. dielectric constant tensor:
#      x y z
#    x 1.705140 0.000000 -0.005110 
#    y 0.000000 1.666490 0.000000 
#    z -0.005110 0.000000 1.679530 
# 
# From -- ./inp_files/33472.got.cif
#   From: 2010.03.12/outbox.cif.g09.slc.cpg/sg5_17_cif.got.tgz:33472.got - 2010.03.31 09:47:26.
