data_PCOD8049429
_publ_section_title
;
Structure prediction by ZEFSAII (Michael W. Deem and Ramdas Pophale) SiO2 
 PCOD8049429
Probable space group: C 2
;
_chemical_formula_sum "Si O2"
_cell_formula_units_Z 28
_cell_length_a 13.565295
_cell_length_b 12.590109
_cell_length_c 8.374864
_cell_angle_alpha 90.000000
_cell_angle_beta 69.909657
_cell_angle_gamma 90.000000
_cell_volume 1343.298279
_symmetry_space_group_name_H-M "C 2"
_symmetry_group_IT_number 5
_symmetry_cell_setting 'monoclinic'
loop_
_space_group_symop_operation_xyz
x,y,z
-x,y,-z
1/2+x,1/2+y,z
1/2-x,1/2+y,-z
loop_
_atom_site_type_symbol
_atom_site_label
_atom_site_fract_x
_atom_site_fract_y
_atom_site_fract_z
Si Si1 0.500000 0.651911 0.000000
Si Si2 0.602069 0.029203 0.739887
Si Si3 0.893044 0.618189 0.902069
Si Si4 0.355368 0.334938 0.792904
Si Si5 0.184452 0.119601 0.424928
Si Si6 0.842365 0.286996 0.299055
Si Si7 0.000000 0.965075 0.500000
Si Si8 0.182377 0.054695 0.072431
O O1 0.421320 0.723505 0.143568
O O2 0.567525 0.572246 0.068573
O O3 0.608644 0.903524 0.715506
O O4 0.487114 0.068250 0.741916
O O5 0.699521 0.078379 0.586526
O O6 0.605080 0.071269 0.920383
O O7 0.899003 0.746234 0.890490
O O8 0.776369 0.589937 0.900673
O O9 0.274978 0.287587 0.707217
O O10 0.457441 0.388362 0.659906
O O11 0.294593 0.429889 0.915474
O O12 0.162605 0.231975 0.523110
O O13 0.184679 0.126707 0.232523
O O14 0.093266 0.036241 0.524802
#
# Coordination Sequence:
#
# PCOD8049429 Si02
#       8
#     2   4   4   4   4   4   2   4
#     4  12  24  38  72  94 128 170 228 262 320 394
#     4  10  22  40  64  91 133 167 209 267 327 380
#     4  10  20  39  64  94 127 167 210 269 324 377
#     4  11  22  38  68  89 131 174 212 266 332 369
#     4  10  22  41  66  91 131 173 215 260 320 386
#     4  12  22  39  69  93 121 182 210 257 338 377
#     4  10  20  42  60  88 132 170 212 268 310 382
#     4  10  22  44  63  97 133 168 219 272 312 386
#
# _framework density 20.844217
#
# number of rings (size 3 to 8) (size 9 to 14) (size 15 to 20)
#    0.000    1.429    5.714    2.571    2.000    1.143 
#    0.000    2.857   12.571    0.000    0.000    0.000 
#    0.000    0.000    0.000    0.000    0.000    0.000 
#
# Total GULP energy -173448.599698 kJ/mol
# GULP energy per Si atom -12389.185693 kJ/mol
# Density = 2.079677 g / cm^3
# Si number density = 20.844217 Si / 1000 Ang^3
#
#
#
# Elastic Constant Matrix: (Units=GPa)
#
#
# Indices 1 2 3 4 5 6 
#
# 1 140.0202 53.5273 54.8018 0.0000 -33.7754 0.0000
# 2 53.5273 165.0770 62.2513 0.0000 -4.6075 0.0000
# 3 54.8018 62.2513 59.8134 0.0000 -17.5576 0.0000
# 4 0.0000 0.0000 0.0000 35.9004 0.0000 6.9837
# 5 -33.7754 -4.6075 -17.5576 0.0000 37.6049 0.0000
# 6 0.0000 0.0000 0.0000 6.9837 0.0000 31.9944
#
#
#
# Elastic Compliance Matrix: (Units=1/GPa)
#
#
# Indices 1 2 3 4 5 6 
#
# 1 0.012499 -0.000521 -0.008845 0.000000 0.007033 0.000000
# 2 -0.000521 0.010600 -0.011948 0.000000 -0.004748 0.000000
# 3 -0.008845 -0.011948 0.039975 0.000000 0.009256 0.000000
# 4 0.000000 0.000000 0.000000 0.029090 0.000000 -0.006350
# 5 0.007033 -0.004748 0.009256 0.000000 0.036649 0.000000
# 6 0.000000 0.000000 0.000000 -0.006350 0.000000 0.032641
#
#
# Mechanical properties :
#
#
# Convention : Reuss Voigt Hill
#
# Bulk Modulus (GPa) = 48.91174 78.45235 63.68205
# Shear Modulus (GPa) = 23.70800 34.05530 28.88165
#
# Velocity S-wave (km/s) = 3.37618 4.04642 3.72640
# Velocity P-wave (km/s) = 6.22209 7.71690 7.00945
#
# Compressibility (1/GPa) = 0.02044499
#
# Stress axis : x y z
#
# Youngs Moduli (GPa) = 80.00364 94.33982 25.01554
#
# Poissons Ratio (x) = 0.04916 0.22127
# Poissons Ratio (y) = 0.04169 0.29889
# Poissons Ratio (z) = 0.70767 1.12720
#
# Static dielectric constant tensor:
#      x y z
#    x 4.762830 0.000000 -0.694980 
#    y 0.000000 3.807590 0.000000 
#    z -0.694980 0.000000 3.775050 
# 
# 
# High freq. dielectric constant tensor:
#      x y z
#    x 1.832890 0.000000 -0.036920 
#    y 0.000000 1.818630 0.000000 
#    z -0.036920 0.000000 1.787420 
# 
# From -- ./inp_files/23626.got.cif
#   From: 2010.03.12/outbox.cif.g09.slc.cpg/sg5_12_cif.got.tgz:23626.got - 2010.03.31 09:47:26.
