data_PCOD8049968
_publ_section_title
;
Structure prediction by ZEFSAII (Michael W. Deem and Ramdas Pophale) SiO2 
 PCOD8049968
Probable space group: C 2
;
_chemical_formula_sum "Si O2"
_cell_formula_units_Z 22
_cell_length_a 26.732557
_cell_length_b 8.260596
_cell_length_c 5.150906
_cell_angle_alpha 90.000000
_cell_angle_beta 110.044975
_cell_angle_gamma 90.000000
_cell_volume 1068.555525
_symmetry_space_group_name_H-M "C 2"
_symmetry_group_IT_number 5
_symmetry_cell_setting 'monoclinic'
loop_
_space_group_symop_operation_xyz
x,y,z
-x,y,-z
1/2+x,1/2+y,z
1/2-x,1/2+y,-z
loop_
_atom_site_type_symbol
_atom_site_label
_atom_site_fract_x
_atom_site_fract_y
_atom_site_fract_z
Si Si1 0.890577 0.782360 0.980207
Si Si2 0.274129 0.388723 0.782375
Si Si3 0.794906 0.088550 0.328726
Si Si4 0.032029 0.513835 0.797492
Si Si5 0.911495 0.981413 0.524781
Si Si6 0.000000 0.204558 0.500000
O O1 0.826789 0.777180 0.850207
O O2 0.916477 0.848854 0.760497
O O3 0.910574 0.599434 0.069303
O O4 0.909980 0.898333 0.243059
O O5 0.266718 0.501088 0.519717
O O6 0.222980 0.274258 0.713053
O O7 0.276348 0.500932 0.036153
O O8 0.858491 0.087550 0.476640
O O9 0.037519 0.320784 0.747940
O O10 0.000000 0.596470 0.500000
O O11 0.000000 0.545524 0.000000
O O12 0.962626 0.098168 0.620146
#
# Coordination Sequence:
#
# PCOD8049968 Si02
#       6
#     4   4   4   4   4   2
#     4  10  22  40  60  86 115 161 199 234 289 360
#     4  10  21  39  62  88 120 152 196 242 294 349
#     4  10  21  40  59  92 116 156 195 243 290 353
#     4  10  23  39  55  86 119 147 201 240 286 349
#     4  10  23  38  62  84 121 154 202 236 293 347
#     4  10  26  38  58  88 120 154 192 254 290 334
#
# _framework density 20.588539000000001
#
# number of rings (size 3 to 8) (size 9 to 14) (size 15 to 20)
#    0.545    1.455    0.000    2.182    6.364    1.455 
#    3.273    0.000    0.000    0.000    0.000    0.000 
#    0.000    0.000    0.000    0.000    0.000    0.000 
#
# Total GULP energy -136398.998971 kJ/mol
# GULP energy per Si atom -12399.908997 kJ/mol
# Density = 2.054168 g / cm^3
# Si number density = 20.588539 Si / 1000 Ang^3
#
#
#
# Elastic Constant Matrix: (Units=GPa)
#
#
# Indices 1 2 3 4 5 6 
#
# 1 79.8347 40.9809 17.9365 0.0000 -12.5586 0.0000
# 2 40.9809 74.4179 18.9806 0.0000 6.9934 0.0000
# 3 17.9365 18.9806 118.5011 0.0000 -20.5760 0.0000
# 4 0.0000 0.0000 0.0000 24.5649 0.0000 18.0568
# 5 -12.5586 6.9934 -20.5760 0.0000 31.0362 0.0000
# 6 0.0000 0.0000 0.0000 18.0568 0.0000 28.4071
#
#
#
# Elastic Compliance Matrix: (Units=1/GPa)
#
#
# Indices 1 2 3 4 5 6 
#
# 1 0.020753 -0.012800 0.000981 0.000000 0.011932 0.000000
# 2 -0.012800 0.022704 -0.003940 0.000000 -0.012908 0.000000
# 3 0.000981 -0.003940 0.010334 0.000000 0.008136 0.000000
# 4 0.000000 0.000000 0.000000 0.076410 0.000000 -0.048570
# 5 0.011932 -0.012908 0.008136 0.000000 0.045351 0.000000
# 6 0.000000 0.000000 0.000000 -0.048570 0.000000 0.066075
#
#
# Mechanical properties :
#
#
# Convention : Reuss Voigt Hill
#
# Bulk Modulus (GPa) = 44.89845 47.61663 46.25754
# Shear Modulus (GPa) = 17.82078 29.79201 23.80640
#
# Velocity S-wave (km/s) = 2.94525 3.80810 3.40412
# Velocity P-wave (km/s) = 5.78107 6.52023 6.16175
#
# Compressibility (1/GPa) = 0.02227248
#
# Stress axis : x y z
#
# Youngs Moduli (GPa) = 48.18579 44.04437 96.76663
#
# Poissons Ratio (x) = 0.56376 -0.09491
# Poissons Ratio (y) = 0.61677 0.38131
# Poissons Ratio (z) = -0.04726 0.17356
#
# Static dielectric constant tensor:
#      x y z
#    x 3.696130 0.000000 -0.092480 
#    y 0.000000 3.499700 0.000000 
#    z -0.092480 0.000000 3.832190 
# 
# 
# High freq. dielectric constant tensor:
#      x y z
#    x 1.800050 0.000000 -0.015670 
#    y 0.000000 1.792110 0.000000 
#    z -0.015670 0.000000 1.816850 
# 
# From -- ./inp_files/10193.got.cif
#   From: 2010.03.12/outbox.cif.g09.slc.cpg/sg5_6_cif.got.tgz:10193.got - 2010.03.31 09:47:26.
