data_PCOD8049987
_publ_section_title
;
Structure prediction by ZEFSAII (Michael W. Deem and Ramdas Pophale) SiO2 
 PCOD8049987
Probable space group: C 2
;
_chemical_formula_sum "Si O2"
_cell_formula_units_Z 28
_cell_length_a 11.555129
_cell_length_b 8.704809
_cell_length_c 14.233672
_cell_angle_alpha 90.000000
_cell_angle_beta 121.811467
_cell_angle_gamma 90.000000
_cell_volume 1216.637476
_symmetry_space_group_name_H-M "C 2"
_symmetry_group_IT_number 5
_symmetry_cell_setting 'monoclinic'
loop_
_space_group_symop_operation_xyz
x,y,z
-x,y,-z
1/2+x,1/2+y,z
1/2-x,1/2+y,-z
loop_
_atom_site_type_symbol
_atom_site_label
_atom_site_fract_x
_atom_site_fract_y
_atom_site_fract_z
Si Si1 0.505738 0.135060 0.892883
Si Si2 0.299231 0.644080 0.940633
Si Si3 0.965956 0.539452 0.378643
Si Si4 0.268632 0.353689 0.803372
Si Si5 0.123806 0.393198 0.291908
Si Si6 0.934637 0.133325 0.186852
Si Si7 0.658065 0.342395 0.748883
O O1 0.659045 0.177786 0.935117
O O2 0.404226 0.275185 0.818164
O O3 0.474637 0.981317 0.821981
O O4 0.500000 0.099691 0.000000
O O5 0.311985 0.481762 0.895649
O O6 0.295130 0.785526 0.864097
O O7 0.422813 0.640018 0.067950
O O8 0.833136 0.428423 0.317367
O O9 0.939411 0.698027 0.312161
O O10 0.000000 0.574399 0.500000
O O11 0.098027 0.462544 0.384873
O O12 0.193451 0.218420 0.824650
O O13 0.280941 0.407660 0.324350
O O14 0.077729 0.213690 0.274115
O O15 0.930787 0.963794 0.230446
#
# Coordination Sequence:
#
# PCOD8049987 Si02
#       7
#     4   4   4   4   4   4   4
#     4  12  21  36  67  93 137 181 210 252 330 388
#     4  11  22  38  58  95 140 178 216 255 313 393
#     4  10  24  51  68  89 130 167 224 294 337 375
#     4  10  21  39  63  93 126 171 217 265 323 387
#     4  11  24  43  64  96 131 176 213 273 323 393
#     4  11  21  36  63  93 137 174 217 256 316 393
#     4  11  23  41  63  95 130 167 223 272 321 394
#
# _framework density 23.014251000000002
#
# number of rings (size 3 to 8) (size 9 to 14) (size 15 to 20)
#    0.000    1.143    7.143    0.857    2.000    2.286 
#    2.571    2.857    0.000    0.000    0.000    0.000 
#    0.000    0.000    0.000    0.000    0.000    0.000 
#
# Total GULP energy -173518.873976 kJ/mol
# GULP energy per Si atom -12394.205284 kJ/mol
# Density = 2.296187 g / cm^3
# Si number density = 23.014251 Si / 1000 Ang^3
#
#
#
# Elastic Constant Matrix: (Units=GPa)
#
#
# Indices 1 2 3 4 5 6 
#
# 1 39.5002 4.7392 -7.0442 0.0000 -12.4409 0.0000
# 2 4.7392 111.1093 37.9304 0.0000 -9.6062 0.0000
# 3 -7.0442 37.9304 86.6873 0.0000 -14.2367 0.0000
# 4 0.0000 0.0000 0.0000 15.1596 0.0000 -6.8760
# 5 -12.4409 -9.6062 -14.2367 0.0000 23.3842 0.0000
# 6 0.0000 0.0000 0.0000 -6.8760 0.0000 35.8701
#
#
#
# Elastic Compliance Matrix: (Units=1/GPa)
#
#
# Indices 1 2 3 4 5 6 
#
# 1 0.033553 -0.002014 0.007115 0.000000 0.021355 0.000000
# 2 -0.002014 0.010762 -0.004803 0.000000 0.000426 0.000000
# 3 0.007115 -0.004803 0.016125 0.000000 0.011629 0.000000
# 4 0.000000 0.000000 0.000000 0.072246 0.000000 0.013849
# 5 0.021355 0.000426 0.011629 0.000000 0.061380 0.000000
# 6 0.000000 0.000000 0.000000 0.013849 0.000000 0.030533
#
#
# Mechanical properties :
#
#
# Convention : Reuss Voigt Hill
#
# Bulk Modulus (GPa) = 16.38355 34.28304 25.33330
# Shear Modulus (GPa) = 20.46251 28.32755 24.39503
#
# Velocity S-wave (km/s) = 2.98505 3.51218 3.25929
# Velocity P-wave (km/s) = 4.36062 5.60143 5.01951
#
# Compressibility (1/GPa) = 0.06103685
#
# Stress axis : x y z
#
# Youngs Moduli (GPa) = 29.80391 92.91572 62.01445
#
# Poissons Ratio (x) = 0.18710 -0.44122
# Poissons Ratio (y) = 0.06001 0.29785
# Poissons Ratio (z) = -0.21205 0.44626
#
# Static dielectric constant tensor:
#      x y z
#    x 4.249220 0.000000 -0.321620 
#    y 0.000000 4.251130 0.000000 
#    z -0.321620 0.000000 3.855430 
# 
# 
# High freq. dielectric constant tensor:
#      x y z
#    x 1.916430 0.000000 -0.026020 
#    y 0.000000 1.922160 0.000000 
#    z -0.026020 0.000000 1.862140 
# 
# From -- ./inp_files/52303.got.cif
#   From: 2010.03.12/outbox.cif.g09.slc.cpg/sg5_27_cif.got.tgz:52303.got - 2010.03.31 09:47:26.
