data_PCOD8049451
_publ_section_title
;
Structure prediction by ZEFSAII (Michael W. Deem and Ramdas Pophale) SiO2 
 PCOD8049451
Probable space group: C 2
;
_chemical_formula_sum "Si O2"
_cell_formula_units_Z 22
_cell_length_a 16.048490
_cell_length_b 11.050424
_cell_length_c 7.533592
_cell_angle_alpha 90.000000
_cell_angle_beta 62.833263
_cell_angle_gamma 90.000000
_cell_volume 1188.638570
_symmetry_space_group_name_H-M "C 2"
_symmetry_group_IT_number 5
_symmetry_cell_setting 'monoclinic'
loop_
_space_group_symop_operation_xyz
x,y,z
-x,y,-z
1/2+x,1/2+y,z
1/2-x,1/2+y,-z
loop_
_atom_site_type_symbol
_atom_site_label
_atom_site_fract_x
_atom_site_fract_y
_atom_site_fract_z
Si Si1 0.344153 0.149730 0.324531
Si Si2 0.496999 0.342728 0.210150
Si Si3 0.608144 0.992387 0.408117
Si Si4 0.668959 0.721647 0.314509
Si Si5 0.160498 0.667543 0.059064
Si Si6 0.000000 0.039890 0.500000
O O1 0.409527 0.255721 0.337773
O O2 0.236539 0.197331 0.419265
O O3 0.350736 0.032641 0.442327
O O4 0.378087 0.113688 0.091849
O O5 0.592840 0.277833 0.180530
O O6 0.483451 0.461776 0.339836
O O7 0.500000 0.379687 0.000000
O O8 0.500000 0.027445 0.500000
O O9 0.620521 0.850541 0.376013
O O10 0.663995 0.062454 0.200485
O O11 0.590608 0.620474 0.378504
O O12 0.733447 0.716629 0.073377
#
# Coordination Sequence:
#
# PCOD8049451 Si02
#       6
#     4   4   4   4   4   2
#     4   9  22  40  63  91 116 159 205 243 286 368
#     4  10  20  39  67  87 117 158 211 238 290 366
#     4  12  21  42  67  84 123 162 196 250 302 349
#     4  10  26  40  58  93 130 145 206 251 300 352
#     4   9  22  40  63  91 116 159 205 243 286 368
#     4  12  24  42  56  94 126 160 188 260 306 340
#
# _framework density 18.508569000000001
#
# number of rings (size 3 to 8) (size 9 to 14) (size 15 to 20)
#    1.091    0.727    2.727    1.091    5.091    0.000 
#    3.273    0.000    0.000    0.000    0.000    0.000 
#    0.000    0.000    0.000    0.000    0.000    0.000 
#
# Total GULP energy -136361.793296 kJ/mol
# GULP energy per Si atom -12396.526663 kJ/mol
# Density = 1.846644 g / cm^3
# Si number density = 18.508569 Si / 1000 Ang^3
#
#
#
# Elastic Constant Matrix: (Units=GPa)
#
#
# Indices 1 2 3 4 5 6 
#
# 1 53.1592 2.1903 12.8161 0.0000 -22.5326 0.0000
# 2 2.1903 75.3243 24.6711 0.0000 -0.6249 0.0000
# 3 12.8161 24.6711 56.9196 0.0000 1.6333 0.0000
# 4 0.0000 0.0000 0.0000 29.7598 0.0000 -2.3205
# 5 -22.5326 -0.6249 1.6333 0.0000 33.5773 0.0000
# 6 0.0000 0.0000 0.0000 -2.3205 0.0000 21.5735
#
#
#
# Elastic Compliance Matrix: (Units=1/GPa)
#
#
# Indices 1 2 3 4 5 6 
#
# 1 0.029112 0.001927 -0.007963 0.000000 0.019959 0.000000
# 2 0.001927 0.015613 -0.007257 0.000000 0.001937 0.000000
# 3 -0.007963 -0.007257 0.022696 0.000000 -0.006583 0.000000
# 4 0.000000 0.000000 0.000000 0.033887 0.000000 0.003645
# 5 0.019959 0.001937 -0.006583 0.000000 0.043532 0.000000
# 6 0.000000 0.000000 0.000000 0.003645 0.000000 0.046745
#
#
# Mechanical properties :
#
#
# Convention : Reuss Voigt Hill
#
# Bulk Modulus (GPa) = 24.48838 29.41755 26.95297
# Shear Modulus (GPa) = 21.57207 26.69717 24.13462
#
# Velocity S-wave (km/s) = 3.41767 3.80204 3.61497
# Velocity P-wave (km/s) = 5.36969 5.93318 5.65845
#
# Compressibility (1/GPa) = 0.04083569
#
# Stress axis : x y z
#
# Youngs Moduli (GPa) = 34.35013 64.05029 44.06106
#
# Poissons Ratio (x) = -0.12344 0.35086
# Poissons Ratio (y) = -0.06620 0.31974
# Poissons Ratio (z) = 0.27353 0.46479
#
# Static dielectric constant tensor:
#      x y z
#    x 3.363630 0.000000 -0.083830 
#    y 0.000000 3.162880 0.000000 
#    z -0.083830 0.000000 3.357470 
# 
# 
# High freq. dielectric constant tensor:
#      x y z
#    x 1.718250 0.000000 -0.007700 
#    y 0.000000 1.705570 0.000000 
#    z -0.007700 0.000000 1.715930 
# 
# From -- ./inp_files/26429.got.cif
#   From: 2010.03.12/outbox.cif.g09.slc.cpg/sg5_14_cif.got.tgz:26429.got - 2010.03.31 09:47:26.
