data_PCOD8049740
_publ_section_title
;
Structure prediction by ZEFSAII (Michael W. Deem and Ramdas Pophale) SiO2 
 PCOD8049740
Probable space group: C 2
;
_chemical_formula_sum "Si O2"
_cell_formula_units_Z 24
_cell_length_a 12.876478
_cell_length_b 8.254874
_cell_length_c 9.555502
_cell_angle_alpha 90.000000
_cell_angle_beta 101.367648
_cell_angle_gamma 90.000000
_cell_volume 995.764531
_symmetry_space_group_name_H-M "C 2"
_symmetry_group_IT_number 5
_symmetry_cell_setting 'monoclinic'
loop_
_space_group_symop_operation_xyz
x,y,z
-x,y,-z
1/2+x,1/2+y,z
1/2-x,1/2+y,-z
loop_
_atom_site_type_symbol
_atom_site_label
_atom_site_fract_x
_atom_site_fract_y
_atom_site_fract_z
Si Si1 0.797250 0.349540 0.816752
Si Si2 0.516398 0.491982 0.285332
Si Si3 0.857017 0.851322 0.452723
Si Si4 0.000000 0.816964 0.000000
Si Si5 0.815016 0.581705 0.045278
Si Si6 0.974947 0.354304 0.224886
Si Si7 0.500000 0.068411 0.500000
O O1 0.760868 0.359652 0.643272
O O2 0.765514 0.173055 0.871700
O O3 0.924031 0.368457 0.851082
O O4 0.752070 0.502497 0.895855
O O5 0.429665 0.379537 0.334712
O O6 0.622482 0.478018 0.413634
O O7 0.542183 0.428906 0.137235
O O8 0.466719 0.669375 0.269933
O O9 0.893713 0.672192 0.507842
O O10 0.903110 0.708814 0.023363
O O11 0.868149 0.418273 0.123056
O O12 0.984151 0.460764 0.362754
#
# Coordination Sequence:
#
# PCOD8049740 Si02
#       7
#     4   4   4   2   4   4   2
#     4  12  27  45  73 108 146 196 253 303 379 458
#     4  10  24  41  74 102 145 190 242 304 378 428
#     4  10  22  47  68 101 150 192 236 312 369 442
#     4  12  22  48  74 100 148 198 236 324 370 426
#     4  12  27  47  70 110 148 191 255 308 375 444
#     4  12  25  46  74 107 145 198 246 315 372 446
#     4  10  20  46  74  96 150 194 242 310 380 430
#
# _framework density 24.102084999999999
#
# number of rings (size 3 to 8) (size 9 to 14) (size 15 to 20)
#    0.000    1.000    5.000    2.000    7.000    1.333 
#    0.000    0.000    0.000    0.000    0.000    0.000 
#    0.000    0.000    0.000    0.000    0.000    0.000 
#
# Total GULP energy -148738.662726 kJ/mol
# GULP energy per Si atom -12394.888561 kJ/mol
# Density = 2.404723 g / cm^3
# Si number density = 24.102085 Si / 1000 Ang^3
#
#
#
# Elastic Constant Matrix: (Units=GPa)
#
#
# Indices 1 2 3 4 5 6 
#
# 1 38.7826 1.1829 7.3580 0.0000 10.4773 0.0000
# 2 1.1829 122.7985 39.2392 0.0000 12.2545 0.0000
# 3 7.3580 39.2392 134.4650 0.0000 16.0481 0.0000
# 4 0.0000 0.0000 0.0000 49.4478 0.0000 2.7650
# 5 10.4773 12.2545 16.0481 0.0000 31.8543 0.0000
# 6 0.0000 0.0000 0.0000 2.7650 0.0000 25.4806
#
#
#
# Elastic Compliance Matrix: (Units=1/GPa)
#
#
# Indices 1 2 3 4 5 6 
#
# 1 0.028411 0.000881 -0.000698 0.000000 -0.009332 0.000000
# 2 0.000881 0.009165 -0.002412 0.000000 -0.002600 0.000000
# 3 -0.000698 -0.002412 0.008555 0.000000 -0.003153 0.000000
# 4 0.000000 0.000000 0.000000 0.020347 0.000000 -0.002208
# 5 -0.009332 -0.002600 -0.003153 0.000000 0.037051 0.000000
# 6 0.000000 0.000000 0.000000 -0.002208 0.000000 0.039485
#
#
# Mechanical properties :
#
#
# Convention : Reuss Voigt Hill
#
# Bulk Modulus (GPa) = 23.99664 43.51183 33.75424
# Shear Modulus (GPa) = 30.98561 37.90760 34.44661
#
# Velocity S-wave (km/s) = 3.58941 3.97015 3.78457
# Velocity P-wave (km/s) = 5.21118 6.25367 5.75608
#
# Compressibility (1/GPa) = 0.04167249
#
# Stress axis : x y z
#
# Youngs Moduli (GPa) = 35.19715 109.10719 116.88648
#
# Poissons Ratio (x) = -0.09608 0.08158
# Poissons Ratio (y) = -0.03099 0.28198
# Poissons Ratio (z) = 0.02456 0.26322
#
# Static dielectric constant tensor:
#      x y z
#    x 4.206470 0.000000 0.385930 
#    y 0.000000 4.485700 0.000000 
#    z 0.385930 0.000000 4.683000 
# 
# 
# High freq. dielectric constant tensor:
#      x y z
#    x 1.928600 0.000000 0.013090 
#    y 0.000000 1.964700 0.000000 
#    z 0.013090 0.000000 1.976470 
# 
# From -- ./inp_files/22922.got.cif
#   From: 2010.03.12/outbox.cif.g09.slc.cpg/sg5_12_cif.got.tgz:22922.got - 2010.03.31 09:47:26.
