data_PCOD8049120
_publ_section_title
;
Structure prediction by ZEFSAII (Michael W. Deem and Ramdas Pophale) SiO2 
 PCOD8049120
Probable space group: C 2
;
_chemical_formula_sum "Si O2"
_cell_formula_units_Z 30
_cell_length_a 5.173071
_cell_length_b 30.262851
_cell_length_c 10.196524
_cell_angle_alpha 90.000000
_cell_angle_beta 112.476701
_cell_angle_gamma 90.000000
_cell_volume 1475.023297
_symmetry_space_group_name_H-M "C 2"
_symmetry_group_IT_number 5
_symmetry_cell_setting 'monoclinic'
loop_
_space_group_symop_operation_xyz
x,y,z
-x,y,-z
1/2+x,1/2+y,z
1/2-x,1/2+y,-z
loop_
_atom_site_type_symbol
_atom_site_label
_atom_site_fract_x
_atom_site_fract_y
_atom_site_fract_z
Si Si1 0.753836 0.021050 0.746943
Si Si2 0.732469 0.639300 0.650042
Si Si3 0.197180 0.564426 0.153892
Si Si4 0.612839 0.225426 0.163338
Si Si5 0.366467 0.922460 0.332895
Si Si6 0.500000 0.078147 0.500000
Si Si7 0.882475 0.282730 0.837009
Si Si8 0.635885 0.370026 0.667136
O O1 0.489045 0.036454 0.780666
O O2 0.739940 0.044232 0.598574
O O3 0.059294 0.034021 0.862158
O O4 0.750391 0.968479 0.741211
O O5 0.500000 0.652118 0.500000
O O6 0.643592 0.606588 0.750609
O O7 0.839503 0.683799 0.734961
O O8 0.956706 0.610682 0.614066
O O9 0.000000 0.582249 0.000000
O O10 0.378454 0.251191 0.195827
O O11 0.884833 0.256365 0.201353
O O12 0.500000 0.209668 0.000000
O O13 0.500000 0.929655 0.500000
O O14 0.611568 0.905253 0.285775
O O15 0.107861 0.887719 0.284006
O O16 0.773820 0.324778 0.739019
O O17 0.000000 0.298350 0.000000
O O18 0.500000 0.361616 0.500000
#
# Coordination Sequence:
#
# PCOD8049120 Si02
#       8
#     4   4   4   4   4   2   4   4
#     4  11  21  39  63  86 124 161 208 245 298 367
#     4  11  23  39  61  91 123 153 209 251 300 357
#     4  11  24  40  59  85 124 167 202 251 302 359
#     4  10  23  40  63  87 119 161 200 245 301 364
#     4  10  20  36  60  91 119 156 195 250 304 358
#     4  10  22  38  60  94 122 158 206 246 306 344
#     4  10  22  42  62  86 118 161 200 239 305 368
#     4  10  21  37  61  90 120 149 199 247 304 355
#
# _framework density 20.338660000000001
#
# number of rings (size 3 to 8) (size 9 to 14) (size 15 to 20)
#    0.000    1.600    2.000    2.400    1.867    1.067 
#    0.000    6.667    0.000    0.000    0.000    0.000 
#    0.000    0.000    0.000    0.000    0.000    0.000 
#
# Total GULP energy -185904.379408 kJ/mol
# GULP energy per Si atom -12393.625294 kJ/mol
# Density = 2.029237 g / cm^3
# Si number density = 20.338660 Si / 1000 Ang^3
#
#
#
# Elastic Constant Matrix: (Units=GPa)
#
#
# Indices 1 2 3 4 5 6 
#
# 1 123.5205 46.9580 20.1592 0.0000 11.7298 0.0000
# 2 46.9580 144.3876 65.9630 0.0000 9.3500 0.0000
# 3 20.1592 65.9630 87.8618 0.0000 17.2403 0.0000
# 4 0.0000 0.0000 0.0000 37.9819 0.0000 4.2443
# 5 11.7298 9.3500 17.2403 0.0000 32.7844 0.0000
# 6 0.0000 0.0000 0.0000 4.2443 0.0000 22.3677
#
#
#
# Elastic Compliance Matrix: (Units=1/GPa)
#
#
# Indices 1 2 3 4 5 6 
#
# 1 0.009482 -0.003291 0.000866 0.000000 -0.002909 0.000000
# 2 -0.003291 0.011733 -0.008505 0.000000 0.002304 0.000000
# 3 0.000866 -0.008505 0.019127 0.000000 -0.007942 0.000000
# 4 0.000000 0.000000 0.000000 0.026899 0.000000 -0.005104
# 5 -0.002909 0.002304 -0.007942 0.000000 0.035063 0.000000
# 6 0.000000 0.000000 0.000000 -0.005104 0.000000 0.045676
#
#
# Mechanical properties :
#
#
# Convention : Reuss Voigt Hill
#
# Bulk Modulus (GPa) = 54.11078 69.10335 61.60706
# Shear Modulus (GPa) = 28.40930 33.47280 30.94105
#
# Velocity S-wave (km/s) = 3.74145 4.06121 3.90461
# Velocity P-wave (km/s) = 6.73255 7.48608 7.11929
#
# Compressibility (1/GPa) = 0.01848061
#
# Stress axis : x y z
#
# Youngs Moduli (GPa) = 105.46461 85.23331 52.28308
#
# Poissons Ratio (x) = 0.28050 -0.04528
# Poissons Ratio (y) = 0.34708 0.44468
# Poissons Ratio (z) = -0.09134 0.72493
#
# Static dielectric constant tensor:
#      x y z
#    x 3.785320 0.000000 0.058820 
#    y 0.000000 3.540330 0.000000 
#    z 0.058820 0.000000 3.780770 
# 
# 
# High freq. dielectric constant tensor:
#      x y z
#    x 1.800760 0.000000 0.010290 
#    y 0.000000 1.797300 0.000000 
#    z 0.010290 0.000000 1.790640 
# 
# From -- ./inp_files/34408.got.cif
#   From: 2010.03.12/outbox.cif.g09.slc.cpg/sg5_18_cif.got.tgz:34408.got - 2010.03.31 09:47:26.
