data_PCOD8049470
_publ_section_title
;
Structure prediction by ZEFSAII (Michael W. Deem and Ramdas Pophale) SiO2 
 PCOD8049470
Probable space group: C 2
;
_chemical_formula_sum "Si O2"
_cell_formula_units_Z 30
_cell_length_a 12.196162
_cell_length_b 14.843978
_cell_length_c 17.681576
_cell_angle_alpha 90.000000
_cell_angle_beta 31.151633
_cell_angle_gamma 90.000000
_cell_volume 1655.926023
_symmetry_space_group_name_H-M "C 2"
_symmetry_group_IT_number 5
_symmetry_cell_setting 'monoclinic'
loop_
_space_group_symop_operation_xyz
x,y,z
-x,y,-z
1/2+x,1/2+y,z
1/2-x,1/2+y,-z
loop_
_atom_site_type_symbol
_atom_site_label
_atom_site_fract_x
_atom_site_fract_y
_atom_site_fract_z
Si Si1 0.861887 0.122050 0.929517
Si Si2 0.341611 0.174380 0.663496
Si Si3 0.667213 0.917206 0.665555
Si Si4 0.500000 0.415503 0.000000
Si Si5 0.286274 0.953425 0.080713
Si Si6 0.717764 0.819921 0.053957
Si Si7 0.415603 0.377834 0.658287
Si Si8 0.845577 0.552144 0.798270
O O1 0.742607 0.214508 0.980048
O O2 0.112206 0.137760 0.775583
O O3 0.794065 0.044004 0.911876
O O4 0.795945 0.098984 0.053658
O O5 0.500000 0.161798 0.500000
O O6 0.327984 0.277100 0.698558
O O7 0.423705 0.119072 0.687268
O O8 0.492329 0.837789 0.772188
O O9 0.783250 0.937745 0.676678
O O10 0.834306 0.882525 0.505152
O O11 0.559616 0.011404 0.706937
O O12 0.427098 0.355984 0.972013
O O13 0.304588 0.474392 0.147681
O O14 0.111677 0.916311 0.241910
O O15 0.500000 0.974341 0.000000
O O16 0.322936 0.873774 0.999509
#
# Coordination Sequence:
#
# PCOD8049470 Si02
#       8
#     4   4   4   2   4   4   4   4
#     4  12  22  37  60  92 117 153 205 254 302 360
#     4  12  22  37  60  92 117 153 205 254 302 360
#     4  10  20  40  58  78 118 160 188 240 308 358
#     4  10  20  40  58  78 118 160 188 240 308 358
#     4  12  22  37  60  92 117 153 205 254 302 360
#     4  11  21  39  60  84 120 156 199 248 306 359
#     4  11  21  39  60  84 120 156 199 248 306 359
#     4  11  21  39  60  84 120 156 199 248 306 359
#
# _framework density 18.116751000000001
#
# number of rings (size 3 to 8) (size 9 to 14) (size 15 to 20)
#    0.000    0.800    8.000    0.800    2.800    0.000 
#    0.000    0.000    0.000    0.000    0.000    0.000 
#    0.000    0.000    0.000    0.000    0.000    0.000 
#
# Total GULP energy -186006.253116 kJ/mol
# GULP energy per Si atom -12400.416874 kJ/mol
# Density = 1.807552 g / cm^3
# Si number density = 18.116751 Si / 1000 Ang^3
#
#
#
# Elastic Constant Matrix: (Units=GPa)
#
#
# Indices 1 2 3 4 5 6 
#
# 1 104.7659 66.5855 56.2109 -0.0061 7.8820 -0.0007
# 2 66.5855 124.5888 63.1538 0.0086 12.6553 0.0106
# 3 56.2109 63.1538 104.5480 0.0143 8.3048 0.0247
# 4 -0.0061 0.0086 0.0143 23.0134 -0.0005 -0.4389
# 5 7.8820 12.6553 8.3048 -0.0005 28.2782 -0.0087
# 6 -0.0007 0.0106 0.0247 -0.4389 -0.0087 24.7984
#
#
#
# Elastic Compliance Matrix: (Units=1/GPa)
#
#
# Indices 1 2 3 4 5 6 
#
# 1 0.016073 -0.006039 -0.004968 0.000010 -0.000318 0.000008
# 2 -0.006039 0.014128 -0.005036 -0.000004 -0.003160 -0.000002
# 3 -0.004968 -0.005036 0.015347 -0.000009 -0.000869 -0.000014
# 4 0.000010 -0.000004 -0.000009 0.043468 0.000003 0.000769
# 5 -0.000318 -0.003160 -0.000869 0.000003 0.037121 0.000015
# 6 0.000008 -0.000002 -0.000014 0.000769 0.000015 0.040339
#
#
# Mechanical properties :
#
#
# Convention : Reuss Voigt Hill
#
# Bulk Modulus (GPa) = 74.28963 78.42256 76.35610
# Shear Modulus (GPa) = 24.62443 25.08150 24.85296
#
# Velocity S-wave (km/s) = 3.69074 3.72484 3.70783
# Velocity P-wave (km/s) = 7.69787 7.86642 7.78260
#
# Compressibility (1/GPa) = 0.01346083
#
# Stress axis : x y z
#
# Youngs Moduli (GPa) = 62.21538 70.78220 65.15786
#
# Poissons Ratio (x) = 0.42748 0.32373
# Poissons Ratio (y) = 0.37574 0.32813
# Poissons Ratio (z) = 0.30911 0.35646
#
# Static dielectric constant tensor:
#      x y z
#    x 3.426320 0.000000 -0.004500 
#    y 0.000000 3.422090 -0.000010 
#    z -0.004500 -0.000010 3.426990 
# 
# 
# High freq. dielectric constant tensor:
#      x y z
#    x 1.703100 0.000000 -0.002190 
#    y 0.000000 1.701040 0.000000 
#    z -0.002190 0.000000 1.703380 
# 
# From -- ./inp_files/31021.got.cif
#   From: 2010.03.12/outbox.cif.g09.slc.cpg/sg5_16_cif.got.tgz:31021.got - 2010.03.31 09:47:26.
