data_PCOD8049928
_publ_section_title
;
Structure prediction by ZEFSAII (Michael W. Deem and Ramdas Pophale) SiO2 
 PCOD8049928
Probable space group: C 2
;
_chemical_formula_sum "Si O2"
_cell_formula_units_Z 32
_cell_length_a 11.153799
_cell_length_b 9.032354
_cell_length_c 20.383879
_cell_angle_alpha 90.000000
_cell_angle_beta 47.949223
_cell_angle_gamma 90.000000
_cell_volume 1524.885363
_symmetry_space_group_name_H-M "C 2"
_symmetry_group_IT_number 5
_symmetry_cell_setting 'monoclinic'
loop_
_space_group_symop_operation_xyz
x,y,z
-x,y,-z
1/2+x,1/2+y,z
1/2-x,1/2+y,-z
loop_
_atom_site_type_symbol
_atom_site_label
_atom_site_fract_x
_atom_site_fract_y
_atom_site_fract_z
Si Si1 0.829650 0.113420 0.794252
Si Si2 0.875255 0.282305 0.266617
Si Si3 0.090508 0.806646 0.164977
Si Si4 0.441301 0.326651 0.092754
Si Si5 0.707147 0.116756 0.704781
Si Si6 0.714092 0.088921 0.216729
Si Si7 0.169556 0.798809 0.464796
Si Si8 0.139454 0.574016 0.592384
O O1 0.645266 0.164630 0.877807
O O2 0.851275 0.113309 0.706139
O O3 0.943247 0.234158 0.785357
O O4 0.867001 0.953413 0.810266
O O5 0.883293 0.458382 0.253213
O O6 0.813148 0.201018 0.225301
O O7 0.763458 0.231292 0.368348
O O8 0.100787 0.826051 0.082032
O O9 0.902879 0.760791 0.242758
O O10 0.198195 0.672359 0.152527
O O11 0.312445 0.440778 0.169634
O O12 0.500000 0.375507 0.000000
O O13 0.757189 0.128995 0.609503
O O14 0.540136 0.053102 0.312484
O O15 0.132946 0.676792 0.532301
O O16 0.000000 0.863670 0.500000
O O17 0.281615 0.920191 0.459509
#
# Coordination Sequence:
#
# PCOD8049928 Si02
#       8
#     4   4   4   4   4   4   4   4
#     4  11  21  40  66  94 122 168 214 263 325 385
#     4  11  21  39  69  90 125 174 213 267 326 377
#     4  10  21  38  66  94 120 164 208 260 320 386
#     4  11  25  43  64  97 135 165 215 272 324 391
#     4   9  21  38  61  92 123 162 214 261 314 383
#     4  11  21  44  68  91 130 173 220 261 326 389
#     4  11  23  40  59  91 133 167 213 273 319 368
#     4  10  23  41  63  93 129 175 214 266 320 380
#
# _framework density 20.985182999999999
#
# number of rings (size 3 to 8) (size 9 to 14) (size 15 to 20)
#    0.000    1.500    3.750    2.250    0.000    5.000 
#    0.000    2.500    0.000    0.000    0.000    0.000 
#    0.000    0.000    0.000    0.000    0.000    0.000 
#
# Total GULP energy -198246.504858 kJ/mol
# GULP energy per Si atom -12390.406554 kJ/mol
# Density = 2.093742 g / cm^3
# Si number density = 20.985183 Si / 1000 Ang^3
#
#
#
# Elastic Constant Matrix: (Units=GPa)
#
#
# Indices 1 2 3 4 5 6 
#
# 1 140.1139 45.6596 28.6750 0.0000 22.0424 0.0000
# 2 45.6596 107.8425 27.3891 0.0000 5.7235 0.0000
# 3 28.6750 27.3891 77.2021 0.0000 19.7564 0.0000
# 4 0.0000 0.0000 0.0000 17.3981 0.0000 5.6265
# 5 22.0424 5.7235 19.7564 0.0000 29.9276 0.0000
# 6 0.0000 0.0000 0.0000 5.6265 0.0000 38.0728
#
#
#
# Elastic Compliance Matrix: (Units=1/GPa)
#
#
# Indices 1 2 3 4 5 6 
#
# 1 0.009313 -0.003443 -0.000783 0.000000 -0.005684 0.000000
# 2 -0.003443 0.011470 -0.003463 0.000000 0.002628 0.000000
# 3 -0.000783 -0.003463 0.017033 0.000000 -0.010005 0.000000
# 4 0.000000 0.000000 0.000000 0.060362 0.000000 -0.008921
# 5 -0.005684 0.002628 -0.010005 0.000000 0.043702 0.000000
# 6 0.000000 0.000000 0.000000 -0.008921 0.000000 0.027584
#
#
# Mechanical properties :
#
#
# Convention : Reuss Voigt Hill
#
# Bulk Modulus (GPa) = 44.56654 58.73398 51.65026
# Shear Modulus (GPa) = 25.99793 31.97538 28.98665
#
# Velocity S-wave (km/s) = 3.52358 3.90771 3.72060
# Velocity P-wave (km/s) = 6.15121 6.95768 6.56684
#
# Compressibility (1/GPa) = 0.02243836
#
# Stress axis : x y z
#
# Youngs Moduli (GPa) = 107.37172 87.18051 58.70992
#
# Poissons Ratio (x) = 0.30013 0.04599
# Poissons Ratio (y) = 0.36964 0.20333
# Poissons Ratio (z) = 0.08411 0.30193
#
# Static dielectric constant tensor:
#      x y z
#    x 4.330400 0.000000 0.323510 
#    y 0.000000 3.782290 0.000000 
#    z 0.323510 0.000000 3.496220 
# 
# 
# High freq. dielectric constant tensor:
#      x y z
#    x 1.849410 0.000000 0.025030 
#    y 0.000000 1.825970 0.000000 
#    z 0.025030 0.000000 1.779800 
# 
# From -- ./inp_files/65120.got.cif
#   From: 2010.03.12/outbox.cif.g09.slc.cpg/sg5_33_cif.got.tgz:65120.got - 2010.03.31 09:47:26.
