data_PCOD8049772
_publ_section_title
;
Structure prediction by ZEFSAII (Michael W. Deem and Ramdas Pophale) SiO2 
 PCOD8049772
Probable space group: C 2
;
_chemical_formula_sum "Si O2"
_cell_formula_units_Z 26
_cell_length_a 10.855830
_cell_length_b 8.953953
_cell_length_c 23.964684
_cell_angle_alpha 90.000000
_cell_angle_beta 148.390825
_cell_angle_gamma 90.000000
_cell_volume 1220.905866
_symmetry_space_group_name_H-M "C 2"
_symmetry_group_IT_number 5
_symmetry_cell_setting 'monoclinic'
loop_
_space_group_symop_operation_xyz
x,y,z
-x,y,-z
1/2+x,1/2+y,z
1/2-x,1/2+y,-z
loop_
_atom_site_type_symbol
_atom_site_label
_atom_site_fract_x
_atom_site_fract_y
_atom_site_fract_z
Si Si1 0.720552 0.705840 0.265422
Si Si2 0.760973 0.901752 0.381087
Si Si3 0.230227 0.711477 0.124409
Si Si4 0.500000 0.758920 0.000000
Si Si5 0.380267 0.934595 0.855040
Si Si6 0.806630 0.371318 0.261585
Si Si7 0.501748 0.123932 0.199425
O O1 0.834237 0.767348 0.366887
O O2 0.441317 0.734268 0.163033
O O3 0.791911 0.811862 0.240562
O O4 0.781699 0.537128 0.275827
O O5 0.587498 0.838993 0.362932
O O6 0.000000 0.964815 0.500000
O O7 0.619830 0.035345 0.296103
O O8 0.204042 0.846914 0.159088
O O9 0.283505 0.555904 0.177150
O O10 0.000000 0.700865 0.000000
O O11 0.440134 0.860621 0.030966
O O12 0.733538 0.670351 0.108720
O O13 0.532419 0.019818 0.867541
O O14 0.676995 0.262098 0.254784
#
# Coordination Sequence:
#
# PCOD8049772 Si02
#       7
#     4   4   4   2   4   4   4
#     4  10  22  39  59  89 119 158 203 252 309 361
#     4  10  23  46  66  88 121 159 213 269 311 361
#     4  10  21  36  54  85 123 163 200 240 288 366
#     4  12  22  34  60  94 130 166 202 242 292 378
#     4  10  22  36  54  83 125 166 200 240 290 360
#     4  10  22  40  61  89 122 157 206 254 308 363
#     4  10  24  41  60  94 125 165 206 248 309 369
#
# _framework density 21.295663000000001
#
# number of rings (size 3 to 8) (size 9 to 14) (size 15 to 20)
#    0.000    1.846    0.769    1.846    4.308    2.462 
#   16.615    0.769    0.000    0.000    0.000    0.000 
#    0.000    0.000    0.000    0.000    0.000    0.000 
#
# Total GULP energy -161077.226946 kJ/mol
# GULP energy per Si atom -12390.555919 kJ/mol
# Density = 2.124719 g / cm^3
# Si number density = 21.295663 Si / 1000 Ang^3
#
#
#
# Elastic Constant Matrix: (Units=GPa)
#
#
# Indices 1 2 3 4 5 6 
#
# 1 78.3310 43.0649 51.3290 0.0000 3.5772 0.0000
# 2 43.0649 140.8894 52.7299 0.0000 -4.8756 0.0000
# 3 51.3290 52.7299 129.3572 -0.0001 9.7009 0.0000
# 4 0.0000 0.0000 -0.0001 25.8069 0.0000 -6.7805
# 5 3.5772 -4.8756 9.7009 0.0000 22.4513 0.0000
# 6 0.0000 0.0000 0.0000 -6.7805 0.0000 28.9234
#
#
#
# Elastic Compliance Matrix: (Units=1/GPa)
#
#
# Indices 1 2 3 4 5 6 
#
# 1 0.018598 -0.003538 -0.005847 0.000000 -0.001205 0.000000
# 2 -0.003538 0.009308 -0.002671 0.000000 0.003739 0.000000
# 3 -0.005847 -0.002671 0.011485 0.000000 -0.004611 0.000000
# 4 0.000000 0.000000 0.000000 0.041293 0.000000 0.009680
# 5 -0.001205 0.003739 -0.004611 0.000000 0.047537 0.000000
# 6 0.000000 0.000000 0.000000 0.009680 0.000000 0.036843
#
#
# Mechanical properties :
#
#
# Convention : Reuss Voigt Hill
#
# Bulk Modulus (GPa) = 65.44753 71.42503 68.43628
# Shear Modulus (GPa) = 25.73738 28.86657 27.30197
#
# Velocity S-wave (km/s) = 3.48023 3.68572 3.58445
# Velocity P-wave (km/s) = 6.85192 7.19203 7.02403
#
# Compressibility (1/GPa) = 0.01527942
#
# Stress axis : x y z
#
# Youngs Moduli (GPa) = 53.76902 107.43192 87.06908
#
# Poissons Ratio (x) = 0.38011 0.50910
# Poissons Ratio (y) = 0.19024 0.23254
# Poissons Ratio (z) = 0.31439 0.28693
#
# Static dielectric constant tensor:
#      x y z
#    x 4.105220 0.000000 -0.181470 
#    y 0.000000 4.195400 0.000000 
#    z -0.181470 0.000000 3.454340 
# 
# 
# High freq. dielectric constant tensor:
#      x y z
#    x 1.847020 0.000000 -0.015330 
#    y 0.000000 1.850630 0.000000 
#    z -0.015330 0.000000 1.790430 
# 
# From -- ./inp_files/60198.got.cif
#   From: 2010.03.12/outbox.cif.g09.slc.cpg/sg5_31_cif.got.tgz:60198.got - 2010.03.31 09:47:26.
