data_PCOD8049273
_publ_section_title
;
Structure prediction by ZEFSAII (Michael W. Deem and Ramdas Pophale) SiO2 
 PCOD8049273
Probable space group: C 2
;
_chemical_formula_sum "Si O2"
_cell_formula_units_Z 28
_cell_length_a 5.456918
_cell_length_b 18.565181
_cell_length_c 14.791860
_cell_angle_alpha 90.000000
_cell_angle_beta 125.445797
_cell_angle_gamma 90.000000
_cell_volume 1220.810345
_symmetry_space_group_name_H-M "C 2"
_symmetry_group_IT_number 5
_symmetry_cell_setting 'monoclinic'
loop_
_space_group_symop_operation_xyz
x,y,z
-x,y,-z
1/2+x,1/2+y,z
1/2-x,1/2+y,-z
loop_
_atom_site_type_symbol
_atom_site_label
_atom_site_fract_x
_atom_site_fract_y
_atom_site_fract_z
Si Si1 0.917065 0.239030 0.761424
Si Si2 0.820236 0.914380 0.635840
Si Si3 0.008715 0.395979 0.171290
Si Si4 0.504310 0.604561 0.893853
Si Si5 0.191396 0.256777 0.626427
Si Si6 0.057142 0.512922 0.706914
Si Si7 0.500000 0.987609 0.000000
Si Si8 0.500000 0.475137 0.500000
O O1 0.064399 0.311685 0.834679
O O2 0.073371 0.178751 0.858132
O O3 0.549934 0.238482 0.689069
O O4 0.042268 0.225157 0.686659
O O5 0.636261 0.842555 0.621119
O O6 0.138717 0.905657 0.750307
O O7 0.814135 0.920743 0.525003
O O8 0.700787 0.992935 0.641648
O O9 0.886812 0.434151 0.054345
O O10 0.862167 0.439732 0.221766
O O11 0.175148 0.581959 0.785828
O O12 0.500000 0.616456 0.000000
O O13 0.731057 0.541098 0.912594
O O14 0.000000 0.225954 0.500000
O O15 0.703082 0.524478 0.610180
#
# Coordination Sequence:
#
# PCOD8049273 Si02
#       8
#     4   4   4   4   4   4   2   2
#     4  11  27  46  71 107 149 183 243 300 358 437
#     4  10  20  37  66 103 142 175 235 293 352 418
#     4  10  22  40  70 104 131 180 241 296 346 423
#     4  12  28  47  71 100 141 194 236 301 372 426
#     4  11  23  44  73 104 143 193 237 294 363 431
#     4  11  20  42  65 103 138 181 237 288 361 431
#     4  12  24  46  74  96 136 188 242 300 360 428
#     4  10  22  34  66 108 142 182 226 304 354 430
#
# _framework density 22.935583999999999
#
# number of rings (size 3 to 8) (size 9 to 14) (size 15 to 20)
#    0.000    1.143    4.286    1.714    7.000    0.000 
#    1.286    2.857    0.000    0.000    0.000    0.000 
#    0.000    0.000    0.000    0.000    0.000    0.000 
#
# Total GULP energy -173449.249239 kJ/mol
# GULP energy per Si atom -12389.232089 kJ/mol
# Density = 2.288338 g / cm^3
# Si number density = 22.935584 Si / 1000 Ang^3
#
#
#
# Elastic Constant Matrix: (Units=GPa)
#
#
# Indices 1 2 3 4 5 6 
#
# 1 97.4349 26.0801 36.0563 0.0000 -28.0087 0.0000
# 2 26.0801 115.1718 62.0163 0.0000 -13.1507 0.0000
# 3 36.0563 62.0163 128.7972 0.0000 -23.1630 0.0000
# 4 0.0000 0.0000 0.0000 30.3514 0.0000 1.7415
# 5 -28.0087 -13.1507 -23.1630 0.0000 36.0200 0.0000
# 6 0.0000 0.0000 0.0000 1.7415 0.0000 21.5684
#
#
#
# Elastic Compliance Matrix: (Units=1/GPa)
#
#
# Indices 1 2 3 4 5 6 
#
# 1 0.013858 -0.001199 -0.001632 0.000000 0.009289 0.000000
# 2 -0.001199 0.011843 -0.005379 0.000000 -0.000067 0.000000
# 3 -0.001632 -0.005379 0.011567 0.000000 0.004206 0.000000
# 4 0.000000 0.000000 0.000000 0.033101 0.000000 -0.002673
# 5 0.009289 -0.000067 0.004206 0.000000 0.037665 0.000000
# 6 0.000000 0.000000 0.000000 -0.002673 0.000000 0.046580
#
#
# Mechanical properties :
#
#
# Convention : Reuss Voigt Hill
#
# Bulk Modulus (GPa) = 47.96323 65.52328 56.74326
# Shear Modulus (GPa) = 28.09260 32.07139 30.08199
#
# Velocity S-wave (km/s) = 3.50358 3.74347 3.62551
# Velocity P-wave (km/s) = 6.10936 6.87861 6.50536
#
# Compressibility (1/GPa) = 0.02084931
#
# Stress axis : x y z
#
# Youngs Moduli (GPa) = 72.15952 84.43951 86.45082
#
# Poissons Ratio (x) = 0.10123 0.14107
# Poissons Ratio (y) = 0.08651 0.46501
# Poissons Ratio (z) = 0.11775 0.45419
#
# Static dielectric constant tensor:
#      x y z
#    x 4.227320 0.000000 -0.036950 
#    y 0.000000 4.003100 0.000000 
#    z -0.036950 0.000000 4.260700 
# 
# 
# High freq. dielectric constant tensor:
#      x y z
#    x 1.908250 0.000000 -0.004070 
#    y 0.000000 1.882570 0.000000 
#    z -0.004070 0.000000 1.917820 
# 
# From -- ./inp_files/49307.got.cif
#   From: 2010.03.12/outbox.cif.g09.slc.cpg/sg5_25_cif.got.tgz:49307.got - 2010.03.31 09:47:26.
