data_PCOD8049028
_publ_section_title
;
Structure prediction by ZEFSAII (Michael W. Deem and Ramdas Pophale) SiO2 
 PCOD8049028
Probable space group: C 2
;
_chemical_formula_sum "Si O2"
_cell_formula_units_Z 24
_cell_length_a 8.506135
_cell_length_b 18.883425
_cell_length_c 9.039204
_cell_angle_alpha 90.000000
_cell_angle_beta 57.027867
_cell_angle_gamma 90.000000
_cell_volume 1218.068547
_symmetry_space_group_name_H-M "C 2"
_symmetry_group_IT_number 5
_symmetry_cell_setting 'monoclinic'
loop_
_space_group_symop_operation_xyz
x,y,z
-x,y,-z
1/2+x,1/2+y,z
1/2-x,1/2+y,-z
loop_
_atom_site_type_symbol
_atom_site_label
_atom_site_fract_x
_atom_site_fract_y
_atom_site_fract_z
Si Si1 0.696809 0.574000 0.981927
Si Si2 0.549906 0.810246 0.312449
Si Si3 0.801055 0.229290 0.023172
Si Si4 0.808116 0.945532 0.186754
Si Si5 0.443665 0.488756 0.689612
Si Si6 0.317550 0.337996 0.688091
O O1 0.796117 0.651032 0.926424
O O2 0.802296 0.510719 0.839159
O O3 0.500000 0.580728 0.000000
O O4 0.668785 0.550302 0.167030
O O5 0.500000 0.779736 0.500000
O O6 0.667755 0.881275 0.270186
O O7 0.363608 0.825788 0.317250
O O8 0.673722 0.752919 0.160255
O O9 0.673467 0.285768 0.175098
O O10 0.000000 0.225446 0.000000
O O11 0.864299 0.968031 0.323992
O O12 0.000000 0.926365 0.000000
O O13 0.500000 0.517937 0.500000
O O14 0.314425 0.418686 0.746052
O O15 0.500000 0.321195 0.500000
#
# Coordination Sequence:
#
# PCOD8049028 Si02
#       6
#     4   4   4   4   4   4
#     4   8  16  31  51  73 100 136 168 201 255 308
#     4  11  21  32  53  81 106 134 171 213 254 304
#     4   9  18  33  52  75 104 136 170 209 255 307
#     4   9  18  34  54  75 102 135 169 209 256 305
#     4   9  16  29  52  76  99 130 168 212 253 297
#     4  10  20  35  55  76 102 137 175 214 254 299
#
# _framework density 19.703325
#
# number of rings (size 3 to 8) (size 9 to 14) (size 15 to 20)
#    0.000    3.000    0.000    4.000    0.000    0.667 
#    0.000    0.833    0.000   14.000    0.000    0.000 
#    0.000    0.000    0.000    0.000    0.000    0.000 
#
# Total GULP energy -148704.013895 kJ/mol
# GULP energy per Si atom -12392.001158 kJ/mol
# Density = 1.965848 g / cm^3
# Si number density = 19.703325 Si / 1000 Ang^3
#
#
#
# Elastic Constant Matrix: (Units=GPa)
#
#
# Indices 1 2 3 4 5 6 
#
# 1 43.2456 5.6945 26.7012 0.0000 13.5429 0.0000
# 2 5.6945 85.4301 38.4226 0.0000 12.0691 0.0000
# 3 26.7012 38.4226 121.5772 0.0000 29.7466 0.0000
# 4 0.0000 0.0000 0.0000 21.4816 0.0000 -0.5411
# 5 13.5429 12.0691 29.7466 0.0000 34.5349 0.0000
# 6 0.0000 0.0000 0.0000 -0.5411 0.0000 5.8689
#
#
#
# Elastic Compliance Matrix: (Units=1/GPa)
#
#
# Indices 1 2 3 4 5 6 
#
# 1 0.028235 0.001326 -0.004812 0.000000 -0.007391 0.000000
# 2 0.001326 0.013756 -0.004226 0.000000 -0.001688 0.000000
# 3 -0.004812 -0.004226 0.012410 0.000000 -0.007325 0.000000
# 4 0.000000 0.000000 0.000000 0.046660 0.000000 0.004302
# 5 -0.007391 -0.001688 -0.007325 0.000000 0.038754 0.000000
# 6 0.000000 0.000000 0.000000 0.004302 0.000000 0.170785
#
#
# Mechanical properties :
#
#
# Convention : Reuss Voigt Hill
#
# Bulk Modulus (GPa) = 25.65543 43.54326 34.59935
# Shear Modulus (GPa) = 14.74862 24.33940 19.54401
#
# Velocity S-wave (km/s) = 2.73890 3.51849 3.15288
# Velocity P-wave (km/s) = 4.80117 6.21722 5.55450
#
# Compressibility (1/GPa) = 0.03897810
#
# Stress axis : x y z
#
# Youngs Moduli (GPa) = 35.41748 72.69538 80.58145
#
# Poissons Ratio (x) = -0.09641 0.38773
# Poissons Ratio (y) = -0.04697 0.34052
# Poissons Ratio (z) = 0.17042 0.30719
#
# Static dielectric constant tensor:
#      x y z
#    x 3.407350 0.000000 0.251890 
#    y 0.000000 4.115920 0.000000 
#    z 0.251890 0.000000 3.772880 
# 
# 
# High freq. dielectric constant tensor:
#      x y z
#    x 1.739520 0.000000 0.028830 
#    y 0.000000 1.766370 0.000000 
#    z 0.028830 0.000000 1.766090 
# 
# From -- ./inp_files/16431.got.cif
#   From: 2010.03.12/outbox.cif.g09.slc.cpg/sg5_9_cif.got.tgz:16431.got - 2010.03.31 09:47:26.
