data_PCOD8049072
_publ_section_title
;
Structure prediction by ZEFSAII (Michael W. Deem and Ramdas Pophale) SiO2 
 PCOD8049072
Probable space group: C 2
;
_chemical_formula_sum "Si O2"
_cell_formula_units_Z 30
_cell_length_a 21.487587
_cell_length_b 9.156112
_cell_length_c 24.952473
_cell_angle_alpha 90.000000
_cell_angle_beta 18.295097
_cell_angle_gamma 90.000000
_cell_volume 1541.058633
_symmetry_space_group_name_H-M "C 2"
_symmetry_group_IT_number 5
_symmetry_cell_setting 'monoclinic'
loop_
_space_group_symop_operation_xyz
x,y,z
-x,y,-z
1/2+x,1/2+y,z
1/2-x,1/2+y,-z
loop_
_atom_site_type_symbol
_atom_site_label
_atom_site_fract_x
_atom_site_fract_y
_atom_site_fract_z
Si Si1 0.442753 0.476260 0.872830
Si Si2 0.791899 0.673106 0.009557
Si Si3 0.600906 0.950367 0.775838
Si Si4 0.500000 0.401604 0.500000
Si Si5 0.669869 0.059962 0.505103
Si Si6 0.891060 0.336473 0.349571
Si Si7 0.476933 0.667032 0.938709
Si Si8 0.324898 0.182221 0.727260
O O1 0.264810 0.561391 0.990360
O O2 0.653597 0.520447 0.678477
O O3 0.414619 0.521075 0.957929
O O4 0.422355 0.304598 0.879649
O O5 0.593702 0.745120 0.197078
O O6 0.940539 0.574858 0.924975
O O7 0.811861 0.994681 0.631561
O O8 0.609545 0.932732 0.704287
O O9 0.538420 0.791354 0.846896
O O10 0.436935 0.309989 0.604063
O O11 0.709571 0.221532 0.496641
O O12 0.477991 0.061941 0.623702
O O13 0.645554 0.944674 0.571841
O O14 0.665410 0.609988 0.818198
O O15 0.300897 0.736923 0.118238
#
# Coordination Sequence:
#
# PCOD8049072 Si02
#       8
#     4   4   4   2   4   4   4   4
#     4  11  21  38  59  88 121 163 206 261 311 373
#     4  11  22  38  60  86 121 168 201 253 315 371
#     4  11  21  41  62  91 124 162 211 264 306 379
#     4  10  20  42  64  90 126 156 216 256 322 364
#     4  11  23  37  58  93 125 161 207 259 320 366
#     4  11  23  38  59  96 125 164 200 265 318 376
#     4  10  20  38  63  90 117 161 220 250 319 366
#     4  10  20  35  65  89 117 163 206 270 296 388
#
# _framework density 19.467137999999998
#
# number of rings (size 3 to 8) (size 9 to 14) (size 15 to 20)
#    0.000    1.333    5.333    1.600    1.867    2.133 
#    0.000    1.333    0.000    6.400    0.000    0.000 
#    0.000    0.000    0.000    0.000    0.000    0.000 
#
# Total GULP energy -185858.087751 kJ/mol
# GULP energy per Si atom -12390.539183 kJ/mol
# Density = 1.942283 g / cm^3
# Si number density = 19.467138 Si / 1000 Ang^3
#
#
#
# Elastic Constant Matrix: (Units=GPa)
#
#
# Indices 1 2 3 4 5 6 
#
# 1 92.4251 42.9248 58.7337 -0.0075 -3.6985 -0.0132
# 2 42.9248 91.7759 33.8088 0.1066 -11.2576 0.0082
# 3 58.7337 33.8088 94.3484 0.0814 -14.8610 -0.0130
# 4 -0.0075 0.1066 0.0814 36.7951 -0.0057 -2.2305
# 5 -3.6985 -11.2576 -14.8610 -0.0057 36.4704 0.0005
# 6 -0.0132 0.0082 -0.0130 -2.2305 0.0005 25.5943
#
#
#
# Elastic Compliance Matrix: (Units=1/GPa)
#
#
# Indices 1 2 3 4 5 6 
#
# 1 0.020694 -0.006012 -0.011423 0.000047 -0.004412 0.000011
# 2 -0.006012 0.014465 -0.000890 -0.000041 0.003492 -0.000012
# 3 -0.011423 -0.000890 0.019025 -0.000041 0.006319 0.000000
# 4 0.000047 -0.000041 -0.000041 0.027322 -0.000020 0.002381
# 5 -0.004412 0.003492 0.006319 -0.000020 0.030625 -0.000003
# 6 0.000011 -0.000012 0.000000 0.002381 -0.000003 0.039279
#
#
# Mechanical properties :
#
#
# Convention : Reuss Voigt Hill
#
# Bulk Modulus (GPa) = 57.03881 61.05375 59.04628
# Shear Modulus (GPa) = 25.78585 29.31078 27.54831
#
# Velocity S-wave (km/s) = 3.64343 3.88449 3.76589
# Velocity P-wave (km/s) = 6.86026 7.17980 7.02185
#
# Compressibility (1/GPa) = 0.01753192
#
# Stress axis : x y z
#
# Youngs Moduli (GPa) = 48.32222 69.13477 52.56348
#
# Poissons Ratio (x) = 0.41565 0.60045
# Poissons Ratio (y) = 0.29052 0.04680
# Poissons Ratio (z) = 0.55200 0.06156
#
# Static dielectric constant tensor:
#      x y z
#    x 3.686120 0.000000 -0.247310 
#    y 0.000000 3.419120 -0.000080 
#    z -0.247310 -0.000080 3.897400 
# 
# 
# High freq. dielectric constant tensor:
#      x y z
#    x 1.758150 0.000000 -0.016410 
#    y 0.000000 1.730110 0.000010 
#    z -0.016410 0.000010 1.775220 
# 
# From -- ./inp_files/30560.got.cif
#   From: 2010.03.12/outbox.cif.g09.slc.cpg/sg5_16_cif.got.tgz:30560.got - 2010.03.31 09:47:26.
