data_PCOD8049761
_publ_section_title
;
Structure prediction by ZEFSAII (Michael W. Deem and Ramdas Pophale) SiO2 
 PCOD8049761
Probable space group: C 2
;
_chemical_formula_sum "Si O2"
_cell_formula_units_Z 30
_cell_length_a 7.515208
_cell_length_b 12.475707
_cell_length_c 16.313846
_cell_angle_alpha 90.000000
_cell_angle_beta 64.298125
_cell_angle_gamma 90.000000
_cell_volume 1378.217006
_symmetry_space_group_name_H-M "C 2"
_symmetry_group_IT_number 5
_symmetry_cell_setting 'monoclinic'
loop_
_space_group_symop_operation_xyz
x,y,z
-x,y,-z
1/2+x,1/2+y,z
1/2-x,1/2+y,-z
loop_
_atom_site_type_symbol
_atom_site_label
_atom_site_fract_x
_atom_site_fract_y
_atom_site_fract_z
Si Si1 0.411696 0.517100 0.397879
Si Si2 0.564253 0.333478 0.266367
Si Si3 0.102565 0.668093 0.397970
Si Si4 0.385264 0.287898 0.137565
Si Si5 0.689792 0.994690 0.601235
Si Si6 0.000000 0.977203 0.000000
Si Si7 0.027672 0.387634 0.787464
Si Si8 0.919191 0.562295 0.933230
O O1 0.441604 0.438084 0.315850
O O2 0.318694 0.624915 0.379125
O O3 0.266587 0.460118 0.494835
O O4 0.622809 0.550793 0.392769
O O5 0.608309 0.268218 0.339110
O O6 0.436060 0.276980 0.223104
O O7 0.788675 0.353571 0.191105
O O8 0.000000 0.710093 0.500000
O O9 0.986867 0.576087 0.373936
O O10 0.147408 0.298848 0.173234
O O11 0.481597 0.180764 0.080996
O O12 0.478005 0.396764 0.081994
O O13 0.602609 0.901567 0.677729
O O14 0.180457 0.058315 0.982450
O O15 0.969155 0.501807 0.838580
O O16 0.000000 0.504151 0.000000
#
# Coordination Sequence:
#
# PCOD8049761 Si02
#       8
#     4   4   4   4   4   2   4   4
#     4   9  20  37  60  83 125 169 212 260 311 360
#     4  11  23  36  61  93 124 168 212 262 308 375
#     4  10  21  35  56  84 119 164 215 260 308 364
#     4  11  23  43  64  96 128 160 211 258 316 385
#     4   9  18  38  60  82 122 171 208 260 315 359
#     4  10  24  46  68  96 128 162 208 258 316 392
#     4  10  23  38  63  92 128 163 209 262 313 376
#     4  11  23  43  68  93 127 168 203 262 323 381
#
# _framework density 21.767254000000001
#
# number of rings (size 3 to 8) (size 9 to 14) (size 15 to 20)
#    0.000    1.867    0.667    2.400    3.733    5.333 
#    1.200    0.000    8.800    0.000    0.000    0.000 
#    0.000    0.000    0.000    0.000    0.000    0.000 
#
# Total GULP energy -185824.805164 kJ/mol
# GULP energy per Si atom -12388.320344 kJ/mol
# Density = 2.171771 g / cm^3
# Si number density = 21.767254 Si / 1000 Ang^3
#
#
#
# Elastic Constant Matrix: (Units=GPa)
#
#
# Indices 1 2 3 4 5 6 
#
# 1 123.8046 38.1221 45.1089 0.0000 -15.7494 0.0000
# 2 38.1221 65.8601 18.3874 0.0000 -8.5831 0.0000
# 3 45.1089 18.3874 77.2614 0.0000 3.0637 0.0000
# 4 0.0000 0.0000 0.0000 17.7493 0.0000 -2.6544
# 5 -15.7494 -8.5831 3.0637 0.0000 41.0615 0.0000
# 6 0.0000 0.0000 0.0000 -2.6544 0.0000 24.4118
#
#
#
# Elastic Compliance Matrix: (Units=1/GPa)
#
#
# Indices 1 2 3 4 5 6 
#
# 1 0.012386 -0.004882 -0.006236 0.000000 0.004196 0.000000
# 2 -0.004882 0.018769 -0.001703 0.000000 0.002178 0.000000
# 3 -0.006236 -0.001703 0.017149 0.000000 -0.004028 0.000000
# 4 0.000000 0.000000 0.000000 0.057271 0.000000 0.006227
# 5 0.004196 0.002178 -0.004028 0.000000 0.026719 0.000000
# 6 0.000000 0.000000 0.000000 0.006227 0.000000 0.041641
#
#
# Mechanical properties :
#
#
# Convention : Reuss Voigt Hill
#
# Bulk Modulus (GPa) = 44.12635 52.24033 48.18334
# Shear Modulus (GPa) = 24.13924 27.66504 25.90214
#
# Velocity S-wave (km/s) = 3.33373 3.56890 3.45332
# Velocity P-wave (km/s) = 5.92742 6.40581 6.17125
#
# Compressibility (1/GPa) = 0.02266220
#
# Stress axis : x y z
#
# Youngs Moduli (GPa) = 80.73331 53.28025 58.31198
#
# Poissons Ratio (x) = 0.26010 0.36366
# Poissons Ratio (y) = 0.39412 0.09930
# Poissons Ratio (z) = 0.50348 0.09073
#
# Static dielectric constant tensor:
#      x y z
#    x 4.139190 0.000000 -0.188360 
#    y 0.000000 3.635420 0.000000 
#    z -0.188360 0.000000 4.639990 
# 
# 
# High freq. dielectric constant tensor:
#      x y z
#    x 1.872250 0.000000 -0.000880 
#    y 0.000000 1.822330 0.000000 
#    z -0.000880 0.000000 1.865110 
# 
# From -- ./inp_files/59566.got.cif
#   From: 2010.03.12/outbox.cif.g09.slc.cpg/sg5_30_cif.got.tgz:59566.got - 2010.03.31 09:47:26.
