data_PCOD8049428
_publ_section_title
;
Structure prediction by ZEFSAII (Michael W. Deem and Ramdas Pophale) SiO2 
 PCOD8049428
Probable space group: C 2
;
_chemical_formula_sum "Si O2"
_cell_formula_units_Z 24
_cell_length_a 11.017688
_cell_length_b 8.746665
_cell_length_c 21.861367
_cell_angle_alpha 90.000000
_cell_angle_beta 149.141290
_cell_angle_gamma 90.000000
_cell_volume 1080.593240
_symmetry_space_group_name_H-M "C 2"
_symmetry_group_IT_number 5
_symmetry_cell_setting 'monoclinic'
loop_
_space_group_symop_operation_xyz
x,y,z
-x,y,-z
1/2+x,1/2+y,z
1/2-x,1/2+y,-z
loop_
_atom_site_type_symbol
_atom_site_label
_atom_site_fract_x
_atom_site_fract_y
_atom_site_fract_z
Si Si1 0.232610 0.315190 0.699333
Si Si2 0.000000 0.518865 0.500000
Si Si3 0.436026 0.901507 0.889518
Si Si4 0.436427 0.739486 0.686034
Si Si5 0.019930 0.514216 0.223262
Si Si6 0.500000 0.628050 0.000000
Si Si7 0.641765 0.523844 0.863146
O O1 0.047456 0.407560 0.577573
O O2 0.362077 0.179595 0.718667
O O3 0.430052 0.436929 0.806920
O O4 0.107767 0.234673 0.702245
O O5 0.217116 0.629342 0.577111
O O6 0.396603 0.922538 0.801170
O O7 0.194865 0.930807 0.822692
O O8 0.524681 0.732515 0.948727
O O9 0.630734 0.029135 0.994647
O O10 0.566584 0.689825 0.805985
O O11 0.375234 0.916238 0.674327
O O12 0.734189 0.524109 0.103937
#
# Coordination Sequence:
#
# PCOD8049428 Si02
#       7
#     4   2   4   4   4   2   4
#     4  11  23  47  69  94 127 176 219 281 339 393
#     4  10  28  50  66  90 132 168 224 296 354 364
#     4  10  20  39  64  93 148 175 205 254 315 397
#     4  11  26  43  67 102 124 171 227 285 325 394
#     4  12  25  37  70 103 133 175 225 254 323 401
#     4  10  24  38  56 104 142 180 202 256 314 394
#     4   9  20  41  64  95 140 179 204 256 333 379
#
# _framework density 22.210023
#
# number of rings (size 3 to 8) (size 9 to 14) (size 15 to 20)
#    0.000    1.667    5.000    0.000    4.667    6.000 
#    0.000    0.000    0.000    0.000    0.000    0.000 
#    0.000    0.000    0.000    0.000    0.000    0.000 
#
# Total GULP energy -148744.285012 kJ/mol
# GULP energy per Si atom -12395.357084 kJ/mol
# Density = 2.215947 g / cm^3
# Si number density = 22.210023 Si / 1000 Ang^3
#
#
#
# Elastic Constant Matrix: (Units=GPa)
#
#
# Indices 1 2 3 4 5 6 
#
# 1 78.2399 29.2906 24.4176 0.0000 20.3268 0.0000
# 2 29.2906 100.4088 29.8995 0.0000 5.2882 0.0000
# 3 24.4176 29.8995 68.4060 -0.0005 10.7304 0.0001
# 4 0.0000 0.0000 -0.0005 39.8270 0.0002 3.8107
# 5 20.3268 5.2882 10.7304 0.0002 22.3566 0.0001
# 6 0.0000 0.0000 0.0001 3.8107 0.0001 35.0131
#
#
#
# Elastic Compliance Matrix: (Units=1/GPa)
#
#
# Indices 1 2 3 4 5 6 
#
# 1 0.019014 -0.003950 -0.002699 0.000000 -0.015058 0.000000
# 2 -0.003950 0.012272 -0.004393 0.000000 0.002797 0.000000
# 3 -0.002699 -0.004393 0.018334 0.000000 -0.005307 0.000000
# 4 0.000000 0.000000 0.000000 0.025373 0.000000 -0.002761
# 5 -0.015058 0.002797 -0.005307 0.000000 0.060306 0.000000
# 6 0.000000 0.000000 0.000000 -0.002761 0.000000 0.028861
#
#
# Mechanical properties :
#
#
# Convention : Reuss Voigt Hill
#
# Bulk Modulus (GPa) = 36.31323 46.03003 41.17163
# Shear Modulus (GPa) = 25.58537 30.33581 27.96059
#
# Velocity S-wave (km/s) = 3.39776 3.69977 3.55197
# Velocity P-wave (km/s) = 5.63724 6.24667 5.94976
#
# Compressibility (1/GPa) = 0.02753817
#
# Stress axis : x y z
#
# Youngs Moduli (GPa) = 52.59181 81.48376 54.54216
#
# Poissons Ratio (x) = 0.32187 0.14718
# Poissons Ratio (y) = 0.20774 0.23960
# Poissons Ratio (z) = 0.14192 0.35795
#
# Static dielectric constant tensor:
#      x y z
#    x 3.868510 0.000000 0.170590 
#    y 0.000000 4.051000 0.000000 
#    z 0.170590 0.000000 3.732970 
# 
# 
# High freq. dielectric constant tensor:
#      x y z
#    x 1.874190 0.000000 0.013480 
#    y 0.000000 1.884090 0.000000 
#    z 0.013480 0.000000 1.845490 
# 
# From -- ./inp_files/38453.got.cif
#   From: 2010.03.12/outbox.cif.g09.slc.cpg/sg5_20_cif.got.tgz:38453.got - 2010.03.31 09:47:26.
