data_PCOD8049601
_publ_section_title
;
Structure prediction by ZEFSAII (Michael W. Deem and Ramdas Pophale) SiO2 
 PCOD8049601
Probable space group: C 2
;
_chemical_formula_sum "Si O2"
_cell_formula_units_Z 32
_cell_length_a 16.368461
_cell_length_b 8.965392
_cell_length_c 26.726155
_cell_angle_alpha 90.000000
_cell_angle_beta 21.915736
_cell_angle_gamma 90.000000
_cell_volume 1463.877761
_symmetry_space_group_name_H-M "C 2"
_symmetry_group_IT_number 5
_symmetry_cell_setting 'monoclinic'
loop_
_space_group_symop_operation_xyz
x,y,z
-x,y,-z
1/2+x,1/2+y,z
1/2-x,1/2+y,-z
loop_
_atom_site_type_symbol
_atom_site_label
_atom_site_fract_x
_atom_site_fract_y
_atom_site_fract_z
Si Si1 0.024300 0.072480 0.930196
Si Si2 0.751942 0.240721 0.347689
Si Si3 0.664033 0.477662 0.320612
Si Si4 0.650549 0.798153 0.368096
Si Si5 0.960366 0.409813 0.966254
Si Si6 0.991205 0.512658 0.630847
Si Si7 0.761917 0.286458 0.450092
Si Si8 0.542473 0.483552 0.140096
O O1 0.909099 0.233703 0.996846
O O2 0.282571 0.092002 0.773655
O O3 0.918328 0.978806 0.943309
O O4 0.000000 0.998357 0.000000
O O5 0.500000 0.186674 0.500000
O O6 0.759705 0.402024 0.316562
O O7 0.863979 0.253415 0.337910
O O8 0.896225 0.130592 0.232324
O O9 0.644906 0.654724 0.336005
O O10 0.430846 0.405745 0.442859
O O11 0.813579 0.443883 0.188710
O O12 0.500000 0.757372 0.500000
O O13 0.558642 0.950688 0.396021
O O14 0.904433 0.837631 0.236575
O O15 0.764158 0.489538 0.046655
O O16 0.000000 0.471846 0.000000
O O17 0.044582 0.361515 0.629699
O O18 0.185849 0.632580 0.519050
#
# Coordination Sequence:
#
# PCOD8049601 Si02
#       8
#     4   4   4   4   4   4   4   4
#     4  10  22  47  68  94 135 178 224 279 332 392
#     4  10  20  41  66  93 132 173 216 274 339 396
#     4  11  22  41  63  95 135 168 222 272 330 394
#     4  11  23  40  65 101 130 166 219 277 329 406
#     4  11  25  44  67  94 134 182 227 277 331 399
#     4  11  23  42  64  96 132 169 220 272 336 405
#     4  11  22  39  65  92 131 176 208 280 343 398
#     4  11  23  42  71  97 128 184 223 275 341 400
#
# _framework density 21.859749000000001
#
# number of rings (size 3 to 8) (size 9 to 14) (size 15 to 20)
#    0.000    1.250    2.500    5.250    1.750    4.000 
#    6.750    2.500    0.000    0.000    0.000    0.000 
#    0.000    0.000    0.000    0.000    0.000    0.000 
#
# Total GULP energy -198309.419138 kJ/mol
# GULP energy per Si atom -12394.338696 kJ/mol
# Density = 2.180999 g / cm^3
# Si number density = 21.859749 Si / 1000 Ang^3
#
#
#
# Elastic Constant Matrix: (Units=GPa)
#
#
# Indices 1 2 3 4 5 6 
#
# 1 133.9010 20.7856 40.4893 -0.0064 18.2128 0.0016
# 2 20.7856 88.7883 12.5018 -0.0113 -2.6828 0.0013
# 3 40.4893 12.5018 59.5939 -0.0852 23.6691 0.0220
# 4 -0.0064 -0.0113 -0.0852 24.2482 0.0020 -1.5568
# 5 18.2128 -2.6828 23.6691 0.0020 32.5555 0.0020
# 6 0.0016 0.0013 0.0220 -1.5568 0.0020 32.8183
#
#
#
# Elastic Compliance Matrix: (Units=1/GPa)
#
#
# Indices 1 2 3 4 5 6 
#
# 1 0.009599 -0.001491 -0.005662 -0.000018 -0.001376 0.000003
# 2 -0.001491 0.012188 -0.003197 -0.000006 0.004163 0.000001
# 3 -0.005662 -0.003197 0.028323 0.000097 -0.017688 -0.000013
# 4 -0.000018 -0.000006 0.000097 0.041366 -0.000064 0.001962
# 5 -0.001376 0.004163 -0.017688 -0.000064 0.044690 0.000006
# 6 0.000003 0.000001 -0.000013 0.001962 0.000006 0.030564
#
#
# Mechanical properties :
#
#
# Convention : Reuss Voigt Hill
#
# Bulk Modulus (GPa) = 34.00351 47.75962 40.88157
# Shear Modulus (GPa) = 25.35054 31.82483 28.58769
#
# Velocity S-wave (km/s) = 3.40912 3.81972 3.62024
# Velocity P-wave (km/s) = 5.57541 6.43034 6.01808
#
# Compressibility (1/GPa) = 0.02940873
#
# Stress axis : x y z
#
# Youngs Moduli (GPa) = 104.17624 82.04898 35.30670
#
# Poissons Ratio (x) = 0.12238 0.19992
# Poissons Ratio (y) = 0.15538 0.11287
# Poissons Ratio (z) = 0.58988 0.26230
#
# Static dielectric constant tensor:
#      x y z
#    x 4.138230 0.000010 0.187900 
#    y 0.000010 3.873420 0.000060 
#    z 0.187900 0.000060 3.908670 
# 
# 
# High freq. dielectric constant tensor:
#      x y z
#    x 1.862320 0.000000 0.013540 
#    y 0.000000 1.854130 0.000000 
#    z 0.013540 0.000000 1.850950 
# 
# From -- ./inp_files/68762.got.cif
#   From: 2010.03.12/outbox.cif.g09.slc.cpg/sg5_35_cif.got.tgz:68762.got - 2010.03.31 09:47:26.
