data_PCOD8049703
_publ_section_title
;
Structure prediction by ZEFSAII (Michael W. Deem and Ramdas Pophale) SiO2 
 PCOD8049703
Probable space group: C 2
;
_chemical_formula_sum "Si O2"
_cell_formula_units_Z 26
_cell_length_a 11.701275
_cell_length_b 13.860650
_cell_length_c 7.544110
_cell_angle_alpha 90.000000
_cell_angle_beta 118.028811
_cell_angle_gamma 90.000000
_cell_volume 1080.049189
_symmetry_space_group_name_H-M "C 2"
_symmetry_group_IT_number 5
_symmetry_cell_setting 'monoclinic'
loop_
_space_group_symop_operation_xyz
x,y,z
-x,y,-z
1/2+x,1/2+y,z
1/2-x,1/2+y,-z
loop_
_atom_site_type_symbol
_atom_site_label
_atom_site_fract_x
_atom_site_fract_y
_atom_site_fract_z
Si Si1 0.500000 0.853770 0.000000
Si Si2 0.176615 0.619441 0.488974
Si Si3 0.462496 0.385801 0.272180
Si Si4 0.910276 0.674782 0.185085
Si Si5 0.216435 0.488932 0.019803
Si Si6 0.097804 0.251509 0.414353
Si Si7 0.739369 0.425457 0.343574
O O1 0.376937 0.921904 0.934149
O O2 0.521412 0.784578 0.183930
O O3 0.135955 0.656426 0.650920
O O4 0.321265 0.655219 0.557476
O O5 0.191811 0.504659 0.481744
O O6 0.063086 0.649972 0.270168
O O7 0.500000 0.357963 0.500000
O O8 0.396463 0.289598 0.133420
O O9 0.584157 0.421726 0.246156
O O10 0.360746 0.474086 0.201898
O O11 0.825027 0.602683 0.997986
O O12 0.214642 0.451425 0.818556
O O13 0.206998 0.325193 0.553788
O O14 0.000000 0.230995 0.500000
#
# Coordination Sequence:
#
# PCOD8049703 Si02
#       7
#     2   4   4   4   4   4   4
#     4  12  24  44  70 112 148 198 246 314 370 454
#     4  10  21  41  73 102 137 197 241 304 370 442
#     4  12  23  46  75 106 146 198 249 313 377 446
#     4  10  20  43  72 103 141 194 246 298 377 445
#     4  11  25  43  70 111 145 195 247 311 374 445
#     4  12  24  46  74 108 151 196 247 313 379 450
#     4  11  23  45  72 103 147 190 250 306 373 442
#
# _framework density 24.072977999999999
#
# number of rings (size 3 to 8) (size 9 to 14) (size 15 to 20)
#    0.000    0.923    4.615    3.231    2.154    0.615 
#   11.077    1.538    0.000    0.000    0.000    0.000 
#    0.000    0.000    0.000    0.000    0.000    0.000 
#
# Total GULP energy -161192.331997 kJ/mol
# GULP energy per Si atom -12399.410154 kJ/mol
# Density = 2.401819 g / cm^3
# Si number density = 24.072978 Si / 1000 Ang^3
#
#
#
# Elastic Constant Matrix: (Units=GPa)
#
#
# Indices 1 2 3 4 5 6 
#
# 1 145.7066 23.0408 24.1415 0.0000 10.8773 0.0000
# 2 23.0408 80.9736 18.1960 0.0000 6.7982 0.0000
# 3 24.1415 18.1960 56.0938 0.0000 10.0551 0.0000
# 4 0.0000 0.0000 0.0000 23.3553 0.0000 15.7512
# 5 10.8773 6.7982 10.0551 0.0000 38.9627 0.0000
# 6 0.0000 0.0000 0.0000 15.7512 0.0000 37.1915
#
#
#
# Elastic Compliance Matrix: (Units=1/GPa)
#
#
# Indices 1 2 3 4 5 6 
#
# 1 0.007615 -0.001486 -0.002580 0.000000 -0.001201 0.000000
# 2 -0.001486 0.013671 -0.003609 0.000000 -0.001039 0.000000
# 3 -0.002580 -0.003609 0.020830 0.000000 -0.004026 0.000000
# 4 0.000000 0.000000 0.000000 0.059936 0.000000 -0.025384
# 5 -0.001201 -0.001039 -0.004026 0.000000 0.027221 0.000000
# 6 0.000000 0.000000 0.000000 -0.025384 0.000000 0.037638
#
#
# Mechanical properties :
#
#
# Convention : Reuss Voigt Hill
#
# Bulk Modulus (GPa) = 37.36101 45.94786 41.65443
# Shear Modulus (GPa) = 26.15288 34.39495 30.27391
#
# Velocity S-wave (km/s) = 3.29963 3.78402 3.55010
# Velocity P-wave (km/s) = 5.48365 6.18224 5.84339
#
# Compressibility (1/GPa) = 0.02676587
#
# Stress axis : x y z
#
# Youngs Moduli (GPa) = 131.31534 73.14862 48.00792
#
# Poissons Ratio (x) = 0.10872 0.12386
# Poissons Ratio (y) = 0.19518 0.17325
# Poissons Ratio (z) = 0.33880 0.26397
#
# Static dielectric constant tensor:
#      x y z
#    x 4.598720 0.000000 0.055750 
#    y 0.000000 4.428880 0.000000 
#    z 0.055750 0.000000 4.195870 
# 
# 
# High freq. dielectric constant tensor:
#      x y z
#    x 1.973510 0.000000 -0.001000 
#    y 0.000000 1.956160 0.000000 
#    z -0.001000 0.000000 1.940690 
# 
# From -- ./inp_files/20479.got.cif
#   From: 2010.03.12/outbox.cif.g09.slc.cpg/sg5_11_cif.got.tgz:20479.got - 2010.03.31 09:47:26.
