data_PCOD8049000
_publ_section_title
;
Structure prediction by ZEFSAII (Michael W. Deem and Ramdas Pophale) SiO2 
 PCOD8049000
Probable space group: C 2
;
_chemical_formula_sum "Si O2"
_cell_formula_units_Z 24
_cell_length_a 17.206813
_cell_length_b 16.235034
_cell_length_c 12.022195
_cell_angle_alpha 90.000000
_cell_angle_beta 20.874625
_cell_angle_gamma 90.000000
_cell_volume 1196.693026
_symmetry_space_group_name_H-M "C 2"
_symmetry_group_IT_number 5
_symmetry_cell_setting 'monoclinic'
loop_
_space_group_symop_operation_xyz
x,y,z
-x,y,-z
1/2+x,1/2+y,z
1/2-x,1/2+y,-z
loop_
_atom_site_type_symbol
_atom_site_label
_atom_site_fract_x
_atom_site_fract_y
_atom_site_fract_z
Si Si1 0.761049 0.942200 0.269797
Si Si2 0.257037 0.763312 0.655704
Si Si3 0.496966 0.076539 0.262835
Si Si4 0.894619 0.196265 0.248518
Si Si5 0.173267 0.088184 0.355367
Si Si6 0.133231 0.062030 0.056535
O O1 0.670905 0.848867 0.382687
O O2 0.611432 0.991568 0.555647
O O3 0.000000 0.940798 0.000000
O O4 0.766540 0.981819 0.138692
O O5 0.346844 0.762385 0.408613
O O6 0.356086 0.686576 0.589801
O O7 0.000000 0.752571 0.000000
O O8 0.329525 0.151585 0.486167
O O9 0.588601 0.066216 0.012945
O O10 0.692619 0.097489 0.087539
O O11 0.081066 0.130048 0.033373
O O12 0.000000 0.241562 0.000000
O O13 0.000000 0.054694 0.500000
O O14 0.101844 0.044300 0.567453
#
# Coordination Sequence:
#
# PCOD8049000 Si02
#       6
#     4   4   4   4   4   4
#     4  11  21  36  54  86 114 147 194 225 285 342
#     4  10  21  36  57  79 117 153 184 231 286 338
#     4  11  19  35  59  85 111 151 181 238 283 323
#     4  11  20  36  58  85 113 145 194 234 276 337
#     4   9  20  35  56  84 110 145 196 229 276 336
#     4  10  20  34  57  88 110 143 193 236 271 338
#
# _framework density 20.055268000000002
#
# number of rings (size 3 to 8) (size 9 to 14) (size 15 to 20)
#    0.000    1.667    5.000    0.500    0.000    1.333 
#    0.000    3.333    0.000    0.000    0.000    0.000 
#    0.000    0.000    0.000    0.000    0.000    0.000 
#
# Total GULP energy -148707.023134 kJ/mol
# GULP energy per Si atom -12392.251928 kJ/mol
# Density = 2.000962 g / cm^3
# Si number density = 20.055268 Si / 1000 Ang^3
#
#
#
# Elastic Constant Matrix: (Units=GPa)
#
#
# Indices 1 2 3 4 5 6 
#
# 1 59.7521 22.5553 30.5574 -0.0062 18.3891 0.0106
# 2 22.5553 88.6993 45.3196 -0.0263 26.0372 0.0177
# 3 30.5574 45.3196 131.8471 0.0203 40.7584 -0.0272
# 4 -0.0062 -0.0263 0.0203 19.7231 -0.0099 10.9008
# 5 18.3891 26.0372 40.7584 -0.0099 50.2460 0.0076
# 6 0.0106 0.0177 -0.0272 10.9008 0.0076 19.5774
#
#
#
# Elastic Compliance Matrix: (Units=1/GPa)
#
#
# Indices 1 2 3 4 5 6 
#
# 1 0.020274 -0.002691 -0.002551 0.000013 -0.003956 -0.000018
# 2 -0.002691 0.014791 -0.003197 0.000041 -0.004086 -0.000038
# 3 -0.002551 -0.003197 0.011310 -0.000047 -0.006584 0.000049
# 4 0.000013 0.000041 -0.000047 0.073241 0.000033 -0.040781
# 5 -0.003956 -0.004086 -0.006584 0.000033 0.028808 -0.000033
# 6 -0.000018 -0.000038 0.000049 -0.040781 -0.000033 0.073787
#
#
# Mechanical properties :
#
#
# Convention : Reuss Voigt Hill
#
# Bulk Modulus (GPa) = 33.90127 53.01813 43.45970
# Shear Modulus (GPa) = 20.08661 30.03373 25.06017
#
# Velocity S-wave (km/s) = 3.16818 3.87402 3.53874
# Velocity P-wave (km/s) = 5.50670 6.81939 6.19790
#
# Compressibility (1/GPa) = 0.02949742
#
# Stress axis : x y z
#
# Youngs Moduli (GPa) = 49.32534 67.60640 88.41616
#
# Poissons Ratio (x) = 0.18191 0.22553
# Poissons Ratio (y) = 0.13272 0.28270
# Poissons Ratio (z) = 0.12582 0.21616
#
# Static dielectric constant tensor:
#      x y z
#    x 3.773520 -0.000070 0.249690 
#    y -0.000070 3.453740 0.000080 
#    z 0.249690 0.000080 4.123740 
# 
# 
# High freq. dielectric constant tensor:
#      x y z
#    x 1.787760 0.000000 0.010860 
#    y 0.000000 1.731600 0.000000 
#    z 0.010860 0.000000 1.806490 
# 
# From -- ./inp_files/15748.got.cif
#   From: 2010.03.12/outbox.cif.g09.slc.cpg/sg5_8_cif.got.tgz:15748.got - 2010.03.31 09:47:26.
