data_PCOD8049522
_publ_section_title
;
Structure prediction by ZEFSAII (Michael W. Deem and Ramdas Pophale) SiO2 
 PCOD8049522
Probable space group: C 2
;
_chemical_formula_sum "Si O2"
_cell_formula_units_Z 32
_cell_length_a 18.799108
_cell_length_b 8.934209
_cell_length_c 13.665725
_cell_angle_alpha 90.000000
_cell_angle_beta 144.291854
_cell_angle_gamma 90.000000
_cell_volume 1339.625715
_symmetry_space_group_name_H-M "C 2"
_symmetry_group_IT_number 5
_symmetry_cell_setting 'monoclinic'
loop_
_space_group_symop_operation_xyz
x,y,z
-x,y,-z
1/2+x,1/2+y,z
1/2-x,1/2+y,-z
loop_
_atom_site_type_symbol
_atom_site_label
_atom_site_fract_x
_atom_site_fract_y
_atom_site_fract_z
Si Si1 0.847341 0.983320 0.417171
Si Si2 0.471752 0.192478 0.580823
Si Si3 0.729925 0.535510 0.277893
Si Si4 0.356968 0.804448 0.727628
Si Si5 0.509792 0.069327 0.900231
Si Si6 0.774594 0.743256 0.614093
Si Si7 0.235682 0.995840 0.879095
Si Si8 0.763329 0.648093 0.098924
O O1 0.949773 0.871291 0.575546
O O2 0.718384 0.893652 0.272369
O O3 0.865383 0.019004 0.320515
O O4 0.830229 0.129884 0.464090
O O5 0.500000 0.172317 0.500000
O O6 0.353653 0.091568 0.471152
O O7 0.592425 0.134755 0.770913
O O8 0.623508 0.635749 0.210787
O O9 0.704175 0.364407 0.276160
O O10 0.733739 0.558493 0.165609
O O11 0.278576 0.820031 0.541095
O O12 0.484217 0.890546 0.858272
O O13 0.403313 0.165410 0.726527
O O14 0.500000 0.123663 0.000000
O O15 0.645503 0.095945 0.014301
O O16 0.269576 0.821985 0.929933
O O17 0.187092 0.067587 0.926746
#
# Coordination Sequence:
#
# PCOD8049522 Si02
#       8
#     4   4   4   4   4   4   4   4
#     4  10  20  41  65  88 133 168 214 274 331 391
#     4   9  18  41  67  87 119 183 215 256 328 386
#     4  10  20  41  65  96 130 163 225 275 326 381
#     4  10  20  40  65  91 129 172 216 271 333 399
#     4  11  22  43  67  93 133 179 206 271 350 389
#     4  11  23  36  67 104 126 165 224 284 321 397
#     4  12  24  44  66  95 133 178 221 265 343 395
#     4  11  25  42  70  92 136 182 221 273 325 405
#
# _framework density 23.887270000000001
#
# number of rings (size 3 to 8) (size 9 to 14) (size 15 to 20)
#    0.000    1.500    6.250    1.500    7.000    0.000 
#    2.250    3.750    0.000    0.000    0.000    0.000 
#    0.000    0.000    0.000    0.000    0.000    0.000 
#
# Total GULP energy -198298.111886 kJ/mol
# GULP energy per Si atom -12393.631993 kJ/mol
# Density = 2.383290 g / cm^3
# Si number density = 23.887270 Si / 1000 Ang^3
#
#
#
# Elastic Constant Matrix: (Units=GPa)
#
#
# Indices 1 2 3 4 5 6 
#
# 1 40.6663 15.3969 7.6093 0.0000 -13.9102 0.0000
# 2 15.3969 93.0069 -2.1133 0.0000 -5.7859 0.0000
# 3 7.6093 -2.1133 51.6953 0.0000 -17.5298 0.0000
# 4 0.0000 0.0000 0.0000 36.2833 0.0000 -6.4520
# 5 -13.9102 -5.7859 -17.5298 0.0000 34.1164 0.0000
# 6 0.0000 0.0000 0.0000 -6.4520 0.0000 34.8661
#
#
#
# Elastic Compliance Matrix: (Units=1/GPa)
#
#
# Indices 1 2 3 4 5 6 
#
# 1 0.030198 -0.004325 -0.000842 0.000000 0.011146 0.000000
# 2 -0.004325 0.011558 0.001424 0.000000 0.000928 0.000000
# 3 -0.000842 0.001424 0.023605 0.000000 0.012027 0.000000
# 4 0.000000 0.000000 0.000000 0.028499 0.000000 0.005274
# 5 0.011146 0.000928 0.012027 0.000000 0.040193 0.000000
# 6 0.000000 0.000000 0.000000 0.005274 0.000000 0.029657
#
#
# Mechanical properties :
#
#
# Convention : Reuss Voigt Hill
#
# Bulk Modulus (GPa) = 17.27878 25.23938 21.25908
# Shear Modulus (GPa) = 26.24851 32.01822 29.13337
#
# Velocity S-wave (km/s) = 3.31849 3.66510 3.49609
# Velocity P-wave (km/s) = 4.68319 5.33850 5.02155
#
# Compressibility (1/GPa) = 0.05787446
#
# Stress axis : x y z
#
# Youngs Moduli (GPa) = 33.11465 86.52041 42.36479
#
# Poissons Ratio (x) = 0.37419 0.03567
# Poissons Ratio (y) = 0.14322 -0.06032
# Poissons Ratio (z) = 0.02789 -0.12320
#
# Static dielectric constant tensor:
#      x y z
#    x 4.398110 0.000000 0.195100 
#    y 0.000000 4.121680 0.000000 
#    z 0.195100 0.000000 4.553610 
# 
# 
# High freq. dielectric constant tensor:
#      x y z
#    x 1.947990 0.000000 -0.018010 
#    y 0.000000 1.929730 0.000000 
#    z -0.018010 0.000000 1.933650 
# 
# From -- ./inp_files/57725.got.cif
#   From: 2010.03.12/outbox.cif.g09.slc.cpg/sg5_29_cif.got.tgz:57725.got - 2010.03.31 09:47:26.
