data_PCOD8049462
_publ_section_title
;
Structure prediction by ZEFSAII (Michael W. Deem and Ramdas Pophale) SiO2 
 PCOD8049462
Probable space group: C 2
;
_chemical_formula_sum "Si O2"
_cell_formula_units_Z 32
_cell_length_a 24.610207
_cell_length_b 7.792629
_cell_length_c 24.766031
_cell_angle_alpha 90.000000
_cell_angle_beta 161.028828
_cell_angle_gamma 90.000000
_cell_volume 1544.053953
_symmetry_space_group_name_H-M "C 2"
_symmetry_group_IT_number 5
_symmetry_cell_setting 'monoclinic'
loop_
_space_group_symop_operation_xyz
x,y,z
-x,y,-z
1/2+x,1/2+y,z
1/2-x,1/2+y,-z
loop_
_atom_site_type_symbol
_atom_site_label
_atom_site_fract_x
_atom_site_fract_y
_atom_site_fract_z
Si Si1 0.585374 0.909660 0.346408
Si Si2 0.568169 0.146182 0.622170
Si Si3 0.225219 0.897709 0.637049
Si Si4 0.802837 0.486951 0.152758
Si Si5 0.544723 0.787180 0.885938
Si Si6 0.195445 0.441030 0.174257
Si Si7 0.731442 0.592688 0.868070
Si Si8 0.361241 0.592314 0.543281
O O1 0.435236 0.026852 0.228812
O O2 0.522143 0.785965 0.238331
O O3 0.637478 0.794973 0.446729
O O4 0.751762 0.012357 0.488481
O O5 0.500000 0.073160 0.500000
O O6 0.433220 0.275921 0.520457
O O7 0.742925 0.247862 0.780259
O O8 0.608196 0.002365 0.704648
O O9 0.392109 0.783709 0.785259
O O10 0.217459 0.992324 0.687469
O O11 0.228424 0.051466 0.597142
O O12 0.734755 0.291384 0.084494
O O13 0.654849 0.621736 0.003556
O O14 0.637300 0.969132 0.979726
O O15 0.252675 0.573244 0.181903
O O16 0.000000 0.442347 0.000000
O O17 0.552022 0.526236 0.720733
#
# Coordination Sequence:
#
# PCOD8049462 Si02
#       8
#     4   4   4   4   4   4   4   4
#     4  10  26  40  65  94 124 171 218 260 326 369
#     4  10  21  40  68  94 128 169 208 264 319 387
#     4  10  20  39  69  93 122 176 211 250 334 374
#     4  11  24  44  64  97 130 167 216 267 315 380
#     4  11  23  44  66  90 132 171 207 270 311 388
#     4  11  19  38  67  94 127 172 210 258 324 381
#     4  11  23  42  66  95 128 167 213 265 326 372
#     4  10  22  42  58  94 124 163 219 263 314 377
#
# _framework density 20.724664000000001
#
# number of rings (size 3 to 8) (size 9 to 14) (size 15 to 20)
#    0.000    1.500    3.750    0.000    8.750    0.000 
#    9.000    3.125    0.000    0.000    0.000    0.000 
#    0.000    0.000    0.000    0.000    0.000    0.000 
#
# Total GULP energy -198303.308958 kJ/mol
# GULP energy per Si atom -12393.956810 kJ/mol
# Density = 2.067749 g / cm^3
# Si number density = 20.724664 Si / 1000 Ang^3
#
#
#
# Elastic Constant Matrix: (Units=GPa)
#
#
# Indices 1 2 3 4 5 6 
#
# 1 97.2112 25.5740 18.9117 0.0030 12.5217 0.0011
# 2 25.5740 86.9710 42.0571 0.0065 -0.3458 0.0031
# 3 18.9117 42.0571 75.6208 -0.0044 18.4935 0.0001
# 4 0.0030 0.0065 -0.0044 28.5517 -0.0006 -4.4719
# 5 12.5217 -0.3458 18.4935 -0.0006 37.3833 0.0004
# 6 0.0011 0.0031 0.0001 -4.4719 0.0004 26.3967
#
#
#
# Elastic Compliance Matrix: (Units=1/GPa)
#
#
# Indices 1 2 3 4 5 6 
#
# 1 0.011706 -0.003428 -0.000062 -0.000001 -0.003922 0.000000
# 2 -0.003428 0.017631 -0.010545 -0.000006 0.006528 -0.000003
# 3 -0.000062 -0.010545 0.021755 0.000006 -0.010839 0.000002
# 4 -0.000001 -0.000006 0.000006 0.035979 -0.000002 0.006095
# 5 -0.003922 0.006528 -0.010839 -0.000002 0.033486 -0.000001
# 6 0.000000 -0.000003 0.000002 0.006095 -0.000001 0.038916
#
#
# Mechanical properties :
#
#
# Convention : Reuss Voigt Hill
#
# Bulk Modulus (GPa) = 43.43568 48.09874 45.76721
# Shear Modulus (GPa) = 25.61261 30.01703 27.81482
#
# Velocity S-wave (km/s) = 3.51928 3.80988 3.66746
# Velocity P-wave (km/s) = 6.12517 6.52782 6.32970
#
# Compressibility (1/GPa) = 0.02302255
#
# Stress axis : x y z
#
# Youngs Moduli (GPa) = 85.42712 56.71738 45.96698
#
# Poissons Ratio (x) = 0.19441 0.00285
# Poissons Ratio (y) = 0.29283 0.48472
# Poissons Ratio (z) = 0.00529 0.59808
#
# Static dielectric constant tensor:
#      x y z
#    x 4.217750 -0.000010 0.123660 
#    y -0.000010 3.406280 -0.000010 
#    z 0.123660 -0.000010 3.868230 
# 
# 
# High freq. dielectric constant tensor:
#      x y z
#    x 1.835440 0.000000 0.008370 
#    y 0.000000 1.774040 0.000000 
#    z 0.008370 0.000000 1.818890 
# 
# From -- ./inp_files/69669.got.cif
#   From: 2010.03.12/outbox.cif.g09.slc.cpg/sg5_35_cif.got.tgz:69669.got - 2010.03.31 09:47:26.
