data_PCOD8049015
_publ_section_title
;
Structure prediction by ZEFSAII (Michael W. Deem and Ramdas Pophale) SiO2 
 PCOD8049015
Probable space group: C 2
;
_chemical_formula_sum "Si O2"
_cell_formula_units_Z 30
_cell_length_a 14.969858
_cell_length_b 18.249754
_cell_length_c 11.468049
_cell_angle_alpha 90.000000
_cell_angle_beta 152.390892
_cell_angle_gamma 90.000000
_cell_volume 1451.960661
_symmetry_space_group_name_H-M "C 2"
_symmetry_group_IT_number 5
_symmetry_cell_setting 'monoclinic'
loop_
_space_group_symop_operation_xyz
x,y,z
-x,y,-z
1/2+x,1/2+y,z
1/2-x,1/2+y,-z
loop_
_atom_site_type_symbol
_atom_site_label
_atom_site_fract_x
_atom_site_fract_y
_atom_site_fract_z
Si Si1 0.156512 0.561120 0.783378
Si Si2 0.625740 0.851772 0.036754
Si Si3 0.515075 0.477858 0.265887
Si Si4 0.596919 0.959943 0.385837
Si Si5 0.185959 0.333603 0.645474
Si Si6 0.533434 0.312585 0.220901
Si Si7 0.372352 0.227018 0.237908
Si Si8 0.500000 0.446589 0.500000
O O1 0.208232 0.645051 0.870033
O O2 0.000000 0.554611 0.500000
O O3 0.058965 0.523698 0.782066
O O4 0.355288 0.515517 0.996970
O O5 0.690023 0.781211 0.035723
O O6 0.811309 0.896294 0.294283
O O7 0.500000 0.823925 0.000000
O O8 0.487478 0.900250 0.798438
O O9 0.719582 0.503251 0.452262
O O10 0.520277 0.389583 0.272787
O O11 0.487199 0.498698 0.370291
O O12 0.644595 0.919059 0.564810
O O13 0.260679 0.298824 0.607453
O O14 0.000000 0.300392 0.500000
O O15 0.361499 0.319732 0.932181
O O16 0.503315 0.247092 0.277503
O O17 0.500000 0.234427 0.500000
#
# Coordination Sequence:
#
# PCOD8049015 Si02
#       8
#     4   4   4   4   4   4   4   2
#     4  11  24  42  61  89 136 177 210 262 329 400
#     4  12  22  38  68 100 127 168 222 277 331 380
#     4  11  21  38  64  95 123 166 218 278 321 384
#     4  11  22  37  66  96 123 166 221 272 329 381
#     4  10  20  34  61  90 117 156 206 266 322 374
#     4  10  20  37  62  89 123 157 213 273 317 371
#     4  11  23  42  63  93 136 176 214 267 329 397
#     4  12  20  38  68  94 130 158 214 286 330 370
#
# _framework density 20.661716999999999
#
# number of rings (size 3 to 8) (size 9 to 14) (size 15 to 20)
#    0.000    1.067    4.667    2.800    1.867    1.600 
#    4.800    0.000   13.200    0.000    0.000    0.000 
#    0.000    0.000    0.000    0.000    0.000    0.000 
#
# Total GULP energy -185854.710264 kJ/mol
# GULP energy per Si atom -12390.314018 kJ/mol
# Density = 2.061469 g / cm^3
# Si number density = 20.661717 Si / 1000 Ang^3
#
#
#
# Elastic Constant Matrix: (Units=GPa)
#
#
# Indices 1 2 3 4 5 6 
#
# 1 148.7594 41.4524 49.3056 0.0000 20.5377 0.0000
# 2 41.4524 73.8425 38.6730 0.0000 6.6854 0.0000
# 3 49.3056 38.6730 106.6486 0.0000 19.7977 0.0000
# 4 0.0000 0.0000 0.0000 19.2906 0.0000 3.4196
# 5 20.5377 6.6854 19.7977 0.0000 43.4567 0.0000
# 6 0.0000 0.0000 0.0000 3.4196 0.0000 20.2804
#
#
#
# Elastic Compliance Matrix: (Units=1/GPa)
#
#
# Indices 1 2 3 4 5 6 
#
# 1 0.008826 -0.003499 -0.002334 0.000000 -0.002569 0.000000
# 2 -0.003499 0.018106 -0.005176 0.000000 0.001226 0.000000
# 3 -0.002334 -0.005176 0.013087 0.000000 -0.004062 0.000000
# 4 0.000000 0.000000 0.000000 0.053436 0.000000 -0.009010
# 5 -0.002569 0.001226 -0.004062 0.000000 0.025888 0.000000
# 6 0.000000 0.000000 0.000000 -0.009010 0.000000 0.050828
#
#
# Mechanical properties :
#
#
# Convention : Reuss Voigt Hill
#
# Bulk Modulus (GPa) = 55.55478 65.34582 60.45030
# Shear Modulus (GPa) = 25.22844 29.92684 27.57764
#
# Velocity S-wave (km/s) = 3.49811 3.80994 3.65735
# Velocity P-wave (km/s) = 6.57737 7.14488 6.86699
#
# Compressibility (1/GPa) = 0.01800025
#
# Stress axis : x y z
#
# Youngs Moduli (GPa) = 113.30411 55.22964 76.41309
#
# Poissons Ratio (x) = 0.19326 0.17839
# Poissons Ratio (y) = 0.39648 0.39548
# Poissons Ratio (z) = 0.26451 0.28584
#
# Static dielectric constant tensor:
#      x y z
#    x 3.849860 0.000000 0.017730 
#    y 0.000000 3.483040 0.000000 
#    z 0.017730 0.000000 3.917590 
# 
# 
# High freq. dielectric constant tensor:
#      x y z
#    x 1.825430 0.000000 0.005520 
#    y 0.000000 1.755300 0.000000 
#    z 0.005520 0.000000 1.822440 
# 
# From -- ./inp_files/43315.got.cif
#   From: 2010.03.12/outbox.cif.g09.slc.cpg/sg5_22_cif.got.tgz:43315.got - 2010.03.31 09:47:26.
