data_PCOD8049184
_publ_section_title
;
Structure prediction by ZEFSAII (Michael W. Deem and Ramdas Pophale) SiO2 
 PCOD8049184
Probable space group: C 2
;
_chemical_formula_sum "Si O2"
_cell_formula_units_Z 20
_cell_length_a 16.306076
_cell_length_b 9.464365
_cell_length_c 22.160599
_cell_angle_alpha 90.000000
_cell_angle_beta 163.939071
_cell_angle_gamma 90.000000
_cell_volume 946.167214
_symmetry_space_group_name_H-M "C 2"
_symmetry_group_IT_number 5
_symmetry_cell_setting 'monoclinic'
loop_
_space_group_symop_operation_xyz
x,y,z
-x,y,-z
1/2+x,1/2+y,z
1/2-x,1/2+y,-z
loop_
_atom_site_type_symbol
_atom_site_label
_atom_site_fract_x
_atom_site_fract_y
_atom_site_fract_z
Si Si1 0.593505 0.771120 0.375597
Si Si2 0.283969 0.489377 0.963982
Si Si3 0.241820 0.255523 0.127188
Si Si4 0.198043 0.783851 0.199469
Si Si5 0.324068 0.045433 0.976045
O O1 0.473715 0.905703 0.253764
O O2 0.525419 0.786032 0.400807
O O3 0.457112 0.630744 0.248993
O O4 0.944212 0.763740 0.617026
O O5 0.252269 0.653967 0.926365
O O6 0.606698 0.422010 0.173990
O O7 0.243927 0.481529 0.006778
O O8 0.121610 0.409963 0.026542
O O9 0.000000 0.184974 0.000000
O O10 0.000000 0.774703 0.000000
O O11 0.120946 0.643826 0.184646
#
# Coordination Sequence:
#
# PCOD8049184 Si02
#       5
#     4   4   4   4   4
#     4  10  21  39  57  79 113 157 187 213 279 354
#     4  10  20  37  58  84 113 142 182 237 282 326
#     4  12  22  36  58  84 111 148 192 235 270 321
#     4   8  17  37  57  75 107 151 183 214 272 347
#     4  10  20  37  58  84 113 142 182 237 282 326
#
# _framework density 21.137913000000001
#
# number of rings (size 3 to 8) (size 9 to 14) (size 15 to 20)
#    0.000    2.400    0.000    7.200    0.000    0.000 
#    0.000   12.000    0.000    0.000    0.000    0.000 
#    0.000    0.000    0.000    0.000    0.000    0.000 
#
# Total GULP energy -123915.003362 kJ/mol
# GULP energy per Si atom -12391.500336 kJ/mol
# Density = 2.108980 g / cm^3
# Si number density = 21.137913 Si / 1000 Ang^3
#
#
#
# Elastic Constant Matrix: (Units=GPa)
#
#
# Indices 1 2 3 4 5 6 
#
# 1 131.8530 23.7042 38.6802 0.0964 12.9253 0.0420
# 2 23.7042 123.0211 15.6240 0.4246 -2.8063 0.1807
# 3 38.6802 15.6240 82.8576 1.6335 24.6978 -0.0309
# 4 0.0964 0.4246 1.6335 10.7607 -0.6222 -1.7734
# 5 12.9253 -2.8063 24.6978 -0.6222 22.0731 -0.0110
# 6 0.0420 0.1807 -0.0309 -1.7734 -0.0110 40.6763
#
#
#
# Elastic Compliance Matrix: (Units=1/GPa)
#
#
# Indices 1 2 3 4 5 6 
#
# 1 0.008999 -0.001323 -0.003515 0.000421 -0.001493 0.000012
# 2 -0.001323 0.008795 -0.002421 0.000295 0.004610 -0.000025
# 3 -0.003515 -0.002421 0.020653 -0.004277 -0.021479 -0.000162
# 4 0.000421 0.000295 -0.004277 0.094663 0.007247 0.004124
# 5 -0.001493 0.004610 -0.021479 0.007247 0.071002 0.000300
# 6 0.000012 -0.000025 -0.000162 0.004124 0.000300 0.024764
#
#
# Mechanical properties :
#
#
# Convention : Reuss Voigt Hill
#
# Bulk Modulus (GPa) = 41.78857 54.86094 48.32475
# Shear Modulus (GPa) = 19.89101 32.01690 25.95395
#
# Velocity S-wave (km/s) = 3.07092 3.89609 3.50785
# Velocity P-wave (km/s) = 5.69091 6.80070 6.27041
#
# Compressibility (1/GPa) = 0.02392999
#
# Stress axis : x y z
#
# Youngs Moduli (GPa) = 111.12047 113.69768 48.41988
#
# Poissons Ratio (x) = 0.15044 0.17018
# Poissons Ratio (y) = 0.14703 0.11721
# Poissons Ratio (z) = 0.39056 0.27523
#
# Static dielectric constant tensor:
#      x y z
#    x 4.409450 0.000940 0.685820 
#    y 0.000940 3.894990 -0.000690 
#    z 0.685820 -0.000690 3.775080 
# 
# 
# High freq. dielectric constant tensor:
#      x y z
#    x 1.836550 0.000040 0.017850 
#    y 0.000040 1.843100 -0.000090 
#    z 0.017850 -0.000090 1.786270 
# 
# From -- ./inp_files/26386.got.cif
#   From: 2010.03.12/outbox.cif.g09.slc.cpg/sg5_14_cif.got.tgz:26386.got - 2010.03.31 09:47:26.
