data_PCOD8049881
_publ_section_title
;
Structure prediction by ZEFSAII (Michael W. Deem and Ramdas Pophale) SiO2 
 PCOD8049881
Probable space group: C 2
;
_chemical_formula_sum "Si O2"
_cell_formula_units_Z 30
_cell_length_a 8.448123
_cell_length_b 12.102864
_cell_length_c 16.164980
_cell_angle_alpha 90.000000
_cell_angle_beta 63.800311
_cell_angle_gamma 90.000000
_cell_volume 1483.003688
_symmetry_space_group_name_H-M "C 2"
_symmetry_group_IT_number 5
_symmetry_cell_setting 'monoclinic'
loop_
_space_group_symop_operation_xyz
x,y,z
-x,y,-z
1/2+x,1/2+y,z
1/2-x,1/2+y,-z
loop_
_atom_site_type_symbol
_atom_site_label
_atom_site_fract_x
_atom_site_fract_y
_atom_site_fract_z
Si Si1 0.865012 0.887880 0.915709
Si Si2 0.000000 0.357122 0.500000
Si Si3 0.365698 0.483716 0.738724
Si Si4 0.661475 0.683733 0.901596
Si Si5 0.074522 0.319069 0.763390
Si Si6 0.993233 0.185907 0.370922
Si Si7 0.369899 0.467407 0.453334
Si Si8 0.759493 0.939702 0.111820
O O1 0.865403 0.971461 0.837712
O O2 0.807342 0.764697 0.905654
O O3 0.059217 0.881584 0.906427
O O4 0.732991 0.932962 0.017790
O O5 0.920171 0.277883 0.589640
O O6 0.834065 0.425605 0.499168
O O7 0.197445 0.424866 0.740071
O O8 0.358221 0.613131 0.712507
O O9 0.538846 0.428810 0.654566
O O10 0.586447 0.735823 0.836287
O O11 0.752430 0.567590 0.858998
O O12 0.500000 0.659607 0.000000
O O13 0.121985 0.251059 0.670353
O O14 0.880317 0.369698 0.804865
O O15 0.865942 0.102560 0.452658
O O16 0.500000 0.429925 0.500000
#
# Coordination Sequence:
#
# PCOD8049881 Si02
#       8
#     4   2   4   4   4   4   4   4
#     4  10  21  38  60  90 123 170 211 268 316 364
#     4  12  24  44  78  96 128 182 210 262 354 396
#     4   9  22  42  61  92 133 159 210 275 311 383
#     4  11  21  38  59  84 122 167 214 266 320 364
#     4  11  23  40  64  90 126 174 209 261 327 377
#     4  10  23  42  66  98 132 164 210 276 322 389
#     4  10  23  48  66 101 137 162 219 276 319 409
#     4  11  23  37  62  88 127 167 223 263 306 392
#
# _framework density 20.229213000000001
#
# number of rings (size 3 to 8) (size 9 to 14) (size 15 to 20)
#    0.800    0.800    3.333    1.600    1.867    1.067 
#    6.000    4.000    0.000    0.000    0.000    0.000 
#    0.000    0.000    0.000    0.000    0.000    0.000 
#
# Total GULP energy -185833.211641 kJ/mol
# GULP energy per Si atom -12388.880776 kJ/mol
# Density = 2.018317 g / cm^3
# Si number density = 20.229213 Si / 1000 Ang^3
#
#
#
# Elastic Constant Matrix: (Units=GPa)
#
#
# Indices 1 2 3 4 5 6 
#
# 1 100.5880 52.2342 27.7436 0.0000 7.2116 0.0000
# 2 52.2342 110.9604 25.4826 0.0000 8.4952 0.0000
# 3 27.7436 25.4826 60.1212 0.0000 4.7430 0.0000
# 4 0.0000 0.0000 0.0000 45.5464 0.0000 5.8642
# 5 7.2116 8.4952 4.7430 0.0000 25.0548 0.0000
# 6 0.0000 0.0000 0.0000 5.8642 0.0000 14.5018
#
#
#
# Elastic Compliance Matrix: (Units=1/GPa)
#
#
# Indices 1 2 3 4 5 6 
#
# 1 0.014047 -0.005586 -0.004004 0.000000 -0.001391 0.000000
# 2 -0.005586 0.012378 -0.002502 0.000000 -0.002116 0.000000
# 3 -0.004004 -0.002502 0.019677 0.000000 -0.001724 0.000000
# 4 0.000000 0.000000 0.000000 0.023162 0.000000 -0.009366
# 5 -0.001391 -0.002116 -0.001724 0.000000 0.041357 0.000000
# 6 0.000000 0.000000 0.000000 -0.009366 0.000000 0.072744
#
#
# Mechanical properties :
#
#
# Convention : Reuss Voigt Hill
#
# Bulk Modulus (GPa) = 45.62626 53.62117 49.62372
# Shear Modulus (GPa) = 23.27140 28.10122 25.68631
#
# Velocity S-wave (km/s) = 3.39541 3.73116 3.56724
# Velocity P-wave (km/s) = 6.16242 6.71762 6.44600
#
# Compressibility (1/GPa) = 0.02191720
#
# Stress axis : x y z
#
# Youngs Moduli (GPa) = 71.19137 80.78533 50.81959
#
# Poissons Ratio (x) = 0.45129 0.20351
# Poissons Ratio (y) = 0.39769 0.12715
# Poissons Ratio (z) = 0.28509 0.20212
#
# Static dielectric constant tensor:
#      x y z
#    x 3.483370 0.000000 0.239220 
#    y 0.000000 3.643180 0.000000 
#    z 0.239220 0.000000 3.846530 
# 
# 
# High freq. dielectric constant tensor:
#      x y z
#    x 1.774960 0.000000 0.021260 
#    y 0.000000 1.790360 0.000000 
#    z 0.021260 0.000000 1.791860 
# 
# From -- ./inp_files/59579.got.cif
#   From: 2010.03.12/outbox.cif.g09.slc.cpg/sg5_30_cif.got.tgz:59579.got - 2010.03.31 09:47:26.
