data_PCOD8049362
_publ_section_title
;
Structure prediction by ZEFSAII (Michael W. Deem and Ramdas Pophale) SiO2 
 PCOD8049362
Probable space group: C 2
;
_chemical_formula_sum "Si O2"
_cell_formula_units_Z 26
_cell_length_a 9.524540
_cell_length_b 19.854122
_cell_length_c 8.815531
_cell_angle_alpha 90.000000
_cell_angle_beta 133.039307
_cell_angle_gamma 90.000000
_cell_volume 1218.407632
_symmetry_space_group_name_H-M "C 2"
_symmetry_group_IT_number 5
_symmetry_cell_setting 'monoclinic'
loop_
_space_group_symop_operation_xyz
x,y,z
-x,y,-z
1/2+x,1/2+y,z
1/2-x,1/2+y,-z
loop_
_atom_site_type_symbol
_atom_site_label
_atom_site_fract_x
_atom_site_fract_y
_atom_site_fract_z
Si Si1 0.890719 0.659430 0.191560
Si Si2 0.619208 0.952210 0.436303
Si Si3 0.636732 0.021648 0.965497
Si Si4 0.292182 0.682504 0.639090
Si Si5 0.806797 0.307143 0.448032
Si Si6 0.536213 0.553794 0.354889
Si Si7 0.500000 0.244305 0.000000
O O1 0.841611 0.581466 0.139188
O O2 0.747263 0.691491 0.210586
O O3 0.107019 0.660096 0.409302
O O4 0.869209 0.698623 0.015455
O O5 0.500000 0.963498 0.500000
O O6 0.731221 0.881151 0.509212
O O7 0.462281 0.956628 0.184543
O O8 0.771737 0.011776 0.529218
O O9 0.500000 0.047081 0.000000
O O10 0.855446 0.006505 0.175680
O O11 0.347322 0.755304 0.614118
O O12 0.453571 0.624747 0.730350
O O13 0.633581 0.289663 0.206444
O O14 0.000000 0.313242 0.500000
O O15 0.500000 0.575844 0.500000
#
# Coordination Sequence:
#
# PCOD8049362 Si02
#       7
#     4   4   4   4   4   4   2
#     4  10  20  38  65 101 137 168 215 285 333 388
#     4  11  25  46  65  97 139 177 224 278 336 402
#     4  12  23  41  68  99 133 175 224 277 339 394
#     4  10  21  40  66 101 133 173 221 280 332 395
#     4  10  24  44  67  92 137 180 219 273 336 403
#     4  12  24  41  72  98 132 181 227 280 336 401
#     4  10  22  42  66  98 132 178 220 268 340 402
#
# _framework density 21.339327999999998
#
# number of rings (size 3 to 8) (size 9 to 14) (size 15 to 20)
#    0.000    1.231    3.846    1.385    4.308    4.923 
#    5.538    3.077    0.000    0.000    0.000    0.000 
#    0.000    0.000    0.000    0.000    0.000    0.000 
#
# Total GULP energy -161176.517064 kJ/mol
# GULP energy per Si atom -12398.193620 kJ/mol
# Density = 2.129076 g / cm^3
# Si number density = 21.339328 Si / 1000 Ang^3
#
#
#
# Elastic Constant Matrix: (Units=GPa)
#
#
# Indices 1 2 3 4 5 6 
#
# 1 105.3250 45.5597 31.2361 0.0000 -12.6410 0.0000
# 2 45.5597 122.7046 33.9653 0.0000 -15.9016 0.0000
# 3 31.2361 33.9653 87.7502 0.0000 -6.9206 0.0000
# 4 0.0000 0.0000 0.0000 27.6536 0.0000 -7.1257
# 5 -12.6410 -15.9016 -6.9206 0.0000 38.6816 0.0000
# 6 0.0000 0.0000 0.0000 -7.1257 0.0000 6.1246
#
#
#
# Elastic Compliance Matrix: (Units=1/GPa)
#
#
# Indices 1 2 3 4 5 6 
#
# 1 0.012055 -0.003438 -0.002801 0.000000 0.002025 0.000000
# 2 -0.003438 0.010507 -0.002628 0.000000 0.002725 0.000000
# 3 -0.002801 -0.002628 0.013442 0.000000 0.000409 0.000000
# 4 0.000000 0.000000 0.000000 0.051645 0.000000 0.060087
# 5 0.002025 0.002725 0.000409 0.000000 0.027708 0.000000
# 6 0.000000 0.000000 0.000000 0.060087 0.000000 0.233185
#
#
# Mechanical properties :
#
#
# Convention : Reuss Voigt Hill
#
# Bulk Modulus (GPa) = 54.73283 59.70021 57.21652
# Shear Modulus (GPa) = 13.42762 28.15987 20.79375
#
# Velocity S-wave (km/s) = 2.51119 3.63660 3.12498
# Velocity P-wave (km/s) = 5.84060 6.75800 6.31598
#
# Compressibility (1/GPa) = 0.01827057
#
# Stress axis : x y z
#
# Youngs Moduli (GPa) = 82.95030 95.17490 74.39125
#
# Poissons Ratio (x) = 0.32725 0.20835
# Poissons Ratio (y) = 0.28522 0.19550
# Poissons Ratio (z) = 0.23232 0.25012
#
# Static dielectric constant tensor:
#      x y z
#    x 3.999620 0.000000 -0.095070 
#    y 0.000000 3.996130 0.000000 
#    z -0.095070 0.000000 3.977730 
# 
# 
# High freq. dielectric constant tensor:
#      x y z
#    x 1.846390 0.000000 -0.001260 
#    y 0.000000 1.819740 0.000000 
#    z -0.001260 0.000000 1.840850 
# 
# From -- ./inp_files/16736.got.cif
#   From: 2010.03.12/outbox.cif.g09.slc.cpg/sg5_9_cif.got.tgz:16736.got - 2010.03.31 09:47:26.
