data_PCOD8049678
_publ_section_title
;
Structure prediction by ZEFSAII (Michael W. Deem and Ramdas Pophale) SiO2 
 PCOD8049678
Probable space group: C 2
;
_chemical_formula_sum "Si O2"
_cell_formula_units_Z 30
_cell_length_a 8.292482
_cell_length_b 15.341293
_cell_length_c 12.413602
_cell_angle_alpha 90.000000
_cell_angle_beta 112.308677
_cell_angle_gamma 90.000000
_cell_volume 1461.024588
_symmetry_space_group_name_H-M "C 2"
_symmetry_group_IT_number 5
_symmetry_cell_setting 'monoclinic'
loop_
_space_group_symop_operation_xyz
x,y,z
-x,y,-z
1/2+x,1/2+y,z
1/2-x,1/2+y,-z
loop_
_atom_site_type_symbol
_atom_site_label
_atom_site_fract_x
_atom_site_fract_y
_atom_site_fract_z
Si Si1 0.515017 0.621390 0.632643
Si Si2 0.000000 0.139608 0.000000
Si Si3 0.188620 0.752878 0.015876
Si Si4 0.757986 0.108947 0.751774
Si Si5 0.640526 0.440921 0.625304
Si Si6 0.010055 0.459775 0.624953
Si Si7 0.788363 0.292766 0.267635
Si Si8 0.090687 0.791028 0.767351
O O1 0.500000 0.630669 0.500000
O O2 0.335380 0.631683 0.653286
O O3 0.576621 0.523766 0.678242
O O4 0.648694 0.693491 0.707671
O O5 0.848254 0.191017 0.024410
O O6 0.094489 0.086866 0.120423
O O7 0.249923 0.811523 0.132131
O O8 0.151718 0.814834 0.903930
O O9 0.000000 0.706646 0.000000
O O10 0.643734 0.192129 0.755922
O O11 0.639050 0.023587 0.720677
O O12 0.500000 0.413362 0.500000
O O13 0.817327 0.472172 0.617596
O O14 0.681973 0.358603 0.710806
O O15 0.000000 0.488539 0.500000
O O16 0.069443 0.359723 0.652094
O O17 0.616665 0.302663 0.297194
#
# Coordination Sequence:
#
# PCOD8049678 Si02
#       8
#     4   2   4   4   4   4   4   4
#     4  11  22  39  63  93 126 165 210 261 322 379
#     4  10  20  42  70  94 136 166 222 272 328 388
#     4   9  20  38  65  97 129 168 219 272 322 392
#     4  11  23  42  67  96 130 173 213 268 324 386
#     4  11  24  42  63  94 130 167 213 269 324 390
#     4  12  25  42  63  93 131 168 220 266 321 389
#     4  11  21  41  64  94 125 171 212 265 323 381
#     4  10  22  40  64  92 128 167 212 263 325 382
#
# _framework density 20.533535000000001
#
# number of rings (size 3 to 8) (size 9 to 14) (size 15 to 20)
#    0.000    1.333    1.333    5.200    1.867    1.600 
#    6.000    0.000    0.000    0.000    0.000    0.000 
#    0.000    0.000    0.000    0.000    0.000    0.000 
#
# Total GULP energy -185937.221733 kJ/mol
# GULP energy per Si atom -12395.814782 kJ/mol
# Density = 2.048680 g / cm^3
# Si number density = 20.533535 Si / 1000 Ang^3
#
#
#
# Elastic Constant Matrix: (Units=GPa)
#
#
# Indices 1 2 3 4 5 6 
#
# 1 123.3201 9.3644 46.9129 0.0000 -2.7144 0.0000
# 2 9.3644 89.3679 41.6275 0.0000 6.0650 0.0000
# 3 46.9129 41.6275 118.4867 0.0000 0.0914 0.0000
# 4 0.0000 0.0000 0.0000 32.4958 0.0000 22.7927
# 5 -2.7144 6.0650 0.0914 0.0000 35.7712 0.0000
# 6 0.0000 0.0000 0.0000 22.7927 0.0000 91.7202
#
#
#
# Elastic Compliance Matrix: (Units=1/GPa)
#
#
# Indices 1 2 3 4 5 6 
#
# 1 0.009622 0.000868 -0.004115 0.000000 0.000593 0.000000
# 2 0.000868 0.013642 -0.005135 0.000000 -0.002234 0.000000
# 3 -0.004115 -0.005135 0.011873 0.000000 0.000528 0.000000
# 4 0.000000 0.000000 0.000000 0.037269 0.000000 -0.009262
# 5 0.000593 -0.002234 0.000528 0.000000 0.028378 0.000000
# 6 0.000000 0.000000 0.000000 -0.009262 0.000000 0.013204
#
#
# Mechanical properties :
#
#
# Convention : Reuss Voigt Hill
#
# Bulk Modulus (GPa) = 54.42735 58.55380 56.49057
# Shear Modulus (GPa) = 36.52957 47.54876 42.03917
#
# Velocity S-wave (km/s) = 4.22242 4.81735 4.52966
# Velocity P-wave (km/s) = 7.09478 7.71496 7.41136
#
# Compressibility (1/GPa) = 0.01837312
#
# Stress axis : x y z
#
# Youngs Moduli (GPa) = 103.93370 73.30207 84.22706
#
# Poissons Ratio (x) = -0.06365 0.34659
# Poissons Ratio (y) = -0.09025 0.43250
# Poissons Ratio (z) = 0.42769 0.37640
#
# Static dielectric constant tensor:
#      x y z
#    x 3.948690 0.000000 -0.040710 
#    y 0.000000 3.456210 0.000000 
#    z -0.040710 0.000000 3.857850 
# 
# 
# High freq. dielectric constant tensor:
#      x y z
#    x 1.825150 0.000000 -0.005330 
#    y 0.000000 1.778310 0.000000 
#    z -0.005330 0.000000 1.814050 
# 
# From -- ./inp_files/36463.got.cif
#   From: 2010.03.12/outbox.cif.g09.slc.cpg/sg5_19_cif.got.tgz:36463.got - 2010.03.31 09:47:26.
