data_PCOD8049291
_publ_section_title
;
Structure prediction by ZEFSAII (Michael W. Deem and Ramdas Pophale) SiO2 
 PCOD8049291
Probable space group: C 2
;
_chemical_formula_sum "Si O2"
_cell_formula_units_Z 28
_cell_length_a 28.696992
_cell_length_b 8.644469
_cell_length_c 9.321198
_cell_angle_alpha 90.000000
_cell_angle_beta 141.264826
_cell_angle_gamma 90.000000
_cell_volume 1446.863665
_symmetry_space_group_name_H-M "C 2"
_symmetry_group_IT_number 5
_symmetry_cell_setting 'monoclinic'
loop_
_space_group_symop_operation_xyz
x,y,z
-x,y,-z
1/2+x,1/2+y,z
1/2-x,1/2+y,-z
loop_
_atom_site_type_symbol
_atom_site_label
_atom_site_fract_x
_atom_site_fract_y
_atom_site_fract_z
Si Si1 0.724056 0.607610 0.613332
Si Si2 0.350250 0.845253 0.383596
Si Si3 0.166263 0.830626 0.286043
Si Si4 0.289262 0.412732 0.145342
Si Si5 0.379310 0.180675 0.532336
Si Si6 0.434492 0.598759 0.455149
Si Si7 0.992282 0.899318 0.147043
O O1 0.656379 0.716236 0.505990
O O2 0.784162 0.730381 0.702138
O O3 0.703102 0.489537 0.434607
O O4 0.748227 0.509761 0.812973
O O5 0.408642 0.777542 0.406945
O O6 0.384782 0.997855 0.533376
O O7 0.270453 0.879136 0.120415
O O8 0.143030 0.720970 0.360003
O O9 0.093973 0.876830 0.018821
O O10 0.317906 0.248692 0.275716
O O11 0.359527 0.500556 0.241409
O O12 0.461114 0.247435 0.694494
O O13 0.500000 0.576147 0.500000
O O14 0.470977 0.546906 0.691488
O O15 0.000000 0.935580 0.000000
#
# Coordination Sequence:
#
# PCOD8049291 Si02
#       7
#     4   4   4   4   4   4   4
#     4  10  21  36  59  87 114 151 195 246 288 354
#     4  11  20  37  59  84 123 154 191 243 295 343
#     4  10  20  38  57  87 113 147 200 243 291 351
#     4   9  20  38  60  81 117 161 197 233 302 348
#     4   9  18  35  58  83 112 153 190 239 289 353
#     4  10  22  39  58  89 118 157 203 241 290 357
#     4   9  19  39  60  78 116 157 191 236 302 357
#
# _framework density 19.352201999999998
#
# number of rings (size 3 to 8) (size 9 to 14) (size 15 to 20)
#    0.000    2.286    0.000    5.143    2.000    0.000 
#    7.714    7.143    0.000    0.000    0.000    0.000 
#    0.000    0.000    0.000    0.000    0.000    0.000 
#
# Total GULP energy -173495.128745 kJ/mol
# GULP energy per Si atom -12392.509196 kJ/mol
# Density = 1.930816 g / cm^3
# Si number density = 19.352202 Si / 1000 Ang^3
#
#
#
# Elastic Constant Matrix: (Units=GPa)
#
#
# Indices 1 2 3 4 5 6 
#
# 1 88.5028 40.0134 35.6620 0.0000 19.3157 0.0000
# 2 40.0134 124.2270 37.6007 0.0000 3.8455 0.0000
# 3 35.6620 37.6007 99.1718 0.0000 15.3806 0.0000
# 4 0.0000 0.0000 0.0000 15.2821 0.0000 -2.8676
# 5 19.3157 3.8455 15.3806 0.0000 19.6078 0.0000
# 6 0.0000 0.0000 0.0000 -2.8676 0.0000 28.9167
#
#
#
# Elastic Compliance Matrix: (Units=1/GPa)
#
#
# Indices 1 2 3 4 5 6 
#
# 1 0.017404 -0.004453 -0.002330 0.000000 -0.014443 0.000000
# 2 -0.004453 0.010252 -0.003022 0.000000 0.004747 0.000000
# 3 -0.002330 -0.003022 0.013228 0.000000 -0.007489 0.000000
# 4 0.000000 0.000000 0.000000 0.066677 0.000000 0.006612
# 5 -0.014443 0.004747 -0.007489 0.000000 0.070172 0.000000
# 6 0.000000 0.000000 0.000000 0.006612 0.000000 0.035238
#
#
# Mechanical properties :
#
#
# Convention : Reuss Voigt Hill
#
# Bulk Modulus (GPa) = 47.00541 59.82819 53.41680
# Shear Modulus (GPa) = 20.86186 26.00300 23.43243
#
# Velocity S-wave (km/s) = 3.28687 3.66959 3.48349
# Velocity P-wave (km/s) = 6.22470 6.99550 6.62133
#
# Compressibility (1/GPa) = 0.02127415
#
# Stress axis : x y z
#
# Youngs Moduli (GPa) = 57.45941 97.54305 75.59483
#
# Poissons Ratio (x) = 0.43440 0.17612
# Poissons Ratio (y) = 0.25589 0.22843
# Poissons Ratio (z) = 0.13387 0.29475
#
# Static dielectric constant tensor:
#      x y z
#    x 3.679740 0.000000 0.135240 
#    y 0.000000 3.632350 0.000000 
#    z 0.135240 0.000000 3.570730 
# 
# 
# High freq. dielectric constant tensor:
#      x y z
#    x 1.744670 0.000000 0.003170 
#    y 0.000000 1.757070 0.000000 
#    z 0.003170 0.000000 1.745320 
# 
# From -- ./inp_files/31775.got.cif
#   From: 2010.03.12/outbox.cif.g09.slc.cpg/sg5_16_cif.got.tgz:31775.got - 2010.03.31 09:47:26.
