data_PCOD8049315
_publ_section_title
;
Structure prediction by ZEFSAII (Michael W. Deem and Ramdas Pophale) SiO2 
 PCOD8049315
Probable space group: C 2
;
_chemical_formula_sum "Si O2"
_cell_formula_units_Z 28
_cell_length_a 8.564133
_cell_length_b 11.079006
_cell_length_c 15.569381
_cell_angle_alpha 90.000000
_cell_angle_beta 119.686509
_cell_angle_gamma 90.000000
_cell_volume 1283.362784
_symmetry_space_group_name_H-M "C 2"
_symmetry_group_IT_number 5
_symmetry_cell_setting 'monoclinic'
loop_
_space_group_symop_operation_xyz
x,y,z
-x,y,-z
1/2+x,1/2+y,z
1/2-x,1/2+y,-z
loop_
_atom_site_type_symbol
_atom_site_label
_atom_site_fract_x
_atom_site_fract_y
_atom_site_fract_z
Si Si1 0.112165 0.143680 0.224227
Si Si2 0.100548 0.549867 0.294726
Si Si3 0.438420 0.446867 0.290481
Si Si4 0.760716 0.439592 0.160991
Si Si5 0.492527 0.223406 0.397051
Si Si6 0.369333 0.804727 0.043000
Si Si7 0.535133 0.269562 0.850729
O O1 0.288595 0.212251 0.305749
O O2 0.960611 0.233522 0.147570
O O3 0.152848 0.062084 0.151463
O O4 0.047839 0.062158 0.286934
O O5 0.280986 0.493185 0.308893
O O6 0.950488 0.444597 0.265231
O O7 0.122793 0.620473 0.391655
O O8 0.017917 0.643701 0.204705
O O9 0.558352 0.356691 0.383447
O O10 0.375674 0.365750 0.191973
O O11 0.802696 0.429172 0.070284
O O12 0.646175 0.323871 0.158708
O O13 0.500000 0.210442 0.500000
O O14 0.500000 0.834041 0.000000
O O15 0.189334 0.738308 0.961673
#
# Coordination Sequence:
#
# PCOD8049315 Si02
#       7
#     4   4   4   4   4   4   4
#     4  10  23  41  59  84 119 155 193 244 295 344
#     4  10  20  38  61  85 116 153 189 232 291 348
#     4  10  21  39  63  88 117 153 194 240 291 344
#     4  10  21  37  55  79 117 155 191 235 283 334
#     4  10  22  41  62  86 115 146 190 246 300 357
#     4  12  22  36  57  84 119 158 201 240 279 336
#     4  10  22  36  54  86 120 154 195 235 276 337
#
# _framework density 21.817682000000001
#
# number of rings (size 3 to 8) (size 9 to 14) (size 15 to 20)
#    0.000    1.714    0.000    5.571    0.000    6.857 
#    0.000    5.714    0.000    0.000    0.000    0.000 
#    0.000    0.000    0.000    0.000    0.000    0.000 
#
# Total GULP energy -173476.711981 kJ/mol
# GULP energy per Si atom -12391.193713 kJ/mol
# Density = 2.176802 g / cm^3
# Si number density = 21.817682 Si / 1000 Ang^3
#
#
#
# Elastic Constant Matrix: (Units=GPa)
#
#
# Indices 1 2 3 4 5 6 
#
# 1 133.1147 46.5777 34.0292 0.0000 -24.0261 0.0000
# 2 46.5777 64.3590 37.9079 0.0000 -14.5465 0.0000
# 3 34.0292 37.9079 90.5329 0.0000 -27.8052 0.0000
# 4 0.0000 0.0000 0.0000 20.9643 0.0000 -8.7746
# 5 -24.0261 -14.5465 -27.8052 0.0000 29.6477 0.0000
# 6 0.0000 0.0000 0.0000 -8.7746 0.0000 35.6856
#
#
#
# Elastic Compliance Matrix: (Units=1/GPa)
#
#
# Indices 1 2 3 4 5 6 
#
# 1 0.010835 -0.006863 0.000651 0.000000 0.006024 0.000000
# 2 -0.006863 0.025143 -0.008242 0.000000 -0.000955 0.000000
# 3 0.000651 -0.008242 0.018501 0.000000 0.013835 0.000000
# 4 0.000000 0.000000 0.000000 0.053172 0.000000 0.013074
# 5 0.006024 -0.000955 0.013835 0.000000 0.051118 0.000000
# 6 0.000000 0.000000 0.000000 0.013074 0.000000 0.031237
#
#
# Mechanical properties :
#
#
# Convention : Reuss Voigt Hill
#
# Bulk Modulus (GPa) = 39.10517 58.33737 48.72127
# Shear Modulus (GPa) = 21.98403 28.55896 25.27150
#
# Velocity S-wave (km/s) = 3.17775 3.62191 3.40708
# Velocity P-wave (km/s) = 5.60595 6.65489 6.15282
#
# Compressibility (1/GPa) = 0.02557206
#
# Stress axis : x y z
#
# Youngs Moduli (GPa) = 92.29748 39.77179 54.05105
#
# Poissons Ratio (x) = 0.27297 -0.03521
# Poissons Ratio (y) = 0.63347 0.44546
# Poissons Ratio (z) = -0.06012 0.32778
#
# Static dielectric constant tensor:
#      x y z
#    x 4.283380 0.000000 -0.220450 
#    y 0.000000 4.077140 0.000000 
#    z -0.220450 0.000000 3.648720 
# 
# 
# High freq. dielectric constant tensor:
#      x y z
#    x 1.872840 0.000000 -0.018660 
#    y 0.000000 1.862990 0.000000 
#    z -0.018660 0.000000 1.821370 
# 
# From -- ./inp_files/50274.got.cif
#   From: 2010.03.12/outbox.cif.g09.slc.cpg/sg5_26_cif.got.tgz:50274.got - 2010.03.31 09:47:26.
