data_PCOD8049423
_publ_section_title
;
Structure prediction by ZEFSAII (Michael W. Deem and Ramdas Pophale) SiO2 
 PCOD8049423
Probable space group: C 2
;
_chemical_formula_sum "Si O2"
_cell_formula_units_Z 28
_cell_length_a 7.996574
_cell_length_b 11.553741
_cell_length_c 14.322937
_cell_angle_alpha 90.000000
_cell_angle_beta 67.753754
_cell_angle_gamma 90.000000
_cell_volume 1224.801584
_symmetry_space_group_name_H-M "C 2"
_symmetry_group_IT_number 5
_symmetry_cell_setting 'monoclinic'
loop_
_space_group_symop_operation_xyz
x,y,z
-x,y,-z
1/2+x,1/2+y,z
1/2-x,1/2+y,-z
loop_
_atom_site_type_symbol
_atom_site_label
_atom_site_fract_x
_atom_site_fract_y
_atom_site_fract_z
Si Si1 0.291888 0.950120 0.802818
Si Si2 0.145083 0.028077 0.645323
Si Si3 0.500000 0.461692 0.000000
Si Si4 0.960015 0.253501 0.256183
Si Si5 0.290196 0.653611 0.935586
Si Si6 0.044890 0.791746 0.324143
Si Si7 0.515112 0.161291 0.144502
Si Si8 0.500000 0.122843 0.500000
O O1 0.415764 0.854357 0.726797
O O2 0.194231 0.022356 0.743870
O O3 0.414201 0.039202 0.833141
O O4 0.138934 0.889563 0.903832
O O5 0.029514 0.147533 0.671339
O O6 0.324209 0.041080 0.544677
O O7 0.032995 0.918221 0.634067
O O8 0.625585 0.536688 0.041748
O O9 0.759214 0.299727 0.284531
O O10 0.040474 0.230344 0.135000
O O11 0.169714 0.628860 0.869055
O O12 0.165994 0.714582 0.041436
O O13 0.970398 0.701227 0.415114
O O14 0.979483 0.753310 0.234919
#
# Coordination Sequence:
#
# PCOD8049423 Si02
#       8
#     4   4   2   4   4   4   4   2
#     4  11  22  40  70  97 142 187 228 280 336 398
#     4  11  24  47  71  98 137 174 226 288 346 415
#     4  10  20  40  64  96 148 192 224 284 322 400
#     4  11  23  40  66 104 139 183 224 276 335 408
#     4  10  20  39  64 102 144 184 238 268 332 400
#     4  11  24  47  73  98 140 178 226 288 349 401
#     4  10  21  41  67 102 138 189 235 277 331 412
#     4  10  24  48  70 104 132 172 230 290 356 408
#
# _framework density 22.860845000000001
#
# number of rings (size 3 to 8) (size 9 to 14) (size 15 to 20)
#    0.000    1.429    4.286    1.714    2.000    4.571 
#    0.000    2.857    0.000    0.000    0.000    0.000 
#    0.000    0.000    0.000    0.000    0.000    0.000 
#
# Total GULP energy -173572.644604 kJ/mol
# GULP energy per Si atom -12398.046043 kJ/mol
# Density = 2.280881 g / cm^3
# Si number density = 22.860845 Si / 1000 Ang^3
#
#
#
# Elastic Constant Matrix: (Units=GPa)
#
#
# Indices 1 2 3 4 5 6 
#
# 1 93.4119 32.8136 37.0787 0.0000 -20.2718 0.0000
# 2 32.8136 89.4761 34.5018 0.0000 -30.6536 0.0000
# 3 37.0787 34.5018 121.3857 0.0000 -33.3159 0.0000
# 4 0.0000 0.0000 0.0000 38.0034 0.0000 -16.5147
# 5 -20.2718 -30.6536 -33.3159 0.0000 44.4148 0.0000
# 6 0.0000 0.0000 0.0000 -16.5147 0.0000 30.0505
#
#
#
# Elastic Compliance Matrix: (Units=1/GPa)
#
#
# Indices 1 2 3 4 5 6 
#
# 1 0.013285 -0.003217 -0.002630 0.000000 0.001870 0.000000
# 2 -0.003217 0.015716 -0.001146 0.000000 0.008519 0.000000
# 3 -0.002630 -0.001146 0.011108 0.000000 0.006340 0.000000
# 4 0.000000 0.000000 0.000000 0.034569 0.000000 0.018998
# 5 0.001870 0.008519 0.006340 0.000000 0.034004 0.000000
# 6 0.000000 0.000000 0.000000 0.018998 0.000000 0.043718
#
#
# Mechanical properties :
#
#
# Convention : Reuss Voigt Hill
#
# Bulk Modulus (GPa) = 38.28242 57.00688 47.64465
# Shear Modulus (GPa) = 28.55584 35.81904 32.18744
#
# Velocity S-wave (km/s) = 3.53812 3.96261 3.75637
# Velocity P-wave (km/s) = 5.78561 6.77695 6.30080
#
# Compressibility (1/GPa) = 0.02612165
#
# Stress axis : x y z
#
# Youngs Moduli (GPa) = 75.27067 63.62762 90.02779
#
# Poissons Ratio (x) = 0.20470 0.23681
# Poissons Ratio (y) = 0.24216 0.10320
# Poissons Ratio (z) = 0.19800 0.07294
#
# Static dielectric constant tensor:
#      x y z
#    x 4.117330 0.000000 -0.298260 
#    y 0.000000 3.988770 0.000000 
#    z -0.298260 0.000000 4.368970 
# 
# 
# High freq. dielectric constant tensor:
#      x y z
#    x 1.900950 0.000000 -0.021480 
#    y 0.000000 1.899030 0.000000 
#    z -0.021480 0.000000 1.903890 
# 
# From -- ./inp_files/50457.got.cif
#   From: 2010.03.12/outbox.cif.g09.slc.cpg/sg5_26_cif.got.tgz:50457.got - 2010.03.31 09:47:26.
