data_PCOD8049314
_publ_section_title
;
Structure prediction by ZEFSAII (Michael W. Deem and Ramdas Pophale) SiO2 
 PCOD8049314
Probable space group: C 2
;
_chemical_formula_sum "Si O2"
_cell_formula_units_Z 24
_cell_length_a 8.783943
_cell_length_b 27.377166
_cell_length_c 8.519062
_cell_angle_alpha 90.000000
_cell_angle_beta 146.095034
_cell_angle_gamma 90.000000
_cell_volume 1142.777179
_symmetry_space_group_name_H-M "C 2"
_symmetry_group_IT_number 5
_symmetry_cell_setting 'monoclinic'
loop_
_space_group_symop_operation_xyz
x,y,z
-x,y,-z
1/2+x,1/2+y,z
1/2-x,1/2+y,-z
loop_
_atom_site_type_symbol
_atom_site_label
_atom_site_fract_x
_atom_site_fract_y
_atom_site_fract_z
Si Si1 0.710429 0.509910 0.816915
Si Si2 0.106893 0.855641 0.413816
Si Si3 0.798310 0.760883 0.689658
Si Si4 0.109114 0.410521 0.919583
Si Si5 0.592443 0.603029 0.905791
Si Si6 0.406762 0.165552 0.594432
O O1 0.500000 0.491816 0.500000
O O2 0.777356 0.465903 0.996531
O O3 0.567469 0.554248 0.783012
O O4 0.000000 0.528521 0.000000
O O5 0.214776 0.803266 0.451402
O O6 0.000000 0.851796 0.500000
O O7 0.855712 0.873586 0.091592
O O8 0.349739 0.895524 0.591692
O O9 0.500000 0.750068 0.500000
O O10 0.919576 0.712737 0.713531
O O11 0.000000 0.777059 0.000000
O O12 0.000000 0.402716 0.000000
O O13 0.397619 0.644245 0.666207
O O14 0.500000 0.588431 0.000000
O O15 0.897113 0.624158 0.166028
O O16 0.500000 0.180667 0.500000
#
# Coordination Sequence:
#
# PCOD8049314 Si02
#       6
#     4   4   4   4   4   4
#     4  11  21  35  59  89 118 149 191 238 284 332
#     4  10  20  38  61  80 109 153 194 228 274 338
#     4  12  25  39  58  88 120 145 184 242 297 339
#     4   9  18  34  58  85 109 145 195 235 267 327
#     4  10  22  39  59  85 117 152 192 235 281 339
#     4  10  22  41  61  81 112 156 198 230 274 345
#
# _framework density 21.001470000000001
#
# number of rings (size 3 to 8) (size 9 to 14) (size 15 to 20)
#    0.000    1.667    0.000    6.000    0.000    4.000 
#    0.000    9.167    0.000    0.000    0.000    0.000 
#    0.000    0.000    0.000    0.000    0.000    0.000 
#
# Total GULP energy -148786.556970 kJ/mol
# GULP energy per Si atom -12398.879747 kJ/mol
# Density = 2.095367 g / cm^3
# Si number density = 21.001470 Si / 1000 Ang^3
#
#
#
# Elastic Constant Matrix: (Units=GPa)
#
#
# Indices 1 2 3 4 5 6 
#
# 1 52.7796 47.5097 25.8069 0.0000 10.1538 0.0000
# 2 47.5097 115.2744 16.0842 0.0000 -3.2426 0.0000
# 3 25.8069 16.0842 107.1260 0.0000 11.0624 0.0000
# 4 0.0000 0.0000 0.0000 155.6419 0.0000 -113.6899
# 5 10.1538 -3.2426 11.0624 0.0000 23.9409 0.0000
# 6 0.0000 0.0000 0.0000 -113.6899 0.0000 114.4410
#
#
#
# Elastic Compliance Matrix: (Units=1/GPa)
#
#
# Indices 1 2 3 4 5 6 
#
# 1 0.038771 -0.015690 -0.005321 0.000000 -0.016110 0.000000
# 2 -0.015690 0.015294 0.000612 0.000000 0.008443 0.000000
# 3 -0.005321 0.000612 0.010798 0.000000 -0.002650 0.000000
# 4 0.000000 0.000000 0.000000 0.023420 0.000000 0.023266
# 5 -0.016110 0.008443 -0.002650 0.000000 0.050970 0.000000
# 6 0.000000 0.000000 0.000000 0.023266 0.000000 0.031852
#
#
# Mechanical properties :
#
#
# Convention : Reuss Voigt Hill
#
# Bulk Modulus (GPa) = 41.55424 50.44241 45.99832
# Shear Modulus (GPa) = 22.73500 71.19003 46.96252
#
# Velocity S-wave (km/s) = 3.29377 5.82848 4.73393
# Velocity P-wave (km/s) = 5.85615 8.32860 7.19931
#
# Compressibility (1/GPa) = 0.02406494
#
# Stress axis : x y z
#
# Youngs Moduli (GPa) = 25.79249 65.38653 92.60624
#
# Poissons Ratio (x) = 1.02592 0.49273
# Poissons Ratio (y) = 0.40468 -0.05664
# Poissons Ratio (z) = 0.13723 -0.03999
#
# Static dielectric constant tensor:
#      x y z
#    x 3.620790 0.000000 0.143720 
#    y 0.000000 3.687790 0.000000 
#    z 0.143720 0.000000 -2.610140 
# 
# 
# High freq. dielectric constant tensor:
#      x y z
#    x 1.801950 0.000000 0.021250 
#    y 0.000000 1.825910 0.000000 
#    z 0.021250 0.000000 1.836420 
# 
# From -- ./inp_files/17660.got.cif
#   From: 2010.03.12/outbox.cif.g09.slc.cpg/sg5_9_cif.got.tgz:17660.got - 2010.03.31 09:47:26.
