data_PCOD8049809
_publ_section_title
;
Structure prediction by ZEFSAII (Michael W. Deem and Ramdas Pophale) SiO2 
 PCOD8049809
Probable space group: C 2
;
_chemical_formula_sum "Si O2"
_cell_formula_units_Z 30
_cell_length_a 16.223896
_cell_length_b 8.921215
_cell_length_c 25.524121
_cell_angle_alpha 90.000000
_cell_angle_beta 23.946944
_cell_angle_gamma 90.000000
_cell_volume 1499.473748
_symmetry_space_group_name_H-M "C 2"
_symmetry_group_IT_number 5
_symmetry_cell_setting 'monoclinic'
loop_
_space_group_symop_operation_xyz
x,y,z
-x,y,-z
1/2+x,1/2+y,z
1/2-x,1/2+y,-z
loop_
_atom_site_type_symbol
_atom_site_label
_atom_site_fract_x
_atom_site_fract_y
_atom_site_fract_z
Si Si1 0.074671 0.042570 0.211254
Si Si2 0.204277 0.556380 0.358561
Si Si3 0.000000 0.035878 0.000000
Si Si4 0.129691 0.780207 0.992773
Si Si5 0.189119 0.213425 0.354928
Si Si6 0.130709 0.768556 0.110714
Si Si7 0.221751 0.552089 0.799539
Si Si8 0.922328 0.220288 0.138233
O O1 0.160228 0.195086 0.136987
O O2 0.111046 0.028594 0.252237
O O3 0.839613 0.042604 0.332370
O O4 0.178607 0.901265 0.123004
O O5 0.168666 0.390912 0.355403
O O6 0.291749 0.661729 0.262572
O O7 0.000000 0.629014 0.500000
O O8 0.861114 0.138107 0.119276
O O9 0.854109 0.929417 0.050982
O O10 0.098158 0.831696 0.070940
O O11 0.946461 0.669216 0.081699
O O12 0.416754 0.181344 0.247828
O O13 0.162015 0.120728 0.317460
O O14 0.000000 0.158638 0.500000
O O15 0.339287 0.674053 0.991392
O O16 0.113314 0.397281 0.846507
#
# Coordination Sequence:
#
# PCOD8049809 Si02
#       8
#     4   4   2   4   4   4   4   4
#     4  11  19  38  61  89 119 160 204 252 304 361
#     4  10  23  44  64  85 126 169 208 251 311 376
#     4  12  24  34  56  92 130 152 200 254 326 356
#     4  11  21  35  59  90 122 161 199 248 303 375
#     4   9  21  41  65  87 122 169 212 249 297 383
#     4  10  21  36  62  92 122 158 206 249 312 365
#     4  11  22  37  62  91 125 158 204 261 311 358
#     4  12  23  38  60  93 127 159 199 268 316 367
#
# _framework density 20.007020000000001
#
# number of rings (size 3 to 8) (size 9 to 14) (size 15 to 20)
#    0.000    1.333    4.000    3.200    0.000    0.533 
#    0.000    5.333    0.000    0.000    0.000    0.000 
#    0.000    0.000    0.000    0.000    0.000    0.000 
#
# Total GULP energy -185906.028714 kJ/mol
# GULP energy per Si atom -12393.735248 kJ/mol
# Density = 1.996148 g / cm^3
# Si number density = 20.007020 Si / 1000 Ang^3
#
#
#
# Elastic Constant Matrix: (Units=GPa)
#
#
# Indices 1 2 3 4 5 6 
#
# 1 131.8183 52.6164 56.2560 0.0039 12.0741 0.0000
# 2 52.6164 82.7517 45.5562 0.0101 10.1878 -0.0036
# 3 56.2560 45.5562 152.6821 0.0375 5.9750 -0.0259
# 4 0.0039 0.0101 0.0375 25.4862 -0.0442 8.4795
# 5 12.0741 10.1878 5.9750 -0.0442 22.0664 0.0255
# 6 0.0000 -0.0036 -0.0259 8.4795 0.0255 36.9918
#
#
#
# Elastic Compliance Matrix: (Units=1/GPa)
#
#
# Indices 1 2 3 4 5 6 
#
# 1 0.010981 -0.005336 -0.002340 -0.000001 -0.002912 0.000000
# 2 -0.005336 0.017762 -0.003161 -0.000011 -0.004425 0.000005
# 3 -0.002340 -0.003161 0.008336 -0.000013 0.000482 0.000008
# 4 -0.000001 -0.000011 -0.000013 0.042477 0.000105 -0.009737
# 5 -0.002912 -0.004425 0.000482 0.000105 0.048824 -0.000058
# 6 0.000000 0.000005 0.000008 -0.009737 -0.000058 0.029265
#
#
# Mechanical properties :
#
#
# Convention : Reuss Voigt Hill
#
# Bulk Modulus (GPa) = 64.90814 75.12325 70.01570
# Shear Modulus (GPa) = 27.10733 31.09713 29.10223
#
# Velocity S-wave (km/s) = 3.68488 3.94675 3.81806
# Velocity P-wave (km/s) = 7.11460 7.64193 7.38297
#
# Compressibility (1/GPa) = 0.01540639
#
# Stress axis : x y z
#
# Youngs Moduli (GPa) = 91.06363 56.30135 119.96265
#
# Poissons Ratio (x) = 0.30040 0.28073
# Poissons Ratio (y) = 0.48587 0.37914
# Poissons Ratio (z) = 0.21310 0.17794
#
# Static dielectric constant tensor:
#      x y z
#    x 3.700510 0.000010 0.014420 
#    y 0.000010 3.580570 0.000000 
#    z 0.014420 0.000000 3.606650 
# 
# 
# High freq. dielectric constant tensor:
#      x y z
#    x 1.784600 0.000000 0.007310 
#    y 0.000000 1.778130 0.000000 
#    z 0.007310 0.000000 1.761450 
# 
# From -- ./inp_files/68699.got.cif
#   From: 2010.03.12/outbox.cif.g09.slc.cpg/sg5_35_cif.got.tgz:68699.got - 2010.03.31 09:47:26.
