data_PCOD8049855
_publ_section_title
;
Structure prediction by ZEFSAII (Michael W. Deem and Ramdas Pophale) SiO2 
 PCOD8049855
Probable space group: C 2
;
_chemical_formula_sum "Si O2"
_cell_formula_units_Z 32
_cell_length_a 13.274617
_cell_length_b 8.432586
_cell_length_c 21.115332
_cell_angle_alpha 90.000000
_cell_angle_beta 38.234811
_cell_angle_gamma 90.000000
_cell_volume 1462.820945
_symmetry_space_group_name_H-M "C 2"
_symmetry_group_IT_number 5
_symmetry_cell_setting 'monoclinic'
loop_
_space_group_symop_operation_xyz
x,y,z
-x,y,-z
1/2+x,1/2+y,z
1/2-x,1/2+y,-z
loop_
_atom_site_type_symbol
_atom_site_label
_atom_site_fract_x
_atom_site_fract_y
_atom_site_fract_z
Si Si1 0.861364 0.906920 0.268769
Si Si2 0.820038 0.027943 0.421085
Si Si3 0.307365 0.097124 0.233590
Si Si4 0.924575 0.408926 0.968603
Si Si5 0.873513 0.146176 0.896677
Si Si6 0.435278 0.778611 0.734568
Si Si7 0.459410 0.378086 0.590698
Si Si8 0.550658 0.042356 0.364757
O O1 0.890513 0.918946 0.329458
O O2 0.902267 0.728351 0.227852
O O3 0.672281 0.944937 0.349477
O O4 0.974932 0.026027 0.172755
O O5 0.881486 0.955676 0.456526
O O6 0.626948 0.034268 0.516381
O O7 0.892555 0.203499 0.373063
O O8 0.212493 0.180231 0.222999
O O9 0.431740 0.970150 0.146153
O O10 0.184051 0.005905 0.340759
O O11 0.855840 0.246628 0.970411
O O12 0.786507 0.543719 0.040035
O O13 0.000000 0.369348 0.000000
O O14 0.908276 0.272010 0.823082
O O15 0.439263 0.962198 0.709953
O O16 0.500000 0.322425 0.500000
O O17 0.399644 0.226940 0.661668
#
# Coordination Sequence:
#
# PCOD8049855 Si02
#       8
#     4   4   4   4   4   4   4   4
#     4  10  22  41  66  94 134 170 224 277 343 415
#     4  10  21  37  62  90 131 176 224 277 330 406
#     4  10  22  43  66  93 132 181 217 286 343 404
#     4  12  25  46  74  99 142 177 232 292 351 421
#     4  11  24  47  69 104 132 179 225 288 354 416
#     4   9  21  41  63  88 134 176 222 278 345 405
#     4  11  24  39  61  94 139 177 228 278 330 401
#     4  11  21  37  61  94 130 179 219 276 337 397
#
# _framework density 21.875540999999998
#
# number of rings (size 3 to 8) (size 9 to 14) (size 15 to 20)
#    0.000    1.500    1.250    3.375    0.000    8.000 
#    6.750    0.625    0.000    0.000    0.000    0.000 
#    0.000    0.000    0.000    0.000    0.000    0.000 
#
# Total GULP energy -198417.942177 kJ/mol
# GULP energy per Si atom -12401.121386 kJ/mol
# Density = 2.182575 g / cm^3
# Si number density = 21.875541 Si / 1000 Ang^3
#
#
#
# Elastic Constant Matrix: (Units=GPa)
#
#
# Indices 1 2 3 4 5 6 
#
# 1 108.4315 53.5244 43.6558 0.0000 11.6298 0.0000
# 2 53.5244 120.6318 29.8450 0.0000 19.9100 0.0000
# 3 43.6558 29.8450 67.4763 0.0000 -5.2716 0.0000
# 4 0.0000 0.0000 0.0000 27.1127 0.0000 2.6159
# 5 11.6298 19.9100 -5.2716 0.0000 30.2486 0.0000
# 6 0.0000 0.0000 0.0000 2.6159 0.0000 39.9836
#
#
#
# Elastic Compliance Matrix: (Units=1/GPa)
#
#
# Indices 1 2 3 4 5 6 
#
# 1 0.014974 -0.003791 -0.008380 0.000000 -0.004722 0.000000
# 2 -0.003791 0.011967 -0.003388 0.000000 -0.007009 0.000000
# 3 -0.008380 -0.003388 0.022472 0.000000 0.009368 0.000000
# 4 0.000000 0.000000 0.000000 0.037117 0.000000 -0.002428
# 5 -0.004722 -0.007009 0.009368 0.000000 0.041121 0.000000
# 6 0.000000 0.000000 0.000000 -0.002428 0.000000 0.025169
#
#
# Mechanical properties :
#
#
# Convention : Reuss Voigt Hill
#
# Bulk Modulus (GPa) = 54.65976 61.17666 57.91821
# Shear Modulus (GPa) = 26.31058 30.76994 28.54026
#
# Velocity S-wave (km/s) = 3.47182 3.75452 3.61593
# Velocity P-wave (km/s) = 6.41189 6.84264 6.63076
#
# Compressibility (1/GPa) = 0.01829499
#
# Stress axis : x y z
#
# Youngs Moduli (GPa) = 66.78092 83.56321 44.49985
#
# Poissons Ratio (x) = 0.31683 0.37291
# Poissons Ratio (y) = 0.25320 0.15075
# Poissons Ratio (z) = 0.55963 0.28308
#
# Static dielectric constant tensor:
#      x y z
#    x 4.046250 0.000000 -0.139620 
#    y 0.000000 4.019000 0.000000 
#    z -0.139620 0.000000 3.762470 
# 
# 
# High freq. dielectric constant tensor:
#      x y z
#    x 1.863710 0.000000 -0.010600 
#    y 0.000000 1.860580 0.000000 
#    z -0.010600 0.000000 1.851020 
# 
# From -- ./inp_files/68754.got.cif
#   From: 2010.03.12/outbox.cif.g09.slc.cpg/sg5_35_cif.got.tgz:68754.got - 2010.03.31 09:47:26.
