data_PCOD8049375
_publ_section_title
;
Structure prediction by ZEFSAII (Michael W. Deem and Ramdas Pophale) SiO2 
 PCOD8049375
Probable space group: C 2
;
_chemical_formula_sum "Si O2"
_cell_formula_units_Z 26
_cell_length_a 22.308122
_cell_length_b 9.578199
_cell_length_c 8.687170
_cell_angle_alpha 90.000000
_cell_angle_beta 134.583986
_cell_angle_gamma 90.000000
_cell_volume 1322.028248
_symmetry_space_group_name_H-M "C 2"
_symmetry_group_IT_number 5
_symmetry_cell_setting 'monoclinic'
loop_
_space_group_symop_operation_xyz
x,y,z
-x,y,-z
1/2+x,1/2+y,z
1/2-x,1/2+y,-z
loop_
_atom_site_type_symbol
_atom_site_label
_atom_site_fract_x
_atom_site_fract_y
_atom_site_fract_z
Si Si1 0.086910 0.774940 0.451439
Si Si2 0.245519 0.350097 0.369762
Si Si3 0.500000 0.501646 0.500000
Si Si4 0.978098 0.146608 0.170199
Si Si5 0.418087 0.946460 0.063775
Si Si6 0.855421 0.096403 0.692212
Si Si7 0.000000 0.674089 0.000000
Si Si8 0.000000 0.555017 0.500000
O O1 0.187193 0.770471 0.615692
O O2 0.048426 0.774636 0.208097
O O3 0.059819 0.638635 0.493182
O O4 0.060632 0.908415 0.504003
O O5 0.198197 0.239878 0.395000
O O6 0.291907 0.468037 0.554338
O O7 0.180822 0.420539 0.134480
O O8 0.451051 0.604671 0.294682
O O9 0.971529 0.309775 0.115646
O O10 0.076168 0.105699 0.321929
O O11 0.910275 0.065583 0.943429
O O12 0.438776 0.075767 0.989454
O O13 0.436734 0.969075 0.278113
#
# Coordination Sequence:
#
# PCOD8049375 Si02
#       8
#     4   4   2   4   4   4   2   2
#     4  10  22  37  62  87 121 156 206 250 298 361
#     4  11  21  38  59  95 120 150 201 268 304 341
#     4  11  21  38  60  88 121 165 206 234 296 383
#     4  10  21  39  64  86 118 167 205 242 296 382
#     4  10  20  39  62  86 120 155 204 249 308 360
#     4  10  22  39  62  88 123 157 210 256 303 353
#     4  10  20  38  66  86 112 164 208 250 290 372
#     4   9  21  42  58  84 117 169 200 234 304 387
#
# _framework density 19.666748999999999
#
# number of rings (size 3 to 8) (size 9 to 14) (size 15 to 20)
#    0.000    1.846    1.538    3.231    2.154    1.231 
#    8.308    0.000    0.000    0.000    0.000    0.000 
#    0.000    0.000    0.000    0.000    0.000    0.000 
#
# Total GULP energy -161114.094141 kJ/mol
# GULP energy per Si atom -12393.391857 kJ/mol
# Density = 1.962199 g / cm^3
# Si number density = 19.666749 Si / 1000 Ang^3
#
#
#
# Elastic Constant Matrix: (Units=GPa)
#
#
# Indices 1 2 3 4 5 6 
#
# 1 100.1789 42.8361 78.3670 0.0000 2.0808 0.0000
# 2 42.8361 80.1967 53.4922 0.0000 3.7328 0.0000
# 3 78.3670 53.4922 138.5333 0.0000 -1.2854 0.0000
# 4 0.0000 0.0000 0.0000 36.8320 0.0000 -1.3516
# 5 2.0808 3.7328 -1.2854 0.0000 40.3607 0.0000
# 6 0.0000 0.0000 0.0000 -1.3516 0.0000 26.9586
#
#
#
# Elastic Compliance Matrix: (Units=1/GPa)
#
#
# Indices 1 2 3 4 5 6 
#
# 1 0.018833 -0.003914 -0.009150 0.000000 -0.000900 0.000000
# 2 -0.003914 0.017734 -0.004649 0.000000 -0.001586 0.000000
# 3 -0.009150 -0.004649 0.014202 0.000000 0.001354 0.000000
# 4 0.000000 0.000000 0.000000 0.027200 0.000000 0.001364
# 5 -0.000900 -0.001586 0.001354 0.000000 0.025013 0.000000
# 6 0.000000 0.000000 0.000000 0.001364 0.000000 0.037162
#
#
# Mechanical properties :
#
#
# Convention : Reuss Voigt Hill
#
# Bulk Modulus (GPa) = 65.17385 74.25549 69.71467
# Shear Modulus (GPa) = 27.67250 30.44449 29.05850
#
# Velocity S-wave (km/s) = 3.75516 3.93876 3.84805
# Velocity P-wave (km/s) = 7.21198 7.65009 7.43427
#
# Compressibility (1/GPa) = 0.01534358
#
# Stress axis : x y z
#
# Youngs Moduli (GPa) = 53.09964 56.38794 70.41096
#
# Poissons Ratio (x) = 0.22069 0.64430
# Poissons Ratio (y) = 0.20782 0.32731
# Poissons Ratio (z) = 0.48589 0.26212
#
# Static dielectric constant tensor:
#      x y z
#    x 3.564720 0.000000 -0.112430 
#    y 0.000000 3.687390 0.000000 
#    z -0.112430 0.000000 3.789720 
# 
# 
# High freq. dielectric constant tensor:
#      x y z
#    x 1.755860 0.000000 -0.005310 
#    y 0.000000 1.777980 0.000000 
#    z -0.005310 0.000000 1.767340 
# 
# From -- ./inp_files/23412.got.cif
#   From: 2010.03.12/outbox.cif.g09.slc.cpg/sg5_12_cif.got.tgz:23412.got - 2010.03.31 09:47:26.
