data_PCOD8049742
_publ_section_title
;
Structure prediction by ZEFSAII (Michael W. Deem and Ramdas Pophale) SiO2 
 PCOD8049742
Probable space group: C 2
;
_chemical_formula_sum "Si O2"
_cell_formula_units_Z 22
_cell_length_a 17.143798
_cell_length_b 7.587587
_cell_length_c 7.931960
_cell_angle_alpha 90.000000
_cell_angle_beta 117.728646
_cell_angle_gamma 90.000000
_cell_volume 913.300225
_symmetry_space_group_name_H-M "C 2"
_symmetry_group_IT_number 5
_symmetry_cell_setting 'monoclinic'
loop_
_space_group_symop_operation_xyz
x,y,z
-x,y,-z
1/2+x,1/2+y,z
1/2-x,1/2+y,-z
loop_
_atom_site_type_symbol
_atom_site_label
_atom_site_fract_x
_atom_site_fract_y
_atom_site_fract_z
Si Si1 0.623726 0.538540 0.311450
Si Si2 0.039466 0.242121 0.716403
Si Si3 0.332687 0.487987 0.294159
Si Si4 0.648079 0.856369 0.109398
Si Si5 0.934533 0.655695 0.783816
Si Si6 0.500000 0.236129 0.500000
O O1 0.525899 0.598337 0.270596
O O2 0.687965 0.559212 0.537251
O O3 0.655521 0.656395 0.186549
O O4 0.624555 0.332106 0.268664
O O5 0.000000 0.320154 0.500000
O O6 0.134703 0.150662 0.784916
O O7 0.068725 0.382252 0.890666
O O8 0.243064 0.407690 0.127100
O O9 0.412842 0.350117 0.380655
O O10 0.624457 0.982391 0.243092
O O11 0.981564 0.620862 0.649561
O O12 0.000000 0.689159 0.000000
#
# Coordination Sequence:
#
# PCOD8049742 Si02
#       6
#     4   4   4   4   4   2
#     4  10  22  45  74  93 148 194 226 297 371 434
#     4  10  20  47  74  98 148 202 232 286 376 440
#     4  10  22  44  70 107 142 195 240 290 374 430
#     4  12  26  41  74 115 136 184 258 303 349 424
#     4  11  23  44  72 104 141 189 244 290 362 438
#     4  10  22  48  72  98 150 200 232 288 378 446
#
# _framework density 24.088463999999998
#
# number of rings (size 3 to 8) (size 9 to 14) (size 15 to 20)
#    0.000    1.455    4.545    2.727    5.091    1.455 
#   13.091    0.000    0.000    0.000    0.000    0.000 
#    0.000    0.000    0.000    0.000    0.000    0.000 
#
# Total GULP energy -136328.408933 kJ/mol
# GULP energy per Si atom -12393.491721 kJ/mol
# Density = 2.403364 g / cm^3
# Si number density = 24.088464 Si / 1000 Ang^3
#
#
#
# Elastic Constant Matrix: (Units=GPa)
#
#
# Indices 1 2 3 4 5 6 
#
# 1 87.7240 25.5777 48.3810 0.0000 -3.7045 0.0000
# 2 25.5777 86.4895 38.7990 0.0000 -11.9935 0.0000
# 3 48.3810 38.7990 113.7193 0.0000 -4.0735 0.0000
# 4 0.0000 0.0000 0.0000 33.6731 0.0000 -3.5735
# 5 -3.7045 -11.9935 -4.0735 0.0000 36.3751 0.0000
# 6 0.0000 0.0000 0.0000 -3.5735 0.0000 33.8588
#
#
#
# Elastic Compliance Matrix: (Units=1/GPa)
#
#
# Indices 1 2 3 4 5 6 
#
# 1 0.015150 -0.001834 -0.005809 0.000000 0.000287 0.000000
# 2 -0.001834 0.014478 -0.004011 0.000000 0.004138 0.000000
# 3 -0.005809 -0.004011 0.012616 0.000000 -0.000501 0.000000
# 4 0.000000 0.000000 0.000000 0.030034 0.000000 0.003170
# 5 0.000287 0.004138 -0.000501 0.000000 0.028829 0.000000
# 6 0.000000 0.000000 0.000000 0.003170 0.000000 0.029869
#
#
# Mechanical properties :
#
#
# Convention : Reuss Voigt Hill
#
# Bulk Modulus (GPa) = 52.81462 57.04978 54.93220
# Shear Modulus (GPa) = 31.13407 32.45975 31.79691
#
# Velocity S-wave (km/s) = 3.59902 3.67484 3.63713
# Velocity P-wave (km/s) = 6.26446 6.46071 6.36334
#
# Compressibility (1/GPa) = 0.01893415
#
# Stress axis : x y z
#
# Youngs Moduli (GPa) = 66.00493 69.07219 79.26682
#
# Poissons Ratio (x) = 0.12671 0.46049
# Poissons Ratio (y) = 0.12109 0.31792
# Poissons Ratio (z) = 0.38345 0.27704
#
# Static dielectric constant tensor:
#      x y z
#    x 4.244230 0.000000 -0.244940 
#    y 0.000000 4.285470 0.000000 
#    z -0.244940 0.000000 4.523160 
# 
# 
# High freq. dielectric constant tensor:
#      x y z
#    x 1.941360 0.000000 -0.009590 
#    y 0.000000 1.953390 0.000000 
#    z -0.009590 0.000000 1.961470 
# 
# From -- ./inp_files/26601.got.cif
#   From: 2010.03.12/outbox.cif.g09.slc.cpg/sg5_14_cif.got.tgz:26601.got - 2010.03.31 09:47:26.
