data_PCOD8049549
_publ_section_title
;
Structure prediction by ZEFSAII (Michael W. Deem and Ramdas Pophale) SiO2 
 PCOD8049549
Probable space group: C 2
;
_chemical_formula_sum "Si O2"
_cell_formula_units_Z 30
_cell_length_a 10.678539
_cell_length_b 9.080580
_cell_length_c 15.826031
_cell_angle_alpha 90.000000
_cell_angle_beta 66.705335
_cell_angle_gamma 90.000000
_cell_volume 1409.511618
_symmetry_space_group_name_H-M "C 2"
_symmetry_group_IT_number 5
_symmetry_cell_setting 'monoclinic'
loop_
_space_group_symop_operation_xyz
x,y,z
-x,y,-z
1/2+x,1/2+y,z
1/2-x,1/2+y,-z
loop_
_atom_site_type_symbol
_atom_site_label
_atom_site_fract_x
_atom_site_fract_y
_atom_site_fract_z
Si Si1 0.793616 0.562660 0.397154
Si Si2 0.452728 0.016863 0.875931
Si Si3 0.945082 0.295117 0.726166
Si Si4 0.890587 0.569238 0.655927
Si Si5 0.000000 0.309321 0.000000
Si Si6 0.215236 0.226738 0.571653
Si Si7 0.749520 0.051851 0.787802
Si Si8 0.760471 0.727939 0.841669
O O1 0.759265 0.399891 0.439220
O O2 0.702329 0.670863 0.478906
O O3 0.741328 0.568970 0.315575
O O4 0.952290 0.611827 0.365299
O O5 0.485624 0.920725 0.783248
O O6 0.598951 0.083073 0.863108
O O7 0.351143 0.153119 0.890885
O O8 0.403890 0.910674 0.964913
O O9 0.880277 0.389866 0.665095
O O10 0.843278 0.182280 0.798689
O O11 0.075673 0.201609 0.661123
O O12 0.840728 0.632827 0.579410
O O13 0.782438 0.635977 0.751278
O O14 0.897113 0.214663 0.085648
O O15 0.803063 0.895554 0.809105
#
# Coordination Sequence:
#
# PCOD8049549 Si02
#       8
#     4   4   4   4   2   4   4   4
#     4  11  23  38  61  90 124 166 219 255 309 357
#     4  10  21  45  63  91 129 165 198 251 317 372
#     4  10  23  39  64  89 123 167 208 247 310 369
#     4  10  20  43  64  82 125 171 198 255 317 363
#     4  10  22  36  68  98 122 152 204 262 306 372
#     4  11  22  40  56  90 129 160 212 269 302 352
#     4  11  21  40  63  88 120 169 211 246 303 373
#     4  10  20  40  68  86 126 163 198 252 312 372
#
# _framework density 21.28397
#
# number of rings (size 3 to 8) (size 9 to 14) (size 15 to 20)
#    0.000    1.600    5.333    1.200    1.867    4.800 
#    2.400    2.667    0.000    1.600    0.000    0.000 
#    0.000    0.000    0.000    0.000    0.000    0.000 
#
# Total GULP energy -185891.679718 kJ/mol
# GULP energy per Si atom -12392.778648 kJ/mol
# Density = 2.123553 g / cm^3
# Si number density = 21.283970 Si / 1000 Ang^3
#
#
#
# Elastic Constant Matrix: (Units=GPa)
#
#
# Indices 1 2 3 4 5 6 
#
# 1 79.7206 43.1684 22.1576 0.0000 -9.9093 0.0000
# 2 43.1684 78.9644 20.6616 0.0000 -15.0149 0.0000
# 3 22.1576 20.6616 80.0284 0.0000 -7.5387 0.0000
# 4 0.0000 0.0000 0.0000 32.5903 0.0000 -0.4331
# 5 -9.9093 -15.0149 -7.5387 0.0000 28.8675 0.0000
# 6 0.0000 0.0000 0.0000 -0.4331 0.0000 38.2836
#
#
#
# Elastic Compliance Matrix: (Units=1/GPa)
#
#
# Indices 1 2 3 4 5 6 
#
# 1 0.018353 -0.009186 -0.002631 0.000000 0.000835 0.000000
# 2 -0.009186 0.019398 -0.001857 0.000000 0.006451 0.000000
# 3 -0.002631 -0.001857 0.013869 0.000000 0.001753 0.000000
# 4 0.000000 0.000000 0.000000 0.030689 0.000000 0.000347
# 5 0.000835 0.006451 0.001753 0.000000 0.038741 0.000000
# 6 0.000000 0.000000 0.000000 0.000347 0.000000 0.026125
#
#
# Mechanical properties :
#
#
# Convention : Reuss Voigt Hill
#
# Bulk Modulus (GPa) = 41.20076 45.63205 43.41641
# Shear Modulus (GPa) = 27.38019 30.13001 28.75510
#
# Velocity S-wave (km/s) = 3.59056 3.76655 3.67961
# Velocity P-wave (km/s) = 6.04890 6.35626 6.20449
#
# Compressibility (1/GPa) = 0.02427139
#
# Stress axis : x y z
#
# Youngs Moduli (GPa) = 54.48666 51.55044 72.10519
#
# Poissons Ratio (x) = 0.47355 0.18972
# Poissons Ratio (y) = 0.50052 0.13391
# Poissons Ratio (z) = 0.14336 0.09574
#
# Static dielectric constant tensor:
#      x y z
#    x 3.793410 0.000000 0.115110 
#    y 0.000000 3.837970 0.000000 
#    z 0.115110 0.000000 3.891050 
# 
# 
# High freq. dielectric constant tensor:
#      x y z
#    x 1.817660 0.000000 0.001180 
#    y 0.000000 1.825890 0.000000 
#    z 0.001180 0.000000 1.841360 
# 
# From -- ./inp_files/60304.got.cif
#   From: 2010.03.12/outbox.cif.g09.slc.cpg/sg5_31_cif.got.tgz:60304.got - 2010.03.31 09:47:26.
