data_PCOD8049141
_publ_section_title
;
Structure prediction by ZEFSAII (Michael W. Deem and Ramdas Pophale) SiO2 
 PCOD8049141
Probable space group: C 2
;
_chemical_formula_sum "Si O2"
_cell_formula_units_Z 30
_cell_length_a 17.573900
_cell_length_b 5.182661
_cell_length_c 16.675591
_cell_angle_alpha 90.000000
_cell_angle_beta 106.729459
_cell_angle_gamma 90.000000
_cell_volume 1454.521570
_symmetry_space_group_name_H-M "C 2"
_symmetry_group_IT_number 5
_symmetry_cell_setting 'monoclinic'
loop_
_space_group_symop_operation_xyz
x,y,z
-x,y,-z
1/2+x,1/2+y,z
1/2-x,1/2+y,-z
loop_
_atom_site_type_symbol
_atom_site_label
_atom_site_fract_x
_atom_site_fract_y
_atom_site_fract_z
Si Si1 0.971394 0.292180 0.634785
Si Si2 0.603269 0.419006 0.653772
Si Si3 0.756566 0.588836 0.897170
Si Si4 0.020598 0.674073 0.774883
Si Si5 0.213685 0.481925 0.272365
Si Si6 0.124659 0.970035 0.291987
Si Si7 0.336657 0.088782 0.083586
Si Si8 0.000000 0.619150 0.500000
O O1 0.949512 0.452431 0.549024
O O2 0.967419 0.452131 0.716903
O O3 0.907568 0.059189 0.628866
O O4 0.061905 0.196974 0.650083
O O5 0.585648 0.259036 0.728818
O O6 0.696502 0.450810 0.671275
O O7 0.566363 0.288086 0.563974
O O8 0.795967 0.573484 0.822189
O O9 0.696044 0.356297 0.892049
O O10 0.708685 0.854836 0.887786
O O11 0.826616 0.577197 0.984525
O O12 0.069379 0.575680 0.867196
O O13 0.957231 0.896069 0.781204
O O14 0.178061 0.712510 0.316308
O O15 0.171388 0.204765 0.265509
#
# Coordination Sequence:
#
# PCOD8049141 Si02
#       8
#     4   4   4   4   4   4   4   2
#     4  10  21  43  67  94 124 170 212 271 312 386
#     4  10  22  37  72  96 122 166 223 264 319 378
#     4  10  21  36  60  99 131 160 214 287 311 365
#     4  10  20  40  66  91 123 176 216 262 311 398
#     4  12  23  41  66  98 130 173 214 264 320 392
#     4  11  25  40  65  90 137 167 215 253 326 390
#     4  10  20  36  63  95 127 164 221 274 324 353
#     4  10  22  40  72  98 128 152 232 272 314 372
#
# _framework density 20.625337999999999
#
# number of rings (size 3 to 8) (size 9 to 14) (size 15 to 20)
#    0.000    1.600    2.667    2.000    5.600    0.000 
#    0.000    0.667   14.667    0.000    0.000    0.000 
#    0.000    0.000    0.000    0.000    0.000    0.000 
#
# Total GULP energy -185921.012440 kJ/mol
# GULP energy per Si atom -12394.734163 kJ/mol
# Density = 2.057839 g / cm^3
# Si number density = 20.625338 Si / 1000 Ang^3
#
#
#
# Elastic Constant Matrix: (Units=GPa)
#
#
# Indices 1 2 3 4 5 6 
#
# 1 128.8390 47.4488 55.5702 -0.0002 18.6849 -0.0001
# 2 47.4488 76.4168 39.4569 -0.0013 12.2510 -0.0008
# 3 55.5702 39.4569 114.0208 -0.0001 18.6832 -0.0001
# 4 -0.0002 -0.0013 -0.0001 60.5154 0.0002 0.5165
# 5 18.6849 12.2510 18.6832 0.0002 17.4100 0.0001
# 6 -0.0001 -0.0008 -0.0001 0.5165 0.0001 41.5810
#
#
#
# Elastic Compliance Matrix: (Units=1/GPa)
#
#
# Indices 1 2 3 4 5 6 
#
# 1 0.011690 -0.004712 -0.003099 0.000000 -0.005904 0.000000
# 2 -0.004712 0.018447 -0.003384 0.000000 -0.004293 0.000000
# 3 -0.003099 -0.003384 0.012760 0.000000 -0.007986 0.000000
# 4 0.000000 0.000000 0.000000 0.016526 0.000000 -0.000205
# 5 -0.005904 -0.004293 -0.007986 0.000000 0.075366 0.000000
# 6 0.000000 0.000000 0.000000 -0.000205 0.000000 0.024052
#
#
# Mechanical properties :
#
#
# Convention : Reuss Voigt Hill
#
# Bulk Modulus (GPa) = 48.76215 67.13648 57.94931
# Shear Modulus (GPa) = 26.58615 35.68800 31.13708
#
# Velocity S-wave (km/s) = 3.59417 4.16420 3.88964
# Velocity P-wave (km/s) = 6.39666 7.46605 6.95195
#
# Compressibility (1/GPa) = 0.02050771
#
# Stress axis : x y z
#
# Youngs Moduli (GPa) = 85.54389 54.20906 78.36701
#
# Poissons Ratio (x) = 0.25541 0.24289
# Poissons Ratio (y) = 0.40305 0.26519
# Poissons Ratio (z) = 0.26513 0.18344
#
# Static dielectric constant tensor:
#      x y z
#    x 3.605940 0.000000 -0.050120 
#    y 0.000000 4.073820 0.000000 
#    z -0.050120 0.000000 2.993280 
# 
# 
# High freq. dielectric constant tensor:
#      x y z
#    x 1.791450 0.000000 0.004570 
#    y 0.000000 1.831850 0.000000 
#    z 0.004570 0.000000 1.786600 
# 
# From -- ./inp_files/62017.got.cif
#   From: 2010.03.12/outbox.cif.g09.slc.cpg/sg5_32_cif.got.tgz:62017.got - 2010.03.31 09:47:26.
