data_PCOD8049573
_publ_section_title
;
Structure prediction by ZEFSAII (Michael W. Deem and Ramdas Pophale) SiO2 
 PCOD8049573
Probable space group: C 2
;
_chemical_formula_sum "Si O2"
_cell_formula_units_Z 26
_cell_length_a 9.902757
_cell_length_b 9.773764
_cell_length_c 15.681487
_cell_angle_alpha 90.000000
_cell_angle_beta 108.739711
_cell_angle_gamma 90.000000
_cell_volume 1437.307242
_symmetry_space_group_name_H-M "C 2"
_symmetry_group_IT_number 5
_symmetry_cell_setting 'monoclinic'
loop_
_space_group_symop_operation_xyz
x,y,z
-x,y,-z
1/2+x,1/2+y,z
1/2-x,1/2+y,-z
loop_
_atom_site_type_symbol
_atom_site_label
_atom_site_fract_x
_atom_site_fract_y
_atom_site_fract_z
Si Si1 0.500000 0.843520 0.000000
Si Si2 0.304930 0.684622 0.839065
Si Si3 0.075263 0.458452 0.840845
Si Si4 0.109027 0.185263 0.447077
Si Si5 0.840854 0.904196 0.470761
Si Si6 0.755334 0.456608 0.736777
Si Si7 0.544900 0.674129 0.760856
O O1 0.626365 0.748071 0.061773
O O2 0.433572 0.941540 0.058872
O O3 0.189949 0.571674 0.839831
O O4 0.430280 0.619067 0.806712
O O5 0.230912 0.804984 0.769262
O O6 0.119670 0.313068 0.809064
O O7 0.920364 0.501461 0.773645
O O8 0.165062 0.029969 0.464010
O O9 0.241071 0.286047 0.485282
O O10 0.000000 0.218660 0.500000
O O11 0.035776 0.211225 0.342231
O O12 0.798053 0.963769 0.370403
O O13 0.000000 0.843107 0.500000
O O14 0.665465 0.561027 0.775501
#
# Coordination Sequence:
#
# PCOD8049573 Si02
#       7
#     2   4   4   4   4   4   4
#     4   8  20  40  60  92 128 148 184 252 308 344
#     4  10  22  39  66  89 119 158 197 243 296 366
#     4  10  22  39  66  89 119 158 197 243 296 366
#     4  11  22  39  57  83 118 161 205 252 293 340
#     4  11  22  39  57  83 118 161 205 252 293 340
#     4  10  20  41  57  81 124 157 197 248 297 343
#     4  10  20  41  57  81 124 157 197 248 297 343
#
# _framework density 18.089382000000001
#
# number of rings (size 3 to 8) (size 9 to 14) (size 15 to 20)
#    0.000    2.154    6.154    0.000    0.000    9.231 
#    0.000    0.000    0.000    0.000    0.000    0.000 
#    0.000    0.000    0.000    0.000    0.000    0.000 
#
# Total GULP energy -161197.317014 kJ/mol
# GULP energy per Si atom -12399.793616 kJ/mol
# Density = 1.804821 g / cm^3
# Si number density = 18.089382 Si / 1000 Ang^3
#
#
#
# Elastic Constant Matrix: (Units=GPa)
#
#
# Indices 1 2 3 4 5 6 
#
# 1 121.2185 63.2192 9.5290 0.0000 3.1384 0.0000
# 2 63.2192 92.9726 -4.5477 0.0000 -2.5149 0.0000
# 3 9.5290 -4.5477 72.5459 0.0000 -1.8279 0.0000
# 4 0.0000 0.0000 0.0000 18.0855 0.0000 -0.2947
# 5 3.1384 -2.5149 -1.8279 0.0000 21.0274 0.0000
# 6 0.0000 0.0000 0.0000 -0.2947 0.0000 33.7212
#
#
#
# Elastic Compliance Matrix: (Units=1/GPa)
#
#
# Indices 1 2 3 4 5 6 
#
# 1 0.013380 -0.009306 -0.002424 0.000000 -0.003321 0.000000
# 2 -0.009306 0.017300 0.002399 0.000000 0.003667 0.000000
# 3 -0.002424 0.002399 0.014301 0.000000 0.001892 0.000000
# 4 0.000000 0.000000 0.000000 0.055301 0.000000 0.000483
# 5 -0.003321 0.003667 0.001892 0.000000 0.048656 0.000000
# 6 0.000000 0.000000 0.000000 0.000483 0.000000 0.029659
#
#
# Mechanical properties :
#
#
# Convention : Reuss Voigt Hill
#
# Bulk Modulus (GPa) = 37.99666 47.01532 42.50599
# Shear Modulus (GPa) = 24.26805 29.13591 26.70198
#
# Velocity S-wave (km/s) = 3.66671 4.01766 3.84619
# Velocity P-wave (km/s) = 6.24315 6.89704 6.57822
#
# Compressibility (1/GPa) = 0.02631810
#
# Stress axis : x y z
#
# Youngs Moduli (GPa) = 74.74042 57.80195 69.92557
#
# Poissons Ratio (x) = 0.53792 0.16953
# Poissons Ratio (y) = 0.69555 -0.16777
# Poissons Ratio (z) = 0.18121 -0.13868
#
# Static dielectric constant tensor:
#      x y z
#    x 3.387090 0.000000 -0.020250 
#    y 0.000000 3.245460 0.000000 
#    z -0.020250 0.000000 3.497600 
# 
# 
# High freq. dielectric constant tensor:
#      x y z
#    x 1.699380 0.000000 -0.000310 
#    y 0.000000 1.694070 0.000000 
#    z -0.000310 0.000000 1.714270 
# 
# From -- ./inp_files/50096.got.cif
#   From: 2010.03.12/outbox.cif.g09.slc.cpg/sg5_26_cif.got.tgz:50096.got - 2010.03.31 09:47:26.
