data_PCOD8049967
_publ_section_title
;
Structure prediction by ZEFSAII (Michael W. Deem and Ramdas Pophale) SiO2 
 PCOD8049967
Probable space group: C 2
;
_chemical_formula_sum "Si O2"
_cell_formula_units_Z 20
_cell_length_a 26.142998
_cell_length_b 8.528348
_cell_length_c 9.825437
_cell_angle_alpha 90.000000
_cell_angle_beta 26.650556
_cell_angle_gamma 90.000000
_cell_volume 982.609579
_symmetry_space_group_name_H-M "C 2"
_symmetry_group_IT_number 5
_symmetry_cell_setting 'monoclinic'
loop_
_space_group_symop_operation_xyz
x,y,z
-x,y,-z
1/2+x,1/2+y,z
1/2-x,1/2+y,-z
loop_
_atom_site_type_symbol
_atom_site_label
_atom_site_fract_x
_atom_site_fract_y
_atom_site_fract_z
Si Si1 0.224060 0.427170 0.682058
Si Si2 0.202981 0.704382 0.254632
Si Si3 0.958937 0.634905 0.741361
Si Si4 0.734075 0.353165 0.895671
Si Si5 0.132888 0.228628 0.657987
O O1 0.269790 0.294847 0.673253
O O2 0.197292 0.350450 0.601670
O O3 0.322388 0.553792 0.422788
O O4 0.110580 0.504232 0.012972
O O5 0.268798 0.539971 0.102126
O O6 0.066749 0.683039 0.575279
O O7 0.248094 0.800613 0.017994
O O8 0.000000 0.561322 0.500000
O O9 0.882846 0.788802 0.892333
O O10 0.841400 0.282676 0.557588
O O11 0.000000 0.231431 0.000000
#
# Coordination Sequence:
#
# PCOD8049967 Si02
#       5
#     4   4   4   4   4
#     4  11  24  39  61  88 117 155 199 237 287 351
#     4  11  21  40  64  86 117 153 193 248 289 336
#     4   9  20  39  61  89 118 149 193 244 292 340
#     4  10  21  39  62  88 118 153 196 237 291 349
#     4  11  24  41  59  87 122 156 192 238 291 348
#
# _framework density 20.353964999999999
#
# number of rings (size 3 to 8) (size 9 to 14) (size 15 to 20)
#    0.000    1.600    0.000    6.000    0.000    4.800 
#    0.000   14.000    0.000    0.000    0.000    0.000 
#    0.000    0.000    0.000    0.000    0.000    0.000 
#
# Total GULP energy -124052.510954 kJ/mol
# GULP energy per Si atom -12405.251095 kJ/mol
# Density = 2.030764 g / cm^3
# Si number density = 20.353965 Si / 1000 Ang^3
#
#
#
# Elastic Constant Matrix: (Units=GPa)
#
#
# Indices 1 2 3 4 5 6 
#
# 1 53.2917 13.9077 12.7297 0.0000 -7.9933 0.0000
# 2 13.9077 106.3604 -10.2888 0.0000 -5.7932 0.0000
# 3 12.7297 -10.2888 61.5017 0.0000 -5.7820 0.0000
# 4 0.0000 0.0000 0.0000 27.9921 0.0000 7.8007
# 5 -7.9933 -5.7932 -5.7820 0.0000 20.7756 0.0000
# 6 0.0000 0.0000 0.0000 7.8007 0.0000 32.5945
#
#
#
# Elastic Compliance Matrix: (Units=1/GPa)
#
#
# Indices 1 2 3 4 5 6 
#
# 1 0.021495 -0.002890 -0.004344 0.000000 0.006255 0.000000
# 2 -0.002890 0.010156 0.002525 0.000000 0.002423 0.000000
# 3 -0.004344 0.002525 0.017960 0.000000 0.004031 0.000000
# 4 0.000000 0.000000 0.000000 0.038277 0.000000 -0.009161
# 5 0.006255 0.002423 0.004031 0.000000 0.052337 0.000000
# 6 0.000000 0.000000 0.000000 -0.009161 0.000000 0.032872
#
#
# Mechanical properties :
#
#
# Convention : Reuss Voigt Hill
#
# Bulk Modulus (GPa) = 24.88058 28.20566 26.54312
# Shear Modulus (GPa) = 25.52126 29.92614 27.72370
#
# Velocity S-wave (km/s) = 3.54485 3.83859 3.69464
# Velocity P-wave (km/s) = 5.38564 5.79086 5.59192
#
# Compressibility (1/GPa) = 0.04019199
#
# Stress axis : x y z
#
# Youngs Moduli (GPa) = 46.52270 98.46261 55.67825
#
# Poissons Ratio (x) = 0.28458 0.24189
# Poissons Ratio (y) = 0.13446 -0.14059
# Poissons Ratio (z) = 0.20212 -0.24862
#
# Static dielectric constant tensor:
#      x y z
#    x 3.735180 0.000000 0.119950 
#    y 0.000000 3.725540 0.000000 
#    z 0.119950 0.000000 3.960340 
# 
# 
# High freq. dielectric constant tensor:
#      x y z
#    x 1.798210 0.000000 0.007580 
#    y 0.000000 1.801750 0.000000 
#    z 0.007580 0.000000 1.805940 
# 
# From -- ./inp_files/18238.got.cif
#   From: 2010.03.12/outbox.cif.g09.slc.cpg/sg5_10_cif.got.tgz:18238.got - 2010.03.31 09:47:26.
