data_PCOD8049453
_publ_section_title
;
Structure prediction by ZEFSAII (Michael W. Deem and Ramdas Pophale) SiO2 
 PCOD8049453
Probable space group: C 2
;
_chemical_formula_sum "Si O2"
_cell_formula_units_Z 32
_cell_length_a 15.213297
_cell_length_b 13.171997
_cell_length_c 17.115108
_cell_angle_alpha 90.000000
_cell_angle_beta 27.545364
_cell_angle_gamma 90.000000
_cell_volume 1586.061812
_symmetry_space_group_name_H-M "C 2"
_symmetry_group_IT_number 5
_symmetry_cell_setting 'monoclinic'
loop_
_space_group_symop_operation_xyz
x,y,z
-x,y,-z
1/2+x,1/2+y,z
1/2-x,1/2+y,-z
loop_
_atom_site_type_symbol
_atom_site_label
_atom_site_fract_x
_atom_site_fract_y
_atom_site_fract_z
Si Si1 0.171705 0.932480 0.162956
Si Si2 0.082371 0.273266 0.728080
Si Si3 0.717463 0.416566 0.305454
Si Si4 0.350980 0.269140 0.936974
Si Si5 0.977138 0.552951 0.180012
Si Si6 0.551561 0.954575 0.642909
Si Si7 0.883380 0.953065 0.014640
Si Si8 0.615433 0.548376 0.692449
O O1 0.235419 0.899561 0.198733
O O2 0.078932 0.833738 0.193514
O O3 0.008074 0.019314 0.288353
O O4 0.350156 0.973273 0.971415
O O5 0.171105 0.329915 0.733606
O O6 0.185034 0.165129 0.635517
O O7 0.092050 0.339983 0.641285
O O8 0.864755 0.241894 0.913988
O O9 0.500000 0.415938 0.500000
O O10 0.812046 0.526955 0.247414
O O11 0.468446 0.169583 0.865324
O O12 0.379961 0.336352 0.991198
O O13 0.890454 0.529967 0.332755
O O14 0.690401 0.980943 0.460893
O O15 0.334083 0.981750 0.793801
O O16 0.981646 0.024354 0.872163
O O17 0.000000 0.968121 0.000000
#
# Coordination Sequence:
#
# PCOD8049453 Si02
#       8
#     4   4   4   4   4   4   4   4
#     4  11  20  39  66  95 123 166 215 265 317 375
#     4  10  20  42  62  94 125 164 209 258 318 379
#     4  11  24  40  58  97 136 162 209 274 323 374
#     4  10  20  39  67  92 117 169 219 252 319 385
#     4  11  20  39  65  91 122 168 211 257 322 382
#     4  10  21  40  64  88 124 162 206 257 310 378
#     4  10  22  42  60  88 126 162 209 263 307 372
#     4  11  22  41  67  90 124 170 210 255 321 385
#
# _framework density 20.175757999999998
#
# number of rings (size 3 to 8) (size 9 to 14) (size 15 to 20)
#    0.000    1.500    6.250    1.875    0.000    4.500 
#    6.750    0.000    0.000    0.000    0.000    0.000 
#    0.000    0.000    0.000    0.000    0.000    0.000 
#
# Total GULP energy -198273.109855 kJ/mol
# GULP energy per Si atom -12392.069366 kJ/mol
# Density = 2.012984 g / cm^3
# Si number density = 20.175758 Si / 1000 Ang^3
#
#
#
# Elastic Constant Matrix: (Units=GPa)
#
#
# Indices 1 2 3 4 5 6 
#
# 1 112.3542 39.4964 36.5125 -0.0224 -8.1864 0.0149
# 2 39.4964 129.6058 37.2097 -0.0366 -4.6667 0.0325
# 3 36.5125 37.2097 83.5376 -0.0143 -13.0099 0.0182
# 4 -0.0224 -0.0366 -0.0143 26.0256 0.0206 -7.4936
# 5 -8.1864 -4.6667 -13.0099 0.0206 19.0306 -0.0175
# 6 0.0149 0.0325 0.0182 -7.4936 -0.0175 20.7272
#
#
#
# Elastic Compliance Matrix: (Units=1/GPa)
#
#
# Indices 1 2 3 4 5 6 
#
# 1 0.010967 -0.002272 -0.003507 0.000003 0.001763 0.000001
# 2 -0.002272 0.009324 -0.003308 0.000008 -0.000953 -0.000008
# 3 -0.003507 -0.003308 0.016357 -0.000006 0.008863 -0.000001
# 4 0.000003 0.000008 -0.000006 0.042888 -0.000033 0.015506
# 5 0.001763 -0.000953 0.008863 -0.000033 0.059131 0.000030
# 6 0.000001 -0.000008 -0.000001 0.015506 0.000030 0.053852
#
#
# Mechanical properties :
#
#
# Convention : Reuss Voigt Hill
#
# Bulk Modulus (GPa) = 54.13086 61.32608 57.72847
# Shear Modulus (GPa) = 23.05732 27.30861 25.18297
#
# Velocity S-wave (km/s) = 3.38423 3.68303 3.53679
# Velocity P-wave (km/s) = 6.49297 6.96766 6.73450
#
# Compressibility (1/GPa) = 0.01847375
#
# Stress axis : x y z
#
# Youngs Moduli (GPa) = 91.18081 107.25534 61.13464
#
# Poissons Ratio (x) = 0.24367 0.21440
# Poissons Ratio (y) = 0.20715 0.20225
# Poissons Ratio (z) = 0.31977 0.35484
#
# Static dielectric constant tensor:
#      x y z
#    x 3.732360 0.000000 -0.135390 
#    y 0.000000 3.675700 0.000010 
#    z -0.135390 0.000010 3.692190 
# 
# 
# High freq. dielectric constant tensor:
#      x y z
#    x 1.773120 0.000000 -0.012900 
#    y 0.000000 1.780880 0.000000 
#    z -0.012900 0.000000 1.790070 
# 
# From -- ./inp_files/61696.got.cif
#   From: 2010.03.12/outbox.cif.g09.slc.cpg/sg5_31_cif.got.tgz:61696.got - 2010.03.31 09:47:26.
