data_PCOD8049892
_publ_section_title
;
Structure prediction by ZEFSAII (Michael W. Deem and Ramdas Pophale) SiO2 
 PCOD8049892
Probable space group: C 2
;
_chemical_formula_sum "Si O2"
_cell_formula_units_Z 24
_cell_length_a 15.135434
_cell_length_b 4.662956
_cell_length_c 21.779523
_cell_angle_alpha 90.000000
_cell_angle_beta 142.004964
_cell_angle_gamma 90.000000
_cell_volume 946.233620
_symmetry_space_group_name_H-M "C 2"
_symmetry_group_IT_number 5
_symmetry_cell_setting 'monoclinic'
loop_
_space_group_symop_operation_xyz
x,y,z
-x,y,-z
1/2+x,1/2+y,z
1/2-x,1/2+y,-z
loop_
_atom_site_type_symbol
_atom_site_label
_atom_site_fract_x
_atom_site_fract_y
_atom_site_fract_z
Si Si1 0.350462 0.016430 0.551290
Si Si2 0.373095 0.593378 0.883301
Si Si3 0.128481 0.182639 0.249088
Si Si4 0.981838 0.694920 0.743622
Si Si5 0.177727 0.088991 0.782028
Si Si6 0.052885 0.902318 0.592383
O O1 0.206917 0.196887 0.492026
O O2 0.453919 0.014752 0.666786
O O3 0.438426 0.145814 0.542109
O O4 0.425174 0.520870 0.842612
O O5 0.326666 0.924345 0.849259
O O6 0.230955 0.410811 0.826610
O O7 0.500000 0.545680 0.000000
O O8 0.015931 0.440419 0.204381
O O9 0.289740 0.285698 0.332482
O O10 0.139422 0.928823 0.305635
O O11 0.117949 0.908998 0.807928
O O12 0.067214 0.101411 0.662193
O O13 0.000000 0.057932 0.500000
#
# Coordination Sequence:
#
# PCOD8049892 Si02
#       6
#     4   4   4   4   4   4
#     4  11  23  37  57  86 125 172 216 260 316 378
#     4  11  23  44  69  94 124 166 217 271 328 390
#     4  11  23  40  64  93 125 167 216 268 321 386
#     4  11  22  40  61  91 132 167 209 268 325 384
#     4  10  23  41  65  95 130 170 210 264 329 387
#     4  10  21  38  61  91 127 168 214 259 311 383
#
# _framework density 25.363712
#
# number of rings (size 3 to 8) (size 9 to 14) (size 15 to 20)
#    0.000    1.333    0.000    6.500    0.000    8.000 
#    0.000   13.333    0.000    0.000    0.000    0.000 
#    0.000    0.000    0.000    0.000    0.000    0.000 
#
# Total GULP energy -148662.903371 kJ/mol
# GULP energy per Si atom -12388.575281 kJ/mol
# Density = 2.530598 g / cm^3
# Si number density = 25.363712 Si / 1000 Ang^3
#
#
#
# Elastic Constant Matrix: (Units=GPa)
#
#
# Indices 1 2 3 4 5 6 
#
# 1 93.8366 21.7271 34.8812 -0.0106 -18.3337 0.0024
# 2 21.7271 91.2725 14.2167 -0.0155 -11.1561 0.0148
# 3 34.8812 14.2167 138.3569 -0.0016 -6.6992 0.0000
# 4 -0.0106 -0.0155 -0.0016 23.2037 -0.0023 -5.8929
# 5 -18.3337 -11.1561 -6.6992 -0.0023 18.9543 -0.0020
# 6 0.0024 0.0148 0.0000 -5.8929 -0.0020 31.9171
#
#
#
# Elastic Compliance Matrix: (Units=1/GPa)
#
#
# Indices 1 2 3 4 5 6 
#
# 1 0.014440 -0.001512 -0.002902 0.000007 0.012052 0.000002
# 2 -0.001512 0.012073 -0.000596 0.000007 0.005432 -0.000004
# 3 -0.002902 -0.000596 0.008005 -0.000001 -0.000328 0.000000
# 4 0.000007 0.000007 -0.000001 0.045217 0.000017 0.008349
# 5 0.012052 0.005432 -0.000328 0.000017 0.067497 0.000004
# 6 0.000002 -0.000004 0.000000 0.008349 0.000004 0.032873
#
#
# Mechanical properties :
#
#
# Convention : Reuss Voigt Hill
#
# Bulk Modulus (GPa) = 40.82066 51.67958 46.25012
# Shear Modulus (GPa) = 25.21555 31.65775 28.43665
#
# Velocity S-wave (km/s) = 3.15645 3.53675 3.35200
# Velocity P-wave (km/s) = 5.42340 6.09079 5.76676
#
# Compressibility (1/GPa) = 0.02449740
#
# Stress axis : x y z
#
# Youngs Moduli (GPa) = 69.25097 82.82884 124.92868
#
# Poissons Ratio (x) = 0.12527 0.36249
# Poissons Ratio (y) = 0.10474 0.07449
# Poissons Ratio (z) = 0.20094 0.04938
#
# Static dielectric constant tensor:
#      x y z
#    x 5.361540 -0.000050 -0.369850 
#    y -0.000050 4.656090 0.000010 
#    z -0.369850 0.000010 4.205080 
# 
# 
# High freq. dielectric constant tensor:
#      x y z
#    x 2.036350 0.000000 0.003880 
#    y 0.000000 2.025460 0.000000 
#    z 0.003880 0.000000 1.959030 
# 
# From -- ./inp_files/65732.got.cif
#   From: 2010.03.12/outbox.cif.g09.slc.cpg/sg5_33_cif.got.tgz:65732.got - 2010.03.31 09:47:26.
