data_PCOD8049285
_publ_section_title
;
Structure prediction by ZEFSAII (Michael W. Deem and Ramdas Pophale) SiO2 
 PCOD8049285
Probable space group: C 2
;
_chemical_formula_sum "Si O2"
_cell_formula_units_Z 28
_cell_length_a 17.800594
_cell_length_b 6.648735
_cell_length_c 14.058090
_cell_angle_alpha 90.000000
_cell_angle_beta 117.175749
_cell_angle_gamma 90.000000
_cell_volume 1480.128357
_symmetry_space_group_name_H-M "C 2"
_symmetry_group_IT_number 5
_symmetry_cell_setting 'monoclinic'
loop_
_space_group_symop_operation_xyz
x,y,z
-x,y,-z
1/2+x,1/2+y,z
1/2-x,1/2+y,-z
loop_
_atom_site_type_symbol
_atom_site_label
_atom_site_fract_x
_atom_site_fract_y
_atom_site_fract_z
Si Si1 0.877009 0.469490 0.352888
Si Si2 0.176122 0.761643 0.821808
Si Si3 0.300979 0.516208 0.797646
Si Si4 0.500000 0.948709 0.000000
Si Si5 0.115323 0.786488 0.991680
Si Si6 0.554155 0.572519 0.681083
Si Si7 0.500000 0.266407 0.500000
Si Si8 0.520159 0.608162 0.160880
O O1 0.884726 0.584304 0.255332
O O2 0.776314 0.436734 0.314230
O O3 0.926234 0.259088 0.376798
O O4 0.918235 0.618129 0.455763
O O5 0.270388 0.724483 0.833110
O O6 0.172457 0.741535 0.932871
O O7 0.142817 0.977880 0.767249
O O8 0.383323 0.533946 0.780804
O O9 0.318594 0.365379 0.893838
O O10 0.479047 0.814086 0.896648
O O11 0.578734 0.083088 0.014187
O O12 0.039878 0.943694 0.924592
O O13 0.498652 0.408410 0.592147
O O14 0.503447 0.647246 0.743842
#
# Coordination Sequence:
#
# PCOD8049285 Si02
#       8
#     4   4   4   2   4   4   2   4
#     4   9  20  38  61  90 110 147 205 249 299 360
#     4   8  21  34  55  85 123 153 204 243 283 347
#     4  10  20  38  53  87 126 150 198 254 277 355
#     4  12  20  32  60  80 128 182 200 226 288 346
#     4  11  20  37  52  87 128 171 199 239 285 352
#     4  10  20  39  68  83 111 159 199 249 311 361
#     4  10  20  42  68  86 114 146 202 262 316 358
#     4  11  22  38  57  89 124 163 207 234 291 371
#
# _framework density 18.917280000000002
#
# number of rings (size 3 to 8) (size 9 to 14) (size 15 to 20)
#    0.857    1.143    2.857    1.286    0.000    4.571 
#    0.000    0.000    6.286    0.000    0.000    0.000 
#    0.000    0.000    0.000    0.000    0.000    0.000 
#
# Total GULP energy -173450.806730 kJ/mol
# GULP energy per Si atom -12389.343338 kJ/mol
# Density = 1.887422 g / cm^3
# Si number density = 18.917280 Si / 1000 Ang^3
#
#
#
# Elastic Constant Matrix: (Units=GPa)
#
#
# Indices 1 2 3 4 5 6 
#
# 1 71.2639 20.5622 17.6043 0.0000 12.7685 0.0000
# 2 20.5622 89.6556 28.1912 0.0000 4.3513 0.0000
# 3 17.6043 28.1912 71.4525 0.0000 17.9341 0.0000
# 4 0.0000 0.0000 0.0000 28.4087 0.0000 1.2907
# 5 12.7685 4.3513 17.9341 0.0000 27.7720 0.0000
# 6 0.0000 0.0000 0.0000 1.2907 0.0000 29.4769
#
#
#
# Elastic Compliance Matrix: (Units=1/GPa)
#
#
# Indices 1 2 3 4 5 6 
#
# 1 0.016338 -0.003049 -0.001262 0.000000 -0.006219 0.000000
# 2 -0.003049 0.013354 -0.005185 0.000000 0.002657 0.000000
# 3 -0.001262 -0.005185 0.019098 0.000000 -0.010940 0.000000
# 4 0.000000 0.000000 0.000000 0.035271 0.000000 -0.001544
# 5 -0.006219 0.002657 -0.010940 0.000000 0.045515 0.000000
# 6 0.000000 0.000000 0.000000 -0.001544 0.000000 0.033992
#
#
# Mechanical properties :
#
#
# Convention : Reuss Voigt Hill
#
# Bulk Modulus (GPa) = 33.55682 40.56528 37.06105
# Shear Modulus (GPa) = 25.97520 28.19914 27.08717
#
# Velocity S-wave (km/s) = 3.70955 3.86509 3.78812
# Velocity P-wave (km/s) = 6.01040 6.43495 6.22629
#
# Compressibility (1/GPa) = 0.02980021
#
# Stress axis : x y z
#
# Youngs Moduli (GPa) = 61.20734 74.88230 52.36243
#
# Poissons Ratio (x) = 0.22828 0.06606
# Poissons Ratio (y) = 0.18659 0.27149
# Poissons Ratio (z) = 0.07721 0.38825
#
# Static dielectric constant tensor:
#      x y z
#    x 3.369690 0.000000 0.106230 
#    y 0.000000 3.500700 0.000000 
#    z 0.106230 0.000000 3.377020 
# 
# 
# High freq. dielectric constant tensor:
#      x y z
#    x 1.714870 0.000000 0.010670 
#    y 0.000000 1.739670 0.000000 
#    z 0.010670 0.000000 1.723270 
# 
# From -- ./inp_files/55516.got.cif
#   From: 2010.03.12/outbox.cif.g09.slc.cpg/sg5_28_cif.got.tgz:55516.got - 2010.03.31 09:47:26.
