data_PCOD8049836
_publ_section_title
;
Structure prediction by ZEFSAII (Michael W. Deem and Ramdas Pophale) SiO2 
 PCOD8049836
Probable space group: C 2
;
_chemical_formula_sum "Si O2"
_cell_formula_units_Z 28
_cell_length_a 14.435153
_cell_length_b 8.482374
_cell_length_c 18.041436
_cell_angle_alpha 90.000000
_cell_angle_beta 141.116379
_cell_angle_gamma 90.000000
_cell_volume 1386.724216
_symmetry_space_group_name_H-M "C 2"
_symmetry_group_IT_number 5
_symmetry_cell_setting 'monoclinic'
loop_
_space_group_symop_operation_xyz
x,y,z
-x,y,-z
1/2+x,1/2+y,z
1/2-x,1/2+y,-z
loop_
_atom_site_type_symbol
_atom_site_label
_atom_site_fract_x
_atom_site_fract_y
_atom_site_fract_z
Si Si1 0.212512 0.039900 0.232556
Si Si2 0.920256 0.890166 0.088451
Si Si3 0.155354 0.350438 0.560842
Si Si4 0.144668 0.209395 0.883906
Si Si5 0.443106 0.852293 0.881130
Si Si6 0.600949 0.117125 0.257064
Si Si7 0.513796 0.901518 0.685829
O O1 0.193536 0.227332 0.208327
O O2 0.260314 0.998057 0.347301
O O3 0.336745 0.970756 0.256427
O O4 0.050693 0.961317 0.117503
O O5 0.987505 0.760939 0.184507
O O6 0.841922 0.023746 0.091008
O O7 0.799055 0.798796 0.963841
O O8 0.239545 0.186344 0.624310
O O9 0.000000 0.318456 0.500000
O O10 0.124256 0.385415 0.455453
O O11 0.049463 0.235702 0.749460
O O12 0.076526 0.288363 0.914700
O O13 0.388258 0.019238 0.813364
O O14 0.500000 0.877791 0.000000
O O15 0.542152 0.014586 0.286253
#
# Coordination Sequence:
#
# PCOD8049836 Si02
#       7
#     4   4   4   4   4   4   4
#     4   9  21  39  63  85 122 161 200 246 311 361
#     4  10  21  40  57  84 128 156 199 254 306 366
#     4   9  20  43  58  83 120 160 204 249 302 362
#     4  10  21  37  58  88 122 156 203 246 306 365
#     4  10  22  38  60  89 126 156 199 251 304 369
#     4  10  22  40  59  90 121 155 209 253 300 364
#     4  10  21  38  65  88 119 160 205 251 305 362
#
# _framework density 20.191469000000001
#
# number of rings (size 3 to 8) (size 9 to 14) (size 15 to 20)
#    0.000    2.286    0.000    1.714    6.000    4.571 
#   15.429    3.571    0.000    0.000    0.000    0.000 
#    0.000    0.000    0.000    0.000    0.000    0.000 
#
# Total GULP energy -173493.967270 kJ/mol
# GULP energy per Si atom -12392.426234 kJ/mol
# Density = 2.014551 g / cm^3
# Si number density = 20.191469 Si / 1000 Ang^3
#
#
#
# Elastic Constant Matrix: (Units=GPa)
#
#
# Indices 1 2 3 4 5 6 
#
# 1 59.7415 31.7231 51.2607 0.0000 -12.7452 0.0000
# 2 31.7231 136.3717 66.1551 0.0000 -5.1736 0.0000
# 3 51.2607 66.1551 127.3402 0.0000 -13.9790 0.0000
# 4 0.0000 0.0000 0.0000 30.9471 0.0000 9.1573
# 5 -12.7452 -5.1736 -13.9790 0.0000 36.0183 0.0000
# 6 0.0000 0.0000 0.0000 9.1573 0.0000 14.7578
#
#
#
# Elastic Compliance Matrix: (Units=1/GPa)
#
#
# Indices 1 2 3 4 5 6 
#
# 1 0.026782 -0.001452 -0.009410 0.000000 0.005616 0.000000
# 2 -0.001452 0.009895 -0.004655 0.000000 -0.000899 0.000000
# 3 -0.009410 -0.004655 0.014226 0.000000 0.001523 0.000000
# 4 0.000000 0.000000 0.000000 0.039581 0.000000 -0.024560
# 5 0.005616 -0.000899 0.001523 0.000000 0.030213 0.000000
# 6 0.000000 0.000000 0.000000 -0.024560 0.000000 0.083000
#
#
# Mechanical properties :
#
#
# Convention : Reuss Voigt Hill
#
# Bulk Modulus (GPa) = 50.32844 69.08126 59.70485
# Shear Modulus (GPa) = 20.71645 27.96559 24.34102
#
# Velocity S-wave (km/s) = 3.20660 3.72562 3.47581
# Velocity P-wave (km/s) = 6.22008 7.26598 6.76328
#
# Compressibility (1/GPa) = 0.01986948
#
# Stress axis : x y z
#
# Youngs Moduli (GPa) = 37.33783 101.06595 70.29196
#
# Poissons Ratio (x) = 0.14676 0.66147
# Poissons Ratio (y) = 0.05422 0.32717
# Poissons Ratio (z) = 0.35136 0.47041
#
# Static dielectric constant tensor:
#      x y z
#    x 3.587100 0.000000 0.044340 
#    y 0.000000 3.928160 0.000000 
#    z 0.044340 0.000000 4.761930 
# 
# 
# High freq. dielectric constant tensor:
#      x y z
#    x 1.780470 0.000000 0.004400 
#    y 0.000000 1.787670 0.000000 
#    z 0.004400 0.000000 1.792350 
# 
# From -- ./inp_files/61439.got.cif
#   From: 2010.03.12/outbox.cif.g09.slc.cpg/sg5_31_cif.got.tgz:61439.got - 2010.03.31 09:47:26.
