data_PCOD8049090
_publ_section_title
;
Structure prediction by ZEFSAII (Michael W. Deem and Ramdas Pophale) SiO2 
 PCOD8049090
Probable space group: C 2
;
_chemical_formula_sum "Si O2"
_cell_formula_units_Z 24
_cell_length_a 11.605429
_cell_length_b 15.067375
_cell_length_c 14.639145
_cell_angle_alpha 90.000000
_cell_angle_beta 153.409018
_cell_angle_gamma 90.000000
_cell_volume 1145.835804
_symmetry_space_group_name_H-M "C 2"
_symmetry_group_IT_number 5
_symmetry_cell_setting 'monoclinic'
loop_
_space_group_symop_operation_xyz
x,y,z
-x,y,-z
1/2+x,1/2+y,z
1/2-x,1/2+y,-z
loop_
_atom_site_type_symbol
_atom_site_label
_atom_site_fract_x
_atom_site_fract_y
_atom_site_fract_z
Si Si1 0.263416 0.453130 0.275469
Si Si2 0.500000 0.757240 0.500000
Si Si3 0.532737 0.837545 0.257910
Si Si4 0.947110 0.162121 0.637106
Si Si5 0.135236 0.963242 0.385341
Si Si6 0.000000 0.598886 0.000000
Si Si7 0.540297 0.381797 0.129342
O O1 0.500000 0.492550 0.500000
O O2 0.371518 0.432052 0.249873
O O3 0.061170 0.533468 0.128904
O O4 0.147971 0.366195 0.241570
O O5 0.358706 0.696354 0.474940
O O6 0.276874 0.812959 0.291108
O O7 0.634823 0.737736 0.348352
O O8 0.628608 0.905559 0.406021
O O9 0.225958 0.834590 0.033188
O O10 0.258492 0.157542 0.857590
O O11 0.813303 0.068239 0.563314
O O12 0.109290 0.951566 0.258039
O O13 0.500000 0.426190 0.000000
#
# Coordination Sequence:
#
# PCOD8049090 Si02
#       7
#     4   2   4   4   4   2   4
#     4   9  20  38  65  91 128 164 203 263 317 371
#     4  12  24  42  64  98 126 166 224 270 320 368
#     4  11  21  40  63  97 130 168 206 262 329 373
#     4  11  22  38  65  95 128 164 212 271 312 374
#     4  10  23  41  64  97 127 167 218 263 314 381
#     4  10  20  36  58 102 120 162 218 264 308 374
#     4  12  22  42  68  90 131 174 211 263 326 379
#
# _framework density 20.945409999999999
#
# number of rings (size 3 to 8) (size 9 to 14) (size 15 to 20)
#    0.000    1.333    3.333    3.000    9.333    0.000 
#    3.000    0.000   22.000    0.000    0.000    0.000 
#    0.000    0.000    0.000    0.000    0.000    0.000 
#
# Total GULP energy -148697.972506 kJ/mol
# GULP energy per Si atom -12391.497709 kJ/mol
# Density = 2.089774 g / cm^3
# Si number density = 20.945410 Si / 1000 Ang^3
#
#
#
# Elastic Constant Matrix: (Units=GPa)
#
#
# Indices 1 2 3 4 5 6 
#
# 1 99.0773 52.7894 25.0259 0.1516 -26.6119 -0.2518
# 2 52.7894 153.1228 34.3698 0.0496 -10.5003 0.0130
# 3 25.0259 34.3698 98.9523 0.1556 -8.0096 0.0810
# 4 0.1516 0.0496 0.1556 22.3466 0.0944 -1.2933
# 5 -26.6119 -10.5003 -8.0096 0.0944 33.2685 0.1056
# 6 -0.2518 0.0130 0.0810 -1.2933 0.1056 36.3146
#
#
#
# Elastic Compliance Matrix: (Units=1/GPa)
#
#
# Indices 1 2 3 4 5 6 
#
# 1 0.015699 -0.004312 -0.001597 -0.000127 0.010812 0.000078
# 2 -0.004312 0.008360 -0.001916 0.000028 -0.001272 -0.000024
# 3 -0.001597 -0.001916 0.011242 -0.000069 0.000825 -0.000040
# 4 -0.000127 0.000028 -0.000069 0.044844 -0.000242 0.001597
# 5 0.010812 -0.001272 0.000825 -0.000242 0.038505 -0.000047
# 6 0.000078 -0.000024 -0.000040 0.001597 -0.000047 0.027595
#
#
# Mechanical properties :
#
#
# Convention : Reuss Voigt Hill
#
# Bulk Modulus (GPa) = 50.89081 63.94696 57.41888
# Shear Modulus (GPa) = 29.68303 34.31709 32.00006
#
# Velocity S-wave (km/s) = 3.76860 4.05211 3.91293
# Velocity P-wave (km/s) = 6.57922 7.24496 6.92010
#
# Compressibility (1/GPa) = 0.01964991
#
# Stress axis : x y z
#
# Youngs Moduli (GPa) = 63.69987 119.61419 88.94981
#
# Poissons Ratio (x) = 0.51580 0.14207
# Poissons Ratio (y) = 0.27468 0.17045
# Poissons Ratio (z) = 0.10174 0.22921
#
# Static dielectric constant tensor:
#      x y z
#    x 3.945650 -0.000390 -0.120810 
#    y -0.000390 3.680920 -0.000480 
#    z -0.120810 -0.000480 3.999290 
# 
# 
# High freq. dielectric constant tensor:
#      x y z
#    x 1.804880 0.000000 -0.012320 
#    y 0.000000 1.801780 -0.000030 
#    z -0.012320 -0.000030 1.833180 
# 
# From -- ./inp_files/53233.got.cif
#   From: 2010.03.12/outbox.cif.g09.slc.cpg/sg5_27_cif.got.tgz:53233.got - 2010.03.31 09:47:26.
