data_PCOD8049474
_publ_section_title
;
Structure prediction by ZEFSAII (Michael W. Deem and Ramdas Pophale) SiO2 
 PCOD8049474
Probable space group: C 2
;
_chemical_formula_sum "Si O2"
_cell_formula_units_Z 24
_cell_length_a 13.535921
_cell_length_b 6.234610
_cell_length_c 28.161230
_cell_angle_alpha 90.000000
_cell_angle_beta 29.850597
_cell_angle_gamma 90.000000
_cell_volume 1182.908992
_symmetry_space_group_name_H-M "C 2"
_symmetry_group_IT_number 5
_symmetry_cell_setting 'monoclinic'
loop_
_space_group_symop_operation_xyz
x,y,z
-x,y,-z
1/2+x,1/2+y,z
1/2-x,1/2+y,-z
loop_
_atom_site_type_symbol
_atom_site_label
_atom_site_fract_x
_atom_site_fract_y
_atom_site_fract_z
Si Si1 0.720818 0.286320 0.298037
Si Si2 0.026618 0.382594 0.041542
Si Si3 0.451241 0.906277 0.382931
Si Si4 0.973619 0.070342 0.458384
Si Si5 0.221890 0.665773 0.797785
Si Si6 0.047227 0.045979 0.117746
O O1 0.655899 0.402170 0.374070
O O2 0.749397 0.473645 0.249557
O O3 0.926760 0.152001 0.212598
O O4 0.540018 0.138943 0.355956
O O5 0.025167 0.188577 0.079423
O O6 0.845386 0.552915 0.125057
O O7 0.226368 0.521792 0.961979
O O8 0.000000 0.285180 0.000000
O O9 0.473283 0.763866 0.421225
O O10 0.572134 0.800041 0.287979
O O11 0.225148 0.929478 0.462259
O O12 0.000000 0.167945 0.500000
O O13 0.042270 0.813150 0.854537
#
# Coordination Sequence:
#
# PCOD8049474 Si02
#       6
#     4   4   4   4   4   4
#     4   9  20  39  62  85 121 160 190 245 300 338
#     4  11  22  37  63  91 117 159 200 237 295 350
#     4  10  20  40  60  86 126 152 196 251 284 349
#     4  11  22  37  63  91 117 159 200 237 295 350
#     4   9  20  39  62  85 121 160 190 245 300 338
#     4  10  20  40  60  86 126 152 196 251 284 349
#
# _framework density 20.288964
#
# number of rings (size 3 to 8) (size 9 to 14) (size 15 to 20)
#    0.000    2.000    3.333    0.000    0.000    2.667 
#    0.000   15.000    0.000    0.000    0.000    0.000 
#    0.000    0.000    0.000    0.000    0.000    0.000 
#
# Total GULP energy -148678.343890 kJ/mol
# GULP energy per Si atom -12389.861991 kJ/mol
# Density = 2.024279 g / cm^3
# Si number density = 20.288964 Si / 1000 Ang^3
#
#
#
# Elastic Constant Matrix: (Units=GPa)
#
#
# Indices 1 2 3 4 5 6 
#
# 1 78.1092 31.0051 44.7367 0.0039 11.5967 0.0391
# 2 31.0051 98.7109 45.8342 0.1593 -1.2285 -0.0129
# 3 44.7367 45.8342 126.5472 -0.3260 -0.0609 0.2034
# 4 0.0039 0.1593 -0.3260 44.6122 0.0725 -0.9730
# 5 11.5967 -1.2285 -0.0609 0.0725 15.3594 -0.0369
# 6 0.0391 -0.0129 0.2034 -0.9730 -0.0369 19.8083
#
#
#
# Elastic Compliance Matrix: (Units=1/GPa)
#
#
# Indices 1 2 3 4 5 6 
#
# 1 0.019804 -0.003795 -0.005634 -0.000005 -0.015278 -0.000012
# 2 -0.003795 0.012920 -0.003337 -0.000075 0.003886 0.000054
# 3 -0.005634 -0.003337 0.011105 0.000085 0.004030 -0.000093
# 4 -0.000005 -0.000075 0.000085 0.022440 -0.000105 0.001101
# 5 -0.015278 0.003886 0.004030 -0.000105 0.076970 0.000129
# 6 -0.000012 0.000054 -0.000093 0.001101 0.000129 0.050539
#
#
# Mechanical properties :
#
#
# Convention : Reuss Voigt Hill
#
# Bulk Modulus (GPa) = 54.64892 60.72438 57.68665
# Shear Modulus (GPa) = 22.18194 28.07539 25.12867
#
# Velocity S-wave (km/s) = 3.31010 3.72395 3.52311
# Velocity P-wave (km/s) = 6.45002 6.96313 6.71148
#
# Compressibility (1/GPa) = 0.01829862
#
# Stress axis : x y z
#
# Youngs Moduli (GPa) = 50.49468 77.39822 90.05178
#
# Poissons Ratio (x) = 0.29369 0.50736
# Poissons Ratio (y) = 0.19160 0.30046
# Poissons Ratio (z) = 0.28449 0.25824
#
# Static dielectric constant tensor:
#      x y z
#    x 3.060580 -0.000980 0.060720 
#    y -0.000980 3.937710 -0.003360 
#    z 0.060720 -0.003360 4.750980 
# 
# 
# High freq. dielectric constant tensor:
#      x y z
#    x 1.730720 0.000000 -0.000690 
#    y 0.000000 1.807870 -0.000020 
#    z -0.000690 -0.000020 1.830000 
# 
# From -- ./inp_files/53643.got.cif
#   From: 2010.03.12/outbox.cif.g09.slc.cpg/sg5_27_cif.got.tgz:53643.got - 2010.03.31 09:47:26.
