data_PCOD8049629
_publ_section_title
;
Structure prediction by ZEFSAII (Michael W. Deem and Ramdas Pophale) SiO2 
 PCOD8049629
Probable space group: C 2
;
_chemical_formula_sum "Si O2"
_cell_formula_units_Z 32
_cell_length_a 13.786687
_cell_length_b 11.457803
_cell_length_c 16.999869
_cell_angle_alpha 90.000000
_cell_angle_beta 147.583924
_cell_angle_gamma 90.000000
_cell_volume 1439.538289
_symmetry_space_group_name_H-M "C 2"
_symmetry_group_IT_number 5
_symmetry_cell_setting 'monoclinic'
loop_
_space_group_symop_operation_xyz
x,y,z
-x,y,-z
1/2+x,1/2+y,z
1/2-x,1/2+y,-z
loop_
_atom_site_type_symbol
_atom_site_label
_atom_site_fract_x
_atom_site_fract_y
_atom_site_fract_z
Si Si1 0.241771 0.160230 0.795427
Si Si2 0.631324 0.753158 0.947270
Si Si3 0.780947 0.917746 0.159990
Si Si4 0.412921 0.998677 0.517804
Si Si5 0.941145 0.298916 0.659912
Si Si6 0.517247 0.510991 0.184301
Si Si7 0.963828 0.756375 0.563997
Si Si8 0.029737 0.768762 0.909627
O O1 0.334428 0.201381 0.776219
O O2 0.031984 0.197369 0.666205
O O3 0.280389 0.021381 0.823950
O O4 0.352573 0.234350 0.934941
O O5 0.553375 0.817578 0.816812
O O6 0.528764 0.631645 0.892513
O O7 0.613694 0.839867 0.010674
O O8 0.850259 0.736075 0.085226
O O9 0.866507 0.989994 0.146735
O O10 0.917363 0.832092 0.296410
O O11 0.500000 0.938444 0.500000
O O12 0.519206 0.120159 0.606525
O O13 0.440604 0.919324 0.612561
O O14 0.203802 0.024576 0.358324
O O15 0.741161 0.264091 0.547463
O O16 0.517466 0.406657 0.121635
O O17 0.000000 0.802552 0.500000
#
# Coordination Sequence:
#
# PCOD8049629 Si02
#       8
#     4   4   4   4   4   4   4   4
#     4  10  20  42  62  95 140 167 222 283 321 398
#     4  10  22  40  69  98 136 178 222 279 340 404
#     4  11  22  42  68  95 135 183 218 275 346 394
#     4  11  23  41  70  97 135 178 228 280 339 408
#     4  11  21  43  69  93 133 185 219 281 342 388
#     4  11  19  41  65  95 137 170 223 283 327 406
#     4  11  25  45  64  97 139 179 228 281 334 408
#     4   9  20  36  64  95 128 174 214 271 339 382
#
# _framework density 22.22935
#
# number of rings (size 3 to 8) (size 9 to 14) (size 15 to 20)
#    0.000    1.500    5.000    0.750    0.000    3.000 
#    4.500    3.125    0.000    0.000    0.000    0.000 
#    0.000    0.000    0.000    0.000    0.000    0.000 
#
# Total GULP energy -198269.810237 kJ/mol
# GULP energy per Si atom -12391.863140 kJ/mol
# Density = 2.217875 g / cm^3
# Si number density = 22.229350 Si / 1000 Ang^3
#
#
#
# Elastic Constant Matrix: (Units=GPa)
#
#
# Indices 1 2 3 4 5 6 
#
# 1 74.8770 42.8811 22.7760 0.0013 6.1494 0.0000
# 2 42.8811 168.3738 66.4481 0.0047 1.3933 0.0005
# 3 22.7760 66.4481 88.7523 0.0050 1.7837 0.0008
# 4 0.0013 0.0047 0.0050 39.0883 0.0019 -3.7273
# 5 6.1494 1.3933 1.7837 0.0019 12.5767 0.0003
# 6 0.0000 0.0005 0.0008 -3.7273 0.0003 35.9795
#
#
#
# Elastic Compliance Matrix: (Units=1/GPa)
#
#
# Indices 1 2 3 4 5 6 
#
# 1 0.016437 -0.003575 -0.001392 0.000000 -0.007444 0.000000
# 2 -0.003575 0.009208 -0.006008 0.000000 0.001580 0.000000
# 3 -0.001392 -0.006008 0.016142 -0.000001 -0.000943 0.000000
# 4 0.000000 0.000000 -0.000001 0.025838 -0.000004 0.002677
# 5 -0.007444 0.001580 -0.000943 -0.000004 0.083111 -0.000001
# 6 0.000000 0.000000 0.000000 0.002677 -0.000001 0.028071
#
#
# Mechanical properties :
#
#
# Convention : Reuss Voigt Hill
#
# Bulk Modulus (GPa) = 50.41227 66.24595 58.32911
# Shear Modulus (GPa) = 24.11162 30.85542 27.48352
#
# Velocity S-wave (km/s) = 3.29701 3.72969 3.52001
# Velocity P-wave (km/s) = 6.10092 6.95797 6.54349
#
# Compressibility (1/GPa) = 0.01983644
#
# Stress axis : x y z
#
# Youngs Moduli (GPa) = 60.83655 108.60498 61.95204
#
# Poissons Ratio (x) = 0.38831 0.08622
# Poissons Ratio (y) = 0.21752 0.37220
# Poissons Ratio (z) = 0.08467 0.65249
#
# Static dielectric constant tensor:
#      x y z
#    x 4.764640 0.000010 0.415300 
#    y 0.000010 4.156420 0.000000 
#    z 0.415300 0.000000 3.945970 
# 
# 
# High freq. dielectric constant tensor:
#      x y z
#    x 1.877860 0.000000 0.020520 
#    y 0.000000 1.879440 0.000000 
#    z 0.020520 0.000000 1.853020 
# 
# From -- ./inp_files/61730.got.cif
#   From: 2010.03.12/outbox.cif.g09.slc.cpg/sg5_31_cif.got.tgz:61730.got - 2010.03.31 09:47:26.
