data_PCOD8049052
_publ_section_title
;
Structure prediction by ZEFSAII (Michael W. Deem and Ramdas Pophale) SiO2 
 PCOD8049052
Probable space group: C 2
;
_chemical_formula_sum "Si O2"
_cell_formula_units_Z 30
_cell_length_a 6.778820
_cell_length_b 33.122509
_cell_length_c 5.345812
_cell_angle_alpha 90.000000
_cell_angle_beta 76.823868
_cell_angle_gamma 90.000000
_cell_volume 1168.704076
_symmetry_space_group_name_H-M "C 2"
_symmetry_group_IT_number 5
_symmetry_cell_setting 'monoclinic'
loop_
_space_group_symop_operation_xyz
x,y,z
-x,y,-z
1/2+x,1/2+y,z
1/2-x,1/2+y,-z
loop_
_atom_site_type_symbol
_atom_site_label
_atom_site_fract_x
_atom_site_fract_y
_atom_site_fract_z
Si Si1 0.759209 0.125000 0.565256
Si Si2 0.288248 0.427653 0.918669
Si Si3 0.258717 0.582316 0.059442
Si Si4 0.133229 0.842436 0.206974
Si Si5 0.170863 0.499343 0.252765
Si Si6 0.742460 0.717093 0.422093
Si Si7 0.500000 0.479289 0.500000
Si Si8 0.269607 0.755942 0.079610
O O1 0.673207 0.106268 0.329657
O O2 0.689586 0.171018 0.623053
O O3 0.000000 0.122010 0.500000
O O4 0.670468 0.101124 0.829504
O O5 0.219963 0.382117 0.866810
O O6 0.317079 0.451634 0.653226
O O7 0.500000 0.424109 0.000000
O O8 0.137761 0.455098 0.132053
O O9 0.175518 0.536360 0.059598
O O10 0.500000 0.585135 0.000000
O O11 0.271019 0.802890 0.159725
O O12 0.000000 0.845892 0.500000
O O13 0.000000 0.838913 0.000000
O O14 0.394618 0.505150 0.314151
O O15 0.000000 0.506721 0.500000
O O16 0.500000 0.722117 0.500000
O O17 0.837543 0.732301 0.659383
O O18 0.829279 0.744412 0.162944
O O19 0.500000 0.740956 0.000000
#
# Coordination Sequence:
#
# PCOD8049052 Si02
#       8
#     4   4   4   4   4   4   2   4
#     4   9  18  32  58  89 117 161 212 259 310 377
#     4   9  20  40  62  87 117 165 212 263 315 378
#     4  10  20  35  59  89 124 159 212 269 313 376
#     4  11  22  40  63  89 122 164 210 256 315 380
#     4  11  25  41  62  96 128 171 218 266 329 393
#     4   9  17  33  56  86 124 158 204 257 313 369
#     4  10  20  42  68  82 126 170 212 270 318 378
#     4  10  20  35  58  90 125 157 200 262 307 371
#
# _framework density 25.669457000000001
#
# number of rings (size 3 to 8) (size 9 to 14) (size 15 to 20)
#    0.000    2.133    0.667    2.800    4.667    3.733 
#    2.400    0.667    0.000    8.000    0.000    0.000 
#    0.000    0.000    0.000    0.000    0.000    0.000 
#
# Total GULP energy -185931.651925 kJ/mol
# GULP energy per Si atom -12395.443462 kJ/mol
# Density = 2.561103 g / cm^3
# Si number density = 25.669457 Si / 1000 Ang^3
#
#
#
# Elastic Constant Matrix: (Units=GPa)
#
#
# Indices 1 2 3 4 5 6 
#
# 1 26.6195 3.5035 36.4638 0.0000 17.0430 0.0000
# 2 3.5035 219.1065 95.3681 0.0000 -0.5371 0.0000
# 3 36.4638 95.3681 210.4241 0.0000 15.7527 0.0000
# 4 0.0000 0.0000 0.0000 32.7482 0.0000 -0.3490
# 5 17.0430 -0.5371 15.7527 0.0000 42.3458 0.0000
# 6 0.0000 0.0000 0.0000 -0.3490 0.0000 8.7374
#
#
#
# Elastic Compliance Matrix: (Units=1/GPa)
#
#
# Indices 1 2 3 4 5 6 
#
# 1 0.067982 0.004035 -0.011896 0.000000 -0.022884 0.000000
# 2 0.004035 0.005972 -0.003384 0.000000 -0.000289 0.000000
# 3 -0.011896 -0.003384 0.008221 0.000000 0.001687 0.000000
# 4 0.000000 0.000000 0.000000 0.030549 0.000000 0.001220
# 5 -0.022884 -0.000289 0.001687 0.000000 0.032194 0.000000
# 6 0.000000 0.000000 0.000000 0.001220 0.000000 0.114499
#
#
# Mechanical properties :
#
#
# Convention : Reuss Voigt Hill
#
# Bulk Modulus (GPa) = 16.75475 80.75789 48.75632
# Shear Modulus (GPa) = 16.56711 38.15394 27.36053
#
# Velocity S-wave (km/s) = 2.54323 3.85951 3.26832
# Velocity P-wave (km/s) = 3.89427 7.16869 5.76868
#
# Compressibility (1/GPa) = 0.05968458
#
# Stress axis : x y z
#
# Youngs Moduli (GPa) = 14.70975 167.45724 121.63772
#
# Poissons Ratio (x) = -0.67563 1.44699
# Poissons Ratio (y) = -0.05935 0.41162
# Poissons Ratio (z) = 0.17499 0.56667
#
# Static dielectric constant tensor:
#      x y z
#    x 4.275480 0.000000 0.174430 
#    y 0.000000 4.947000 0.000000 
#    z 0.174430 0.000000 5.044480 
# 
# 
# High freq. dielectric constant tensor:
#      x y z
#    x 2.023160 0.000000 0.002670 
#    y 0.000000 2.025400 0.000000 
#    z 0.002670 0.000000 2.045820 
# 
# From -- ./inp_files/3923.got.cif
#   From: 2010.03.12/outbox.cif.g09.slc.cpg/sg5_2_cif.got.tgz:3923.got - 2010.03.31 09:47:26.
