data_PCOD8049026
_publ_section_title
;
Structure prediction by ZEFSAII (Michael W. Deem and Ramdas Pophale) SiO2 
 PCOD8049026
Probable space group: C 2
;
_chemical_formula_sum "Si O2"
_cell_formula_units_Z 28
_cell_length_a 15.009376
_cell_length_b 8.699190
_cell_length_c 12.419542
_cell_angle_alpha 90.000000
_cell_angle_beta 65.858250
_cell_angle_gamma 90.000000
_cell_volume 1479.780257
_symmetry_space_group_name_H-M "C 2"
_symmetry_group_IT_number 5
_symmetry_cell_setting 'monoclinic'
loop_
_space_group_symop_operation_xyz
x,y,z
-x,y,-z
1/2+x,1/2+y,z
1/2-x,1/2+y,-z
loop_
_atom_site_type_symbol
_atom_site_label
_atom_site_fract_x
_atom_site_fract_y
_atom_site_fract_z
Si Si1 0.890314 0.332320 0.547100
Si Si2 0.100330 0.462230 0.892512
Si Si3 0.387546 0.624086 0.744101
Si Si4 0.692789 0.266258 0.908425
Si Si5 0.754788 0.043125 0.256692
Si Si6 0.905378 0.252991 0.301146
Si Si7 0.699287 0.318937 0.147907
O O1 0.881093 0.176595 0.622616
O O2 0.818775 0.461369 0.626165
O O3 0.862584 0.296491 0.438420
O O4 0.000000 0.397736 0.500000
O O5 0.120194 0.644962 0.886663
O O6 0.093018 0.406768 0.772439
O O7 0.188662 0.376360 0.909926
O O8 0.000000 0.418185 0.000000
O O9 0.303484 0.705219 0.855315
O O10 0.488858 0.675891 0.745493
O O11 0.371884 0.440720 0.757375
O O12 0.686257 0.425227 0.847606
O O13 0.659741 0.293828 0.047124
O O14 0.834371 0.128501 0.287003
O O15 0.691418 0.158582 0.214817
#
# Coordination Sequence:
#
# PCOD8049026 Si02
#       7
#     4   4   4   4   4   4   4
#     4   9  20  39  57  74 105 146 181 217 271 331
#     4  10  21  35  54  81 111 146 183 222 271 323
#     4   9  19  37  57  76 105 147 184 217 270 333
#     4  10  20  35  54  79 112 146 179 217 268 331
#     4  10  21  35  55  84 109 138 182 229 273 319
#     4  10  21  37  57  80 109 143 180 230 276 314
#     4  10  20  36  57  80 110 146 181 224 274 327
#
# _framework density 18.921728999999999
#
# number of rings (size 3 to 8) (size 9 to 14) (size 15 to 20)
#    0.000    2.286    0.000    2.571    0.000    9.143 
#    0.000    4.286    0.000    0.000    0.000    0.000 
#    0.000    0.000    0.000    0.000    0.000    0.000 
#
# Total GULP energy -173628.694896 kJ/mol
# GULP energy per Si atom -12402.049635 kJ/mol
# Density = 1.887866 g / cm^3
# Si number density = 18.921729 Si / 1000 Ang^3
#
#
#
# Elastic Constant Matrix: (Units=GPa)
#
#
# Indices 1 2 3 4 5 6 
#
# 1 84.4127 53.8735 60.0848 0.0000 8.3952 0.0000
# 2 53.8735 143.5384 78.8678 0.0000 16.1521 0.0000
# 3 60.0848 78.8678 143.8917 0.0000 18.8886 0.0000
# 4 0.0000 0.0000 0.0000 26.3735 0.0000 0.3755
# 5 8.3952 16.1521 18.8886 0.0000 32.9072 0.0000
# 6 0.0000 0.0000 0.0000 0.3755 0.0000 22.9754
#
#
#
# Elastic Compliance Matrix: (Units=1/GPa)
#
#
# Indices 1 2 3 4 5 6 
#
# 1 0.018203 -0.003825 -0.005561 0.000000 0.000425 0.000000
# 2 -0.003825 0.010884 -0.004104 0.000000 -0.002010 0.000000
# 3 -0.005561 -0.004104 0.011973 0.000000 -0.003439 0.000000
# 4 0.000000 0.000000 0.000000 0.037926 0.000000 -0.000620
# 5 0.000425 -0.002010 -0.003439 0.000000 0.033241 0.000000
# 6 0.000000 0.000000 0.000000 -0.000620 0.000000 0.043535
#
#
# Mechanical properties :
#
#
# Convention : Reuss Voigt Hill
#
# Bulk Modulus (GPa) = 71.02138 84.16610 77.59374
# Shear Modulus (GPa) = 26.67604 28.38566 27.53085
#
# Velocity S-wave (km/s) = 3.75882 3.87739 3.81857
# Velocity P-wave (km/s) = 7.51359 8.03886 7.78066
#
# Compressibility (1/GPa) = 0.01408027
#
# Stress axis : x y z
#
# Youngs Moduli (GPa) = 54.93512 91.88054 83.52319
#
# Poissons Ratio (x) = 0.35141 0.46444
# Poissons Ratio (y) = 0.21011 0.34282
# Poissons Ratio (z) = 0.30547 0.37712
#
# Static dielectric constant tensor:
#      x y z
#    x 3.419660 0.000000 -0.029260 
#    y 0.000000 3.571390 0.000000 
#    z -0.029260 0.000000 3.597110 
# 
# 
# High freq. dielectric constant tensor:
#      x y z
#    x 1.730870 0.000000 0.003160 
#    y 0.000000 1.736830 0.000000 
#    z 0.003160 0.000000 1.738300 
# 
# From -- ./inp_files/41672.got.cif
#   From: 2010.03.12/outbox.cif.g09.slc.cpg/sg5_21_cif.got.tgz:41672.got - 2010.03.31 09:47:26.
