data_PCOD8049454
_publ_section_title
;
Structure prediction by ZEFSAII (Michael W. Deem and Ramdas Pophale) SiO2 
 PCOD8049454
Probable space group: C 2
;
_chemical_formula_sum "Si O2"
_cell_formula_units_Z 22
_cell_length_a 12.154663
_cell_length_b 11.212931
_cell_length_c 10.305058
_cell_angle_alpha 90.000000
_cell_angle_beta 45.391217
_cell_angle_gamma 90.000000
_cell_volume 999.868144
_symmetry_space_group_name_H-M "C 2"
_symmetry_group_IT_number 5
_symmetry_cell_setting 'monoclinic'
loop_
_space_group_symop_operation_xyz
x,y,z
-x,y,-z
1/2+x,1/2+y,z
1/2-x,1/2+y,-z
loop_
_atom_site_type_symbol
_atom_site_label
_atom_site_fract_x
_atom_site_fract_y
_atom_site_fract_z
Si Si1 0.024487 0.244760 0.189207
Si Si2 0.798466 0.709792 0.442685
Si Si3 0.500000 0.212750 0.500000
Si Si4 0.248131 0.580970 0.134746
Si Si5 0.330897 0.845651 0.688634
Si Si6 0.998253 0.519566 0.853658
O O1 0.863190 0.180580 0.353930
O O2 0.897081 0.164023 0.987485
O O3 0.986778 0.377334 0.169719
O O4 0.133011 0.250083 0.227340
O O5 0.920818 0.778523 0.440341
O O6 0.770653 0.791994 0.341897
O O7 0.865140 0.581999 0.341828
O O8 0.643100 0.136784 0.332431
O O9 0.280378 0.448410 0.161657
O O10 0.163330 0.566676 0.067365
O O11 0.500000 0.893652 0.500000
O O12 0.000000 0.560860 0.000000
#
# Coordination Sequence:
#
# PCOD8049454 Si02
#       6
#     4   4   2   4   4   4
#     4  10  22  39  70  96 129 171 217 272 323 382
#     4  10  22  40  67  90 131 172 220 261 329 381
#     4  10  22  38  64  90 134 174 208 266 320 382
#     4  10  20  39  67  96 130 167 221 263 325 386
#     4   9  18  39  69  96 126 171 213 269 325 385
#     4  10  22  41  64  93 132 177 211 268 327 382
#
# _framework density 22.002901000000001
#
# number of rings (size 3 to 8) (size 9 to 14) (size 15 to 20)
#    0.000    2.182    0.909    1.091    5.091    0.000 
#    0.000    9.091   30.000    0.000    0.000    0.000 
#    0.000    0.000    0.000    0.000    0.000    0.000 
#
# Total GULP energy -136288.247147 kJ/mol
# GULP energy per Si atom -12389.840650 kJ/mol
# Density = 2.195282 g / cm^3
# Si number density = 22.002901 Si / 1000 Ang^3
#
#
#
# Elastic Constant Matrix: (Units=GPa)
#
#
# Indices 1 2 3 4 5 6 
#
# 1 146.0619 59.1325 46.6123 0.0000 24.3081 0.0000
# 2 59.1325 105.0244 59.9587 0.0000 -17.5444 0.0000
# 3 46.6123 59.9587 134.1316 0.0000 -10.9372 0.0000
# 4 0.0000 0.0000 0.0000 36.9656 0.0000 -8.2623
# 5 24.3081 -17.5444 -10.9372 0.0000 41.0558 0.0000
# 6 0.0000 0.0000 0.0000 -8.2623 0.0000 24.9355
#
#
#
# Elastic Compliance Matrix: (Units=1/GPa)
#
#
# Indices 1 2 3 4 5 6 
#
# 1 0.012463 -0.007916 -0.001707 0.000000 -0.011216 0.000000
# 2 -0.007916 0.018499 -0.004591 0.000000 0.011369 0.000000
# 3 -0.001707 -0.004591 0.010246 0.000000 0.001778 0.000000
# 4 0.000000 0.000000 0.000000 0.029216 0.000000 0.009681
# 5 -0.011216 0.011369 0.001778 0.000000 0.036330 0.000000
# 6 0.000000 0.000000 0.000000 0.009681 0.000000 0.043311
#
#
# Mechanical properties :
#
#
# Convention : Reuss Voigt Hill
#
# Bulk Modulus (GPa) = 78.25409 79.62498 78.93953
# Shear Modulus (GPa) = 27.35934 35.22567 31.29251
#
# Velocity S-wave (km/s) = 3.53007 4.00554 3.77530
# Velocity P-wave (km/s) = 7.22895 7.59338 7.41341
#
# Compressibility (1/GPa) = 0.01277889
#
# Stress axis : x y z
#
# Youngs Moduli (GPa) = 80.24019 54.05672 97.59990
#
# Poissons Ratio (x) = 0.42792 0.16659
# Poissons Ratio (y) = 0.63519 0.44812
# Poissons Ratio (z) = 0.13696 0.24819
#
# Static dielectric constant tensor:
#      x y z
#    x 4.236810 0.000000 0.263720 
#    y 0.000000 3.631530 0.000000 
#    z 0.263720 0.000000 4.095180 
# 
# 
# High freq. dielectric constant tensor:
#      x y z
#    x 1.877490 0.000000 0.023650 
#    y 0.000000 1.830040 0.000000 
#    z 0.023650 0.000000 1.875330 
# 
# From -- ./inp_files/38256.got.cif
#   From: 2010.03.12/outbox.cif.g09.slc.cpg/sg5_20_cif.got.tgz:38256.got - 2010.03.31 09:47:26.
