data_PCOD8049592
_publ_section_title
;
Structure prediction by ZEFSAII (Michael W. Deem and Ramdas Pophale) SiO2 
 PCOD8049592
Probable space group: C 2
;
_chemical_formula_sum "Si O2"
_cell_formula_units_Z 28
_cell_length_a 16.212103
_cell_length_b 8.761464
_cell_length_c 11.553145
_cell_angle_alpha 90.000000
_cell_angle_beta 119.030588
_cell_angle_gamma 90.000000
_cell_volume 1434.851377
_symmetry_space_group_name_H-M "C 2"
_symmetry_group_IT_number 5
_symmetry_cell_setting 'monoclinic'
loop_
_space_group_symop_operation_xyz
x,y,z
-x,y,-z
1/2+x,1/2+y,z
1/2-x,1/2+y,-z
loop_
_atom_site_type_symbol
_atom_site_label
_atom_site_fract_x
_atom_site_fract_y
_atom_site_fract_z
Si Si1 0.168430 0.344930 0.366813
Si Si2 0.098866 0.163600 0.106310
Si Si3 0.287614 0.722260 0.177226
Si Si4 0.526956 0.421654 0.227185
Si Si5 0.319733 0.474389 0.033030
Si Si6 0.999299 0.198300 0.634187
Si Si7 0.808064 0.700278 0.641596
O O1 0.158414 0.271189 0.232454
O O2 0.190307 0.520695 0.368527
O O3 0.253223 0.266533 0.494141
O O4 0.072057 0.329011 0.373109
O O5 0.072286 0.003015 0.147278
O O6 0.000000 0.244555 0.000000
O O7 0.161677 0.119622 0.038635
O O8 0.270198 0.552349 0.112036
O O9 0.399300 0.748024 0.252024
O O10 0.244147 0.741480 0.274570
O O11 0.249653 0.853406 0.068535
O O12 0.416774 0.385529 0.130705
O O13 0.536251 0.535996 0.341686
O O14 0.585606 0.266980 0.288671
O O15 0.000000 0.179892 0.500000
#
# Coordination Sequence:
#
# PCOD8049592 Si02
#       7
#     4   4   4   4   4   4   4
#     4  11  24  39  65  94 126 164 213 257 315 374
#     4   9  18  39  63  87 124 168 204 249 309 371
#     4  11  24  39  66  90 129 166 208 260 314 367
#     4   9  20  40  63  88 118 167 205 256 307 371
#     4  10  22  40  62  93 127 167 206 258 316 367
#     4  10  20  41  64  85 125 166 200 252 319 371
#     4  12  24  41  66  95 123 165 215 264 307 372
#
# _framework density 19.514216000000001
#
# number of rings (size 3 to 8) (size 9 to 14) (size 15 to 20)
#    0.000    1.714    2.857    2.571    2.000    1.143 
#    2.571    0.714    0.000    0.000    0.000    0.000 
#    0.000    0.000    0.000    0.000    0.000    0.000 
#
# Total GULP energy -173588.762214 kJ/mol
# GULP energy per Si atom -12399.197301 kJ/mol
# Density = 1.946980 g / cm^3
# Si number density = 19.514216 Si / 1000 Ang^3
#
#
#
# Elastic Constant Matrix: (Units=GPa)
#
#
# Indices 1 2 3 4 5 6 
#
# 1 65.5644 18.7683 28.4569 0.0000 6.5520 0.0000
# 2 18.7683 83.7741 49.5728 0.0000 24.2550 0.0000
# 3 28.4569 49.5728 130.2766 0.0000 14.0507 0.0000
# 4 0.0000 0.0000 0.0000 27.8164 0.0000 8.4935
# 5 6.5520 24.2550 14.0507 0.0000 14.1008 0.0000
# 6 0.0000 0.0000 0.0000 8.4935 0.0000 23.6331
#
#
#
# Elastic Compliance Matrix: (Units=1/GPa)
#
#
# Indices 1 2 3 4 5 6 
#
# 1 0.017187 -0.001275 -0.002963 0.000000 -0.002841 0.000000
# 2 -0.001275 0.027490 -0.005766 0.000000 -0.040949 0.000000
# 3 -0.002963 -0.005766 0.010419 0.000000 0.000913 0.000000
# 4 0.000000 0.000000 0.000000 0.040381 0.000000 -0.014513
# 5 -0.002841 -0.040949 0.000913 0.000000 0.141766 0.000000
# 6 0.000000 0.000000 0.000000 -0.014513 0.000000 0.047529
#
#
# Mechanical properties :
#
#
# Convention : Reuss Voigt Hill
#
# Bulk Modulus (GPa) = 28.49850 52.57901 40.53876
# Shear Modulus (GPa) = 15.79902 25.29786 20.54844
#
# Velocity S-wave (km/s) = 2.84846 3.60443 3.24851
# Velocity P-wave (km/s) = 5.04519 6.65771 5.90673
#
# Compressibility (1/GPa) = 0.03508957
#
# Stress axis : x y z
#
# Youngs Moduli (GPa) = 58.18383 36.37670 95.98168
#
# Poissons Ratio (x) = 0.04637 0.28437
# Poissons Ratio (y) = 0.07417 0.55340
# Poissons Ratio (z) = 0.17238 0.20973
#
# Static dielectric constant tensor:
#      x y z
#    x 3.714840 0.000000 0.009280 
#    y 0.000000 3.272580 0.000000 
#    z 0.009280 0.000000 4.274200 
# 
# 
# High freq. dielectric constant tensor:
#      x y z
#    x 1.760160 0.000000 -0.001800 
#    y 0.000000 1.736670 0.000000 
#    z -0.001800 0.000000 1.781930 
# 
# From -- ./inp_files/41696.got.cif
#   From: 2010.03.12/outbox.cif.g09.slc.cpg/sg5_21_cif.got.tgz:41696.got - 2010.03.31 09:47:26.
