data_PCOD8049828
_publ_section_title
;
Structure prediction by ZEFSAII (Michael W. Deem and Ramdas Pophale) SiO2 
 PCOD8049828
Probable space group: C 2
;
_chemical_formula_sum "Si O2"
_cell_formula_units_Z 24
_cell_length_a 8.571485
_cell_length_b 17.043419
_cell_length_c 9.235376
_cell_angle_alpha 90.000000
_cell_angle_beta 95.653290
_cell_angle_gamma 90.000000
_cell_volume 1342.610072
_symmetry_space_group_name_H-M "C 2"
_symmetry_group_IT_number 5
_symmetry_cell_setting 'monoclinic'
loop_
_space_group_symop_operation_xyz
x,y,z
-x,y,-z
1/2+x,1/2+y,z
1/2-x,1/2+y,-z
loop_
_atom_site_type_symbol
_atom_site_label
_atom_site_fract_x
_atom_site_fract_y
_atom_site_fract_z
Si Si1 0.141243 0.572250 0.910713
Si Si2 0.091835 0.050528 0.655211
Si Si3 0.897956 0.349770 0.850432
Si Si4 0.136362 0.946569 0.910443
Si Si5 0.577234 0.669762 0.159447
Si Si6 0.938676 0.494573 0.655553
O O1 0.245175 0.640614 0.847344
O O2 0.072554 0.532450 0.763294
O O3 0.244055 0.511788 0.015318
O O4 0.000000 0.604964 0.000000
O O5 0.000000 0.034809 0.500000
O O6 0.025477 0.130332 0.722192
O O7 0.050969 0.980266 0.760439
O O8 0.280107 0.047730 0.646879
O O9 0.720479 0.364461 0.885342
O O10 0.924076 0.261357 0.801764
O O11 0.920685 0.406645 0.715377
O O12 0.000000 0.372863 0.000000
O O13 0.000000 0.920729 0.000000
O O14 0.500000 0.650347 0.000000
O O15 0.000000 0.488331 0.500000
#
# Coordination Sequence:
#
# PCOD8049828 Si02
#       6
#     4   4   4   4   4   4
#     4  12  18  36  61  85 110 145 193 240 269 331
#     4  11  21  36  57  87 112 149 191 233 278 336
#     4  10  21  37  57  83 117 147 188 228 288 339
#     4  11  19  36  60  85 109 148 189 238 273 330
#     4  11  21  36  58  86 115 151 185 232 287 337
#     4  11  22  36  60  85 111 152 193 234 279 331
#
# _framework density 17.875629
#
# number of rings (size 3 to 8) (size 9 to 14) (size 15 to 20)
#    0.000    1.000    8.333    1.000    0.000    1.333 
#    0.000    0.000    0.000   12.000    0.000    0.000 
#    0.000    0.000    0.000    0.000    0.000    0.000 
#
# Total GULP energy -148691.933401 kJ/mol
# GULP energy per Si atom -12390.994450 kJ/mol
# Density = 1.783494 g / cm^3
# Si number density = 17.875629 Si / 1000 Ang^3
#
#
#
# Elastic Constant Matrix: (Units=GPa)
#
#
# Indices 1 2 3 4 5 6 
#
# 1 117.5709 58.9468 61.1266 0.0000 -21.3483 0.0000
# 2 58.9468 80.8644 50.8189 0.0000 -4.7639 0.0000
# 3 61.1266 50.8189 140.9594 0.0000 -4.7978 0.0000
# 4 0.0000 0.0000 0.0000 20.6927 0.0000 -2.8185
# 5 -21.3483 -4.7639 -4.7978 0.0000 40.1612 0.0000
# 6 0.0000 0.0000 0.0000 -2.8185 0.0000 29.7940
#
#
#
# Elastic Compliance Matrix: (Units=1/GPa)
#
#
# Indices 1 2 3 4 5 6 
#
# 1 0.016229 -0.009232 -0.003467 0.000000 0.007118 0.000000
# 2 -0.009232 0.021300 -0.003772 0.000000 -0.002832 0.000000
# 3 -0.003467 -0.003772 0.009920 0.000000 -0.001105 0.000000
# 4 0.000000 0.000000 0.000000 0.048957 0.000000 0.004631
# 5 0.007118 -0.002832 -0.001105 0.000000 0.028215 0.000000
# 6 0.000000 0.000000 0.000000 0.004631 0.000000 0.034002
#
#
# Mechanical properties :
#
#
# Convention : Reuss Voigt Hill
#
# Bulk Modulus (GPa) = 68.93393 75.68656 72.31025
# Shear Modulus (GPa) = 25.45805 29.36308 27.41057
#
# Velocity S-wave (km/s) = 3.77792 4.05734 3.92012
# Velocity P-wave (km/s) = 7.59454 8.02383 7.81213
#
# Compressibility (1/GPa) = 0.01450664
#
# Stress axis : x y z
#
# Youngs Moduli (GPa) = 61.61691 46.94841 100.80688
#
# Poissons Ratio (x) = 0.43344 0.34951
# Poissons Ratio (y) = 0.56887 0.38023
# Poissons Ratio (z) = 0.21363 0.17709
#
# Static dielectric constant tensor:
#      x y z
#    x 3.521610 0.000000 0.047120 
#    y 0.000000 3.100800 0.000000 
#    z 0.047120 0.000000 3.366270 
# 
# 
# High freq. dielectric constant tensor:
#      x y z
#    x 1.707320 0.000000 -0.002680 
#    y 0.000000 1.666950 0.000000 
#    z -0.002680 0.000000 1.698640 
# 
# From -- ./inp_files/15063.got.cif
#   From: 2010.03.12/outbox.cif.g09.slc.cpg/sg5_8_cif.got.tgz:15063.got - 2010.03.31 09:47:26.
