data_PCOD8049100
_publ_section_title
;
Structure prediction by ZEFSAII (Michael W. Deem and Ramdas Pophale) SiO2 
 PCOD8049100
Probable space group: C 2
;
_chemical_formula_sum "Si O2"
_cell_formula_units_Z 30
_cell_length_a 11.263667
_cell_length_b 8.596953
_cell_length_c 14.606645
_cell_angle_alpha 90.000000
_cell_angle_beta 88.626338
_cell_angle_gamma 90.000000
_cell_volume 1414.001928
_symmetry_space_group_name_H-M "C 2"
_symmetry_group_IT_number 5
_symmetry_cell_setting 'monoclinic'
loop_
_space_group_symop_operation_xyz
x,y,z
-x,y,-z
1/2+x,1/2+y,z
1/2-x,1/2+y,-z
loop_
_atom_site_type_symbol
_atom_site_label
_atom_site_fract_x
_atom_site_fract_y
_atom_site_fract_z
Si Si1 0.076834 0.196640 0.233167
Si Si2 0.726384 0.417279 0.228944
Si Si3 0.869734 0.620774 0.842926
Si Si4 0.877896 0.567562 0.083881
Si Si5 0.500000 0.863059 0.500000
Si Si6 0.351674 0.707252 0.352765
Si Si7 0.805005 0.335437 0.936008
Si Si8 0.153194 0.475369 0.339423
O O1 0.093824 0.245756 0.126217
O O2 0.160055 0.300732 0.299077
O O3 0.940106 0.208906 0.264213
O O4 0.110195 0.018780 0.249804
O O5 0.690830 0.288485 0.153412
O O6 0.827708 0.531016 0.185932
O O7 0.761000 0.344160 0.326073
O O8 0.772153 0.490771 0.876682
O O9 0.908701 0.582736 0.737623
O O10 0.982223 0.610678 0.910737
O O11 0.806115 0.718192 0.044022
O O12 0.859137 0.406998 0.028008
O O13 0.412253 0.747474 0.447400
O O14 0.571834 0.976555 0.431322
O O15 0.283353 0.542659 0.362399
#
# Coordination Sequence:
#
# PCOD8049100 Si02
#       8
#     4   4   4   4   2   4   4   4
#     4   9  20  38  58  84 114 151 195 235 285 343
#     4  10  21  36  59  85 110 150 194 233 285 339
#     4  10  21  38  57  81 111 149 191 232 283 342
#     4  11  21  37  56  81 117 150 190 242 286 333
#     4  10  20  36  58  88 118 148 188 236 288 344
#     4  10  21  39  60  84 119 153 189 237 287 344
#     4  10  21  36  57  83 113 153 192 236 289 335
#     4   9  20  39  61  84 115 152 189 234 289 343
#
# _framework density 21.216380000000001
#
# number of rings (size 3 to 8) (size 9 to 14) (size 15 to 20)
#    0.000    2.133    0.000    3.600    0.000    6.400 
#    0.000   10.667    0.000    1.600    0.000    0.000 
#    0.000    0.000    0.000    0.000    0.000    0.000 
#
# Total GULP energy -185871.267854 kJ/mol
# GULP energy per Si atom -12391.417857 kJ/mol
# Density = 2.116809 g / cm^3
# Si number density = 21.216380 Si / 1000 Ang^3
#
#
#
# Elastic Constant Matrix: (Units=GPa)
#
#
# Indices 1 2 3 4 5 6 
#
# 1 86.2343 45.5455 31.2096 0.0000 13.1478 0.0000
# 2 45.5455 116.2507 18.1690 0.0000 10.5697 0.0000
# 3 31.2096 18.1690 87.9575 0.0000 16.3003 0.0000
# 4 0.0000 0.0000 0.0000 22.3733 0.0000 3.4618
# 5 13.1478 10.5697 16.3003 0.0000 36.6909 0.0000
# 6 0.0000 0.0000 0.0000 3.4618 0.0000 36.9849
#
#
#
# Elastic Compliance Matrix: (Units=1/GPa)
#
#
# Indices 1 2 3 4 5 6 
#
# 1 0.016431 -0.005557 -0.004237 0.000000 -0.002405 0.000000
# 2 -0.005557 0.010892 -0.000072 0.000000 -0.001115 0.000000
# 3 -0.004237 -0.000072 0.013733 0.000000 -0.004562 0.000000
# 4 0.000000 0.000000 0.000000 0.045353 0.000000 -0.004245
# 5 -0.002405 -0.001115 -0.004562 0.000000 0.030464 0.000000
# 6 0.000000 0.000000 0.000000 -0.004245 0.000000 0.027435
#
#
# Mechanical properties :
#
#
# Convention : Reuss Voigt Hill
#
# Bulk Modulus (GPa) = 46.89229 53.36565 50.12897
# Shear Modulus (GPa) = 29.21470 32.24436 30.72953
#
# Velocity S-wave (km/s) = 3.71480 3.90267 3.80990
# Velocity P-wave (km/s) = 6.36786 6.74651 6.55992
#
# Compressibility (1/GPa) = 0.02132547
#
# Stress axis : x y z
#
# Youngs Moduli (GPa) = 60.86005 91.81328 72.81918
#
# Poissons Ratio (x) = 0.51018 0.30851
# Poissons Ratio (y) = 0.33818 0.00522
# Poissons Ratio (z) = 0.25784 0.00658
#
# Static dielectric constant tensor:
#      x y z
#    x 3.671200 0.000000 -0.097420 
#    y 0.000000 3.966410 0.000000 
#    z -0.097420 0.000000 3.844060 
# 
# 
# High freq. dielectric constant tensor:
#      x y z
#    x 1.809530 0.000000 -0.007490 
#    y 0.000000 1.831390 0.000000 
#    z -0.007490 0.000000 1.833010 
# 
# From -- ./inp_files/52278.got.cif
#   From: 2010.03.12/outbox.cif.g09.slc.cpg/sg5_27_cif.got.tgz:52278.got - 2010.03.31 09:47:26.
