data_PCOD8049788
_publ_section_title
;
Structure prediction by ZEFSAII (Michael W. Deem and Ramdas Pophale) SiO2 
 PCOD8049788
Probable space group: C 2
;
_chemical_formula_sum "Si O2"
_cell_formula_units_Z 28
_cell_length_a 16.758361
_cell_length_b 13.231549
_cell_length_c 7.747245
_cell_angle_alpha 90.000000
_cell_angle_beta 50.910812
_cell_angle_gamma 90.000000
_cell_volume 1333.348888
_symmetry_space_group_name_H-M "C 2"
_symmetry_group_IT_number 5
_symmetry_cell_setting 'monoclinic'
loop_
_space_group_symop_operation_xyz
x,y,z
-x,y,-z
1/2+x,1/2+y,z
1/2-x,1/2+y,-z
loop_
_atom_site_type_symbol
_atom_site_label
_atom_site_fract_x
_atom_site_fract_y
_atom_site_fract_z
Si Si1 0.858321 0.081740 0.976838
Si Si2 0.562646 0.619272 0.580456
Si Si3 0.598928 0.303476 0.595172
Si Si4 0.111607 0.603617 0.784490
Si Si5 0.624107 0.366386 0.172442
Si Si6 0.260069 0.711539 0.833441
Si Si7 0.708938 0.483594 0.577716
O O1 0.816597 0.045122 0.215515
O O2 0.783140 0.160816 0.988042
O O3 0.972204 0.134920 0.846424
O O4 0.865827 0.986276 0.837151
O O5 0.500000 0.583212 0.500000
O O6 0.636486 0.715082 0.429362
O O7 0.637417 0.528093 0.524958
O O8 0.607353 0.186755 0.637845
O O9 0.630289 0.317413 0.353435
O O10 0.481679 0.338690 0.782206
O O11 0.677659 0.365135 0.616267
O O12 0.169809 0.647582 0.870006
O O13 0.171606 0.504517 0.630357
O O14 0.000000 0.567974 0.000000
O O15 0.719330 0.323799 0.928413
#
# Coordination Sequence:
#
# PCOD8049788 Si02
#       7
#     4   4   4   4   4   4   4
#     4  11  21  36  60  90 124 161 200 249 305 358
#     4   9  18  33  55  84 118 153 193 242 295 346
#     4  11  22  36  61  92 117 158 205 253 301 356
#     4  11  22  39  60  88 123 162 200 251 307 360
#     4  11  21  36  61  92 122 152 204 258 298 357
#     4  10  21  36  57  87 125 156 196 251 306 354
#     4  11  22  35  60  92 125 156 205 253 302 358
#
# _framework density 20.999756999999999
#
# number of rings (size 3 to 8) (size 9 to 14) (size 15 to 20)
#    0.000    1.429    2.857    4.714    2.000    0.000 
#    0.000    0.000    0.000   32.571    0.000    0.000 
#    0.000    0.000    0.000    0.000    0.000    0.000 
#
# Total GULP energy -173467.228037 kJ/mol
# GULP energy per Si atom -12390.516288 kJ/mol
# Density = 2.095196 g / cm^3
# Si number density = 20.999757 Si / 1000 Ang^3
#
#
#
# Elastic Constant Matrix: (Units=GPa)
#
#
# Indices 1 2 3 4 5 6 
#
# 1 77.0113 9.3927 39.0242 0.0000 -13.1721 0.0000
# 2 9.3927 57.9699 31.7995 0.0000 -14.8902 0.0000
# 3 39.0242 31.7995 144.9584 0.0000 -22.7655 0.0000
# 4 0.0000 0.0000 0.0000 33.9422 0.0000 -5.4316
# 5 -13.1721 -14.8902 -22.7655 0.0000 27.0409 0.0000
# 6 0.0000 0.0000 0.0000 -5.4316 0.0000 23.7474
#
#
#
# Elastic Compliance Matrix: (Units=1/GPa)
#
#
# Indices 1 2 3 4 5 6 
#
# 1 0.015554 0.000710 -0.003563 0.000000 0.004968 0.000000
# 2 0.000710 0.021391 -0.003433 0.000000 0.009234 0.000000
# 3 -0.003563 -0.003433 0.009267 0.000000 0.004175 0.000000
# 4 0.000000 0.000000 0.000000 0.030581 0.000000 0.006995
# 5 0.004968 0.009234 0.004175 0.000000 0.048001 0.000000
# 6 0.000000 0.000000 0.000000 0.006995 0.000000 0.043710
#
#
# Mechanical properties :
#
#
# Convention : Reuss Voigt Hill
#
# Bulk Modulus (GPa) = 29.72732 48.93027 39.32879
# Shear Modulus (GPa) = 26.00274 30.26100 28.13187
#
# Velocity S-wave (km/s) = 3.52268 3.80019 3.66406
# Velocity P-wave (km/s) = 5.54369 6.52735 6.05552
#
# Compressibility (1/GPa) = 0.03363909
#
# Stress axis : x y z
#
# Youngs Moduli (GPa) = 64.29380 46.74952 107.91456
#
# Poissons Ratio (x) = -0.03321 0.38448
# Poissons Ratio (y) = -0.04567 0.37052
# Poissons Ratio (z) = 0.22906 0.16051
#
# Static dielectric constant tensor:
#      x y z
#    x 3.883080 0.000000 -0.216460 
#    y 0.000000 3.524250 0.000000 
#    z -0.216460 0.000000 4.247320 
# 
# 
# High freq. dielectric constant tensor:
#      x y z
#    x 1.828750 0.000000 0.003240 
#    y 0.000000 1.783230 0.000000 
#    z 0.003240 0.000000 1.831870 
# 
# From -- ./inp_files/27672.got.cif
#   From: 2010.03.12/outbox.cif.g09.slc.cpg/sg5_14_cif.got.tgz:27672.got - 2010.03.31 09:47:26.
