data_PCOD8049074
_publ_section_title
;
Structure prediction by ZEFSAII (Michael W. Deem and Ramdas Pophale) SiO2 
 PCOD8049074
Probable space group: C 2
;
_chemical_formula_sum "Si O2"
_cell_formula_units_Z 22
_cell_length_a 13.424942
_cell_length_b 7.703909
_cell_length_c 21.664690
_cell_angle_alpha 90.000000
_cell_angle_beta 156.825893
_cell_angle_gamma 90.000000
_cell_volume 881.759240
_symmetry_space_group_name_H-M "C 2"
_symmetry_group_IT_number 5
_symmetry_cell_setting 'monoclinic'
loop_
_space_group_symop_operation_xyz
x,y,z
-x,y,-z
1/2+x,1/2+y,z
1/2-x,1/2+y,-z
loop_
_atom_site_type_symbol
_atom_site_label
_atom_site_fract_x
_atom_site_fract_y
_atom_site_fract_z
Si Si1 0.557954 0.227480 0.331091
Si Si2 0.381129 0.509099 0.305016
Si Si3 0.414599 0.432121 0.043889
Si Si4 0.871579 0.321016 0.002548
Si Si5 0.599603 0.853344 0.746066
Si Si6 0.000000 0.154530 0.500000
O O1 0.572590 0.347416 0.400257
O O2 0.281386 0.287162 0.148018
O O3 0.780655 0.268892 0.408367
O O4 0.577882 0.023956 0.361753
O O5 0.512572 0.665925 0.338581
O O6 0.377150 0.536415 0.376446
O O7 0.088207 0.467557 0.120025
O O8 0.335857 0.378393 0.066569
O O9 0.677349 0.344314 0.177408
O O10 0.483576 0.635069 0.083843
O O11 0.201309 0.367695 0.873907
#
# Coordination Sequence:
#
# PCOD8049074 Si02
#       6
#     4   4   4   4   4   2
#     4  11  26  50  74 111 159 204 259 325 382 469
#     4  12  26  48  79 106 158 210 256 319 397 456
#     4  10  20  35  66 109 153 181 250 319 377 445
#     4  11  22  43  70 116 150 193 259 322 377 461
#     4  10  22  42  69 106 148 201 250 309 385 456
#     4  12  30  54  76 118 160 204 272 316 386 490
#
# _framework density 24.950122
#
# number of rings (size 3 to 8) (size 9 to 14) (size 15 to 20)
#    0.000    1.091    1.818    4.909   10.182    0.000 
#    0.000    1.818    0.000    0.000    0.000    0.000 
#    0.000    0.000    0.000    0.000    0.000    0.000 
#
# Total GULP energy -136292.849454 kJ/mol
# GULP energy per Si atom -12390.259041 kJ/mol
# Density = 2.489333 g / cm^3
# Si number density = 24.950122 Si / 1000 Ang^3
#
#
#
# Elastic Constant Matrix: (Units=GPa)
#
#
# Indices 1 2 3 4 5 6 
#
# 1 117.2979 36.9601 10.5889 -0.0003 -1.9464 0.0013
# 2 36.9601 105.0452 34.1994 -0.0016 -8.4768 0.0051
# 3 10.5889 34.1994 66.5250 0.0679 -2.1695 -0.0131
# 4 -0.0003 -0.0016 0.0679 49.3359 0.0053 6.8172
# 5 -1.9464 -8.4768 -2.1695 0.0053 30.3342 -0.0018
# 6 0.0013 0.0051 -0.0131 6.8172 -0.0018 50.9741
#
#
#
# Elastic Compliance Matrix: (Units=1/GPa)
#
#
# Indices 1 2 3 4 5 6 
#
# 1 0.009595 -0.003486 0.000254 0.000000 -0.000340 0.000000
# 2 -0.003486 0.012939 -0.006000 0.000009 0.002963 -0.000004
# 3 0.000254 -0.006000 0.018064 -0.000026 -0.000368 0.000009
# 4 0.000000 0.000009 -0.000026 0.020651 -0.000003 -0.002762
# 5 -0.000340 0.002963 -0.000368 -0.000003 0.033746 0.000001
# 6 0.000000 -0.000004 0.000009 -0.002762 0.000001 0.019987
#
#
# Mechanical properties :
#
#
# Convention : Reuss Voigt Hill
#
# Bulk Modulus (GPa) = 45.18101 50.26276 47.72188
# Shear Modulus (GPa) = 35.50507 39.93681 37.72094
#
# Velocity S-wave (km/s) = 3.77642 4.00517 3.89247
# Velocity P-wave (km/s) = 6.09614 6.44807 6.27457
#
# Compressibility (1/GPa) = 0.02213319
#
# Stress axis : x y z
#
# Youngs Moduli (GPa) = 104.21858 77.28652 55.35830
#
# Poissons Ratio (x) = 0.26943 -0.01405
# Poissons Ratio (y) = 0.36332 0.33216
# Poissons Ratio (z) = -0.02645 0.46373
#
# Static dielectric constant tensor:
#      x y z
#    x 4.414340 0.000010 0.043570 
#    y 0.000010 4.657170 -0.000040 
#    z 0.043570 -0.000040 4.410970 
# 
# 
# High freq. dielectric constant tensor:
#      x y z
#    x 2.000310 0.000000 0.008610 
#    y 0.000000 1.994490 0.000000 
#    z 0.008610 0.000000 1.999160 
# 
# From -- ./inp_files/68742.got.cif
#   From: 2010.03.12/outbox.cif.g09.slc.cpg/sg5_35_cif.got.tgz:68742.got - 2010.03.31 09:47:26.
