data_PCOD8049837
_publ_section_title
;
Structure prediction by ZEFSAII (Michael W. Deem and Ramdas Pophale) SiO2 
 PCOD8049837
Probable space group: C 2
;
_chemical_formula_sum "Si O2"
_cell_formula_units_Z 32
_cell_length_a 14.232953
_cell_length_b 27.292517
_cell_length_c 8.827110
_cell_angle_alpha 90.000000
_cell_angle_beta 28.679514
_cell_angle_gamma 90.000000
_cell_volume 1645.571672
_symmetry_space_group_name_H-M "C 2"
_symmetry_group_IT_number 5
_symmetry_cell_setting 'monoclinic'
loop_
_space_group_symop_operation_xyz
x,y,z
-x,y,-z
1/2+x,1/2+y,z
1/2-x,1/2+y,-z
loop_
_atom_site_type_symbol
_atom_site_label
_atom_site_fract_x
_atom_site_fract_y
_atom_site_fract_z
Si Si1 0.462581 0.223160 0.879955
Si Si2 0.556827 0.474081 0.756697
Si Si3 0.557591 0.036907 0.751477
Si Si4 0.176691 0.034763 0.135441
Si Si5 0.299051 0.794531 0.364419
Si Si6 0.211515 0.313693 0.263751
Si Si7 0.533337 0.374311 0.630942
Si Si8 0.069689 0.623158 0.238045
O O1 0.659994 0.247516 0.534450
O O2 0.397326 0.173242 0.895731
O O3 0.500000 0.211060 0.000000
O O4 0.284356 0.260735 0.104925
O O5 0.756231 0.502919 0.503013
O O6 0.385387 0.509703 0.935030
O O7 0.586995 0.429590 0.599616
O O8 0.500000 0.452839 0.000000
O O9 0.594688 0.088135 0.608849
O O10 0.500000 0.053412 0.000000
O O11 0.373008 0.009298 0.929198
O O12 0.000000 0.028363 0.500000
O O13 0.225914 0.092477 0.041137
O O14 0.300137 0.812161 0.537680
O O15 0.223895 0.841358 0.380279
O O16 0.500000 0.779172 0.000000
O O17 0.000000 0.325994 0.500000
O O18 0.357436 0.354781 0.988188
O O19 0.500000 0.373737 0.500000
O O20 0.000000 0.638878 0.500000
#
# Coordination Sequence:
#
# PCOD8049837 Si02
#       8
#     4   4   4   4   4   4   4   4
#     4   9  20  38  62  87 124 161 203 249 303 369
#     4  12  23  41  64  90 125 165 205 259 313 366
#     4  10  22  40  64  85 123 166 203 256 307 363
#     4  10  22  41  61  90 122 161 212 251 303 373
#     4  10  21  41  64  90 123 163 202 253 312 371
#     4  10  21  41  63  92 123 158 207 254 310 373
#     4  11  24  41  62  90 123 159 208 258 307 370
#     4  10  21  37  58  90 123 159 205 256 305 363
#
# _framework density 19.446128999999999
#
# number of rings (size 3 to 8) (size 9 to 14) (size 15 to 20)
#    0.750    1.000    1.250    4.125    0.000    4.000 
#    4.500    4.375    0.000    0.000    0.000    0.000 
#    0.000    0.000    0.000    0.000    0.000    0.000 
#
# Total GULP energy -198272.054463 kJ/mol
# GULP energy per Si atom -12392.003404 kJ/mol
# Density = 1.940187 g / cm^3
# Si number density = 19.446129 Si / 1000 Ang^3
#
#
#
# Elastic Constant Matrix: (Units=GPa)
#
#
# Indices 1 2 3 4 5 6 
#
# 1 105.6878 45.3635 35.8659 0.0000 -5.7414 0.0000
# 2 45.3635 125.3291 30.7003 0.0000 -3.1394 0.0000
# 3 35.8659 30.7003 80.0627 0.0001 1.1141 -0.0001
# 4 0.0000 0.0000 0.0001 15.5627 0.0000 4.1850
# 5 -5.7414 -3.1394 1.1141 0.0000 38.6982 0.0000
# 6 0.0000 0.0000 -0.0001 4.1850 0.0000 43.6668
#
#
#
# Elastic Compliance Matrix: (Units=1/GPa)
#
#
# Indices 1 2 3 4 5 6 
#
# 1 0.012483 -0.003422 -0.004304 0.000000 0.001698 0.000000
# 2 -0.003422 0.009770 -0.002218 0.000000 0.000349 0.000000
# 3 -0.004304 -0.002218 0.015286 0.000000 -0.001259 0.000000
# 4 0.000000 0.000000 0.000000 0.065956 0.000000 -0.006321
# 5 0.001698 0.000349 -0.001259 0.000000 0.026158 0.000000
# 6 0.000000 0.000000 0.000000 -0.006321 0.000000 0.023507
#
#
# Mechanical properties :
#
#
# Convention : Reuss Voigt Hill
#
# Bulk Modulus (GPa) = 56.65116 59.43767 58.04441
# Shear Modulus (GPa) = 27.94387 32.86220 30.40303
#
# Velocity S-wave (km/s) = 3.79488 4.11531 3.95834
# Velocity P-wave (km/s) = 6.95680 7.29470 7.12775
#
# Compressibility (1/GPa) = 0.01765189
#
# Stress axis : x y z
#
# Youngs Moduli (GPa) = 80.10755 102.35865 65.41812
#
# Poissons Ratio (x) = 0.35023 0.28154
# Poissons Ratio (y) = 0.27409 0.14511
# Poissons Ratio (z) = 0.34476 0.22706
#
# Static dielectric constant tensor:
#      x y z
#    x 3.769510 0.000000 0.050130 
#    y 0.000000 3.387360 0.000000 
#    z 0.050130 0.000000 3.489150 
# 
# 
# High freq. dielectric constant tensor:
#      x y z
#    x 1.770980 0.000000 0.010550 
#    y 0.000000 1.748810 0.000000 
#    z 0.010550 0.000000 1.753190 
# 
# From -- ./inp_files/25697.got.cif
#   From: 2010.03.12/outbox.cif.g09.slc.cpg/sg5_13_cif.got.tgz:25697.got - 2010.03.31 09:47:26.
