data_PCOD8049478
_publ_section_title
;
Structure prediction by ZEFSAII (Michael W. Deem and Ramdas Pophale) SiO2 
 PCOD8049478
Probable space group: C 2
;
_chemical_formula_sum "Si O2"
_cell_formula_units_Z 18
_cell_length_a 17.573692
_cell_length_b 5.128582
_cell_length_c 13.926933
_cell_angle_alpha 90.000000
_cell_angle_beta 140.371435
_cell_angle_gamma 90.000000
_cell_volume 800.581958
_symmetry_space_group_name_H-M "C 2"
_symmetry_group_IT_number 5
_symmetry_cell_setting 'monoclinic'
loop_
_space_group_symop_operation_xyz
x,y,z
-x,y,-z
1/2+x,1/2+y,z
1/2-x,1/2+y,-z
loop_
_atom_site_type_symbol
_atom_site_label
_atom_site_fract_x
_atom_site_fract_y
_atom_site_fract_z
Si Si1 0.000000 0.511050 0.000000
Si Si2 0.602954 0.309827 0.396534
Si Si3 0.864557 0.312952 0.696314
Si Si4 0.849487 0.723949 0.196386
Si Si5 0.206553 0.720676 0.081337
O O1 0.937460 0.308283 0.865955
O O2 0.905986 0.708379 0.957398
O O3 0.722428 0.290058 0.577109
O O4 0.588683 0.589644 0.330348
O O5 0.490467 0.251553 0.356628
O O6 0.608768 0.094821 0.320346
O O7 0.790254 0.468169 0.185018
O O8 0.783803 0.967017 0.179029
O O9 0.839484 0.725006 0.071759
#
# Coordination Sequence:
#
# PCOD8049478 Si02
#       5
#     2   4   4   4   4
#     4  12  24  42  62 108 130 160 208 284 324 374
#     4  10  20  42  63  92 124 177 217 250 307 403
#     4  10  23  36  66  95 130 165 210 266 321 371
#     4  10  20  40  60  90 119 174 211 250 299 396
#     4  10  23  34  63  92 126 160 208 262 317 360
#
# _framework density 22.483643000000001
#
# number of rings (size 3 to 8) (size 9 to 14) (size 15 to 20)
#    0.000    1.778    2.222    1.333    6.222    3.556 
#    0.000    1.111    0.000    2.667    0.000    0.000 
#    0.000    0.000    0.000    0.000    0.000    0.000 
#
# Total GULP energy -111606.132075 kJ/mol
# GULP energy per Si atom -12400.681342 kJ/mol
# Density = 2.243247 g / cm^3
# Si number density = 22.483643 Si / 1000 Ang^3
#
#
#
# Elastic Constant Matrix: (Units=GPa)
#
#
# Indices 1 2 3 4 5 6 
#
# 1 118.1842 50.1730 60.3087 0.0000 49.0047 0.0000
# 2 50.1730 138.1723 48.1210 0.0001 22.6338 -0.0001
# 3 60.3087 48.1210 144.2228 0.0000 25.9869 0.0000
# 4 0.0000 0.0001 0.0000 22.9059 0.0000 13.6410
# 5 49.0047 22.6338 25.9869 0.0000 49.6466 0.0000
# 6 0.0000 -0.0001 0.0000 13.6410 0.0000 26.0328
#
#
#
# Elastic Compliance Matrix: (Units=1/GPa)
#
#
# Indices 1 2 3 4 5 6 
#
# 1 0.017300 -0.002674 -0.003848 0.000000 -0.013843 0.000000
# 2 -0.002674 0.008904 -0.001763 0.000000 -0.000497 0.000000
# 3 -0.003848 -0.001763 0.009166 0.000000 -0.000196 0.000000
# 4 0.000000 0.000000 0.000000 0.063459 0.000000 -0.033252
# 5 -0.013843 -0.000497 -0.000196 0.000000 0.034136 0.000000
# 6 0.000000 0.000000 0.000000 -0.033252 0.000000 0.055837
#
#
# Mechanical properties :
#
#
# Convention : Reuss Voigt Hill
#
# Bulk Modulus (GPa) = 53.19074 79.75386 66.47230
# Shear Modulus (GPa) = 23.62508 35.84884 29.73696
#
# Velocity S-wave (km/s) = 3.24507 3.99738 3.64071
# Velocity P-wave (km/s) = 6.14406 7.54018 6.87764
#
# Compressibility (1/GPa) = 0.01880027
#
# Stress axis : x y z
#
# Youngs Moduli (GPa) = 57.80264 112.31149 109.09562
#
# Poissons Ratio (x) = 0.30036 0.41976
# Poissons Ratio (y) = 0.15459 0.19234
# Poissons Ratio (z) = 0.22240 0.19801
#
# Static dielectric constant tensor:
#      x y z
#    x 3.796640 0.000000 0.479530 
#    y 0.000000 4.086100 0.000000 
#    z 0.479530 0.000000 4.454960 
# 
# 
# High freq. dielectric constant tensor:
#      x y z
#    x 1.864430 0.000000 0.033930 
#    y 0.000000 1.896540 0.000000 
#    z 0.033930 0.000000 1.885150 
# 
# From -- ./inp_files/43536.got.cif
#   From: 2010.03.12/outbox.cif.g09.slc.cpg/sg5_22_cif.got.tgz:43536.got - 2010.03.31 09:47:26.
