data_PCOD8049639
_publ_section_title
;
Structure prediction by ZEFSAII (Michael W. Deem and Ramdas Pophale) SiO2 
 PCOD8049639
Probable space group: C 2
;
_chemical_formula_sum "Si O2"
_cell_formula_units_Z 30
_cell_length_a 12.666362
_cell_length_b 13.307934
_cell_length_c 8.832953
_cell_angle_alpha 90.000000
_cell_angle_beta 103.255054
_cell_angle_gamma 90.000000
_cell_volume 1449.244027
_symmetry_space_group_name_H-M "C 2"
_symmetry_group_IT_number 5
_symmetry_cell_setting 'monoclinic'
loop_
_space_group_symop_operation_xyz
x,y,z
-x,y,-z
1/2+x,1/2+y,z
1/2-x,1/2+y,-z
loop_
_atom_site_type_symbol
_atom_site_label
_atom_site_fract_x
_atom_site_fract_y
_atom_site_fract_z
Si Si1 0.500000 0.925451 0.000000
Si Si2 0.713037 0.500899 0.223956
Si Si3 0.999230 0.998410 0.664438
Si Si4 0.170061 0.101955 0.909118
Si Si5 0.333552 0.009014 0.741102
Si Si6 0.179271 0.838009 0.696077
Si Si7 0.871461 0.628312 0.463850
Si Si8 0.712486 0.822776 0.955963
O O1 0.544501 0.991628 0.156010
O O2 0.404686 0.855873 0.026986
O O3 0.623295 0.478708 0.322482
O O4 0.821250 0.546915 0.332780
O O5 0.738115 0.395537 0.153351
O O6 0.667748 0.581294 0.087569
O O7 0.000000 0.051944 0.500000
O O8 0.063187 0.893400 0.664275
O O9 0.054163 0.072829 0.802029
O O10 0.197094 0.215249 0.873992
O O11 0.262556 0.032436 0.866603
O O12 0.275341 0.908051 0.655894
O O13 0.333135 0.098849 0.620526
O O14 0.170482 0.739589 0.588244
O O15 0.205899 0.808561 0.877191
O O16 0.000000 0.620110 0.500000
#
# Coordination Sequence:
#
# PCOD8049639 Si02
#       8
#     2   4   4   4   4   4   4   4
#     4  10  20  42  64  90 136 176 208 278 320 384
#     4  12  23  44  68  98 131 174 225 270 330 396
#     4  11  24  43  68  96 135 171 217 279 335 387
#     4  11  23  41  66 100 125 174 222 268 327 395
#     4  10  23  43  65  91 140 170 221 273 332 386
#     4  10  22  44  64  96 132 172 215 277 333 379
#     4  12  26  41  68  97 132 180 218 272 338 396
#     4  11  23  39  67  97 131 171 223 269 321 394
#
# _framework density 20.700445999999999
#
# number of rings (size 3 to 8) (size 9 to 14) (size 15 to 20)
#    0.000    1.067    5.333    3.200    1.867    3.200 
#    0.000    2.000    0.000    0.000    0.000    0.000 
#    0.000    0.000    0.000    0.000    0.000    0.000 
#
# Total GULP energy -186016.376904 kJ/mol
# GULP energy per Si atom -12401.091794 kJ/mol
# Density = 2.065333 g / cm^3
# Si number density = 20.700446 Si / 1000 Ang^3
#
#
#
# Elastic Constant Matrix: (Units=GPa)
#
#
# Indices 1 2 3 4 5 6 
#
# 1 112.8173 37.3964 51.6406 0.0000 6.7697 0.0000
# 2 37.3964 129.2839 47.9489 0.0000 9.0967 0.0000
# 3 51.6406 47.9489 119.4512 0.0000 10.7226 0.0000
# 4 0.0000 0.0000 0.0000 37.9386 0.0000 -1.0904
# 5 6.7697 9.0967 10.7226 0.0000 38.3942 0.0000
# 6 0.0000 0.0000 0.0000 -1.0904 0.0000 22.5164
#
#
#
# Elastic Compliance Matrix: (Units=1/GPa)
#
#
# Indices 1 2 3 4 5 6 
#
# 1 0.011375 -0.001704 -0.004195 0.000000 -0.000430 0.000000
# 2 -0.001704 0.009394 -0.002935 0.000000 -0.001106 0.000000
# 3 -0.004195 -0.002935 0.011523 0.000000 -0.001783 0.000000
# 4 0.000000 0.000000 0.000000 0.026395 0.000000 0.001278
# 5 -0.000430 -0.001106 -0.001783 0.000000 0.026881 0.000000
# 6 0.000000 0.000000 0.000000 0.001278 0.000000 0.044474
#
#
# Mechanical properties :
#
#
# Convention : Reuss Voigt Hill
#
# Bulk Modulus (GPa) = 68.37891 70.61380 69.49635
# Shear Modulus (GPa) = 32.76856 34.74093 33.75474
#
# Velocity S-wave (km/s) = 3.98299 4.10111 4.04249
# Velocity P-wave (km/s) = 7.36591 7.52408 7.44541
#
# Compressibility (1/GPa) = 0.01462439
#
# Stress axis : x y z
#
# Youngs Moduli (GPa) = 87.91429 106.44907 86.78103
#
# Poissons Ratio (x) = 0.18141 0.36403
# Poissons Ratio (y) = 0.14982 0.25469
# Poissons Ratio (z) = 0.36878 0.31242
#
# Static dielectric constant tensor:
#      x y z
#    x 3.653910 0.000000 0.247500 
#    y 0.000000 3.705830 0.000000 
#    z 0.247500 0.000000 3.965430 
# 
# 
# High freq. dielectric constant tensor:
#      x y z
#    x 1.807530 0.000000 0.014150 
#    y 0.000000 1.804230 0.000000 
#    z 0.014150 0.000000 1.823240 
# 
# From -- ./inp_files/20703.got.cif
#   From: 2010.03.12/outbox.cif.g09.slc.cpg/sg5_11_cif.got.tgz:20703.got - 2010.03.31 09:47:26.
