data_PCOD8049031
_publ_section_title
;
Structure prediction by ZEFSAII (Michael W. Deem and Ramdas Pophale) SiO2 
 PCOD8049031
Probable space group: C 2
;
_chemical_formula_sum "Si O2"
_cell_formula_units_Z 32
_cell_length_a 15.269195
_cell_length_b 23.424948
_cell_length_c 8.591910
_cell_angle_alpha 90.000000
_cell_angle_beta 30.275446
_cell_angle_gamma 90.000000
_cell_volume 1549.354470
_symmetry_space_group_name_H-M "C 2"
_symmetry_group_IT_number 5
_symmetry_cell_setting 'monoclinic'
loop_
_space_group_symop_operation_xyz
x,y,z
-x,y,-z
1/2+x,1/2+y,z
1/2-x,1/2+y,-z
loop_
_atom_site_type_symbol
_atom_site_label
_atom_site_fract_x
_atom_site_fract_y
_atom_site_fract_z
Si Si1 0.020126 0.943120 0.783047
Si Si2 0.339699 0.805806 0.640630
Si Si3 0.815618 0.249335 0.349629
Si Si4 0.144142 0.436055 0.393777
Si Si5 0.154942 0.046715 0.382458
Si Si6 0.523456 0.323083 0.646782
Si Si7 0.029606 0.531995 0.773433
Si Si8 0.176092 0.115801 0.645808
O O1 0.092717 0.881431 0.620412
O O2 0.822160 0.947039 0.026679
O O3 0.134573 0.992325 0.529435
O O4 0.000000 0.947167 0.000000
O O5 0.500000 0.782868 0.500000
O O6 0.307876 0.766877 0.540700
O O7 0.381448 0.870142 0.520766
O O8 0.163286 0.803018 0.007611
O O9 0.665014 0.275821 0.473943
O O10 0.790537 0.181926 0.378622
O O11 0.000000 0.269102 0.000000
O O12 0.000000 0.459433 0.500000
O O13 0.123026 0.473030 0.582100
O O14 0.160586 0.102153 0.485306
O O15 0.000000 0.052806 0.500000
O O16 0.333845 0.041527 0.007285
O O17 0.500000 0.331918 0.500000
O O18 0.159493 0.583402 0.529010
O O19 0.000000 0.529119 0.000000
O O20 0.000000 0.094972 0.000000
#
# Coordination Sequence:
#
# PCOD8049031 Si02
#       8
#     4   4   4   4   4   4   4   4
#     4  11  21  37  60  87 122 163 196 238 301 365
#     4  10  22  39  62  91 123 159 199 246 304 364
#     4  11  24  42  64  87 115 159 209 258 310 360
#     4  10  20  35  55  84 117 151 188 230 286 350
#     4  11  22  36  59  92 122 153 195 248 300 354
#     4  11  23  40  62  91 125 160 202 253 306 366
#     4  10  21  36  57  84 114 152 191 235 289 346
#     4  10  23  43  61  80 113 155 202 248 296 359
#
# _framework density 20.653763999999999
#
# number of rings (size 3 to 8) (size 9 to 14) (size 15 to 20)
#    0.000    1.500    0.000    6.375    0.000    7.000 
#    0.000    3.125    0.000    0.000    0.000    0.000 
#    0.000    0.000    0.000    0.000    0.000    0.000 
#
# Total GULP energy -198388.434699 kJ/mol
# GULP energy per Si atom -12399.277169 kJ/mol
# Density = 2.060675 g / cm^3
# Si number density = 20.653764 Si / 1000 Ang^3
#
#
#
# Elastic Constant Matrix: (Units=GPa)
#
#
# Indices 1 2 3 4 5 6 
#
# 1 91.9096 30.2282 32.5242 0.0007 -14.5433 0.0001
# 2 30.2282 83.3572 52.1862 -0.0002 -9.1595 0.0006
# 3 32.5242 52.1862 134.4951 0.0024 -11.7949 0.0012
# 4 0.0007 -0.0002 0.0024 24.5460 -0.0014 -9.5081
# 5 -14.5433 -9.1595 -11.7949 -0.0014 35.3489 -0.0017
# 6 0.0001 0.0006 0.0012 -9.5081 -0.0017 17.6084
#
#
#
# Elastic Compliance Matrix: (Units=1/GPa)
#
#
# Indices 1 2 3 4 5 6 
#
# 1 0.013168 -0.003381 -0.001519 0.000000 0.004035 0.000001
# 2 -0.003381 0.016869 -0.005631 0.000001 0.001101 0.000000
# 3 -0.001519 -0.005631 0.010100 -0.000001 0.001286 -0.000001
# 4 0.000000 0.000001 -0.000001 0.051515 0.000003 0.027817
# 5 0.004035 0.001101 0.001286 0.000003 0.030664 0.000005
# 6 0.000001 0.000000 -0.000001 0.027817 0.000005 0.071811
#
#
# Mechanical properties :
#
#
# Convention : Reuss Voigt Hill
#
# Bulk Modulus (GPa) = 52.42328 59.95990 56.19159
# Shear Modulus (GPa) = 22.56848 28.48889 25.52869
#
# Velocity S-wave (km/s) = 3.30920 3.71800 3.51954
# Velocity P-wave (km/s) = 6.32757 6.89386 6.61678
#
# Compressibility (1/GPa) = 0.01907549
#
# Stress axis : x y z
#
# Youngs Moduli (GPa) = 75.94100 59.27977 99.00712
#
# Poissons Ratio (x) = 0.20043 0.15035
# Poissons Ratio (y) = 0.25677 0.55754
# Poissons Ratio (z) = 0.11532 0.33382
#
# Static dielectric constant tensor:
#      x y z
#    x 3.822480 0.000000 -0.362220 
#    y 0.000000 3.605890 0.000000 
#    z -0.362220 0.000000 4.748440 
# 
# 
# High freq. dielectric constant tensor:
#      x y z
#    x 1.808290 0.000000 -0.014390 
#    y 0.000000 1.797290 0.000000 
#    z -0.014390 0.000000 1.828360 
# 
# From -- ./inp_files/25576.got.cif
#   From: 2010.03.12/outbox.cif.g09.slc.cpg/sg5_13_cif.got.tgz:25576.got - 2010.03.31 09:47:26.
