data_PCOD8049764
_publ_section_title
;
Structure prediction by ZEFSAII (Michael W. Deem and Ramdas Pophale) SiO2 
 PCOD8049764
Probable space group: C 2
;
_chemical_formula_sum "Si O2"
_cell_formula_units_Z 32
_cell_length_a 17.343914
_cell_length_b 15.616884
_cell_length_c 11.530059
_cell_angle_alpha 90.000000
_cell_angle_beta 150.365304
_cell_angle_gamma 90.000000
_cell_volume 1544.228225
_symmetry_space_group_name_H-M "C 2"
_symmetry_group_IT_number 5
_symmetry_cell_setting 'monoclinic'
loop_
_space_group_symop_operation_xyz
x,y,z
-x,y,-z
1/2+x,1/2+y,z
1/2-x,1/2+y,-z
loop_
_atom_site_type_symbol
_atom_site_label
_atom_site_fract_x
_atom_site_fract_y
_atom_site_fract_z
Si Si1 0.264547 0.549640 0.602931
Si Si2 0.255202 0.997681 0.180951
Si Si3 0.248099 0.189346 0.589213
Si Si4 0.961381 0.753084 0.153270
Si Si5 0.836572 0.054995 0.334853
Si Si6 0.349265 0.817276 0.372847
Si Si7 0.443217 0.434980 0.668857
Si Si8 0.586155 0.074837 0.821219
O O1 0.310621 0.556914 0.799702
O O2 0.322637 0.636737 0.613209
O O3 0.340000 0.465537 0.643340
O O4 0.078219 0.539332 0.348297
O O5 0.339134 0.919828 0.360163
O O6 0.382886 0.046185 0.270390
O O7 0.117148 0.970628 0.915025
O O8 0.425127 0.215930 0.796766
O O9 0.247590 0.126936 0.699186
O O10 0.146879 0.274122 0.492839
O O11 0.917514 0.678518 0.186702
O O12 0.050398 0.832088 0.332059
O O13 0.805024 0.783707 0.889994
O O14 0.000000 0.091304 0.500000
O O15 0.871302 0.969519 0.454827
O O16 0.718899 0.034147 0.076910
O O17 0.500000 0.786217 0.500000
#
# Coordination Sequence:
#
# PCOD8049764 Si02
#       8
#     4   4   4   4   4   4   4   4
#     4  10  22  36  59  92 121 163 211 261 319 378
#     4  11  22  40  61  89 123 168 215 261 315 394
#     4  10  21  35  59  87 120 157 210 264 314 374
#     4  10  22  37  60  94 122 165 209 266 323 375
#     4  11  21  39  64  97 125 167 212 265 323 384
#     4  11  21  34  59  89 123 155 210 272 317 365
#     4  10  22  40  63  92 126 166 215 262 323 380
#     4  11  22  38  65  93 129 166 217 262 319 384
#
# _framework density 20.722325999999999
#
# number of rings (size 3 to 8) (size 9 to 14) (size 15 to 20)
#    0.000    1.500    2.500    3.000    1.750    3.500 
#    0.000    2.500    0.000    0.000   29.250    0.000 
#    0.000    0.000    0.000    0.000    0.000    0.000 
#
# Total GULP energy -198328.333719 kJ/mol
# GULP energy per Si atom -12395.520857 kJ/mol
# Density = 2.067516 g / cm^3
# Si number density = 20.722326 Si / 1000 Ang^3
#
#
#
# Elastic Constant Matrix: (Units=GPa)
#
#
# Indices 1 2 3 4 5 6 
#
# 1 138.0682 69.6830 22.4626 0.0000 0.0988 0.0000
# 2 69.6830 132.5414 40.7321 0.0000 -9.4626 0.0000
# 3 22.4626 40.7321 59.1525 0.0000 -2.2808 0.0000
# 4 0.0000 0.0000 0.0000 28.6907 0.0000 2.6995
# 5 0.0988 -9.4626 -2.2808 0.0000 36.0304 0.0000
# 6 0.0000 0.0000 0.0000 2.6995 0.0000 34.4681
#
#
#
# Elastic Compliance Matrix: (Units=1/GPa)
#
#
# Indices 1 2 3 4 5 6 
#
# 1 0.009932 -0.005260 -0.000204 0.000000 -0.001422 0.000000
# 2 -0.005260 0.012518 -0.006510 0.000000 0.002890 0.000000
# 3 -0.000204 -0.006510 0.021452 0.000000 -0.000351 0.000000
# 4 0.000000 0.000000 0.000000 0.035113 0.000000 -0.002750
# 5 -0.001422 0.002890 -0.000351 0.000000 0.028495 0.000000
# 6 0.000000 0.000000 0.000000 -0.002750 0.000000 0.029228
#
#
# Mechanical properties :
#
#
# Convention : Reuss Voigt Hill
#
# Bulk Modulus (GPa) = 50.12034 66.16863 58.14448
# Shear Modulus (GPa) = 29.87954 32.96347 31.42151
#
# Velocity S-wave (km/s) = 3.80136 3.99271 3.89821
# Velocity P-wave (km/s) = 6.59592 7.29768 6.95566
#
# Compressibility (1/GPa) = 0.01995198
#
# Stress axis : x y z
#
# Youngs Moduli (GPa) = 100.68491 79.88771 46.61462
#
# Poissons Ratio (x) = 0.42025 0.00951
# Poissons Ratio (y) = 0.52965 0.30348
# Poissons Ratio (z) = 0.02055 0.52011
#
# Static dielectric constant tensor:
#      x y z
#    x 3.999020 0.000000 0.103120 
#    y 0.000000 4.165940 0.000000 
#    z 0.103120 0.000000 3.568760 
# 
# 
# High freq. dielectric constant tensor:
#      x y z
#    x 1.824320 0.000000 0.018330 
#    y 0.000000 1.804140 0.000000 
#    z 0.018330 0.000000 1.792370 
# 
# From -- ./inp_files/44988.got.cif
#   From: 2010.03.12/outbox.cif.g09.slc.cpg/sg5_23_cif.got.tgz:44988.got - 2010.03.31 09:47:26.
