data_PCOD8049191
_publ_section_title
;
Structure prediction by ZEFSAII (Michael W. Deem and Ramdas Pophale) SiO2 
 PCOD8049191
Probable space group: C 2
;
_chemical_formula_sum "Si O2"
_cell_formula_units_Z 28
_cell_length_a 8.561895
_cell_length_b 9.434700
_cell_length_c 23.872285
_cell_angle_alpha 90.000000
_cell_angle_beta 42.457475
_cell_angle_gamma 90.000000
_cell_volume 1301.737157
_symmetry_space_group_name_H-M "C 2"
_symmetry_group_IT_number 5
_symmetry_cell_setting 'monoclinic'
loop_
_space_group_symop_operation_xyz
x,y,z
-x,y,-z
1/2+x,1/2+y,z
1/2-x,1/2+y,-z
loop_
_atom_site_type_symbol
_atom_site_label
_atom_site_fract_x
_atom_site_fract_y
_atom_site_fract_z
Si Si1 0.744841 0.337050 0.184024
Si Si2 0.109097 0.040888 0.882699
Si Si3 0.519361 0.986110 0.430907
Si Si4 0.643636 0.044500 0.064533
Si Si5 0.898035 0.173992 0.465410
Si Si6 0.472869 0.547025 0.681743
Si Si7 0.878822 0.777756 0.186969
O O1 0.843290 0.180776 0.166170
O O2 0.673945 0.406572 0.262622
O O3 0.523553 0.323889 0.202756
O O4 0.947051 0.430078 0.101973
O O5 0.244217 0.023078 0.904460
O O6 0.212738 0.919944 0.816348
O O7 0.832850 0.035047 0.965563
O O8 0.500000 0.948219 0.500000
O O9 0.432672 0.832276 0.428975
O O10 0.367589 0.124111 0.455222
O O11 0.784201 0.030033 0.349122
O O12 0.531545 0.200476 0.098400
O O13 0.000000 0.153915 0.500000
O O14 0.003451 0.062073 0.391960
O O15 0.341950 0.684556 0.738999
#
# Coordination Sequence:
#
# PCOD8049191 Si02
#       7
#     4   4   4   4   4   4   4
#     4  10  21  38  58  86 123 160 198 247 300 347
#     4  10  20  37  59  86 117 159 207 246 294 350
#     4   9  20  40  63  87 116 149 189 238 292 351
#     4   9  20  37  58  84 120 157 202 257 293 340
#     4  10  21  41  66  91 115 152 199 239 292 355
#     4  10  21  41  60  85 128 157 186 245 299 352
#     4  10  21  38  59  87 119 160 202 240 298 351
#
# _framework density 21.509720000000002
#
# number of rings (size 3 to 8) (size 9 to 14) (size 15 to 20)
#    0.000    2.286    0.000    1.714    0.000    5.714 
#    0.000   34.286    0.000    0.000    0.000    0.000 
#    0.000    0.000    0.000    0.000    0.000    0.000 
#
# Total GULP energy -173448.189579 kJ/mol
# GULP energy per Si atom -12389.156398 kJ/mol
# Density = 2.146076 g / cm^3
# Si number density = 21.509720 Si / 1000 Ang^3
#
#
#
# Elastic Constant Matrix: (Units=GPa)
#
#
# Indices 1 2 3 4 5 6 
#
# 1 58.4582 63.9711 46.4740 0.0001 -16.4031 -0.0001
# 2 63.9711 161.2244 67.3807 0.0000 -7.4190 0.0000
# 3 46.4740 67.3807 121.2017 -0.0001 -17.8199 0.0000
# 4 0.0001 0.0000 -0.0001 27.8547 -0.0001 -5.4860
# 5 -16.4031 -7.4190 -17.8199 -0.0001 31.6543 0.0001
# 6 -0.0001 0.0000 0.0000 -5.4860 0.0001 29.0368
#
#
#
# Elastic Compliance Matrix: (Units=1/GPa)
#
#
# Indices 1 2 3 4 5 6 
#
# 1 0.039680 -0.012511 -0.006179 0.000000 0.014151 0.000000
# 2 -0.012511 0.012038 -0.002653 0.000000 -0.005155 0.000000
# 3 -0.006179 -0.002653 0.012574 0.000000 0.003254 0.000000
# 4 0.000000 0.000000 0.000000 0.037288 0.000000 0.007045
# 5 0.014151 -0.005155 0.003254 0.000000 0.039548 0.000000
# 6 0.000000 0.000000 0.000000 0.007045 0.000000 0.035770
#
#
# Mechanical properties :
#
#
# Convention : Reuss Voigt Hill
#
# Bulk Modulus (GPa) = 46.28483 77.39287 61.83885
# Shear Modulus (GPa) = 22.04718 28.57974 25.31346
#
# Velocity S-wave (km/s) = 3.20501 3.64907 3.43423
# Velocity P-wave (km/s) = 5.93809 7.33572 6.67360
#
# Compressibility (1/GPa) = 0.02160535
#
# Stress axis : x y z
#
# Youngs Moduli (GPa) = 25.20168 83.06872 79.53106
#
# Poissons Ratio (x) = 1.03924 0.49144
# Poissons Ratio (y) = 0.31529 0.21102
# Poissons Ratio (z) = 0.15573 0.22041
#
# Static dielectric constant tensor:
#      x y z
#    x 3.963990 0.000000 -0.458200 
#    y 0.000000 4.059960 0.000000 
#    z -0.458200 0.000000 4.149680 
# 
# 
# High freq. dielectric constant tensor:
#      x y z
#    x 1.822120 0.000000 -0.015050 
#    y 0.000000 1.853400 0.000000 
#    z -0.015050 0.000000 1.848680 
# 
# From -- ./inp_files/70136.got.cif
#   From: 2010.03.12/outbox.cif.g09.slc.cpg/sg5_36_cif.got.tgz:70136.got - 2010.03.31 09:47:26.
