data_PCOD8049619
_publ_section_title
;
Structure prediction by ZEFSAII (Michael W. Deem and Ramdas Pophale) SiO2 
 PCOD8049619
Probable space group: C 2
;
_chemical_formula_sum "Si O2"
_cell_formula_units_Z 32
_cell_length_a 24.116119
_cell_length_b 14.758965
_cell_length_c 9.209247
_cell_angle_alpha 90.000000
_cell_angle_beta 27.209978
_cell_angle_gamma 90.000000
_cell_volume 1498.800490
_symmetry_space_group_name_H-M "C 2"
_symmetry_group_IT_number 5
_symmetry_cell_setting 'monoclinic'
loop_
_space_group_symop_operation_xyz
x,y,z
-x,y,-z
1/2+x,1/2+y,z
1/2-x,1/2+y,-z
loop_
_atom_site_type_symbol
_atom_site_label
_atom_site_fract_x
_atom_site_fract_y
_atom_site_fract_z
Si Si1 0.035221 0.606940 0.256527
Si Si2 0.273353 0.351232 0.191261
Si Si3 0.577215 0.697850 0.679580
Si Si4 0.203738 0.828959 0.199041
Si Si5 0.024667 0.772489 0.113222
Si Si6 0.725171 0.529308 0.215703
Si Si7 0.719036 0.048377 0.244304
Si Si8 0.098661 0.198167 0.158610
O O1 0.093131 0.683887 0.017190
O O2 0.000000 0.643056 0.500000
O O3 0.923221 0.567634 0.427317
O O4 0.140220 0.532494 0.029504
O O5 0.174633 0.278035 0.473419
O O6 0.225161 0.453211 0.312852
O O7 0.316245 0.331623 0.926991
O O8 0.387836 0.353025 0.036210
O O9 0.636181 0.601651 0.496602
O O10 0.478284 0.734217 0.796666
O O11 0.500000 0.677227 0.000000
O O12 0.102546 0.765771 0.505668
O O13 0.184314 0.925109 0.325570
O O14 0.334690 0.784823 0.924381
O O15 0.000000 0.774274 0.000000
O O16 0.727835 0.550756 0.040338
O O17 0.802626 0.124079 0.127726
O O18 0.000000 0.156305 0.500000
#
# Coordination Sequence:
#
# PCOD8049619 Si02
#       8
#     4   4   4   4   4   4   4   4
#     4  10  20  41  71  96 127 169 225 281 337 398
#     4  11  24  45  69  98 130 181 229 279 338 403
#     4  12  27  44  66  98 144 185 218 277 349 411
#     4  11  24  42  71  98 132 176 229 285 332 400
#     4  12  26  42  65  96 135 177 224 276 342 405
#     4  10  22  41  68 100 129 171 224 279 338 397
#     4  10  22  40  70 101 127 169 228 284 327 393
#     4  12  23  41  68 100 136 177 232 278 333 403
#
# _framework density 21.350406
#
# number of rings (size 3 to 8) (size 9 to 14) (size 15 to 20)
#    0.000    1.000    5.000    1.125    5.250    1.000 
#    0.000    0.625    0.000    0.000    0.000    0.000 
#    0.000    0.000    0.000    0.000    0.000    0.000 
#
# Total GULP energy -198323.821951 kJ/mol
# GULP energy per Si atom -12395.238872 kJ/mol
# Density = 2.130181 g / cm^3
# Si number density = 21.350406 Si / 1000 Ang^3
#
#
#
# Elastic Constant Matrix: (Units=GPa)
#
#
# Indices 1 2 3 4 5 6 
#
# 1 129.2820 28.1407 38.5054 0.0000 -14.1827 0.0000
# 2 28.1407 107.8101 29.7551 0.0000 -0.9739 0.0000
# 3 38.5054 29.7551 82.2579 0.0000 -6.4905 0.0000
# 4 0.0000 0.0000 0.0000 2.6320 0.0000 8.2742
# 5 -14.1827 -0.9739 -6.4905 0.0000 34.4498 0.0000
# 6 0.0000 0.0000 0.0000 8.2742 0.0000 12.5700
#
#
#
# Elastic Compliance Matrix: (Units=1/GPa)
#
#
# Indices 1 2 3 4 5 6 
#
# 1 0.009489 -0.001435 -0.003673 0.000000 0.003174 0.000000
# 2 -0.001435 0.010527 -0.003207 0.000000 -0.000897 0.000000
# 3 -0.003673 -0.003207 0.015135 0.000000 0.001249 0.000000
# 4 0.000000 0.000000 0.000000 -0.355313 0.000000 0.233885
# 5 0.003174 -0.000897 0.001249 0.000000 0.030544 0.000000
# 6 0.000000 0.000000 0.000000 0.233885 0.000000 -0.074400
#
#
# Mechanical properties :
#
#
# Convention : Reuss Voigt Hill
#
# Bulk Modulus (GPa) = 53.98897 56.90583 55.44740
# Shear Modulus (GPa) = -14.65356 24.79362 5.07003
#
# Velocity S-wave (km/s) = -2.62264 3.41144 1.54267
# Velocity P-wave (km/s) = 4.02131 6.49834 5.40367
#
# Compressibility (1/GPa) = 0.01852230
#
# Stress axis : x y z
#
# Youngs Moduli (GPa) = 105.38100 94.99283 66.07318
#
# Poissons Ratio (x) = 0.13628 0.24266
# Poissons Ratio (y) = 0.15118 0.21191
# Poissons Ratio (z) = 0.38702 0.30466
#
# Static dielectric constant tensor:
#      x y z
#    x 5.618130 0.000000 0.616850 
#    y 0.000000 3.880220 0.000000 
#    z 0.616850 0.000000 4.125000 
# 
# 
# High freq. dielectric constant tensor:
#      x y z
#    x 1.839020 0.000000 -0.027320 
#    y 0.000000 1.835210 0.000000 
#    z -0.027320 0.000000 1.827040 
# 
# From -- ./inp_files/31071.got.cif
#   From: 2010.03.12/outbox.cif.g09.slc.cpg/sg5_16_cif.got.tgz:31071.got - 2010.03.31 09:47:26.
