data_PCOD8049947
_publ_section_title
;
Structure prediction by ZEFSAII (Michael W. Deem and Ramdas Pophale) SiO2 
 PCOD8049947
Probable space group: C 2
;
_chemical_formula_sum "Si O2"
_cell_formula_units_Z 28
_cell_length_a 12.885925
_cell_length_b 13.704727
_cell_length_c 15.340381
_cell_angle_alpha 90.000000
_cell_angle_beta 33.811425
_cell_angle_gamma 90.000000
_cell_volume 1507.499250
_symmetry_space_group_name_H-M "C 2"
_symmetry_group_IT_number 5
_symmetry_cell_setting 'monoclinic'
loop_
_space_group_symop_operation_xyz
x,y,z
-x,y,-z
1/2+x,1/2+y,z
1/2-x,1/2+y,-z
loop_
_atom_site_type_symbol
_atom_site_label
_atom_site_fract_x
_atom_site_fract_y
_atom_site_fract_z
Si Si1 0.837823 0.109580 0.842709
Si Si2 0.815977 0.010436 0.682066
Si Si3 0.802361 0.142116 0.320967
Si Si4 0.416842 0.804630 0.864174
Si Si5 0.040317 0.521271 0.172484
Si Si6 0.207396 0.322907 0.866031
Si Si7 0.572312 0.140591 0.320465
O O1 0.809539 0.227194 0.876135
O O2 0.028309 0.076261 0.759963
O O3 0.857011 0.093316 0.725715
O O4 0.673757 0.044539 0.997542
O O5 0.727276 0.920559 0.796434
O O6 0.000000 0.982216 0.500000
O O7 0.666246 0.048648 0.716349
O O8 0.711307 0.095891 0.297219
O O9 0.643875 0.140772 0.505045
O O10 0.884576 0.252562 0.246469
O O11 0.459755 0.909694 0.791359
O O12 0.279323 0.835109 0.038958
O O13 0.107629 0.586794 0.205501
O O14 0.374035 0.253154 0.722656
O O15 0.000000 0.277841 0.000000
#
# Coordination Sequence:
#
# PCOD8049947 Si02
#       7
#     4   4   4   4   4   4   4
#     4  10  21  41  62  81 127 154 205 247 307 364
#     4  12  25  37  62  92 124 159 205 256 312 361
#     4   9  21  38  59  86 121 156 193 255 302 355
#     4  10  21  39  60  88 116 160 201 253 297 358
#     4  12  22  37  64  90 118 161 206 250 306 370
#     4  12  19  35  60  92 116 150 204 253 298 353
#     4  11  21  35  63  91 121 152 202 251 315 349
#
# _framework density 18.573806999999999
#
# number of rings (size 3 to 8) (size 9 to 14) (size 15 to 20)
#    0.857    0.286    5.714    1.286    4.000    0.000 
#    0.000    0.000   12.571    0.000    0.000    0.000 
#    0.000    0.000    0.000    0.000    0.000    0.000 
#
# Total GULP energy -173446.384446 kJ/mol
# GULP energy per Si atom -12389.027460 kJ/mol
# Density = 1.853153 g / cm^3
# Si number density = 18.573807 Si / 1000 Ang^3
#
#
#
# Elastic Constant Matrix: (Units=GPa)
#
#
# Indices 1 2 3 4 5 6 
#
# 1 86.5587 38.4282 25.3685 -0.0020 -1.1325 0.0016
# 2 38.4282 70.8495 13.6246 0.0003 0.4062 0.0005
# 3 25.3685 13.6246 93.1436 -0.0071 -4.1596 0.0030
# 4 -0.0020 0.0003 -0.0071 23.8446 0.0017 2.2679
# 5 -1.1325 0.4062 -4.1596 0.0017 36.2303 -0.0003
# 6 0.0016 0.0005 0.0030 2.2679 -0.0003 27.7145
#
#
#
# Elastic Compliance Matrix: (Units=1/GPa)
#
#
# Indices 1 2 3 4 5 6 
#
# 1 0.016093 -0.008118 -0.003186 0.000001 0.000228 0.000000
# 2 -0.008118 0.018624 -0.000537 -0.000001 -0.000524 0.000000
# 3 -0.003186 -0.000537 0.011738 0.000003 0.001254 -0.000001
# 4 0.000001 -0.000001 0.000003 0.042267 -0.000002 -0.003459
# 5 0.000228 -0.000524 0.001254 -0.000002 0.027758 0.000000
# 6 0.000000 0.000000 -0.000001 -0.003459 0.000000 0.036365
#
#
# Mechanical properties :
#
#
# Convention : Reuss Voigt Hill
#
# Bulk Modulus (GPa) = 43.90695 45.04382 44.47538
# Shear Modulus (GPa) = 27.15661 29.09990 28.12826
#
# Velocity S-wave (km/s) = 3.82788 3.96247 3.89576
# Velocity P-wave (km/s) = 6.57475 6.72598 6.65080
#
# Compressibility (1/GPa) = 0.02277544
#
# Stress axis : x y z
#
# Youngs Moduli (GPa) = 62.13761 53.69548 85.19167
#
# Poissons Ratio (x) = 0.43588 0.27138
# Poissons Ratio (y) = 0.50441 0.04572
# Poissons Ratio (z) = 0.19794 0.02882
#
# Static dielectric constant tensor:
#      x y z
#    x 3.385510 0.000000 0.049080 
#    y 0.000000 3.165850 0.000000 
#    z 0.049080 0.000000 3.405480 
# 
# 
# High freq. dielectric constant tensor:
#      x y z
#    x 1.714850 0.000000 0.003780 
#    y 0.000000 1.694460 0.000000 
#    z 0.003780 0.000000 1.731230 
# 
# From -- ./inp_files/53029.got.cif
#   From: 2010.03.12/outbox.cif.g09.slc.cpg/sg5_27_cif.got.tgz:53029.got - 2010.03.31 09:47:26.
