data_PCOD8049515
_publ_section_title
;
Structure prediction by ZEFSAII (Michael W. Deem and Ramdas Pophale) SiO2 
 PCOD8049515
Probable space group: C 2
;
_chemical_formula_sum "Si O2"
_cell_formula_units_Z 30
_cell_length_a 12.278804
_cell_length_b 13.813070
_cell_length_c 11.753840
_cell_angle_alpha 90.000000
_cell_angle_beta 132.711634
_cell_angle_gamma 90.000000
_cell_volume 1464.810809
_symmetry_space_group_name_H-M "C 2"
_symmetry_group_IT_number 5
_symmetry_cell_setting 'monoclinic'
loop_
_space_group_symop_operation_xyz
x,y,z
-x,y,-z
1/2+x,1/2+y,z
1/2-x,1/2+y,-z
loop_
_atom_site_type_symbol
_atom_site_label
_atom_site_fract_x
_atom_site_fract_y
_atom_site_fract_z
Si Si1 0.893964 0.085210 0.141704
Si Si2 0.241491 0.384323 0.697748
Si Si3 0.776265 0.042934 0.548974
Si Si4 0.838962 0.914159 0.400421
Si Si5 0.500000 0.488155 0.000000
Si Si6 0.744291 0.260357 0.504790
Si Si7 0.843961 0.440296 0.940880
Si Si8 0.576457 0.803493 0.794624
O O1 0.855936 0.197074 0.138235
O O2 0.046154 0.050802 0.308745
O O3 0.750062 0.032712 0.088678
O O4 0.909485 0.059758 0.019130
O O5 0.195553 0.479117 0.590183
O O6 0.395155 0.412235 0.863499
O O7 0.266355 0.291159 0.634494
O O8 0.121603 0.353691 0.707164
O O9 0.704477 0.148422 0.492028
O O10 0.742875 0.991399 0.405125
O O11 0.871569 0.818795 0.499997
O O12 0.752351 0.886438 0.224350
O O13 0.000000 0.961933 0.500000
O O14 0.901216 0.291024 0.669948
O O15 0.132065 0.368275 0.937755
O O16 0.000000 0.475302 0.000000
#
# Coordination Sequence:
#
# PCOD8049515 Si02
#       8
#     4   4   4   4   2   4   4   4
#     4  10  22  40  65  94 122 174 210 263 312 382
#     4  10  21  38  64  90 126 158 211 272 306 376
#     4   9  21  40  67  89 120 168 219 251 315 381
#     4  11  22  40  63  91 126 163 209 257 312 379
#     4  10  20  40  64  92 128 164 222 252 318 380
#     4  10  22  40  64  92 120 170 210 261 311 378
#     4  12  24  42  62  95 134 163 207 268 318 374
#     4  11  23  40  64  94 124 167 214 255 327 377
#
# _framework density 20.480460000000001
#
# number of rings (size 3 to 8) (size 9 to 14) (size 15 to 20)
#    0.000    1.600    4.000    0.400    2.800    1.067 
#    1.200    4.000    0.000    0.000    0.000    0.000 
#    0.000    0.000    0.000    0.000    0.000    0.000 
#
# Total GULP energy -185933.618246 kJ/mol
# GULP energy per Si atom -12395.574550 kJ/mol
# Density = 2.043385 g / cm^3
# Si number density = 20.480460 Si / 1000 Ang^3
#
#
#
# Elastic Constant Matrix: (Units=GPa)
#
#
# Indices 1 2 3 4 5 6 
#
# 1 91.4388 37.0214 17.1408 0.0000 -22.0096 0.0000
# 2 37.0214 145.2880 28.3696 0.0000 -18.5989 0.0000
# 3 17.1408 28.3696 88.5617 0.0000 -27.9670 0.0000
# 4 0.0000 0.0000 0.0000 29.8024 0.0000 3.6455
# 5 -22.0096 -18.5989 -27.9670 0.0000 32.4552 0.0000
# 6 0.0000 0.0000 0.0000 3.6455 0.0000 24.4215
#
#
#
# Elastic Compliance Matrix: (Units=1/GPa)
#
#
# Indices 1 2 3 4 5 6 
#
# 1 0.013922 -0.002606 0.000893 0.000000 0.008718 0.000000
# 2 -0.002606 0.008048 -0.001615 0.000000 0.001453 0.000000
# 3 0.000893 -0.001615 0.015847 0.000000 0.013336 0.000000
# 4 0.000000 0.000000 0.000000 0.034178 0.000000 -0.005102
# 5 0.008718 0.001453 0.013336 0.000000 0.049049 0.000000
# 6 0.000000 0.000000 0.000000 -0.005102 0.000000 0.041709
#
#
# Mechanical properties :
#
#
# Convention : Reuss Voigt Hill
#
# Bulk Modulus (GPa) = 32.08957 54.48355 43.28656
# Shear Modulus (GPa) = 27.80912 33.51959 30.66436
#
# Velocity S-wave (km/s) = 3.68888 4.04996 3.87363
# Velocity P-wave (km/s) = 5.81775 6.96635 6.41779
#
# Compressibility (1/GPa) = 0.03116277
#
# Stress axis : x y z
#
# Youngs Moduli (GPa) = 71.82700 124.24977 63.10168
#
# Poissons Ratio (x) = 0.32380 -0.05636
# Poissons Ratio (y) = 0.18718 0.10190
# Poissons Ratio (z) = -0.06415 0.20064
#
# Static dielectric constant tensor:
#      x y z
#    x 3.708940 0.000000 -0.230830 
#    y 0.000000 3.762960 0.000000 
#    z -0.230830 0.000000 3.816540 
# 
# 
# High freq. dielectric constant tensor:
#      x y z
#    x 1.797780 0.000000 -0.018300 
#    y 0.000000 1.796360 0.000000 
#    z -0.018300 0.000000 1.805220 
# 
# From -- ./inp_files/39896.got.cif
#   From: 2010.03.12/outbox.cif.g09.slc.cpg/sg5_20_cif.got.tgz:39896.got - 2010.03.31 09:47:26.
