data_PCOD8049927
_publ_section_title
;
Structure prediction by ZEFSAII (Michael W. Deem and Ramdas Pophale) SiO2 
 PCOD8049927
Probable space group: C 2
;
_chemical_formula_sum "Si O2"
_cell_formula_units_Z 22
_cell_length_a 27.066345
_cell_length_b 7.907369
_cell_length_c 8.318599
_cell_angle_alpha 90.000000
_cell_angle_beta 33.575944
_cell_angle_gamma 90.000000
_cell_volume 984.622511
_symmetry_space_group_name_H-M "C 2"
_symmetry_group_IT_number 5
_symmetry_cell_setting 'monoclinic'
loop_
_space_group_symop_operation_xyz
x,y,z
-x,y,-z
1/2+x,1/2+y,z
1/2-x,1/2+y,-z
loop_
_atom_site_type_symbol
_atom_site_label
_atom_site_fract_x
_atom_site_fract_y
_atom_site_fract_z
Si Si1 0.636927 0.845100 0.620591
Si Si2 0.413814 0.150933 0.429315
Si Si3 0.725912 0.538859 0.926295
Si Si4 0.664659 0.853692 0.918084
Si Si5 0.500000 0.039839 0.500000
Si Si6 0.349435 0.484941 0.532234
O O1 0.605651 0.657684 0.653312
O O2 0.569011 0.986965 0.731860
O O3 0.736584 0.877111 0.276009
O O4 0.635299 0.866325 0.814510
O O5 0.310615 0.140851 0.772242
O O6 0.483676 0.155458 0.387046
O O7 0.417984 0.327439 0.316921
O O8 0.675021 0.658347 0.937992
O O9 0.660998 0.488816 0.246083
O O10 0.587565 0.926225 0.241265
O O11 0.755825 0.958047 0.694662
#
# Coordination Sequence:
#
# PCOD8049927 Si02
#       6
#     4   4   4   4   2   4
#     4  10  21  38  66  93 122 161 214 272 303 364
#     4   9  22  37  59  93 121 164 212 246 325 362
#     4   9  19  39  61  93 116 165 211 253 302 375
#     4  11  22  37  64  95 126 166 212 252 329 363
#     4  12  22  40  64  92 130 178 198 264 316 388
#     4  11  19  39  66  90 125 162 214 269 297 380
#
# _framework density 22.343586999999999
#
# number of rings (size 3 to 8) (size 9 to 14) (size 15 to 20)
#    1.091    0.727    1.818    4.364    0.000    0.727 
#    0.000    3.636    0.000    4.364    0.000    0.000 
#    0.000    0.000    0.000    0.000    0.000    0.000 
#
# Total GULP energy -136324.973860 kJ/mol
# GULP energy per Si atom -12393.179442 kJ/mol
# Density = 2.229273 g / cm^3
# Si number density = 22.343587 Si / 1000 Ang^3
#
#
#
# Elastic Constant Matrix: (Units=GPa)
#
#
# Indices 1 2 3 4 5 6 
#
# 1 144.3081 55.2933 14.7506 0.0000 11.4592 0.0000
# 2 55.2933 176.1478 7.4616 0.0000 0.2760 0.0000
# 3 14.7506 7.4616 33.9838 0.0000 6.4733 0.0000
# 4 0.0000 0.0000 0.0000 -5.5242 0.0000 9.1588
# 5 11.4592 0.2760 6.4733 0.0000 33.3969 0.0000
# 6 0.0000 0.0000 0.0000 9.1588 0.0000 31.6454
#
#
#
# Elastic Compliance Matrix: (Units=1/GPa)
#
#
# Indices 1 2 3 4 5 6 
#
# 1 0.008343 -0.002504 -0.002627 0.000000 -0.002333 0.000000
# 2 -0.002504 0.006483 -0.000509 0.000000 0.000904 0.000000
# 3 -0.002627 -0.000509 0.031675 0.000000 -0.005234 0.000000
# 4 0.000000 0.000000 0.000000 -0.122324 0.000000 0.035403
# 5 -0.002333 0.000904 -0.005234 0.000000 0.031750 0.000000
# 6 0.000000 0.000000 0.000000 0.035403 0.000000 0.021354
#
#
# Mechanical properties :
#
#
# Convention : Reuss Voigt Hill
#
# Bulk Modulus (GPa) = 28.39212 56.60562 42.49887
# Shear Modulus (GPa) = 16644.58973 30.36590 8337.47781
#
# Velocity S-wave (km/s) = 86.40343 3.69052 61.15216
# Velocity P-wave (km/s) = 99.83389 6.59917 70.74728
#
# Compressibility (1/GPa) = 0.03522104
#
# Stress axis : x y z
#
# Youngs Moduli (GPa) = 119.86419 154.24565 31.57084
#
# Poissons Ratio (x) = 0.38621 0.08294
# Poissons Ratio (y) = 0.30013 0.01607
# Poissons Ratio (z) = 0.31489 0.07849
#
# Static dielectric constant tensor:
#      x y z
#    x 3.741670 0.000000 0.034950 
#    y 0.000000 4.211590 0.000000 
#    z 0.034950 0.000000 3.534620 
# 
# 
# High freq. dielectric constant tensor:
#      x y z
#    x 1.871240 0.000000 0.012520 
#    y 0.000000 1.883950 0.000000 
#    z 0.012520 0.000000 1.851060 
# 
# From -- ./inp_files/32456.got.cif
#   From: 2010.03.12/outbox.cif.g09.slc.cpg/sg5_17_cif.got.tgz:32456.got - 2010.03.31 09:47:26.
