data_PCOD8049668
_publ_section_title
;
Structure prediction by ZEFSAII (Michael W. Deem and Ramdas Pophale) SiO2 
 PCOD8049668
Probable space group: C 2
;
_chemical_formula_sum "Si O2"
_cell_formula_units_Z 28
_cell_length_a 12.622362
_cell_length_b 7.577272
_cell_length_c 13.876188
_cell_angle_alpha 90.000000
_cell_angle_beta 111.703839
_cell_angle_gamma 90.000000
_cell_volume 1233.075837
_symmetry_space_group_name_H-M "C 2"
_symmetry_group_IT_number 5
_symmetry_cell_setting 'monoclinic'
loop_
_space_group_symop_operation_xyz
x,y,z
-x,y,-z
1/2+x,1/2+y,z
1/2-x,1/2+y,-z
loop_
_atom_site_type_symbol
_atom_site_label
_atom_site_fract_x
_atom_site_fract_y
_atom_site_fract_z
Si Si1 0.471558 0.747000 0.747119
Si Si2 0.655019 0.038234 0.991120
Si Si3 0.910006 0.419431 0.387677
Si Si4 0.404281 0.635473 0.041006
Si Si5 0.262763 0.214586 0.401498
Si Si6 0.762545 0.625561 0.614977
Si Si7 0.075737 0.581643 0.167093
O O1 0.539065 0.879168 0.699501
O O2 0.551823 0.610287 0.832871
O O3 0.369895 0.653561 0.653883
O O4 0.415325 0.871337 0.810066
O O5 0.781703 0.040111 0.988527
O O6 0.649434 0.124676 0.095781
O O7 0.615585 0.838574 0.988554
O O8 0.558388 0.136350 0.892408
O O9 0.833318 0.595438 0.349905
O O10 0.844779 0.245939 0.400146
O O11 0.000000 0.463007 0.500000
O O12 0.500000 0.555850 0.000000
O O13 0.277237 0.422294 0.386571
O O14 0.306909 0.161246 0.522335
O O15 0.865065 0.679245 0.722373
#
# Coordination Sequence:
#
# PCOD8049668 Si02
#       7
#     4   4   4   4   4   4   4
#     4  10  21  41  64  93 135 174 218 284 334 397
#     4  10  20  42  68  92 134 174 217 284 336 394
#     4  12  23  41  66  98 137 180 229 280 337 404
#     4  11  22  43  67  96 136 172 223 281 340 399
#     4  11  23  42  66  93 137 179 224 276 338 404
#     4  11  21  41  67  95 137 180 226 282 337 408
#     4   9  19  41  67  91 132 179 219 275 345 396
#
# _framework density 22.707445
#
# number of rings (size 3 to 8) (size 9 to 14) (size 15 to 20)
#    0.000    1.429    5.714    1.714    0.000    2.857 
#    5.143    0.000    0.000    0.000    0.000    0.000 
#    0.000    0.000    0.000    0.000    0.000    0.000 
#
# Total GULP energy -173504.623219 kJ/mol
# GULP energy per Si atom -12393.187373 kJ/mol
# Density = 2.265576 g / cm^3
# Si number density = 22.707445 Si / 1000 Ang^3
#
#
#
# Elastic Constant Matrix: (Units=GPa)
#
#
# Indices 1 2 3 4 5 6 
#
# 1 157.7749 31.0936 54.0505 0.0000 7.6787 0.0000
# 2 31.0936 70.7530 14.0066 0.0000 3.8618 0.0000
# 3 54.0505 14.0066 143.6534 0.0000 6.9900 0.0000
# 4 0.0000 0.0000 0.0000 20.0920 0.0000 1.3933
# 5 7.6787 3.8618 6.9900 0.0000 33.2173 0.0000
# 6 0.0000 0.0000 0.0000 1.3933 0.0000 28.5719
#
#
#
# Elastic Compliance Matrix: (Units=1/GPa)
#
#
# Indices 1 2 3 4 5 6 
#
# 1 0.007851 -0.002879 -0.002628 0.000000 -0.000927 0.000000
# 2 -0.002879 0.015532 -0.000379 0.000000 -0.001060 0.000000
# 3 -0.002628 -0.000379 0.008038 0.000000 -0.001040 0.000000
# 4 0.000000 0.000000 0.000000 0.049940 0.000000 -0.002435
# 5 -0.000927 -0.001060 -0.001040 0.000000 0.030661 0.000000
# 6 0.000000 0.000000 0.000000 -0.002435 0.000000 0.035118
#
#
# Mechanical properties :
#
#
# Convention : Reuss Voigt Hill
#
# Bulk Modulus (GPa) = 50.89884 63.38697 57.14290
# Shear Modulus (GPa) = 30.21826 34.57830 32.39828
#
# Velocity S-wave (km/s) = 3.65192 3.90651 3.78136
# Velocity P-wave (km/s) = 6.34395 6.95147 6.65465
#
# Compressibility (1/GPa) = 0.01964681
#
# Stress axis : x y z
#
# Youngs Moduli (GPa) = 127.37106 64.38290 124.41454
#
# Poissons Ratio (x) = 0.18538 0.32698
# Poissons Ratio (y) = 0.36675 0.04721
# Poissons Ratio (z) = 0.33475 0.02443
#
# Static dielectric constant tensor:
#      x y z
#    x 4.409470 0.000000 0.367170 
#    y 0.000000 3.714390 0.000000 
#    z 0.367170 0.000000 4.811060 
# 
# 
# High freq. dielectric constant tensor:
#      x y z
#    x 1.890230 0.000000 0.012020 
#    y 0.000000 1.861880 0.000000 
#    z 0.012020 0.000000 1.915120 
# 
# From -- ./inp_files/52315.got.cif
#   From: 2010.03.12/outbox.cif.g09.slc.cpg/sg5_27_cif.got.tgz:52315.got - 2010.03.31 09:47:26.
