data_PCOD8049791
_publ_section_title
;
Structure prediction by ZEFSAII (Michael W. Deem and Ramdas Pophale) SiO2 
 PCOD8049791
Probable space group: C 2
;
_chemical_formula_sum "Si O2"
_cell_formula_units_Z 28
_cell_length_a 13.292642
_cell_length_b 5.031776
_cell_length_c 25.161659
_cell_angle_alpha 90.000000
_cell_angle_beta 57.038961
_cell_angle_gamma 90.000000
_cell_volume 1412.065760
_symmetry_space_group_name_H-M "C 2"
_symmetry_group_IT_number 5
_symmetry_cell_setting 'monoclinic'
loop_
_space_group_symop_operation_xyz
x,y,z
-x,y,-z
1/2+x,1/2+y,z
1/2-x,1/2+y,-z
loop_
_atom_site_type_symbol
_atom_site_label
_atom_site_fract_x
_atom_site_fract_y
_atom_site_fract_z
Si Si1 0.186584 0.451920 0.226461
Si Si2 0.714175 0.924136 0.542579
Si Si3 0.401562 0.492096 0.572179
Si Si4 0.958059 0.999300 0.134783
Si Si5 0.160900 0.959817 0.164975
Si Si6 0.057490 0.478638 0.373157
Si Si7 0.567683 0.007341 0.926839
O O1 0.328473 0.442289 0.198371
O O2 0.156677 0.665956 0.189967
O O3 0.118352 0.527258 0.299412
O O4 0.139230 0.169680 0.218623
O O5 0.764014 0.719968 0.484986
O O6 0.780954 0.889203 0.579331
O O7 0.576295 0.867396 0.594806
O O8 0.500000 0.570405 0.500000
O O9 0.369990 0.755520 0.614887
O O10 0.450186 0.258178 0.594958
O O11 0.980401 0.788067 0.081304
O O12 0.059378 0.980712 0.149984
O O13 0.962428 0.291937 0.109258
O O14 0.290390 0.017956 0.101413
O O15 0.500000 0.934270 0.000000
#
# Coordination Sequence:
#
# PCOD8049791 Si02
#       7
#     4   4   4   4   4   4   4
#     4  10  23  39  58  84 114 147 197 239 280 336
#     4  12  23  38  59  82 110 144 179 224 285 343
#     4  12  23  39  61  83 113 147 182 229 293 349
#     4  10  21  38  60  83 118 158 189 238 283 327
#     4  10  21  39  60  82 118 155 190 240 281 327
#     4  12  24  40  60  86 113 147 189 238 284 347
#     4  10  21  36  57  91 121 152 194 233 280 336
#
# _framework density 19.829101999999999
#
# number of rings (size 3 to 8) (size 9 to 14) (size 15 to 20)
#    0.000    1.143    2.857    3.429    0.000    3.429 
#    0.000    0.000    0.000    0.000    0.000    0.000 
#    0.000    0.000    0.000    0.000    0.000    0.000 
#
# Total GULP energy -173692.749468 kJ/mol
# GULP energy per Si atom -12406.624962 kJ/mol
# Density = 1.978397 g / cm^3
# Si number density = 19.829102 Si / 1000 Ang^3
#
#
#
# Elastic Constant Matrix: (Units=GPa)
#
#
# Indices 1 2 3 4 5 6 
#
# 1 139.3998 17.2967 44.3468 -0.0219 10.6109 0.0048
# 2 17.2967 81.5167 5.6719 0.0065 -1.6240 0.0105
# 3 44.3468 5.6719 91.9939 0.0065 -5.5025 0.0035
# 4 -0.0219 0.0065 0.0065 21.8409 -0.0074 1.6928
# 5 10.6109 -1.6240 -5.5025 -0.0074 17.2262 0.0016
# 6 0.0048 0.0105 0.0035 1.6928 0.0016 25.1332
#
#
#
# Elastic Compliance Matrix: (Units=1/GPa)
#
#
# Indices 1 2 3 4 5 6 
#
# 1 0.009558 -0.001836 -0.004952 0.000009 -0.007643 0.000000
# 2 -0.001836 0.012688 0.000247 -0.000005 0.002406 -0.000005
# 3 -0.004952 0.000247 0.013687 -0.000007 0.007446 -0.000001
# 4 0.000009 -0.000005 -0.000007 0.046026 0.000012 -0.003100
# 5 -0.007643 0.002406 0.007446 0.000012 0.065364 -0.000006
# 6 0.000000 -0.000005 -0.000001 -0.003100 -0.000006 0.039997
#
#
# Mechanical properties :
#
#
# Convention : Reuss Voigt Hill
#
# Bulk Modulus (GPa) = 43.76031 49.72679 46.74355
# Shear Modulus (GPa) = 24.03626 29.21307 26.62466
#
# Velocity S-wave (km/s) = 3.48540 3.84245 3.66827
# Velocity P-wave (km/s) = 6.18983 6.69462 6.44717
#
# Compressibility (1/GPa) = 0.02285176
#
# Stress axis : x y z
#
# Youngs Moduli (GPa) = 104.61996 78.81619 73.05966
#
# Poissons Ratio (x) = 0.14470 0.36177
# Poissons Ratio (y) = 0.19207 -0.01802
# Poissons Ratio (z) = 0.51805 -0.01944
#
# Static dielectric constant tensor:
#      x y z
#    x 3.718960 -0.000020 -0.036520 
#    y -0.000020 3.727230 -0.000030 
#    z -0.036520 -0.000030 3.401840 
# 
# 
# High freq. dielectric constant tensor:
#      x y z
#    x 1.778660 0.000000 0.001930 
#    y 0.000000 1.793340 0.000000 
#    z 0.001930 0.000000 1.759460 
# 
# From -- ./inp_files/64957.got.cif
#   From: 2010.03.12/outbox.cif.g09.slc.cpg/sg5_33_cif.got.tgz:64957.got - 2010.03.31 09:47:26.
