data_PCOD8049616
_publ_section_title
;
Structure prediction by ZEFSAII (Michael W. Deem and Ramdas Pophale) SiO2 
 PCOD8049616
Probable space group: C 2
;
_chemical_formula_sum "Si O2"
_cell_formula_units_Z 28
_cell_length_a 10.872118
_cell_length_b 16.437581
_cell_length_c 7.787982
_cell_angle_alpha 90.000000
_cell_angle_beta 116.153962
_cell_angle_gamma 90.000000
_cell_volume 1249.298035
_symmetry_space_group_name_H-M "C 2"
_symmetry_group_IT_number 5
_symmetry_cell_setting 'monoclinic'
loop_
_space_group_symop_operation_xyz
x,y,z
-x,y,-z
1/2+x,1/2+y,z
1/2-x,1/2+y,-z
loop_
_atom_site_type_symbol
_atom_site_label
_atom_site_fract_x
_atom_site_fract_y
_atom_site_fract_z
Si Si1 0.057818 0.056690 0.229407
Si Si2 0.500000 0.442420 0.500000
Si Si3 0.642654 0.024628 0.685850
Si Si4 0.071844 0.690412 0.727912
Si Si5 0.000000 0.783849 0.000000
Si Si6 0.253675 0.331639 0.284881
Si Si7 0.508680 0.739966 0.209202
Si Si8 0.215760 0.359284 0.899813
O O1 0.026571 0.147257 0.281287
O O2 0.221460 0.042411 0.344312
O O3 0.982699 0.995613 0.316620
O O4 0.000000 0.042119 0.000000
O O5 0.370607 0.382637 0.453961
O O6 0.500000 0.023166 0.500000
O O7 0.655915 0.938123 0.776538
O O8 0.629899 0.100681 0.811541
O O9 0.198087 0.751008 0.787939
O O10 0.000000 0.687917 0.500000
O O11 0.975857 0.725268 0.820294
O O12 0.871716 0.843939 0.939393
O O13 0.136201 0.299829 0.342787
O O14 0.198143 0.383706 0.089968
O O15 0.373388 0.779796 0.208960
O O16 0.500000 0.741286 0.000000
#
# Coordination Sequence:
#
# PCOD8049616 Si02
#       8
#     4   2   4   4   2   4   4   4
#     4  11  25  47  72  98 139 182 227 284 340 412
#     4  12  26  40  72 108 128 174 242 276 336 408
#     4  11  25  44  66  99 142 181 224 288 349 393
#     4  10  21  44  67  98 133 178 224 280 337 405
#     4  10  24  44  74  98 130 184 236 270 346 414
#     4  10  20  41  70  97 134 181 223 281 341 409
#     4   9  20  44  69  93 137 184 222 275 352 407
#     4  10  23  43  67 102 132 182 232 281 342 408
#
# _framework density 22.412586000000001
#
# number of rings (size 3 to 8) (size 9 to 14) (size 15 to 20)
#    0.000    1.714    2.143    0.857    9.000    0.000 
#   10.286    0.000    0.000    0.000    0.000    0.000 
#    0.000    0.000    0.000    0.000    0.000    0.000 
#
# Total GULP energy -173476.527759 kJ/mol
# GULP energy per Si atom -12391.180554 kJ/mol
# Density = 2.236157 g / cm^3
# Si number density = 22.412586 Si / 1000 Ang^3
#
#
#
# Elastic Constant Matrix: (Units=GPa)
#
#
# Indices 1 2 3 4 5 6 
#
# 1 90.5804 38.7952 38.2254 0.0000 24.0191 0.0000
# 2 38.7952 157.2591 49.8443 0.0000 7.4736 0.0000
# 3 38.2254 49.8443 76.8688 0.0000 4.2383 0.0000
# 4 0.0000 0.0000 0.0000 24.3378 0.0000 2.4574
# 5 24.0191 7.4736 4.2383 0.0000 37.6202 0.0000
# 6 0.0000 0.0000 0.0000 2.4574 0.0000 15.7418
#
#
#
# Elastic Compliance Matrix: (Units=1/GPa)
#
#
# Indices 1 2 3 4 5 6 
#
# 1 0.017327 -0.001566 -0.007052 0.000000 -0.009957 0.000000
# 2 -0.001566 0.008184 -0.004521 0.000000 -0.000116 0.000000
# 3 -0.007052 -0.004521 0.019270 0.000000 0.003230 0.000000
# 4 0.000000 0.000000 0.000000 0.041746 0.000000 -0.006517
# 5 -0.009957 -0.000116 0.003230 0.000000 0.032598 0.000000
# 6 0.000000 0.000000 0.000000 -0.006517 0.000000 0.064543
#
#
# Mechanical properties :
#
#
# Convention : Reuss Voigt Hill
#
# Bulk Modulus (GPa) = 54.04917 64.27089 59.16003
# Shear Modulus (GPa) = 23.13598 28.72950 25.93274
#
# Velocity S-wave (km/s) = 3.21639 3.58417 3.40525
# Velocity P-wave (km/s) = 6.16129 6.77251 6.47412
#
# Compressibility (1/GPa) = 0.01850167
#
# Stress axis : x y z
#
# Youngs Moduli (GPa) = 57.71383 122.19030 51.89496
#
# Poissons Ratio (x) = 0.19137 0.36595
# Poissons Ratio (y) = 0.09039 0.23464
# Poissons Ratio (z) = 0.40698 0.55248
#
# Static dielectric constant tensor:
#      x y z
#    x 4.171810 0.000000 0.369790 
#    y 0.000000 4.596200 0.000000 
#    z 0.369790 0.000000 4.293320 
# 
# 
# High freq. dielectric constant tensor:
#      x y z
#    x 1.876320 0.000000 0.021330 
#    y 0.000000 1.901940 0.000000 
#    z 0.021330 0.000000 1.862070 
# 
# From -- ./inp_files/20744.got.cif
#   From: 2010.03.12/outbox.cif.g09.slc.cpg/sg5_11_cif.got.tgz:20744.got - 2010.03.31 09:47:26.
