data_PCOD8049065
_publ_section_title
;
Structure prediction by ZEFSAII (Michael W. Deem and Ramdas Pophale) SiO2 
 PCOD8049065
Probable space group: C 2
;
_chemical_formula_sum "Si O2"
_cell_formula_units_Z 32
_cell_length_a 13.806455
_cell_length_b 9.478001
_cell_length_c 23.891971
_cell_angle_alpha 90.000000
_cell_angle_beta 31.007780
_cell_angle_gamma 90.000000
_cell_volume 1610.602529
_symmetry_space_group_name_H-M "C 2"
_symmetry_group_IT_number 5
_symmetry_cell_setting 'monoclinic'
loop_
_space_group_symop_operation_xyz
x,y,z
-x,y,-z
1/2+x,1/2+y,z
1/2-x,1/2+y,-z
loop_
_atom_site_type_symbol
_atom_site_label
_atom_site_fract_x
_atom_site_fract_y
_atom_site_fract_z
Si Si1 0.056309 0.886870 0.257537
Si Si2 0.440005 0.672649 0.466545
Si Si3 0.883685 0.745213 0.894090
Si Si4 0.354044 0.978278 0.523226
Si Si5 0.348352 0.478710 0.000666
Si Si6 0.751730 0.622479 0.224445
Si Si7 0.739102 0.910148 0.171619
Si Si8 0.550383 0.113737 0.630966
O O1 0.082812 0.806776 0.184877
O O2 0.864069 0.979708 0.348264
O O3 0.037024 0.765888 0.313481
O O4 0.231636 0.984026 0.193380
O O5 0.500000 0.673380 0.500000
O O6 0.396278 0.832800 0.469297
O O7 0.589527 0.605178 0.350702
O O8 0.249045 0.583930 0.562278
O O9 0.056756 0.654360 0.835485
O O10 0.821185 0.879814 0.960651
O O11 0.708501 0.639571 0.982761
O O12 0.500000 0.998004 0.500000
O O13 0.403685 0.106920 0.457701
O O14 0.565342 0.481860 0.909079
O O15 0.215990 0.419947 0.116166
O O16 0.725029 0.747786 0.194228
O O17 0.581635 0.990218 0.283269
#
# Coordination Sequence:
#
# PCOD8049065 Si02
#       8
#     4   4   4   4   4   4   4   4
#     4  11  24  40  66  99 132 173 221 272 334 398
#     4  10  20  35  62  91 127 171 209 255 325 405
#     4  11  24  45  68  96 130 171 225 285 337 401
#     4  10  20  36  62  91 128 174 209 255 325 399
#     4  10  24  43  65  92 123 169 227 275 340 390
#     4  11  22  41  65  95 130 172 218 266 338 408
#     4  10  22  42  65  85 126 175 212 273 337 392
#     4  11  20  38  64  94 133 165 214 267 325 399
#
# _framework density 19.868341999999998
#
# number of rings (size 3 to 8) (size 9 to 14) (size 15 to 20)
#    0.000    1.500    3.750    2.250    3.500    1.000 
#    0.000    1.875    2.750    0.000    0.000    0.000 
#    0.000    0.000    0.000    0.000    0.000    0.000 
#
# Total GULP energy -198266.170056 kJ/mol
# GULP energy per Si atom -12391.635629 kJ/mol
# Density = 1.982312 g / cm^3
# Si number density = 19.868342 Si / 1000 Ang^3
#
#
#
# Elastic Constant Matrix: (Units=GPa)
#
#
# Indices 1 2 3 4 5 6 
#
# 1 85.6257 57.8148 34.9866 0.0000 11.5485 0.0000
# 2 57.8148 99.7991 49.6146 0.0000 2.9617 0.0000
# 3 34.9866 49.6146 85.8160 -0.0012 5.5200 0.0001
# 4 0.0000 0.0000 -0.0012 28.0091 0.0001 2.2712
# 5 11.5485 2.9617 5.5200 0.0001 24.2305 0.0000
# 6 0.0000 0.0000 0.0001 2.2712 0.0000 38.4873
#
#
#
# Elastic Compliance Matrix: (Units=1/GPa)
#
#
# Indices 1 2 3 4 5 6 
#
# 1 0.020930 -0.011089 -0.001591 0.000000 -0.008258 0.000000
# 2 -0.011089 0.019937 -0.007296 0.000000 0.004510 0.000000
# 3 -0.001591 -0.007296 0.016658 0.000001 -0.002145 0.000000
# 4 0.000000 0.000000 0.000001 0.035874 0.000000 -0.002117
# 5 -0.008258 0.004510 -0.002145 0.000000 0.045143 0.000000
# 6 0.000000 0.000000 0.000000 -0.002117 0.000000 0.026107
#
#
# Mechanical properties :
#
#
# Convention : Reuss Voigt Hill
#
# Bulk Modulus (GPa) = 56.90452 61.78586 59.34519
# Shear Modulus (GPa) = 23.75761 26.73372 25.24567
#
# Velocity S-wave (km/s) = 3.46172 3.67214 3.56848
# Velocity P-wave (km/s) = 6.68438 7.01033 6.84929
#
# Compressibility (1/GPa) = 0.01757330
#
# Stress axis : x y z
#
# Youngs Moduli (GPa) = 47.77901 50.15688 60.03297
#
# Poissons Ratio (x) = 0.55619 0.09549
# Poissons Ratio (y) = 0.52982 0.43800
# Poissons Ratio (z) = 0.07600 0.36595
#
# Static dielectric constant tensor:
#      x y z
#    x 3.728230 0.000000 0.040910 
#    y 0.000000 3.715090 0.000000 
#    z 0.040910 0.000000 3.737030 
# 
# 
# High freq. dielectric constant tensor:
#      x y z
#    x 1.778480 0.000000 0.005290 
#    y 0.000000 1.765920 0.000000 
#    z 0.005290 0.000000 1.780510 
# 
# From -- ./inp_files/54196.got.cif
#   From: 2010.03.12/outbox.cif.g09.slc.cpg/sg5_28_cif.got.tgz:54196.got - 2010.03.31 09:47:26.
