data_PCOD8049189
_publ_section_title
;
Structure prediction by ZEFSAII (Michael W. Deem and Ramdas Pophale) SiO2 
 PCOD8049189
Probable space group: C 2
;
_chemical_formula_sum "Si O2"
_cell_formula_units_Z 28
_cell_length_a 14.712902
_cell_length_b 19.690444
_cell_length_c 4.932292
_cell_angle_alpha 90.000000
_cell_angle_beta 99.203417
_cell_angle_gamma 90.000000
_cell_volume 1410.507963
_symmetry_space_group_name_H-M "C 2"
_symmetry_group_IT_number 5
_symmetry_cell_setting 'monoclinic'
loop_
_space_group_symop_operation_xyz
x,y,z
-x,y,-z
1/2+x,1/2+y,z
1/2-x,1/2+y,-z
loop_
_atom_site_type_symbol
_atom_site_label
_atom_site_fract_x
_atom_site_fract_y
_atom_site_fract_z
Si Si1 0.211588 0.836140 0.605619
Si Si2 0.000000 0.259435 0.500000
Si Si3 0.712780 0.155832 0.127239
Si Si4 0.897729 0.968485 0.512339
Si Si5 0.184784 0.292578 0.837566
Si Si6 0.500000 0.666945 0.000000
Si Si7 0.107383 0.700188 0.586373
Si Si8 0.146331 0.055950 0.986028
O O1 0.171282 0.910854 0.626367
O O2 0.245860 0.834345 0.315181
O O3 0.131532 0.779985 0.588265
O O4 0.297056 0.821865 0.851791
O O5 0.082546 0.305071 0.667203
O O6 0.968777 0.212736 0.733102
O O7 0.628353 0.176036 0.897877
O O8 0.794761 0.211872 0.158161
O O9 0.669269 0.154958 0.408378
O O10 0.750182 0.083046 0.032208
O O11 0.000000 0.939616 0.500000
O O12 0.890921 0.033020 0.319409
O O13 0.869313 0.995774 0.799628
O O14 0.589772 0.622072 0.026838
O O15 0.000000 0.688850 0.500000
#
# Coordination Sequence:
#
# PCOD8049189 Si02
#       8
#     4   2   4   4   4   2   4   4
#     4  10  22  38  56  83 120 152 197 240 283 344
#     4  12  22  34  62  88 122 154 186 240 306 354
#     4  10  21  35  56  85 121 148 185 240 296 346
#     4  12  23  38  58  85 119 164 197 229 285 355
#     4  10  21  36  56  86 116 153 190 240 298 345
#     4  12  22  34  56  88 132 152 186 232 278 378
#     4  10  20  37  59  85 113 150 193 243 292 340
#     4  12  23  37  55  90 124 157 191 232 287 361
#
# _framework density 19.851004
#
# number of rings (size 3 to 8) (size 9 to 14) (size 15 to 20)
#    0.000    1.143    2.857    4.286    4.000    0.000 
#    0.000    4.286    0.000    0.000   27.857    0.000 
#    0.000    0.000    0.000    0.000    0.000    0.000 
#
# Total GULP energy -173458.562730 kJ/mol
# GULP energy per Si atom -12389.897338 kJ/mol
# Density = 1.980582 g / cm^3
# Si number density = 19.851004 Si / 1000 Ang^3
#
#
#
# Elastic Constant Matrix: (Units=GPa)
#
#
# Indices 1 2 3 4 5 6 
#
# 1 70.2242 31.8033 24.4447 0.0000 15.9341 0.0000
# 2 31.8033 57.0294 21.0159 0.0000 -1.8027 0.0000
# 3 24.4447 21.0159 95.5002 0.0000 0.6846 0.0000
# 4 0.0000 0.0000 0.0000 16.0012 0.0000 11.9604
# 5 15.9341 -1.8027 0.6846 0.0000 36.0712 0.0000
# 6 0.0000 0.0000 0.0000 11.9604 0.0000 24.3398
#
#
#
# Elastic Compliance Matrix: (Units=1/GPa)
#
#
# Indices 1 2 3 4 5 6 
#
# 1 0.023335 -0.012171 -0.003217 0.000000 -0.010855 0.000000
# 2 -0.012171 0.025469 -0.002537 0.000000 0.006697 0.000000
# 3 -0.003217 -0.002537 0.011845 0.000000 0.001069 0.000000
# 4 0.000000 0.000000 0.000000 0.098776 0.000000 -0.048538
# 5 -0.010855 0.006697 0.001069 0.000000 0.032833 0.000000
# 6 0.000000 0.000000 0.000000 -0.048538 0.000000 0.064936
#
#
# Mechanical properties :
#
#
# Convention : Reuss Voigt Hill
#
# Bulk Modulus (GPa) = 40.32414 41.92017 41.12216
# Shear Modulus (GPa) = 16.59424 24.98177 20.78801
#
# Velocity S-wave (km/s) = 2.89440 3.55133 3.23956
# Velocity P-wave (km/s) = 5.61494 6.16273 5.89520
#
# Compressibility (1/GPa) = 0.02479904
#
# Stress axis : x y z
#
# Youngs Moduli (GPa) = 42.85443 39.26378 84.42173
#
# Poissons Ratio (x) = 0.47787 0.27157
# Poissons Ratio (y) = 0.52157 0.21421
# Poissons Ratio (z) = 0.13785 0.09963
#
# Static dielectric constant tensor:
#      x y z
#    x 3.555440 0.000000 -0.193230 
#    y 0.000000 3.329620 0.000000 
#    z -0.193230 0.000000 3.823530 
# 
# 
# High freq. dielectric constant tensor:
#      x y z
#    x 1.767840 0.000000 -0.007660 
#    y 0.000000 1.740610 0.000000 
#    z -0.007660 0.000000 1.797540 
# 
# From -- ./inp_files/7233.got.cif
#   From: 2010.03.12/outbox.cif.g09.slc.cpg/sg5_4_cif.got.tgz:7233.got - 2010.03.31 09:47:26.
