data_PCOD8049319
_publ_section_title
;
Structure prediction by ZEFSAII (Michael W. Deem and Ramdas Pophale) SiO2 
 PCOD8049319
Probable space group: C 2
;
_chemical_formula_sum "Si O2"
_cell_formula_units_Z 32
_cell_length_a 8.538620
_cell_length_b 21.348773
_cell_length_c 14.643353
_cell_angle_alpha 90.000000
_cell_angle_beta 32.197170
_cell_angle_gamma 90.000000
_cell_volume 1422.307361
_symmetry_space_group_name_H-M "C 2"
_symmetry_group_IT_number 5
_symmetry_cell_setting 'monoclinic'
loop_
_space_group_symop_operation_xyz
x,y,z
-x,y,-z
1/2+x,1/2+y,z
1/2-x,1/2+y,-z
loop_
_atom_site_type_symbol
_atom_site_label
_atom_site_fract_x
_atom_site_fract_y
_atom_site_fract_z
Si Si1 0.806442 0.308490 0.828561
Si Si2 0.081070 0.478901 0.777954
Si Si3 0.772060 0.991459 0.485536
Si Si4 0.162474 0.674078 0.831115
Si Si5 0.302782 0.612503 0.365445
Si Si6 0.371220 0.840964 0.163947
Si Si7 0.188680 0.093453 0.997143
Si Si8 0.202555 0.355791 0.480009
O O1 0.698211 0.248635 0.822749
O O2 0.971703 0.292055 0.843134
O O3 0.033582 0.349190 0.658769
O O4 0.500000 0.345888 0.000000
O O5 0.064205 0.481329 0.676197
O O6 0.393662 0.505754 0.652843
O O7 0.044984 0.408954 0.835744
O O8 0.831392 0.524623 0.940829
O O9 0.754899 0.928718 0.433070
O O10 0.672782 0.048682 0.472720
O O11 0.491794 0.646799 0.661486
O O12 0.946290 0.647311 0.858814
O O13 0.000000 0.645863 0.000000
O O14 0.000000 0.652205 0.500000
O O15 0.472119 0.604116 0.187807
O O16 0.024593 0.824653 0.329891
O O17 0.500000 0.833008 0.000000
O O18 0.000000 0.097402 0.000000
O O19 0.000000 0.325727 0.500000
#
# Coordination Sequence:
#
# PCOD8049319 Si02
#       8
#     4   4   4   4   4   4   4   4
#     4  11  23  46  69  96 134 185 237 290 348 409
#     4  10  21  37  63  98 135 183 213 283 342 420
#     4  10  20  38  61  93 138 175 221 274 340 412
#     4   9  22  44  69  92 130 181 233 289 339 406
#     4  11  22  39  63  96 129 179 224 278 347 405
#     4  11  24  41  69 101 138 184 238 287 356 418
#     4  11  23  41  66 100 138 177 234 283 351 416
#     4  11  23  41  63  97 138 182 229 284 345 412
#
# _framework density 22.498652
#
# number of rings (size 3 to 8) (size 9 to 14) (size 15 to 20)
#    0.000    1.500    2.500    2.250    3.500    1.500 
#    2.250   11.875    0.000    0.000    0.000    0.000 
#    0.000    0.000    0.000    0.000    0.000    0.000 
#
# Total GULP energy -198273.585258 kJ/mol
# GULP energy per Si atom -12392.099079 kJ/mol
# Density = 2.244744 g / cm^3
# Si number density = 22.498652 Si / 1000 Ang^3
#
#
#
# Elastic Constant Matrix: (Units=GPa)
#
#
# Indices 1 2 3 4 5 6 
#
# 1 135.1490 22.0406 53.3483 -0.0041 -18.3188 0.0013
# 2 22.0406 60.6948 16.4347 -0.0135 -10.7109 0.0119
# 3 53.3483 16.4347 144.7718 -0.0250 -20.5320 0.0169
# 4 -0.0041 -0.0135 -0.0250 22.0007 0.0116 -2.3643
# 5 -18.3188 -10.7109 -20.5320 0.0116 44.5749 -0.0073
# 6 0.0013 0.0119 0.0169 -2.3643 -0.0073 23.6777
#
#
#
# Elastic Compliance Matrix: (Units=1/GPa)
#
#
# Indices 1 2 3 4 5 6 
#
# 1 0.009143 -0.002211 -0.002847 -0.000004 0.001915 0.000003
# 2 -0.002211 0.018035 -0.000799 0.000007 0.003057 -0.000007
# 3 -0.002847 -0.000799 0.008403 0.000007 0.002509 -0.000004
# 4 -0.000004 0.000007 0.000007 0.045946 -0.000008 0.004588
# 5 0.001915 0.003057 0.002509 -0.000008 0.025111 0.000004
# 6 0.000003 -0.000007 -0.000004 0.004588 0.000004 0.042692
#
#
# Mechanical properties :
#
#
# Convention : Reuss Voigt Hill
#
# Bulk Modulus (GPa) = 41.89926 58.25140 50.07533
# Shear Modulus (GPa) = 29.58587 34.63679 32.11133
#
# Velocity S-wave (km/s) = 3.63024 3.92791 3.78200
# Velocity P-wave (km/s) = 6.01954 6.82045 6.43248
#
# Compressibility (1/GPa) = 0.02386677
#
# Stress axis : x y z
#
# Youngs Moduli (GPa) = 109.37190 55.44864 119.00686
#
# Poissons Ratio (x) = 0.12262 0.33876
# Poissons Ratio (y) = 0.24187 0.09507
# Poissons Ratio (z) = 0.31134 0.04430
#
# Static dielectric constant tensor:
#      x y z
#    x 4.261180 -0.000020 -0.301280 
#    y -0.000020 3.698270 0.000000 
#    z -0.301280 0.000000 4.127750 
# 
# 
# High freq. dielectric constant tensor:
#      x y z
#    x 1.898200 0.000000 -0.020240 
#    y 0.000000 1.857120 0.000000 
#    z -0.020240 0.000000 1.889570 
# 
# From -- ./inp_files/25679.got.cif
#   From: 2010.03.12/outbox.cif.g09.slc.cpg/sg5_13_cif.got.tgz:25679.got - 2010.03.31 09:47:26.
