data_PCOD8049679
_publ_section_title
;
Structure prediction by ZEFSAII (Michael W. Deem and Ramdas Pophale) SiO2 
 PCOD8049679
Probable space group: C 2
;
_chemical_formula_sum "Si O2"
_cell_formula_units_Z 16
_cell_length_a 8.871800
_cell_length_b 11.266095
_cell_length_c 9.491064
_cell_angle_alpha 90.000000
_cell_angle_beta 46.898285
_cell_angle_gamma 90.000000
_cell_volume 692.639541
_symmetry_space_group_name_H-M "C 2"
_symmetry_group_IT_number 5
_symmetry_cell_setting 'monoclinic'
loop_
_space_group_symop_operation_xyz
x,y,z
-x,y,-z
1/2+x,1/2+y,z
1/2-x,1/2+y,-z
loop_
_atom_site_type_symbol
_atom_site_label
_atom_site_fract_x
_atom_site_fract_y
_atom_site_fract_z
Si Si1 0.796459 0.360240 0.189571
Si Si2 0.509759 0.615213 0.842361
Si Si3 0.303671 0.571593 0.556856
Si Si4 0.077609 0.720659 0.100861
O O1 0.869269 0.238478 0.213782
O O2 0.697049 0.443151 0.369482
O O3 0.638393 0.331940 0.161768
O O4 0.000000 0.427417 0.000000
O O5 0.642649 0.545080 0.641501
O O6 0.500000 0.547317 0.000000
O O7 0.275128 0.637000 0.941086
O O8 0.500000 0.642263 0.500000
O O9 0.094759 0.644782 0.706716
O O10 0.000000 0.769294 0.000000
#
# Coordination Sequence:
#
# PCOD8049679 Si02
#       4
#     4   4   4   4
#     4   9  23  43  72 100 136 180 224 280 335 399
#     4   9  22  44  69  98 140 177 223 281 334 397
#     4  12  23  37  74 104 132 178 225 274 338 396
#     4  10  20  42  70  96 141 180 219 280 334 398
#
# _framework density 23.100038999999999
#
# number of rings (size 3 to 8) (size 9 to 14) (size 15 to 20)
#    0.000    2.500    2.500    0.750    3.500    3.000 
#    0.000    1.250   38.500    0.000    0.000    0.000 
#    0.000    0.000    0.000    0.000    0.000    0.000 
#
# Total GULP energy -99146.754075 kJ/mol
# GULP energy per Si atom -12393.344259 kJ/mol
# Density = 2.304746 g / cm^3
# Si number density = 23.100039 Si / 1000 Ang^3
#
#
#
# Elastic Constant Matrix: (Units=GPa)
#
#
# Indices 1 2 3 4 5 6 
#
# 1 168.0072 42.3753 83.3099 -0.0004 10.9576 0.0005
# 2 42.3753 43.5906 65.0346 -0.0001 9.1749 0.0002
# 3 83.3099 65.0346 225.7276 -0.0003 26.8803 0.0005
# 4 -0.0004 -0.0001 -0.0003 41.2685 0.0003 4.8259
# 5 10.9576 9.1749 26.8803 0.0003 44.1021 -0.0005
# 6 0.0005 0.0002 0.0005 4.8259 -0.0005 24.6511
#
#
#
# Elastic Compliance Matrix: (Units=1/GPa)
#
#
# Indices 1 2 3 4 5 6 
#
# 1 0.008086 -0.005977 -0.001262 0.000000 0.000004 0.000000
# 2 -0.005977 0.044736 -0.010515 0.000000 -0.001413 0.000000
# 3 -0.001262 -0.010515 0.008225 0.000000 -0.002512 0.000000
# 4 0.000000 0.000000 0.000000 0.024799 0.000000 -0.004855
# 5 0.000004 -0.001413 -0.002512 0.000000 0.024499 0.000001
# 6 0.000000 0.000000 0.000000 -0.004855 0.000001 0.041517
#
#
# Mechanical properties :
#
#
# Convention : Reuss Voigt Hill
#
# Bulk Modulus (GPa) = 39.15863 90.97391 65.06627
# Shear Modulus (GPa) = 25.52556 38.44469 31.98512
#
# Velocity S-wave (km/s) = 3.32776 4.08397 3.72511
# Velocity P-wave (km/s) = 5.63506 7.85535 6.83595
#
# Compressibility (1/GPa) = 0.02553715
#
# Stress axis : x y z
#
# Youngs Moduli (GPa) = 123.67767 22.35331 121.58729
#
# Poissons Ratio (x) = 0.13362 0.15350
# Poissons Ratio (y) = 0.73928 1.27844
# Poissons Ratio (z) = 0.15614 0.23504
#
# Static dielectric constant tensor:
#      x y z
#    x 4.430770 0.000000 -0.038610 
#    y 0.000000 3.557980 0.000000 
#    z -0.038610 0.000000 4.639250 
# 
# 
# High freq. dielectric constant tensor:
#      x y z
#    x 1.926260 0.000000 -0.005550 
#    y 0.000000 1.869870 0.000000 
#    z -0.005550 0.000000 1.937220 
# 
# From -- ./inp_files/14176.got.cif
#   From: 2010.03.12/outbox.cif.g09.slc.cpg/sg5_8_cif.got.tgz:14176.got - 2010.03.31 09:47:26.
