data_PCOD8049834
_publ_section_title
;
Structure prediction by ZEFSAII (Michael W. Deem and Ramdas Pophale) SiO2 
 PCOD8049834
Probable space group: C 2
;
_chemical_formula_sum "Si O2"
_cell_formula_units_Z 28
_cell_length_a 9.987072
_cell_length_b 13.112467
_cell_length_c 11.255526
_cell_angle_alpha 90.000000
_cell_angle_beta 108.802546
_cell_angle_gamma 90.000000
_cell_volume 1395.310666
_symmetry_space_group_name_H-M "C 2"
_symmetry_group_IT_number 5
_symmetry_cell_setting 'monoclinic'
loop_
_space_group_symop_operation_xyz
x,y,z
-x,y,-z
1/2+x,1/2+y,z
1/2-x,1/2+y,-z
loop_
_atom_site_type_symbol
_atom_site_label
_atom_site_fract_x
_atom_site_fract_y
_atom_site_fract_z
Si Si1 0.516668 0.190650 0.731747
Si Si2 0.354055 0.257882 0.000305
Si Si3 0.115689 0.866297 0.432293
Si Si4 0.649564 0.875579 0.088348
Si Si5 0.769297 0.245223 0.660456
Si Si6 0.788412 0.587507 0.798558
Si Si7 0.974106 0.081639 0.625880
O O1 0.611917 0.185787 0.877147
O O2 0.436169 0.299235 0.693860
O O3 0.625137 0.179569 0.650379
O O4 0.390782 0.106308 0.711395
O O5 0.253763 0.350171 0.009275
O O6 0.500000 0.309045 0.000000
O O7 0.285678 0.189528 0.877220
O O8 0.250743 0.813004 0.534772
O O9 0.000000 0.873166 0.500000
O O10 0.131466 0.983458 0.393873
O O11 0.696671 0.820283 0.222053
O O12 0.645247 0.996054 0.106963
O O13 0.500000 0.835147 0.000000
O O14 0.900631 0.170550 0.679584
O O15 0.629313 0.556249 0.720734
O O16 0.000000 0.119742 0.500000
#
# Coordination Sequence:
#
# PCOD8049834 Si02
#       7
#     4   4   4   4   4   4   4
#     4   9  18  36  57  78 109 147 185 226 274 330
#     4   9  19  36  55  79 109 147 189 228 272 328
#     4   9  18  35  58  80 109 147 184 224 278 332
#     4  11  21  37  57  82 115 150 186 233 282 330
#     4  10  21  37  58  84 112 147 189 233 277 331
#     4  11  21  37  58  82 112 150 188 230 281 333
#     4  11  21  36  58  85 112 146 186 232 281 334
#
# _framework density 20.067215999999998
#
# number of rings (size 3 to 8) (size 9 to 14) (size 15 to 20)
#    0.000    2.000    0.000    6.429    0.000    0.000 
#    0.000   16.429    0.000    0.000    0.000    0.000 
#    0.000    0.000    0.000    0.000    0.000    0.000 
#
# Total GULP energy -173480.755168 kJ/mol
# GULP energy per Si atom -12391.482512 kJ/mol
# Density = 2.002154 g / cm^3
# Si number density = 20.067216 Si / 1000 Ang^3
#
#
#
# Elastic Constant Matrix: (Units=GPa)
#
#
# Indices 1 2 3 4 5 6 
#
# 1 111.6116 49.2581 23.4716 0.0000 4.9906 0.0000
# 2 49.2581 88.1416 15.6072 0.0000 -7.5160 0.0000
# 3 23.4716 15.6072 77.4332 0.0000 10.0617 0.0000
# 4 0.0000 0.0000 0.0000 28.9545 0.0000 -2.2922
# 5 4.9906 -7.5160 10.0617 0.0000 29.1576 0.0000
# 6 0.0000 0.0000 0.0000 -2.2922 0.0000 28.4522
#
#
#
# Elastic Compliance Matrix: (Units=1/GPa)
#
#
# Indices 1 2 3 4 5 6 
#
# 1 0.012599 -0.006967 -0.001990 0.000000 -0.003265 0.000000
# 2 -0.006967 0.016089 -0.001910 0.000000 0.005999 0.000000
# 3 -0.001990 -0.001910 0.014576 0.000000 -0.005182 0.000000
# 4 0.000000 0.000000 0.000000 0.034759 0.000000 0.002800
# 5 -0.003265 0.005999 -0.005182 0.000000 0.038190 0.000000
# 6 0.000000 0.000000 0.000000 0.002800 0.000000 0.035372
#
#
# Mechanical properties :
#
#
# Convention : Reuss Voigt Hill
#
# Bulk Modulus (GPa) = 46.45111 50.42890 48.44000
# Shear Modulus (GPa) = 27.70141 29.90283 28.80212
#
# Velocity S-wave (km/s) = 3.71945 3.86441 3.79262
# Velocity P-wave (km/s) = 6.45319 6.71536 6.58558
#
# Compressibility (1/GPa) = 0.02152801
#
# Stress axis : x y z
#
# Youngs Moduli (GPa) = 79.37128 62.15537 68.60550
#
# Poissons Ratio (x) = 0.43304 0.13656
# Poissons Ratio (y) = 0.55298 0.13107
# Poissons Ratio (z) = 0.15799 0.11875
#
# Static dielectric constant tensor:
#      x y z
#    x 3.728550 0.000000 -0.000060 
#    y 0.000000 3.660850 0.000000 
#    z -0.000060 0.000000 3.826270 
# 
# 
# High freq. dielectric constant tensor:
#      x y z
#    x 1.773610 0.000000 0.008250 
#    y 0.000000 1.763160 0.000000 
#    z 0.008250 0.000000 1.789260 
# 
# From -- ./inp_files/36071.got.cif
#   From: 2010.03.12/outbox.cif.g09.slc.cpg/sg5_19_cif.got.tgz:36071.got - 2010.03.31 09:47:26.
