data_PCOD8049058
_publ_section_title
;
Structure prediction by ZEFSAII (Michael W. Deem and Ramdas Pophale) SiO2 
 PCOD8049058
Probable space group: C 2
;
_chemical_formula_sum "Si O2"
_cell_formula_units_Z 28
_cell_length_a 13.725170
_cell_length_b 14.749366
_cell_length_c 8.662436
_cell_angle_alpha 90.000000
_cell_angle_beta 122.719814
_cell_angle_gamma 90.000000
_cell_volume 1475.347596
_symmetry_space_group_name_H-M "C 2"
_symmetry_group_IT_number 5
_symmetry_cell_setting 'monoclinic'
loop_
_space_group_symop_operation_xyz
x,y,z
-x,y,-z
1/2+x,1/2+y,z
1/2-x,1/2+y,-z
loop_
_atom_site_type_symbol
_atom_site_label
_atom_site_fract_x
_atom_site_fract_y
_atom_site_fract_z
Si Si1 0.492944 0.104930 0.663013
Si Si2 0.255666 0.149898 0.610567
Si Si3 0.743472 0.857881 0.067870
Si Si4 0.518666 0.897525 0.686497
Si Si5 0.794306 0.321117 0.637627
Si Si6 0.388448 0.229665 0.999482
Si Si7 0.636581 0.469528 0.593433
O O1 0.500000 0.152376 0.500000
O O2 0.363791 0.105973 0.617127
O O3 0.580368 0.151685 0.854104
O O4 0.536451 0.003666 0.684017
O O5 0.207117 0.231411 0.465858
O O6 0.160478 0.070879 0.551317
O O7 0.288673 0.190540 0.804398
O O8 0.635949 0.863100 0.862184
O O9 0.706484 0.793687 0.181358
O O10 0.847140 0.816371 0.058078
O O11 0.792998 0.952479 0.184032
O O12 0.500000 0.853828 0.500000
O O13 0.411816 0.875205 0.705006
O O14 0.685516 0.391422 0.516153
O O15 0.500000 0.261849 0.000000
O O16 0.500000 0.456316 0.500000
#
# Coordination Sequence:
#
# PCOD8049058 Si02
#       7
#     4   4   4   4   4   4   4
#     4  10  20  35  60  89 123 163 217 264 316 386
#     4  11  21  39  61  94 122 170 218 264 324 384
#     4  10  22  40  61  93 129 168 213 263 329 384
#     4  11  21  39  62  95 124 160 213 271 319 381
#     4  10  23  38  66  88 126 169 211 260 323 389
#     4  10  22  34  60  91 127 167 216 272 311 387
#     4  10  24  40  64  91 132 172 211 261 330 387
#
# _framework density 18.978579
#
# number of rings (size 3 to 8) (size 9 to 14) (size 15 to 20)
#    0.857    0.857    1.429    3.000    4.000    2.857 
#    0.000    0.000    0.000    0.000    0.000    0.000 
#    0.000    0.000    0.000    0.000    0.000    0.000 
#
# Total GULP energy -173513.170674 kJ/mol
# GULP energy per Si atom -12393.797905 kJ/mol
# Density = 1.893538 g / cm^3
# Si number density = 18.978579 Si / 1000 Ang^3
#
#
#
# Elastic Constant Matrix: (Units=GPa)
#
#
# Indices 1 2 3 4 5 6 
#
# 1 104.8882 46.2349 49.3335 0.0000 -2.1532 0.0000
# 2 46.2349 100.8787 44.8610 0.0000 -1.8664 0.0000
# 3 49.3335 44.8610 133.4775 0.0000 -7.1114 0.0000
# 4 0.0000 0.0000 0.0000 15.3684 0.0000 -11.3182
# 5 -2.1532 -1.8664 -7.1114 0.0000 37.7792 0.0000
# 6 0.0000 0.0000 0.0000 -11.3182 0.0000 28.3588
#
#
#
# Elastic Compliance Matrix: (Units=1/GPa)
#
#
# Indices 1 2 3 4 5 6 
#
# 1 0.013088 -0.004523 -0.003323 0.000000 -0.000103 0.000000
# 2 -0.004523 0.013219 -0.002778 0.000000 -0.000128 0.000000
# 3 -0.003323 -0.002778 0.009734 0.000000 0.001506 0.000000
# 4 0.000000 0.000000 0.000000 0.092155 0.000000 0.036780
# 5 -0.000103 -0.000128 0.001506 0.000000 0.026741 0.000000
# 6 0.000000 0.000000 0.000000 0.036780 0.000000 0.049941
#
#
# Mechanical properties :
#
#
# Convention : Reuss Voigt Hill
#
# Bulk Modulus (GPa) = 67.59593 68.90034 68.24814
# Shear Modulus (GPa) = 21.63966 29.55563 25.59765
#
# Velocity S-wave (km/s) = 3.38037 3.95056 3.67654
# Velocity P-wave (km/s) = 7.13654 7.56256 7.35264
#
# Compressibility (1/GPa) = 0.01479379
#
# Stress axis : x y z
#
# Youngs Moduli (GPa) = 76.40319 75.64970 102.73396
#
# Poissons Ratio (x) = 0.34216 0.34137
# Poissons Ratio (y) = 0.34557 0.28538
# Poissons Ratio (z) = 0.25388 0.21015
#
# Static dielectric constant tensor:
#      x y z
#    x 3.615370 0.000000 -0.253700 
#    y 0.000000 3.267370 0.000000 
#    z -0.253700 0.000000 3.571560 
# 
# 
# High freq. dielectric constant tensor:
#      x y z
#    x 1.746930 0.000000 -0.008430 
#    y 0.000000 1.723160 0.000000 
#    z -0.008430 0.000000 1.735180 
# 
# From -- ./inp_files/24675.got.cif
#   From: 2010.03.12/outbox.cif.g09.slc.cpg/sg5_13_cif.got.tgz:24675.got - 2010.03.31 09:47:26.
