data_PCOD8049215
_publ_section_title
;
Structure prediction by ZEFSAII (Michael W. Deem and Ramdas Pophale) SiO2 
 PCOD8049215
Probable space group: C 2
;
_chemical_formula_sum "Si O2"
_cell_formula_units_Z 24
_cell_length_a 13.191448
_cell_length_b 13.491345
_cell_length_c 8.477133
_cell_angle_alpha 90.000000
_cell_angle_beta 47.177043
_cell_angle_gamma 90.000000
_cell_volume 1106.551702
_symmetry_space_group_name_H-M "C 2"
_symmetry_group_IT_number 5
_symmetry_cell_setting 'monoclinic'
loop_
_space_group_symop_operation_xyz
x,y,z
-x,y,-z
1/2+x,1/2+y,z
1/2-x,1/2+y,-z
loop_
_atom_site_type_symbol
_atom_site_label
_atom_site_fract_x
_atom_site_fract_y
_atom_site_fract_z
Si Si1 0.748096 0.625000 0.500539
Si Si2 0.355564 0.718836 0.081620
Si Si3 0.020427 0.027837 0.160268
Si Si4 0.971768 0.468036 0.211358
Si Si5 0.357437 0.808482 0.563413
Si Si6 0.744789 0.894393 0.024466
O O1 0.742776 0.672240 0.680692
O O2 0.629439 0.541220 0.601677
O O3 0.895100 0.572736 0.317113
O O4 0.724886 0.710628 0.398152
O O5 0.273621 0.804071 0.077167
O O6 0.500000 0.761116 0.000000
O O7 0.397945 0.632598 0.914144
O O8 0.107103 0.945295 0.163538
O O9 0.000000 0.997874 0.000000
O O10 0.885769 0.377430 0.380853
O O11 0.000000 0.445149 0.000000
O O12 0.121550 0.474621 0.135783
O O13 0.500000 0.780412 0.500000
O O14 0.255999 0.862603 0.792331
#
# Coordination Sequence:
#
# PCOD8049215 Si02
#       6
#     4   4   4   4   4   4
#     4  10  21  40  62  86 119 159 200 246 297 357
#     4   9  18  38  64  87 118 162 198 235 301 378
#     4   9  19  38  62  86 116 155 197 243 296 356
#     4  11  23  39  62  90 122 161 205 249 293 352
#     4  10  20  37  61  87 118 162 204 238 295 372
#     4  11  21  38  65  92 117 155 201 249 302 361
#
# _framework density 21.689
#
# number of rings (size 3 to 8) (size 9 to 14) (size 15 to 20)
#    0.000    2.333    0.000    7.500    0.000    3.333 
#    0.000    5.833    0.000   14.000    0.000    0.000 
#    0.000    0.000    0.000    0.000    0.000    0.000 
#
# Total GULP energy -148759.931413 kJ/mol
# GULP energy per Si atom -12396.660951 kJ/mol
# Density = 2.163964 g / cm^3
# Si number density = 21.689000 Si / 1000 Ang^3
#
#
#
# Elastic Constant Matrix: (Units=GPa)
#
#
# Indices 1 2 3 4 5 6 
#
# 1 84.6090 74.9266 45.1026 0.0000 -1.0644 0.0000
# 2 74.9266 107.9750 46.1802 0.0000 -2.4950 0.0000
# 3 45.1026 46.1802 99.1957 0.0000 12.5638 0.0000
# 4 0.0000 0.0000 0.0000 17.7576 0.0000 -8.7863
# 5 -1.0644 -2.4950 12.5638 0.0000 28.3217 0.0000
# 6 0.0000 0.0000 0.0000 -8.7863 0.0000 42.7863
#
#
#
# Elastic Compliance Matrix: (Units=1/GPa)
#
#
# Indices 1 2 3 4 5 6 
#
# 1 0.032923 -0.020339 -0.005754 0.000000 0.001998 0.000000
# 2 -0.020339 0.024488 -0.002468 0.000000 0.002488 0.000000
# 3 -0.005754 -0.002468 0.014728 0.000000 -0.006967 0.000000
# 4 0.000000 0.000000 0.000000 0.062683 0.000000 0.012872
# 5 0.001998 0.002488 -0.006967 0.000000 0.038694 0.000000
# 6 0.000000 0.000000 0.000000 0.012872 0.000000 0.026015
#
#
# Mechanical properties :
#
#
# Convention : Reuss Voigt Hill
#
# Bulk Modulus (GPa) = 66.58398 69.35539 67.96968
# Shear Modulus (GPa) = 19.10892 26.14446 22.62669
#
# Velocity S-wave (km/s) = 2.97146 3.47569 3.23342
# Velocity P-wave (km/s) = 6.52218 6.93930 6.73397
#
# Compressibility (1/GPa) = 0.01501863
#
# Stress axis : x y z
#
# Youngs Moduli (GPa) = 30.37406 40.83639 67.89585
#
# Poissons Ratio (x) = 0.83057 0.39066
# Poissons Ratio (y) = 0.61778 0.16754
# Poissons Ratio (z) = 0.17477 0.10077
#
# Static dielectric constant tensor:
#      x y z
#    x 3.746340 0.000000 0.073280 
#    y 0.000000 3.793670 0.000000 
#    z 0.073280 0.000000 3.799390 
# 
# 
# High freq. dielectric constant tensor:
#      x y z
#    x 1.836290 0.000000 0.011740 
#    y 0.000000 1.847540 0.000000 
#    z 0.011740 0.000000 1.838790 
# 
# From -- ./inp_files/24481.got.cif
#   From: 2010.03.12/outbox.cif.g09.slc.cpg/sg5_13_cif.got.tgz:24481.got - 2010.03.31 09:47:26.
