data_PCOD8049356
_publ_section_title
;
Structure prediction by ZEFSAII (Michael W. Deem and Ramdas Pophale) SiO2 
 PCOD8049356
Probable space group: C 2
;
_chemical_formula_sum "Si O2"
_cell_formula_units_Z 30
_cell_length_a 8.972841
_cell_length_b 17.305615
_cell_length_c 11.908960
_cell_angle_alpha 90.000000
_cell_angle_beta 53.062610
_cell_angle_gamma 90.000000
_cell_volume 1478.075692
_symmetry_space_group_name_H-M "C 2"
_symmetry_group_IT_number 5
_symmetry_cell_setting 'monoclinic'
loop_
_space_group_symop_operation_xyz
x,y,z
-x,y,-z
1/2+x,1/2+y,z
1/2-x,1/2+y,-z
loop_
_atom_site_type_symbol
_atom_site_label
_atom_site_fract_x
_atom_site_fract_y
_atom_site_fract_z
Si Si1 0.545531 0.639480 0.249013
Si Si2 0.955159 0.964912 0.288000
Si Si3 0.822893 0.709550 0.287639
Si Si4 0.310403 0.463410 0.024475
Si Si5 0.305162 0.862173 0.732768
Si Si6 0.177670 0.276174 0.582770
Si Si7 0.374468 0.112435 0.948517
Si Si8 0.000000 0.880813 0.500000
O O1 0.437816 0.557805 0.302159
O O2 0.663454 0.652231 0.310901
O O3 0.399029 0.709069 0.301566
O O4 0.677134 0.645788 0.080111
O O5 0.994348 0.933981 0.393572
O O6 0.764113 0.927747 0.324461
O O7 0.132507 0.942099 0.129215
O O8 0.831331 0.788306 0.211634
O O9 0.779296 0.732957 0.434301
O O10 0.025070 0.669485 0.185196
O O11 0.212847 0.391946 0.131425
O O12 0.159985 0.531837 0.098670
O O13 0.500000 0.490046 0.000000
O O14 0.485068 0.833512 0.389183
O O15 0.319813 0.326641 0.589999
O O16 0.500000 0.096925 0.000000
#
# Coordination Sequence:
#
# PCOD8049356 Si02
#       8
#     4   4   4   4   4   4   4   2
#     4   9  20  39  66  87 120 161 213 253 304 373
#     4  10  22  40  63  93 126 160 204 264 314 371
#     4  10  20  38  64  90 123 165 211 246 303 379
#     4   9  20  39  63  96 127 155 207 264 311 368
#     4  10  20  40  67  87 123 166 211 252 310 374
#     4  11  24  43  60  90 125 170 212 257 307 378
#     4   9  19  37  62  93 122 160 206 256 305 373
#     4  12  26  42  58  90 134 160 204 270 320 358
#
# _framework density 20.296658999999998
#
# number of rings (size 3 to 8) (size 9 to 14) (size 15 to 20)
#    0.000    2.133    1.333    1.600    1.867   11.200 
#    7.200    0.000    0.000    0.000    0.000    0.000 
#    0.000    0.000    0.000    0.000    0.000    0.000 
#
# Total GULP energy -185944.707665 kJ/mol
# GULP energy per Si atom -12396.313844 kJ/mol
# Density = 2.025046 g / cm^3
# Si number density = 20.296659 Si / 1000 Ang^3
#
#
#
# Elastic Constant Matrix: (Units=GPa)
#
#
# Indices 1 2 3 4 5 6 
#
# 1 68.4026 57.3863 40.1542 0.0000 -13.1624 0.0000
# 2 57.3863 138.6026 56.2625 0.0000 -17.6609 0.0000
# 3 40.1542 56.2625 106.7793 0.0000 -4.8529 0.0000
# 4 0.0000 0.0000 0.0000 37.7999 0.0000 -5.2833
# 5 -13.1624 -17.6609 -4.8529 0.0000 29.9923 0.0000
# 6 0.0000 0.0000 0.0000 -5.2833 0.0000 37.2265
#
#
#
# Elastic Compliance Matrix: (Units=1/GPa)
#
#
# Indices 1 2 3 4 5 6 
#
# 1 0.025116 -0.007557 -0.005203 0.000000 0.005731 0.000000
# 2 -0.007557 0.012146 -0.003409 0.000000 0.003284 0.000000
# 3 -0.005203 -0.003409 0.013018 0.000000 -0.002184 0.000000
# 4 0.000000 0.000000 0.000000 0.026991 0.000000 0.003831
# 5 0.005731 0.003284 -0.002184 0.000000 0.037437 0.000000
# 6 0.000000 0.000000 0.000000 0.003831 0.000000 0.027406
#
#
# Mechanical properties :
#
#
# Convention : Reuss Voigt Hill
#
# Bulk Modulus (GPa) = 55.72947 69.04340 62.38643
# Shear Modulus (GPa) = 27.71132 31.66915 29.69023
#
# Velocity S-wave (km/s) = 3.69902 3.95437 3.82882
# Velocity P-wave (km/s) = 6.76467 7.41217 7.09581
#
# Compressibility (1/GPa) = 0.01794383
#
# Stress axis : x y z
#
# Youngs Moduli (GPa) = 39.81543 82.33313 76.81453
#
# Poissons Ratio (x) = 0.62217 0.39964
# Poissons Ratio (y) = 0.30087 0.26184
# Poissons Ratio (z) = 0.20715 0.28065
#
# Static dielectric constant tensor:
#      x y z
#    x 3.578790 0.000000 -0.079620 
#    y 0.000000 3.876010 0.000000 
#    z -0.079620 0.000000 3.799520 
# 
# 
# High freq. dielectric constant tensor:
#      x y z
#    x 1.768940 0.000000 -0.004310 
#    y 0.000000 1.798510 0.000000 
#    z -0.004310 0.000000 1.793270 
# 
# From -- ./inp_files/36982.got.cif
#   From: 2010.03.12/outbox.cif.g09.slc.cpg/sg5_19_cif.got.tgz:36982.got - 2010.03.31 09:47:26.
