data_PCOD8049099
_publ_section_title
;
Structure prediction by ZEFSAII (Michael W. Deem and Ramdas Pophale) SiO2 
 PCOD8049099
Probable space group: C 2
;
_chemical_formula_sum "Si O2"
_cell_formula_units_Z 28
_cell_length_a 7.642989
_cell_length_b 32.489710
_cell_length_c 5.045195
_cell_angle_alpha 90.000000
_cell_angle_beta 101.639593
_cell_angle_gamma 90.000000
_cell_volume 1227.052424
_symmetry_space_group_name_H-M "C 2"
_symmetry_group_IT_number 5
_symmetry_cell_setting 'monoclinic'
loop_
_space_group_symop_operation_xyz
x,y,z
-x,y,-z
1/2+x,1/2+y,z
1/2-x,1/2+y,-z
loop_
_atom_site_type_symbol
_atom_site_label
_atom_site_fract_x
_atom_site_fract_y
_atom_site_fract_z
Si Si1 0.385660 0.299640 0.713458
Si Si2 0.616807 0.585534 0.792006
Si Si3 0.878074 0.513644 0.713938
Si Si4 0.707680 0.670303 0.039929
Si Si5 0.711244 0.426604 0.585695
Si Si6 0.212554 0.216104 0.548818
Si Si7 0.788315 0.881175 0.907960
O O1 0.500000 0.318757 0.500000
O O2 0.277335 0.262897 0.541048
O O3 0.252081 0.334446 0.795539
O O4 0.500000 0.283637 0.000000
O O5 0.500000 0.601279 0.500000
O O6 0.749290 0.551929 0.720289
O O7 0.730322 0.622529 0.963074
O O8 0.500000 0.566792 0.000000
O O9 0.756900 0.473844 0.641799
O O10 0.000000 0.523603 0.500000
O O11 0.000000 0.505645 0.000000
O O12 0.797536 0.697836 0.841288
O O13 0.500000 0.680113 0.000000
O O14 0.790973 0.686139 0.341988
O O15 0.500000 0.422517 0.500000
O O16 0.795297 0.412348 0.332909
O O17 0.792791 0.395674 0.835345
O O18 0.000000 0.215612 0.500000
O O19 0.000000 0.885876 0.000000
#
# Coordination Sequence:
#
# PCOD8049099 Si02
#       7
#     4   4   4   4   4   4   4
#     4  11  21  36  57  87 121 155 196 249 306 362
#     4  11  22  41  68  92 114 160 221 260 291 364
#     4  12  26  42  60  93 136 166 190 253 331 375
#     4   9  18  35  60  85 110 147 200 254 292 338
#     4  10  20  38  63  85 110 157 213 248 284 357
#     4  10  20  36  58  84 116 152 192 243 302 358
#     4   9  18  34  59  86 112 149 203 257 291 334
#
# _framework density 22.818913999999999
#
# number of rings (size 3 to 8) (size 9 to 14) (size 15 to 20)
#    0.000    1.714    0.000    7.286    0.000    1.714 
#    0.000    5.000    0.000    0.000    0.000    0.000 
#    0.000    0.000    0.000    0.000    0.000    0.000 
#
# Total GULP energy -173472.001423 kJ/mol
# GULP energy per Si atom -12390.857245 kJ/mol
# Density = 2.276698 g / cm^3
# Si number density = 22.818914 Si / 1000 Ang^3
#
#
#
# Elastic Constant Matrix: (Units=GPa)
#
#
# Indices 1 2 3 4 5 6 
#
# 1 34.9593 33.2417 32.0942 0.0000 -22.1765 0.0000
# 2 33.2417 179.5666 70.2970 0.0000 -11.9504 0.0000
# 3 32.0942 70.2970 141.3524 0.0000 -22.8473 0.0000
# 4 0.0000 0.0000 0.0000 48.4096 0.0000 -0.8269
# 5 -22.1765 -11.9504 -22.8473 0.0000 31.8172 0.0000
# 6 0.0000 0.0000 0.0000 -0.8269 0.0000 23.6262
#
#
#
# Elastic Compliance Matrix: (Units=1/GPa)
#
#
# Indices 1 2 3 4 5 6 
#
# 1 0.064815 -0.007587 -0.004640 0.000000 0.038994 0.000000
# 2 -0.007587 0.007804 -0.002873 0.000000 -0.004420 0.000000
# 3 -0.004640 -0.002873 0.010023 0.000000 0.002884 0.000000
# 4 0.000000 0.000000 0.000000 0.020669 0.000000 0.000723
# 5 0.038994 -0.004420 0.002884 0.000000 0.059019 0.000000
# 6 0.000000 0.000000 0.000000 0.000723 0.000000 0.042351
#
#
# Mechanical properties :
#
#
# Convention : Reuss Voigt Hill
#
# Bulk Modulus (GPa) = 19.06880 69.68265 44.37573
# Shear Modulus (GPa) = 19.81273 35.45362 27.63318
#
# Velocity S-wave (km/s) = 2.94982 3.94597 3.48368
# Velocity P-wave (km/s) = 4.46952 7.16690 5.97248
#
# Compressibility (1/GPa) = 0.05244168
#
# Stress axis : x y z
#
# Youngs Moduli (GPa) = 15.42850 128.13976 99.77075
#
# Poissons Ratio (x) = 0.97219 0.46298
# Poissons Ratio (y) = 0.11705 0.28662
# Poissons Ratio (z) = 0.07160 0.36812
#
# Static dielectric constant tensor:
#      x y z
#    x 3.711030 0.000000 -0.324460 
#    y 0.000000 4.059020 0.000000 
#    z -0.324460 0.000000 4.800320 
# 
# 
# High freq. dielectric constant tensor:
#      x y z
#    x 1.862050 0.000000 -0.019480 
#    y 0.000000 1.904670 0.000000 
#    z -0.019480 0.000000 1.927900 
# 
# From -- ./inp_files/3812.got.cif
#   From: 2010.03.12/outbox.cif.g09.slc.cpg/sg5_2_cif.got.tgz:3812.got - 2010.03.31 09:47:26.
