data_PCOD8049317
_publ_section_title
;
Structure prediction by ZEFSAII (Michael W. Deem and Ramdas Pophale) SiO2 
 PCOD8049317
Probable space group: C 2
;
_chemical_formula_sum "Si O2"
_cell_formula_units_Z 32
_cell_length_a 17.212458
_cell_length_b 12.327255
_cell_length_c 13.557213
_cell_angle_alpha 90.000000
_cell_angle_beta 148.450643
_cell_angle_gamma 90.000000
_cell_volume 1505.132427
_symmetry_space_group_name_H-M "C 2"
_symmetry_group_IT_number 5
_symmetry_cell_setting 'monoclinic'
loop_
_space_group_symop_operation_xyz
x,y,z
-x,y,-z
1/2+x,1/2+y,z
1/2-x,1/2+y,-z
loop_
_atom_site_type_symbol
_atom_site_label
_atom_site_fract_x
_atom_site_fract_y
_atom_site_fract_z
Si Si1 0.762909 0.220100 0.390823
Si Si2 0.040040 0.339034 0.786993
Si Si3 0.762015 0.742752 0.180490
Si Si4 0.861558 0.552965 0.608789
Si Si5 0.090931 0.765119 0.464214
Si Si6 0.394550 0.407279 0.696580
Si Si7 0.342889 0.838230 0.297498
Si Si8 0.126051 0.019428 0.058345
O O1 0.705182 0.099992 0.358677
O O2 0.623313 0.301051 0.254061
O O3 0.812800 0.226950 0.328978
O O4 0.896654 0.262381 0.609131
O O5 0.154790 0.324552 0.818605
O O6 0.993368 0.463891 0.759481
O O7 0.129210 0.305463 0.981849
O O8 0.774447 0.765489 0.311128
O O9 0.727689 0.616125 0.129345
O O10 0.923727 0.776855 0.319966
O O11 0.912420 0.654085 0.599993
O O12 0.728409 0.495472 0.407374
O O13 0.124603 0.871555 0.437105
O O14 0.552872 0.463140 0.883559
O O15 0.500000 0.886632 0.500000
O O16 0.229088 0.926826 0.215940
O O17 0.000000 0.055804 0.000000
#
# Coordination Sequence:
#
# PCOD8049317 Si02
#       8
#     4   4   4   4   4   4   4   4
#     4   9  19  37  62  94 129 163 213 266 328 378
#     4  10  21  38  64  92 134 168 215 262 329 390
#     4  11  24  39  62  94 125 167 214 270 314 381
#     4  10  20  39  66  94 121 176 207 266 327 395
#     4  10  23  40  64  88 129 167 213 261 323 386
#     4  10  20  38  61  90 129 163 206 261 324 382
#     4  10  21  37  63  92 134 167 208 270 329 385
#     4  12  22  34  65  99 122 156 222 269 315 373
#
# _framework density 21.260589
#
# number of rings (size 3 to 8) (size 9 to 14) (size 15 to 20)
#    0.000    1.750    1.250    3.000    5.250    2.000 
#    0.000    0.000   33.000    0.000    0.000    0.000 
#    0.000    0.000    0.000    0.000    0.000    0.000 
#
# Total GULP energy -198209.433276 kJ/mol
# GULP energy per Si atom -12388.089580 kJ/mol
# Density = 2.121220 g / cm^3
# Si number density = 21.260589 Si / 1000 Ang^3
#
#
#
# Elastic Constant Matrix: (Units=GPa)
#
#
# Indices 1 2 3 4 5 6 
#
# 1 91.3100 37.4916 34.9967 0.0000 -10.4523 0.0000
# 2 37.4916 75.3678 29.6636 0.0000 -18.8331 0.0000
# 3 34.9967 29.6636 101.8374 0.0000 -21.9976 0.0000
# 4 0.0000 0.0000 0.0000 33.4755 0.0000 4.5527
# 5 -10.4523 -18.8331 -21.9976 0.0000 28.0036 0.0000
# 6 0.0000 0.0000 0.0000 4.5527 0.0000 30.6464
#
#
#
# Elastic Compliance Matrix: (Units=1/GPa)
#
#
# Indices 1 2 3 4 5 6 
#
# 1 0.014730 -0.006313 -0.003556 0.000000 -0.001541 0.000000
# 2 -0.006313 0.019348 -0.001403 0.000000 0.009554 0.000000
# 3 -0.003556 -0.001403 0.013199 0.000000 0.008098 0.000000
# 4 0.000000 0.000000 0.000000 0.030489 0.000000 -0.004529
# 5 -0.001541 0.009554 0.008098 0.000000 0.047921 0.000000
# 6 0.000000 0.000000 0.000000 -0.004529 0.000000 0.033303
#
#
# Mechanical properties :
#
#
# Convention : Reuss Voigt Hill
#
# Bulk Modulus (GPa) = 40.42952 52.53545 46.48249
# Shear Modulus (GPa) = 26.34648 29.51599 27.93124
#
# Velocity S-wave (km/s) = 3.52407 3.73003 3.62851
# Velocity P-wave (km/s) = 5.96793 6.58139 6.28215
#
# Compressibility (1/GPa) = 0.02473440
#
# Stress axis : x y z
#
# Youngs Moduli (GPa) = 67.88694 51.68473 75.76109
#
# Poissons Ratio (x) = 0.32629 0.26941
# Poissons Ratio (y) = 0.42857 0.10626
# Poissons Ratio (z) = 0.24141 0.07249
#
# Static dielectric constant tensor:
#      x y z
#    x 4.072080 0.000000 0.009970 
#    y 0.000000 3.699140 0.000000 
#    z 0.009970 0.000000 3.868220 
# 
# 
# High freq. dielectric constant tensor:
#      x y z
#    x 1.836010 0.000000 0.008870 
#    y 0.000000 1.813990 0.000000 
#    z 0.008870 0.000000 1.832370 
# 
# From -- ./inp_files/56044.got.cif
#   From: 2010.03.12/outbox.cif.g09.slc.cpg/sg5_29_cif.got.tgz:56044.got - 2010.03.31 09:47:26.
