data_PCOD8049006
_publ_section_title
;
Structure prediction by ZEFSAII (Michael W. Deem and Ramdas Pophale) SiO2 
 PCOD8049006
Probable space group: C 2
;
_chemical_formula_sum "Si O2"
_cell_formula_units_Z 30
_cell_length_a 12.323494
_cell_length_b 10.041067
_cell_length_c 17.930649
_cell_angle_alpha 90.000000
_cell_angle_beta 146.138517
_cell_angle_gamma 90.000000
_cell_volume 1236.262551
_symmetry_space_group_name_H-M "C 2"
_symmetry_group_IT_number 5
_symmetry_cell_setting 'monoclinic'
loop_
_space_group_symop_operation_xyz
x,y,z
-x,y,-z
1/2+x,1/2+y,z
1/2-x,1/2+y,-z
loop_
_atom_site_type_symbol
_atom_site_label
_atom_site_fract_x
_atom_site_fract_y
_atom_site_fract_z
Si Si1 0.374232 0.452520 0.156075
Si Si2 0.023427 0.555502 0.357276
Si Si3 0.092180 0.589287 0.233799
Si Si4 0.153778 0.716494 0.028221
Si Si5 0.545416 0.825559 0.898930
Si Si6 0.631740 0.357102 0.436524
Si Si7 0.000000 0.021314 0.500000
Si Si8 0.087957 0.049638 0.132408
O O1 0.534185 0.399681 0.303365
O O2 0.461649 0.471225 0.122170
O O3 0.259999 0.584084 0.119335
O O4 0.203544 0.343587 0.054735
O O5 0.974295 0.577090 0.242715
O O6 0.154156 0.423764 0.445579
O O7 0.126361 0.695293 0.444584
O O8 0.815632 0.516493 0.273827
O O9 0.317926 0.620786 0.382008
O O10 0.980098 0.698478 0.121906
O O11 0.095851 0.450477 0.190890
O O12 0.334334 0.811121 0.110703
O O13 0.000000 0.777206 0.000000
O O14 0.413316 0.703855 0.846277
O O15 0.524264 0.424425 0.444055
O O16 0.000000 0.021274 0.000000
#
# Coordination Sequence:
#
# PCOD8049006 Si02
#       8
#     4   4   4   4   4   4   2   4
#     4  10  22  39  61  93 129 165 214 271 322 387
#     4  11  25  44  67  94 132 177 223 277 330 397
#     4  10  21  40  60  89 124 165 214 265 324 382
#     4  10  20  34  58  89 122 158 203 257 316 381
#     4  10  21  37  61  92 128 165 211 266 325 390
#     4  11  24  44  66  95 130 173 225 275 333 395
#     4  10  22  40  66  88 122 172 224 270 318 396
#     4  11  22  40  68  97 132 178 224 272 331 397
#
# _framework density 24.266689
#
# number of rings (size 3 to 8) (size 9 to 14) (size 15 to 20)
#    0.000    1.600    0.000    5.600    0.000   10.667 
#    0.000    8.000    0.000    0.000    0.000    0.933 
#    0.000    0.000    0.000    0.000    0.000    0.000 
#
# Total GULP energy -185863.978114 kJ/mol
# GULP energy per Si atom -12390.931874 kJ/mol
# Density = 2.421146 g / cm^3
# Si number density = 24.266689 Si / 1000 Ang^3
#
#
#
# Elastic Constant Matrix: (Units=GPa)
#
#
# Indices 1 2 3 4 5 6 
#
# 1 77.4854 -11.1184 25.9301 0.0002 6.2073 0.0001
# 2 -11.1184 58.2130 9.3564 0.0004 17.2225 0.0002
# 3 25.9301 9.3564 93.2922 0.0018 10.2727 0.0008
# 4 0.0002 0.0004 0.0018 18.9854 0.0005 9.3245
# 5 6.2073 17.2225 10.2727 0.0005 47.7493 0.0002
# 6 0.0001 0.0002 0.0008 9.3245 0.0002 12.6543
#
#
#
# Elastic Compliance Matrix: (Units=1/GPa)
#
#
# Indices 1 2 3 4 5 6 
#
# 1 0.015209 0.004383 -0.004379 0.000000 -0.002616 0.000000
# 2 0.004383 0.020624 -0.002463 0.000000 -0.007479 0.000000
# 3 -0.004379 -0.002463 0.012314 -0.000001 -0.001192 0.000000
# 4 0.000000 0.000000 -0.000001 0.082545 0.000000 -0.060825
# 5 -0.002616 -0.007479 -0.001192 0.000000 0.024237 0.000000
# 6 0.000000 0.000000 0.000000 -0.060825 0.000000 0.123844
#
#
# Mechanical properties :
#
#
# Convention : Reuss Voigt Hill
#
# Bulk Modulus (GPa) = 23.13261 30.81410 26.97335
# Shear Modulus (GPa) = 16.77280 29.53262 23.15271
#
# Velocity S-wave (km/s) = 2.63189 3.49234 3.09219
# Velocity P-wave (km/s) = 4.33465 5.38401 4.88757
#
# Compressibility (1/GPa) = 0.04322903
#
# Stress axis : x y z
#
# Youngs Moduli (GPa) = 65.74851 48.48770 81.20613
#
# Poissons Ratio (x) = -0.21250 0.35559
# Poissons Ratio (y) = -0.28815 0.20001
# Poissons Ratio (z) = 0.28791 0.11943
#
# Static dielectric constant tensor:
#      x y z
#    x 4.450990 0.000000 0.115630 
#    y 0.000000 4.408700 0.000000 
#    z 0.115630 0.000000 4.326480 
# 
# 
# High freq. dielectric constant tensor:
#      x y z
#    x 1.969730 0.000000 0.009650 
#    y 0.000000 1.963800 0.000000 
#    z 0.009650 0.000000 1.961190 
# 
# From -- ./inp_files/60500.got.cif
#   From: 2010.03.12/outbox.cif.g09.slc.cpg/sg5_31_cif.got.tgz:60500.got - 2010.03.31 09:47:26.
