data_PCOD8049051
_publ_section_title
;
Structure prediction by ZEFSAII (Michael W. Deem and Ramdas Pophale) SiO2 
 PCOD8049051
Probable space group: C 2
;
_chemical_formula_sum "Si O2"
_cell_formula_units_Z 32
_cell_length_a 17.345640
_cell_length_b 11.433544
_cell_length_c 18.113920
_cell_angle_alpha 90.000000
_cell_angle_beta 154.326691
_cell_angle_gamma 90.000000
_cell_volume 1556.365020
_symmetry_space_group_name_H-M "C 2"
_symmetry_group_IT_number 5
_symmetry_cell_setting 'monoclinic'
loop_
_space_group_symop_operation_xyz
x,y,z
-x,y,-z
1/2+x,1/2+y,z
1/2-x,1/2+y,-z
loop_
_atom_site_type_symbol
_atom_site_label
_atom_site_fract_x
_atom_site_fract_y
_atom_site_fract_z
Si Si1 0.512004 0.579920 0.877082
Si Si2 0.547253 0.031704 0.876404
Si Si3 0.508531 0.295947 0.419701
Si Si4 0.161455 0.554006 0.508866
Si Si5 0.625698 0.669966 0.814561
Si Si6 0.106530 0.316836 0.024225
Si Si7 0.656786 0.942283 0.819221
Si Si8 0.823205 0.033495 0.489750
O O1 0.310074 0.529462 0.700383
O O2 0.563558 0.622505 0.839650
O O3 0.517904 0.691033 0.935179
O O4 0.638705 0.478182 0.020244
O O5 0.599237 0.028829 0.835480
O O6 0.341919 0.076094 0.704664
O O7 0.573901 0.899604 0.926699
O O8 0.677789 0.118714 0.033614
O O9 0.500000 0.276112 0.500000
O O10 0.613134 0.191225 0.469835
O O11 0.314051 0.303349 0.217482
O O12 0.612351 0.412910 0.489637
O O13 0.249824 0.513253 0.508428
O O14 0.981428 0.476639 0.366160
O O15 0.640193 0.808144 0.825587
O O16 0.485118 0.626741 0.630876
O O17 0.000000 0.375120 0.000000
#
# Coordination Sequence:
#
# PCOD8049051 Si02
#       8
#     4   4   4   4   4   4   4   4
#     4  10  20  36  54  88 121 156 203 251 309 364
#     4  10  20  36  54  88 121 156 203 251 309 364
#     4  12  24  42  64  99 132 168 214 267 325 383
#     4  10  22  36  59  92 126 163 209 263 314 374
#     4  10  20  35  58  85 122 160 201 255 308 371
#     4  12  22  38  64  91 125 164 206 265 317 376
#     4  10  20  35  58  85 122 160 201 255 308 371
#     4  10  22  36  59  92 126 163 209 263 314 374
#
# _framework density 20.560728999999998
#
# number of rings (size 3 to 8) (size 9 to 14) (size 15 to 20)
#    0.000    1.500    3.750    2.250    5.250    1.000 
#    0.000    0.000    0.000    1.500    0.000    0.000 
#    0.000    0.000    0.000    0.000    0.000    0.000 
#
# Total GULP energy -198311.254361 kJ/mol
# GULP energy per Si atom -12394.453398 kJ/mol
# Density = 2.051393 g / cm^3
# Si number density = 20.560729 Si / 1000 Ang^3
#
#
#
# Elastic Constant Matrix: (Units=GPa)
#
#
# Indices 1 2 3 4 5 6 
#
# 1 38.1798 4.6004 8.1983 0.0019 1.2364 0.0004
# 2 4.6004 91.7557 55.0106 0.0045 6.8690 0.0017
# 3 8.1983 55.0106 227.9654 0.0050 20.6480 0.0010
# 4 0.0019 0.0045 0.0050 23.6147 0.0020 4.3162
# 5 1.2364 6.8690 20.6480 0.0020 22.3708 0.0007
# 6 0.0004 0.0017 0.0010 4.3162 0.0007 15.4902
#
#
#
# Elastic Compliance Matrix: (Units=1/GPa)
#
#
# Indices 1 2 3 4 5 6 
#
# 1 0.026463 -0.000871 -0.000691 -0.000002 -0.000557 0.000000
# 2 -0.000871 0.012799 -0.002952 -0.000002 -0.001157 -0.000001
# 3 -0.000691 -0.002952 0.005498 0.000000 -0.004130 0.000000
# 4 -0.000002 -0.000002 0.000000 0.044619 -0.000003 -0.012433
# 5 -0.000557 -0.001157 -0.004130 -0.000003 0.048899 -0.000001
# 6 0.000000 -0.000001 0.000000 -0.012433 -0.000001 0.068021
#
#
# Mechanical properties :
#
#
# Convention : Reuss Voigt Hill
#
# Bulk Modulus (GPa) = 27.98647 54.83549 41.41098
# Shear Modulus (GPa) = 22.00340 31.63461 26.81900
#
# Velocity S-wave (km/s) = 3.27489 3.92675 3.61554
# Velocity P-wave (km/s) = 5.28593 6.87656 6.13303
#
# Compressibility (1/GPa) = 0.03573156
#
# Stress axis : x y z
#
# Youngs Moduli (GPa) = 37.78830 78.13218 181.88439
#
# Poissons Ratio (x) = 0.06803 0.12570
# Poissons Ratio (y) = 0.03290 0.53700
# Poissons Ratio (z) = 0.02611 0.23068
#
# Static dielectric constant tensor:
#      x y z
#    x 3.308860 0.000000 0.140160 
#    y 0.000000 3.485010 0.000000 
#    z 0.140160 0.000000 4.732930 
# 
# 
# High freq. dielectric constant tensor:
#      x y z
#    x 1.756240 0.000000 0.010650 
#    y 0.000000 1.784320 0.000000 
#    z 0.010650 0.000000 1.844450 
# 
# From -- ./inp_files/67148.got.cif
#   From: 2010.03.12/outbox.cif.g09.slc.cpg/sg5_34_cif.got.tgz:67148.got - 2010.03.31 09:47:26.
