data_PCOD8049115
_publ_section_title
;
Structure prediction by ZEFSAII (Michael W. Deem and Ramdas Pophale) SiO2 
 PCOD8049115
Probable space group: C 2
;
_chemical_formula_sum "Si O2"
_cell_formula_units_Z 28
_cell_length_a 14.755326
_cell_length_b 11.760221
_cell_length_c 9.432014
_cell_angle_alpha 90.000000
_cell_angle_beta 58.408054
_cell_angle_gamma 90.000000
_cell_volume 1394.140878
_symmetry_space_group_name_H-M "C 2"
_symmetry_group_IT_number 5
_symmetry_cell_setting 'monoclinic'
loop_
_space_group_symop_operation_xyz
x,y,z
-x,y,-z
1/2+x,1/2+y,z
1/2-x,1/2+y,-z
loop_
_atom_site_type_symbol
_atom_site_label
_atom_site_fract_x
_atom_site_fract_y
_atom_site_fract_z
Si Si1 0.163753 0.220500 0.870853
Si Si2 0.908012 0.420708 0.878922
Si Si3 0.270153 0.833932 0.739063
Si Si4 0.228162 0.631031 0.958636
Si Si5 0.465737 0.587579 0.687555
Si Si6 0.403495 0.800238 0.357031
Si Si7 0.417120 0.486551 0.166342
O O1 0.183920 0.265827 0.692348
O O2 0.097259 0.104958 0.908041
O O3 0.099516 0.322732 0.996527
O O4 0.264913 0.188010 0.888258
O O5 0.832242 0.401446 0.807818
O O6 0.033637 0.419272 0.728285
O O7 0.869954 0.542727 0.971319
O O8 0.206917 0.728085 0.858872
O O9 0.350473 0.792292 0.553086
O O10 0.191834 0.920118 0.725843
O O11 0.340393 0.571155 0.822924
O O12 0.500000 0.564849 0.500000
O O13 0.496528 0.713037 0.717024
O O14 0.535382 0.496790 0.716263
O O15 0.500000 0.416533 0.000000
#
# Coordination Sequence:
#
# PCOD8049115 Si02
#       7
#     4   4   4   4   4   4   4
#     4  10  20  36  60  86 113 153 206 242 289 362
#     4  11  20  35  61  91 118 153 199 253 295 354
#     4  11  22  37  60  91 120 158 201 249 306 357
#     4  11  21  37  60  92 119 155 200 249 303 362
#     4  11  19  35  61  87 115 153 206 254 290 355
#     4  11  20  36  61  89 118 156 209 254 290 351
#     4  11  20  37  62  87 115 156 201 247 298 361
#
# _framework density 20.084052
#
# number of rings (size 3 to 8) (size 9 to 14) (size 15 to 20)
#    0.000    1.143    7.143    1.714    0.000    1.143 
#    0.000    1.429    0.000    0.000    3.714    0.000 
#    0.000    0.000    0.000    0.000    0.000    0.000 
#
# Total GULP energy -173446.152428 kJ/mol
# GULP energy per Si atom -12389.010888 kJ/mol
# Density = 2.003834 g / cm^3
# Si number density = 20.084052 Si / 1000 Ang^3
#
#
#
# Elastic Constant Matrix: (Units=GPa)
#
#
# Indices 1 2 3 4 5 6 
#
# 1 67.7067 34.8754 29.3296 0.0000 8.4819 0.0000
# 2 34.8754 82.3325 37.4766 0.0000 -2.2780 0.0000
# 3 29.3296 37.4766 95.1333 0.0000 16.4479 0.0000
# 4 0.0000 0.0000 0.0000 21.9586 0.0000 -2.9752
# 5 8.4819 -2.2780 16.4479 0.0000 28.3502 0.0000
# 6 0.0000 0.0000 0.0000 -2.9752 0.0000 19.6990
#
#
#
# Elastic Compliance Matrix: (Units=1/GPa)
#
#
# Indices 1 2 3 4 5 6 
#
# 1 0.020443 -0.007755 -0.002314 0.000000 -0.005397 0.000000
# 2 -0.007755 0.018431 -0.006143 0.000000 0.007365 0.000000
# 3 -0.002314 -0.006143 0.015128 0.000000 -0.008578 0.000000
# 4 0.000000 0.000000 0.000000 0.046492 0.000000 0.007022
# 5 -0.005397 0.007365 -0.008578 0.000000 0.042456 0.000000
# 6 0.000000 0.000000 0.000000 0.007022 0.000000 0.051824
#
#
# Mechanical properties :
#
#
# Convention : Reuss Voigt Hill
#
# Bulk Modulus (GPa) = 46.34678 49.83731 48.09204
# Shear Modulus (GPa) = 21.33176 23.56761 22.44969
#
# Velocity S-wave (km/s) = 3.26256 3.42928 3.34696
# Velocity P-wave (km/s) = 6.10892 6.36775 6.23968
#
# Compressibility (1/GPa) = 0.02157647
#
# Stress axis : x y z
#
# Youngs Moduli (GPa) = 48.91669 54.25644 66.10158
#
# Poissons Ratio (x) = 0.42077 0.15299
# Poissons Ratio (y) = 0.37936 0.40607
# Poissons Ratio (z) = 0.11321 0.33330
#
# Static dielectric constant tensor:
#      x y z
#    x 3.579330 0.000000 0.326570 
#    y 0.000000 3.483220 0.000000 
#    z 0.326570 0.000000 3.611430 
# 
# 
# High freq. dielectric constant tensor:
#      x y z
#    x 1.771680 0.000000 0.028890 
#    y 0.000000 1.754270 0.000000 
#    z 0.028890 0.000000 1.783660 
# 
# From -- ./inp_files/23763.got.cif
#   From: 2010.03.12/outbox.cif.g09.slc.cpg/sg5_12_cif.got.tgz:23763.got - 2010.03.31 09:47:26.
