data_PCOD8049506
_publ_section_title
;
Structure prediction by ZEFSAII (Michael W. Deem and Ramdas Pophale) SiO2 
 PCOD8049506
Probable space group: C 2
;
_chemical_formula_sum "Si O2"
_cell_formula_units_Z 26
_cell_length_a 6.284594
_cell_length_b 19.109579
_cell_length_c 11.186760
_cell_angle_alpha 90.000000
_cell_angle_beta 61.484552
_cell_angle_gamma 90.000000
_cell_volume 1180.504303
_symmetry_space_group_name_H-M "C 2"
_symmetry_group_IT_number 5
_symmetry_cell_setting 'monoclinic'
loop_
_space_group_symop_operation_xyz
x,y,z
-x,y,-z
1/2+x,1/2+y,z
1/2-x,1/2+y,-z
loop_
_atom_site_type_symbol
_atom_site_label
_atom_site_fract_x
_atom_site_fract_y
_atom_site_fract_z
Si Si1 0.500000 0.955180 0.500000
Si Si2 0.734859 0.528958 0.365381
Si Si3 0.005192 0.913502 0.263452
Si Si4 0.166629 0.264698 0.166364
Si Si5 0.500000 0.673162 0.000000
Si Si6 0.004242 0.662856 0.217685
Si Si7 0.000000 0.883348 0.000000
Si Si8 0.844892 0.778316 0.653664
O O1 0.733996 0.911509 0.393279
O O2 0.437538 0.002673 0.402465
O O3 0.500000 0.552077 0.500000
O O4 0.671396 0.470916 0.283657
O O5 0.824566 0.598615 0.277004
O O6 0.112896 0.836052 0.253733
O O7 0.019275 0.929699 0.116617
O O8 0.384700 0.221258 0.165031
O O9 0.937218 0.280576 0.315049
O O10 0.263671 0.335965 0.083603
O O11 0.024960 0.222145 0.105780
O O12 0.750148 0.631055 0.909986
O O13 0.065579 0.701591 0.325996
O O14 0.000000 0.802632 0.500000
#
# Coordination Sequence:
#
# PCOD8049506 Si02
#       8
#     2   4   4   4   2   4   2   4
#     4  10  24  50  72  92 140 190 226 296 350 410
#     4  10  25  45  70  98 140 184 233 284 356 424
#     4  11  25  45  69 104 138 187 237 289 348 423
#     4  11  22  42  66  99 143 179 220 292 353 400
#     4  10  20  40  63  96 137 178 230 270 350 412
#     4  11  23  41  68 102 137 184 220 294 347 417
#     4  12  22  44  73  98 137 190 226 294 354 406
#     4  11  25  38  69 109 136 172 242 289 342 423
#
# _framework density 22.024486
#
# number of rings (size 3 to 8) (size 9 to 14) (size 15 to 20)
#    0.000    1.231    3.077    2.308    7.538    3.692 
#    0.000    4.615    0.000    0.000    0.000    0.000 
#    0.000    0.000    0.000    0.000    0.000    0.000 
#
# Total GULP energy -161126.911304 kJ/mol
# GULP energy per Si atom -12394.377793 kJ/mol
# Density = 2.197436 g / cm^3
# Si number density = 22.024486 Si / 1000 Ang^3
#
#
#
# Elastic Constant Matrix: (Units=GPa)
#
#
# Indices 1 2 3 4 5 6 
#
# 1 109.7823 34.8749 48.4684 0.0000 -6.8988 0.0000
# 2 34.8749 95.7631 37.8421 0.0000 -5.0871 0.0000
# 3 48.4684 37.8421 124.3922 0.0000 -2.3143 0.0000
# 4 0.0000 0.0000 0.0000 27.0377 0.0000 -6.6491
# 5 -6.8988 -5.0871 -2.3143 0.0000 44.6464 0.0000
# 6 0.0000 0.0000 0.0000 -6.6491 0.0000 32.7991
#
#
#
# Elastic Compliance Matrix: (Units=1/GPa)
#
#
# Indices 1 2 3 4 5 6 
#
# 1 0.011691 -0.002726 -0.003702 0.000000 0.001304 0.000000
# 2 -0.002726 0.012566 -0.002745 0.000000 0.000868 0.000000
# 3 -0.003702 -0.002745 0.010310 0.000000 -0.000350 0.000000
# 4 0.000000 0.000000 0.000000 0.038926 0.000000 0.007891
# 5 0.001304 0.000868 -0.000350 0.000000 0.022680 0.000000
# 6 0.000000 0.000000 0.000000 0.007891 0.000000 0.032088
#
#
# Mechanical properties :
#
#
# Convention : Reuss Voigt Hill
#
# Bulk Modulus (GPa) = 61.64193 63.58982 62.61588
# Shear Modulus (GPa) = 32.89190 34.81345 33.85268
#
# Velocity S-wave (km/s) = 3.86868 3.98008 3.92477
# Velocity P-wave (km/s) = 6.92851 7.07505 7.00216
#
# Compressibility (1/GPa) = 0.01622272
#
# Stress axis : x y z
#
# Youngs Moduli (GPa) = 85.53516 79.58179 96.99382
#
# Poissons Ratio (x) = 0.21690 0.35906
# Poissons Ratio (y) = 0.23313 0.26620
# Poissons Ratio (z) = 0.31665 0.21842
#
# Static dielectric constant tensor:
#      x y z
#    x 4.131030 0.000000 -0.176610 
#    y 0.000000 3.549720 0.000000 
#    z -0.176610 0.000000 4.067800 
# 
# 
# High freq. dielectric constant tensor:
#      x y z
#    x 1.884150 0.000000 -0.011310 
#    y 0.000000 1.836640 0.000000 
#    z -0.011310 0.000000 1.875800 
# 
# From -- ./inp_files/33895.got.cif
#   From: 2010.03.12/outbox.cif.g09.slc.cpg/sg5_17_cif.got.tgz:33895.got - 2010.03.31 09:47:26.
