data_PCOD8049880
_publ_section_title
;
Structure prediction by ZEFSAII (Michael W. Deem and Ramdas Pophale) SiO2 
 PCOD8049880
Probable space group: C 2
;
_chemical_formula_sum "Si O2"
_cell_formula_units_Z 24
_cell_length_a 8.483527
_cell_length_b 13.742140
_cell_length_c 9.332683
_cell_angle_alpha 90.000000
_cell_angle_beta 89.018795
_cell_angle_gamma 90.000000
_cell_volume 1087.861589
_symmetry_space_group_name_H-M "C 2"
_symmetry_group_IT_number 5
_symmetry_cell_setting 'monoclinic'
loop_
_space_group_symop_operation_xyz
x,y,z
-x,y,-z
1/2+x,1/2+y,z
1/2-x,1/2+y,-z
loop_
_atom_site_type_symbol
_atom_site_label
_atom_site_fract_x
_atom_site_fract_y
_atom_site_fract_z
Si Si1 0.682584 0.287270 0.989043
Si Si2 0.638590 0.971555 0.897654
Si Si3 0.132955 0.376884 0.607185
Si Si4 0.817003 0.186274 0.247487
Si Si5 0.811763 0.569107 0.508768
Si Si6 0.314345 0.651156 0.769700
O O1 0.776313 0.385639 0.017590
O O2 0.730150 0.200818 0.098256
O O3 0.500000 0.311685 0.000000
O O4 0.726181 0.246713 0.831399
O O5 0.763644 0.055745 0.859632
O O6 0.563559 0.929345 0.751541
O O7 0.500000 0.014089 0.000000
O O8 0.225389 0.280876 0.654466
O O9 0.242155 0.457901 0.526333
O O10 0.000000 0.341462 0.500000
O O11 0.746027 0.093519 0.330685
O O12 0.000596 0.169475 0.217286
O O13 0.732621 0.642241 0.396128
O O14 0.000000 0.574816 0.500000
#
# Coordination Sequence:
#
# PCOD8049880 Si02
#       6
#     4   4   4   4   4   4
#     4  11  23  40  61  89 124 164 207 254 302 360
#     4  10  22  40  62  91 125 159 202 251 305 367
#     4   9  19  37  60  86 116 155 195 240 301 360
#     4  11  22  40  62  88 120 159 207 256 306 365
#     4  10  21  38  60  89 120 156 202 253 307 364
#     4  11  22  39  63  89 120 163 205 252 307 362
#
# _framework density 22.061630999999998
#
# number of rings (size 3 to 8) (size 9 to 14) (size 15 to 20)
#    0.000    1.667    0.000    5.500    0.000    4.000 
#    0.000   10.000    0.000    0.000    0.000    0.000 
#    0.000    0.000    0.000    0.000    0.000    0.000 
#
# Total GULP energy -148782.822207 kJ/mol
# GULP energy per Si atom -12398.568517 kJ/mol
# Density = 2.201142 g / cm^3
# Si number density = 22.061631 Si / 1000 Ang^3
#
#
#
# Elastic Constant Matrix: (Units=GPa)
#
#
# Indices 1 2 3 4 5 6 
#
# 1 95.6846 15.3746 14.5337 0.0000 -6.4385 0.0000
# 2 15.3746 82.5528 16.3943 0.0000 -11.0248 0.0000
# 3 14.5337 16.3943 47.1409 0.0000 2.5640 0.0000
# 4 0.0000 0.0000 0.0000 37.9361 0.0000 -4.9949
# 5 -6.4385 -11.0248 2.5640 0.0000 41.4613 0.0000
# 6 0.0000 0.0000 0.0000 -4.9949 0.0000 24.2042
#
#
#
# Elastic Compliance Matrix: (Units=1/GPa)
#
#
# Indices 1 2 3 4 5 6 
#
# 1 0.011234 -0.001260 -0.003112 0.000000 0.001602 0.000000
# 2 -0.001260 0.013763 -0.004602 0.000000 0.003748 0.000000
# 3 -0.003112 -0.004602 0.023946 0.000000 -0.003188 0.000000
# 4 0.000000 0.000000 0.000000 0.027096 0.000000 0.005592
# 5 0.001602 0.003748 -0.003188 0.000000 0.025562 0.000000
# 6 0.000000 0.000000 0.000000 0.005592 0.000000 0.042469
#
#
# Mechanical properties :
#
#
# Convention : Reuss Voigt Hill
#
# Bulk Modulus (GPa) = 32.26375 35.33152 33.79764
# Shear Modulus (GPa) = 29.01079 32.65868 30.83474
#
# Velocity S-wave (km/s) = 3.63021 3.85169 3.74259
# Velocity P-wave (km/s) = 5.67691 5.98585 5.83343
#
# Compressibility (1/GPa) = 0.03099453
#
# Stress axis : x y z
#
# Youngs Moduli (GPa) = 89.01525 72.66074 41.76024
#
# Poissons Ratio (x) = 0.09157 0.12997
# Poissons Ratio (y) = 0.11218 0.19216
# Poissons Ratio (z) = 0.27705 0.33435
#
# Static dielectric constant tensor:
#      x y z
#    x 3.643840 0.000000 0.085660 
#    y 0.000000 4.199700 0.000000 
#    z 0.085660 0.000000 4.275380 
# 
# 
# High freq. dielectric constant tensor:
#      x y z
#    x 1.841160 0.000000 0.008020 
#    y 0.000000 1.876150 0.000000 
#    z 0.008020 0.000000 1.884740 
# 
# From -- ./inp_files/15004.got.cif
#   From: 2010.03.12/outbox.cif.g09.slc.cpg/sg5_8_cif.got.tgz:15004.got - 2010.03.31 09:47:26.
