data_PCOD8049955
_publ_section_title
;
Structure prediction by ZEFSAII (Michael W. Deem and Ramdas Pophale) SiO2 
 PCOD8049955
Probable space group: C 2
;
_chemical_formula_sum "Si O2"
_cell_formula_units_Z 20
_cell_length_a 8.866948
_cell_length_b 21.822461
_cell_length_c 4.907294
_cell_angle_alpha 90.000000
_cell_angle_beta 97.641014
_cell_angle_gamma 90.000000
_cell_volume 941.123188
_symmetry_space_group_name_H-M "C 2"
_symmetry_group_IT_number 5
_symmetry_cell_setting 'monoclinic'
loop_
_space_group_symop_operation_xyz
x,y,z
-x,y,-z
1/2+x,1/2+y,z
1/2-x,1/2+y,-z
loop_
_atom_site_type_symbol
_atom_site_label
_atom_site_fract_x
_atom_site_fract_y
_atom_site_fract_z
Si Si1 0.663290 0.046660 0.434116
Si Si2 0.321611 0.601264 0.969604
Si Si3 0.827261 0.807700 0.470545
Si Si4 0.175411 0.727090 0.019325
Si Si5 0.101560 0.410352 0.295209
O O1 0.500000 0.071511 0.500000
O O2 0.779812 0.082308 0.653838
O O3 0.664375 0.973062 0.443383
O O4 0.716240 0.059594 0.138634
O O5 0.289308 0.670032 0.067360
O O6 0.500000 0.588053 0.000000
O O7 0.740396 0.863842 0.306260
O O8 0.000000 0.830248 0.500000
O O9 0.201631 0.748990 0.720580
O O10 0.783821 0.782719 0.761776
O O11 0.000000 0.705281 0.000000
O O12 0.000000 0.377869 0.500000
O O13 0.000000 0.420554 0.000000
#
# Coordination Sequence:
#
# PCOD8049955 Si02
#       5
#     4   4   4   4   4
#     4  11  23  43  65  88 124 171 211 250 311 386
#     4  12  25  40  63  96 126 160 210 269 316 357
#     4  10  22  39  62  90 122 161 206 252 307 368
#     4  10  21  39  61  88 123 167 207 246 307 383
#     4  11  23  41  64  92 122 161 209 257 308 368
#
# _framework density 21.251204999999999
#
# number of rings (size 3 to 8) (size 9 to 14) (size 15 to 20)
#    0.000    1.200    0.000    7.200    0.000    5.600 
#    0.000    2.000    0.000    0.000    0.000    0.000 
#    0.000    0.000    0.000    0.000    0.000    0.000 
#
# Total GULP energy -123892.341271 kJ/mol
# GULP energy per Si atom -12389.234127 kJ/mol
# Density = 2.120284 g / cm^3
# Si number density = 21.251205 Si / 1000 Ang^3
#
#
#
# Elastic Constant Matrix: (Units=GPa)
#
#
# Indices 1 2 3 4 5 6 
#
# 1 101.6656 45.5376 21.5000 0.0000 2.2792 0.0000
# 2 45.5376 88.4665 15.2640 0.0000 10.5420 0.0000
# 3 21.5000 15.2640 92.3779 0.0000 1.3570 0.0000
# 4 0.0000 0.0000 0.0000 13.1939 0.0000 15.9641
# 5 2.2792 10.5420 1.3570 0.0000 37.9320 0.0000
# 6 0.0000 0.0000 0.0000 15.9641 0.0000 17.0306
#
#
#
# Elastic Compliance Matrix: (Units=1/GPa)
#
#
# Indices 1 2 3 4 5 6 
#
# 1 0.013176 -0.006570 -0.001997 0.000000 0.001106 0.000000
# 2 -0.006570 0.015304 -0.000944 0.000000 -0.003825 0.000000
# 3 -0.001997 -0.000944 0.011446 0.000000 -0.000027 0.000000
# 4 0.000000 0.000000 0.000000 -0.564826 0.000000 0.529454
# 5 0.001106 -0.003825 -0.000027 0.000000 0.027361 0.000000
# 6 0.000000 0.000000 0.000000 0.529454 0.000000 -0.437579
#
#
# Mechanical properties :
#
#
# Convention : Reuss Voigt Hill
#
# Bulk Modulus (GPa) = 47.83414 49.67926 48.75670
# Shear Modulus (GPa) = -5.49978 26.97851 10.73937
#
# Velocity S-wave (km/s) = -1.61047 3.56688 2.25045
# Velocity P-wave (km/s) = 4.37031 6.35542 5.45394
#
# Compressibility (1/GPa) = 0.02090557
#
# Stress axis : x y z
#
# Youngs Moduli (GPa) = 75.89326 65.34269 87.36457
#
# Poissons Ratio (x) = 0.42927 0.17450
# Poissons Ratio (y) = 0.49859 0.08243
# Poissons Ratio (z) = 0.15159 0.06165
#
# Static dielectric constant tensor:
#      x y z
#    x 3.982980 0.000000 -0.116230 
#    y 0.000000 3.565250 0.000000 
#    z -0.116230 0.000000 3.988980 
# 
# 
# High freq. dielectric constant tensor:
#      x y z
#    x 1.829620 0.000000 -0.006130 
#    y 0.000000 1.829610 0.000000 
#    z -0.006130 0.000000 1.851270 
# 
# From -- ./inp_files/2422.got.cif
#   From: 2010.03.12/outbox.cif.g09.slc.cpg/sg5_2_cif.got.tgz:2422.got - 2010.03.31 09:47:26.
