data_PCOD8049421
_publ_section_title
;
Structure prediction by ZEFSAII (Michael W. Deem and Ramdas Pophale) SiO2 
 PCOD8049421
Probable space group: C 2
;
_chemical_formula_sum "Si O2"
_cell_formula_units_Z 32
_cell_length_a 15.015663
_cell_length_b 11.906998
_cell_length_c 14.019069
_cell_angle_alpha 90.000000
_cell_angle_beta 141.002008
_cell_angle_gamma 90.000000
_cell_volume 1577.316964
_symmetry_space_group_name_H-M "C 2"
_symmetry_group_IT_number 5
_symmetry_cell_setting 'monoclinic'
loop_
_space_group_symop_operation_xyz
x,y,z
-x,y,-z
1/2+x,1/2+y,z
1/2-x,1/2+y,-z
loop_
_atom_site_type_symbol
_atom_site_label
_atom_site_fract_x
_atom_site_fract_y
_atom_site_fract_z
Si Si1 0.155570 0.646090 0.652042
Si Si2 0.075253 0.641782 0.793098
Si Si3 0.943552 0.032079 0.847403
Si Si4 0.558733 0.363954 0.321606
Si Si5 0.358533 0.678991 0.119474
Si Si6 0.190615 0.984493 0.795408
Si Si7 0.949365 0.413149 0.140107
Si Si8 0.259951 0.382867 0.353623
O O1 0.168970 0.648362 0.776083
O O2 0.281998 0.573107 0.713805
O O3 0.164201 0.769649 0.615710
O O4 0.000000 0.594670 0.500000
O O5 0.015758 0.516523 0.760448
O O6 0.941961 0.727674 0.688161
O O7 0.190281 0.672755 0.967604
O O8 0.047821 0.123917 0.887134
O O9 0.939533 0.919037 0.781283
O O10 0.000000 0.003424 0.000000
O O11 0.412595 0.387749 0.253701
O O12 0.687670 0.409012 0.495010
O O13 0.377612 0.605147 0.231853
O O14 0.395335 0.809987 0.160966
O O15 0.198914 0.981117 0.687297
O O16 0.340858 0.952604 0.968209
O O17 0.091692 0.370540 0.208639
#
# Coordination Sequence:
#
# PCOD8049421 Si02
#       8
#     4   4   4   4   4   4   4   4
#     4  12  22  37  64  92 124 163 215 261 310 376
#     4  11  22  39  64  94 132 167 211 262 320 379
#     4  11  24  40  65  96 121 167 214 267 311 381
#     4  11  23  40  63  94 129 163 210 265 321 373
#     4  10  20  39  63  95 126 163 216 265 317 372
#     4  10  21  38  64  93 125 168 212 261 315 376
#     4  11  23  38  65  95 132 165 212 268 316 375
#     4  12  22  38  64  97 125 165 215 264 311 374
#
# _framework density 20.287614999999999
#
# number of rings (size 3 to 8) (size 9 to 14) (size 15 to 20)
#    0.000    1.000    6.250    0.750    1.750    0.000 
#    0.000    3.750    0.000    3.000    0.000    0.000 
#    0.000    0.000    0.000    0.000    0.000    0.000 
#
# Total GULP energy -198319.808848 kJ/mol
# GULP energy per Si atom -12394.988053 kJ/mol
# Density = 2.024144 g / cm^3
# Si number density = 20.287615 Si / 1000 Ang^3
#
#
#
# Elastic Constant Matrix: (Units=GPa)
#
#
# Indices 1 2 3 4 5 6 
#
# 1 76.3362 45.2171 40.0197 0.0000 0.0951 0.0000
# 2 45.2171 134.1857 40.9903 0.0000 -14.9412 0.0000
# 3 40.0197 40.9903 98.4367 0.0000 4.0692 0.0000
# 4 0.0000 0.0000 0.0000 20.2882 0.0000 1.2309
# 5 0.0951 -14.9412 4.0692 0.0000 35.5456 0.0000
# 6 0.0000 0.0000 0.0000 1.2309 0.0000 27.6261
#
#
#
# Elastic Compliance Matrix: (Units=1/GPa)
#
#
# Indices 1 2 3 4 5 6 
#
# 1 0.018898 -0.004810 -0.005621 0.000000 -0.001429 0.000000
# 2 -0.004810 0.010374 -0.002557 0.000000 0.004666 0.000000
# 3 -0.005621 -0.002557 0.013617 0.000000 -0.002619 0.000000
# 4 0.000000 0.000000 0.000000 0.049423 0.000000 -0.002202
# 5 -0.001429 0.004666 -0.002619 0.000000 0.030398 0.000000
# 6 0.000000 0.000000 0.000000 -0.002202 0.000000 0.036296
#
#
# Mechanical properties :
#
#
# Convention : Reuss Voigt Hill
#
# Bulk Modulus (GPa) = 59.12800 62.37922 60.75361
# Shear Modulus (GPa) = 26.23024 28.87407 27.55216
#
# Velocity S-wave (km/s) = 3.59962 3.77667 3.68921
# Velocity P-wave (km/s) = 6.81795 7.05917 6.93961
#
# Compressibility (1/GPa) = 0.01691246
#
# Stress axis : x y z
#
# Youngs Moduli (GPa) = 52.91637 96.39519 73.43711
#
# Poissons Ratio (x) = 0.46367 0.41278
# Poissons Ratio (y) = 0.25453 0.18779
# Poissons Ratio (z) = 0.29744 0.24650
#
# Static dielectric constant tensor:
#      x y z
#    x 3.636000 0.000000 -0.010480 
#    y 0.000000 3.667900 0.000000 
#    z -0.010480 0.000000 3.685360 
# 
# 
# High freq. dielectric constant tensor:
#      x y z
#    x 1.783650 0.000000 0.009960 
#    y 0.000000 1.780600 0.000000 
#    z 0.009960 0.000000 1.792940 
# 
# From -- ./inp_files/54594.got.cif
#   From: 2010.03.12/outbox.cif.g09.slc.cpg/sg5_28_cif.got.tgz:54594.got - 2010.03.31 09:47:26.
