data_PCOD8049351
_publ_section_title
;
Structure prediction by ZEFSAII (Michael W. Deem and Ramdas Pophale) SiO2 
 PCOD8049351
Probable space group: C 2
;
_chemical_formula_sum "Si O2"
_cell_formula_units_Z 20
_cell_length_a 18.344618
_cell_length_b 8.979382
_cell_length_c 17.469522
_cell_angle_alpha 90.000000
_cell_angle_beta 20.465727
_cell_angle_gamma 90.000000
_cell_volume 1006.157520
_symmetry_space_group_name_H-M "C 2"
_symmetry_group_IT_number 5
_symmetry_cell_setting 'monoclinic'
loop_
_space_group_symop_operation_xyz
x,y,z
-x,y,-z
1/2+x,1/2+y,z
1/2-x,1/2+y,-z
loop_
_atom_site_type_symbol
_atom_site_label
_atom_site_fract_x
_atom_site_fract_y
_atom_site_fract_z
Si Si1 0.669928 0.860080 0.642043
Si Si2 0.066385 0.774521 0.846042
Si Si3 0.414430 0.550214 0.502416
Si Si4 0.210344 0.556602 0.980400
Si Si5 0.560494 0.532303 0.746384
O O1 0.693471 0.682866 0.622345
O O2 0.741845 0.925760 0.652989
O O3 0.817860 0.921220 0.429689
O O4 0.431422 0.911633 0.865778
O O5 0.302971 0.712284 0.605458
O O6 0.053710 0.948771 0.835448
O O7 0.000000 0.751564 0.000000
O O8 0.920992 0.693376 0.925478
O O9 0.500000 0.515796 0.500000
O O10 0.605205 0.527445 0.259186
O O11 0.328981 0.580776 0.944939
#
# Coordination Sequence:
#
# PCOD8049351 Si02
#       5
#     4   4   4   4   4
#     4  10  22  37  62  88 119 160 202 252 297 360
#     4  11  22  39  64  91 122 163 201 247 300 363
#     4  10  20  39  62  86 120 159 203 243 301 361
#     4  10  20  38  64  86 116 163 198 244 304 359
#     4  11  22  40  60  92 124 154 207 251 300 355
#
# _framework density 19.877604000000002
#
# number of rings (size 3 to 8) (size 9 to 14) (size 15 to 20)
#    0.000    1.600    2.000    4.800    0.000    1.600 
#    3.600    1.000    0.000    0.000    0.000    0.000 
#    0.000    0.000    0.000    0.000    0.000    0.000 
#
# Total GULP energy -123918.049976 kJ/mol
# GULP energy per Si atom -12391.804998 kJ/mol
# Density = 1.983236 g / cm^3
# Si number density = 19.877604 Si / 1000 Ang^3
#
#
#
# Elastic Constant Matrix: (Units=GPa)
#
#
# Indices 1 2 3 4 5 6 
#
# 1 97.3803 31.4697 16.1263 0.0014 -14.5537 -0.0016
# 2 31.4697 124.3249 13.2134 -0.0050 -2.9010 0.0018
# 3 16.1263 13.2134 84.1683 -0.0042 -7.7203 0.0021
# 4 0.0014 -0.0050 -0.0042 26.4274 0.0029 3.6752
# 5 -14.5537 -2.9010 -7.7203 0.0029 23.4377 -0.0004
# 6 -0.0016 0.0018 0.0021 3.6752 -0.0004 34.0990
#
#
#
# Elastic Compliance Matrix: (Units=1/GPa)
#
#
# Indices 1 2 3 4 5 6 
#
# 1 0.012443 -0.002849 -0.001300 -0.000002 0.006946 0.000001
# 2 -0.002849 0.008841 -0.000932 0.000002 -0.000982 -0.000001
# 3 -0.001300 -0.000932 0.012572 0.000002 0.003219 -0.000001
# 4 -0.000002 0.000002 0.000002 0.038415 -0.000005 -0.004140
# 5 0.006946 -0.000982 0.003219 -0.000005 0.047918 0.000001
# 6 0.000001 -0.000001 -0.000001 -0.004140 0.000001 0.029773
#
#
# Mechanical properties :
#
#
# Convention : Reuss Voigt Hill
#
# Bulk Modulus (GPa) = 42.20612 47.49915 44.85263
# Shear Modulus (GPa) = 29.75811 33.13044 31.44428
#
# Velocity S-wave (km/s) = 3.87339 4.08698 3.98162
# Velocity P-wave (km/s) = 6.42521 6.79845 6.61446
#
# Compressibility (1/GPa) = 0.02369325
#
# Stress axis : x y z
#
# Youngs Moduli (GPa) = 80.36551 113.11131 79.54498
#
# Poissons Ratio (x) = 0.32231 0.10338
# Poissons Ratio (y) = 0.22900 0.07414
# Poissons Ratio (z) = 0.10444 0.10542
#
# Static dielectric constant tensor:
#      x y z
#    x 3.006690 -0.000010 -0.080950 
#    y -0.000010 3.513510 0.000000 
#    z -0.080950 0.000000 3.717770 
# 
# 
# High freq. dielectric constant tensor:
#      x y z
#    x 1.773900 0.000000 -0.014800 
#    y 0.000000 1.761180 0.000000 
#    z -0.014800 0.000000 1.783110 
# 
# From -- ./inp_files/7992.got.cif
#   From: 2010.03.12/outbox.cif.g09.slc.cpg/sg5_4_cif.got.tgz:7992.got - 2010.03.31 09:47:26.
