data_PCOD8049147
_publ_section_title
;
Structure prediction by ZEFSAII (Michael W. Deem and Ramdas Pophale) SiO2 
 PCOD8049147
Probable space group: C 2
;
_chemical_formula_sum "Si O2"
_cell_formula_units_Z 30
_cell_length_a 16.615027
_cell_length_b 8.333701
_cell_length_c 11.276070
_cell_angle_alpha 90.000000
_cell_angle_beta 119.107372
_cell_angle_gamma 90.000000
_cell_volume 1364.155434
_symmetry_space_group_name_H-M "C 2"
_symmetry_group_IT_number 5
_symmetry_cell_setting 'monoclinic'
loop_
_space_group_symop_operation_xyz
x,y,z
-x,y,-z
1/2+x,1/2+y,z
1/2-x,1/2+y,-z
loop_
_atom_site_type_symbol
_atom_site_label
_atom_site_fract_x
_atom_site_fract_y
_atom_site_fract_z
Si Si1 0.341046 0.544060 0.575155
Si Si2 0.970789 0.481923 0.715066
Si Si3 0.000000 0.030779 0.000000
Si Si4 0.214124 0.798144 0.883713
Si Si5 0.675996 0.930467 0.824530
Si Si6 0.862318 0.271214 0.808071
Si Si7 0.818914 0.351653 0.441403
Si Si8 0.011099 0.855927 0.764070
O O1 0.327290 0.667975 0.673037
O O2 0.265055 0.406109 0.533195
O O3 0.326283 0.657229 0.449881
O O4 0.442296 0.465695 0.637545
O O5 0.926910 0.414007 0.805290
O O6 0.911103 0.437864 0.555914
O O7 0.979994 0.672297 0.731027
O O8 0.068662 0.393310 0.770115
O O9 0.003634 0.911231 0.893295
O O10 0.912424 0.148943 0.934043
O O11 0.196272 0.611683 0.868572
O O12 0.278956 0.852976 0.821163
O O13 0.115699 0.886290 0.796084
O O14 0.259927 0.825974 0.044251
O O15 0.702870 0.897637 0.708402
#
# Coordination Sequence:
#
# PCOD8049147 Si02
#       8
#     4   4   2   4   4   4   4   4
#     4  10  22  42  72  96 130 176 228 277 343 395
#     4  10  23  41  69  97 133 177 232 275 341 399
#     4  10  20  36  64  88 138 178 224 274 338 396
#     4  11  23  42  66 100 138 178 223 274 342 396
#     4  11  24  43  67 100 137 182 220 283 334 400
#     4  10  20  40  66  92 132 182 218 278 333 403
#     4  11  22  44  71  95 133 180 230 283 334 406
#     4  10  23  40  65 101 131 173 225 282 339 397
#
# _framework density 21.991627999999999
#
# number of rings (size 3 to 8) (size 9 to 14) (size 15 to 20)
#    0.000    1.600    1.333    2.800    1.867    4.800 
#    4.800    0.000    5.867    0.000    0.000    0.000 
#    0.000    0.000    0.000    0.000    0.000    0.000 
#
# Total GULP energy -186008.821879 kJ/mol
# GULP energy per Si atom -12400.588125 kJ/mol
# Density = 2.194157 g / cm^3
# Si number density = 21.991628 Si / 1000 Ang^3
#
#
#
# Elastic Constant Matrix: (Units=GPa)
#
#
# Indices 1 2 3 4 5 6 
#
# 1 147.6258 46.5622 40.9637 0.0000 19.5381 0.0000
# 2 46.5622 87.6518 42.6512 0.0000 5.7140 0.0000
# 3 40.9637 42.6512 88.5157 0.0000 19.7534 0.0000
# 4 0.0000 0.0000 0.0000 37.4229 0.0000 6.5014
# 5 19.5381 5.7140 19.7534 0.0000 29.8237 0.0000
# 6 0.0000 0.0000 0.0000 6.5014 0.0000 31.4513
#
#
#
# Elastic Compliance Matrix: (Units=1/GPa)
#
#
# Indices 1 2 3 4 5 6 
#
# 1 0.008904 -0.003798 -0.001351 0.000000 -0.004211 0.000000
# 2 -0.003798 0.016651 -0.007168 0.000000 0.004046 0.000000
# 3 -0.001351 -0.007168 0.017452 0.000000 -0.009301 0.000000
# 4 0.000000 0.000000 0.000000 0.027717 0.000000 -0.005730
# 5 -0.004211 0.004046 -0.009301 0.000000 0.041674 0.000000
# 6 0.000000 0.000000 0.000000 -0.005730 0.000000 0.032980
#
#
# Mechanical properties :
#
#
# Convention : Reuss Voigt Hill
#
# Bulk Modulus (GPa) = 54.42941 64.90528 59.66735
# Shear Modulus (GPa) = 28.38709 32.64732 30.51720
#
# Velocity S-wave (km/s) = 3.59669 3.85714 3.72919
# Velocity P-wave (km/s) = 6.48475 7.02954 6.76263
#
# Compressibility (1/GPa) = 0.01837242
#
# Stress axis : x y z
#
# Youngs Moduli (GPa) = 112.30960 60.05731 57.29923
#
# Poissons Ratio (x) = 0.22811 0.07740
# Poissons Ratio (y) = 0.42657 0.41074
# Poissons Ratio (z) = 0.15171 0.43051
#
# Static dielectric constant tensor:
#      x y z
#    x 4.278050 0.000000 0.348560 
#    y 0.000000 4.036130 0.000000 
#    z 0.348560 0.000000 4.119500 
# 
# 
# High freq. dielectric constant tensor:
#      x y z
#    x 1.868650 0.000000 0.016900 
#    y 0.000000 1.867920 0.000000 
#    z 0.016900 0.000000 1.866100 
# 
# From -- ./inp_files/44325.got.cif
#   From: 2010.03.12/outbox.cif.g09.slc.cpg/sg5_23_cif.got.tgz:44325.got - 2010.03.31 09:47:26.
