data_PCOD8049995
_publ_section_title
;
Structure prediction by ZEFSAII (Michael W. Deem and Ramdas Pophale) SiO2 
 PCOD8049995
Probable space group: C 2
;
_chemical_formula_sum "Si O2"
_cell_formula_units_Z 14
_cell_length_a 7.699939
_cell_length_b 12.535241
_cell_length_c 7.929218
_cell_angle_alpha 90.000000
_cell_angle_beta 53.887990
_cell_angle_gamma 90.000000
_cell_volume 618.286632
_symmetry_space_group_name_H-M "C 2"
_symmetry_group_IT_number 5
_symmetry_cell_setting 'monoclinic'
loop_
_space_group_symop_operation_xyz
x,y,z
-x,y,-z
1/2+x,1/2+y,z
1/2-x,1/2+y,-z
loop_
_atom_site_type_symbol
_atom_site_label
_atom_site_fract_x
_atom_site_fract_y
_atom_site_fract_z
Si Si1 0.500000 0.379480 0.500000
Si Si2 0.187844 0.560046 0.624883
Si Si3 0.853438 0.782064 0.243983
Si Si4 0.762345 0.007098 0.213060
O O1 0.296020 0.457265 0.648963
O O2 0.484221 0.306684 0.342500
O O3 0.271312 0.670136 0.661393
O O4 0.257056 0.570344 0.390722
O O5 0.927609 0.551051 0.797941
O O6 0.702262 0.883215 0.289094
O O7 0.000000 0.764848 0.000000
O O8 0.000000 0.019639 0.000000
#
# Coordination Sequence:
#
# PCOD8049995 Si02
#       4
#     2   4   4   4
#     4  10  22  40  62  90 124 160 202 252 302 358
#     4  10  21  39  64  90 124 161 201 252 304 357
#     4  10  22  40  62  92 123 159 205 248 302 362
#     4   9  20  41  63  90 126 159 202 254 299 359
#
# _framework density 22.643219999999999
#
# number of rings (size 3 to 8) (size 9 to 14) (size 15 to 20)
#    0.000    2.286    0.000    1.714    0.000   11.429 
#    0.000   14.286    0.000    6.857    0.000    0.000 
#    0.000    0.000    0.000    0.000    0.000    0.000 
#
# Total GULP energy -86732.418825 kJ/mol
# GULP energy per Si atom -12390.345546 kJ/mol
# Density = 2.259168 g / cm^3
# Si number density = 22.643220 Si / 1000 Ang^3
#
#
#
# Elastic Constant Matrix: (Units=GPa)
#
#
# Indices 1 2 3 4 5 6 
#
# 1 70.3745 9.9936 31.1787 0.0000 -13.8978 0.0001
# 2 9.9936 112.6568 46.7613 0.0000 11.3770 0.0000
# 3 31.1787 46.7613 112.3499 0.0000 -9.5821 0.0001
# 4 0.0000 0.0000 0.0000 36.5423 0.0000 7.2355
# 5 -13.8978 11.3770 -9.5821 0.0000 44.0667 0.0000
# 6 0.0001 0.0000 0.0001 7.2355 0.0000 12.5872
#
#
#
# Elastic Compliance Matrix: (Units=1/GPa)
#
#
# Indices 1 2 3 4 5 6 
#
# 1 0.017010 -0.000196 -0.004256 0.000000 0.004490 0.000000
# 2 -0.000196 0.011400 -0.005040 0.000000 -0.004101 0.000000
# 3 -0.004256 -0.005040 0.012406 0.000000 0.002657 0.000000
# 4 0.000000 0.000000 0.000000 0.030880 0.000000 -0.017751
# 5 0.004490 -0.004101 0.002657 0.000000 0.025745 0.000000
# 6 0.000000 0.000000 0.000000 -0.017751 0.000000 0.089650
#
#
# Mechanical properties :
#
#
# Convention : Reuss Voigt Hill
#
# Bulk Modulus (GPa) = 45.80436 52.36093 49.08264
# Shear Modulus (GPa) = 23.43532 32.46907 27.95220
#
# Velocity S-wave (km/s) = 3.22060 3.79085 3.51730
# Velocity P-wave (km/s) = 5.83972 6.50656 6.18214
#
# Compressibility (1/GPa) = 0.02183198
#
# Stress axis : x y z
#
# Youngs Moduli (GPa) = 58.78993 87.71812 80.60415
#
# Poissons Ratio (x) = 0.01717 0.34306
# Poissons Ratio (y) = 0.01150 0.40627
# Poissons Ratio (z) = 0.25021 0.44213
#
# Static dielectric constant tensor:
#      x y z
#    x 4.266770 0.000000 -0.093480 
#    y 0.000000 4.297760 0.000000 
#    z -0.093480 0.000000 4.047160 
# 
# 
# High freq. dielectric constant tensor:
#      x y z
#    x 1.874750 0.000000 0.009060 
#    y 0.000000 1.905420 0.000000 
#    z 0.009060 0.000000 1.886580 
# 
# From -- ./inp_files/13717.got.cif
#   From: 2010.03.12/outbox.cif.g09.slc.cpg/sg5_7_cif.got.tgz:13717.got - 2010.03.31 09:47:26.
