data_PCOD8049203
_publ_section_title
;
Structure prediction by ZEFSAII (Michael W. Deem and Ramdas Pophale) SiO2 
 PCOD8049203
Probable space group: C 2
;
_chemical_formula_sum "Si O2"
_cell_formula_units_Z 22
_cell_length_a 13.894136
_cell_length_b 13.398058
_cell_length_c 10.949405
_cell_angle_alpha 90.000000
_cell_angle_beta 144.992090
_cell_angle_gamma 90.000000
_cell_volume 1169.340078
_symmetry_space_group_name_H-M "C 2"
_symmetry_group_IT_number 5
_symmetry_cell_setting 'monoclinic'
loop_
_space_group_symop_operation_xyz
x,y,z
-x,y,-z
1/2+x,1/2+y,z
1/2-x,1/2+y,-z
loop_
_atom_site_type_symbol
_atom_site_label
_atom_site_fract_x
_atom_site_fract_y
_atom_site_fract_z
Si Si1 0.527389 0.283030 0.792519
Si Si2 0.547755 0.497940 0.757153
Si Si3 0.858778 0.197415 0.018976
Si Si4 0.304970 0.775906 0.703336
Si Si5 0.760117 0.990558 0.286948
Si Si6 0.500000 0.157481 0.000000
O O1 0.532050 0.400895 0.826913
O O2 0.712000 0.251021 0.941103
O O3 0.381235 0.260513 0.542504
O O4 0.472621 0.226932 0.856246
O O5 0.368092 0.529425 0.515111
O O6 0.645599 0.460901 0.738605
O O7 0.633242 0.583727 0.925760
O O8 0.815955 0.201857 0.830904
O O9 0.042857 0.248093 0.231578
O O10 0.339173 0.890937 0.776676
O O11 0.655143 0.085806 0.139223
#
# Coordination Sequence:
#
# PCOD8049203 Si02
#       6
#     4   4   4   4   4   2
#     4  11  23  39  57  89 120 151 189 244 288 343
#     4  10  21  38  59  84 119 151 192 239 292 335
#     4  11  20  37  62  88 111 151 197 240 281 339
#     4  10  22  38  63  85 114 154 200 232 283 346
#     4  10  20  37  60  86 112 155 199 235 272 354
#     4  12  22  36  60  90 118 150 192 242 294 336
#
# _framework density 18.814031
#
# number of rings (size 3 to 8) (size 9 to 14) (size 15 to 20)
#    0.000    1.455    3.636    2.727    0.000    1.455 
#    0.000    0.000    0.000    6.545    0.000    0.000 
#    0.000    0.000    0.000    0.000    0.000    0.000 
#
# Total GULP energy -136328.210570 kJ/mol
# GULP energy per Si atom -12393.473688 kJ/mol
# Density = 1.877121 g / cm^3
# Si number density = 18.814031 Si / 1000 Ang^3
#
#
#
# Elastic Constant Matrix: (Units=GPa)
#
#
# Indices 1 2 3 4 5 6 
#
# 1 52.0592 26.4097 20.9697 0.0000 -1.0541 0.0000
# 2 26.4097 120.5626 54.5333 0.0000 -16.2181 0.0000
# 3 20.9697 54.5333 88.7452 0.0000 0.5750 0.0000
# 4 0.0000 0.0000 0.0000 36.1584 0.0000 -5.3947
# 5 -1.0541 -16.2181 0.5750 0.0000 31.9027 0.0000
# 6 0.0000 0.0000 0.0000 -5.3947 0.0000 35.9135
#
#
#
# Elastic Compliance Matrix: (Units=1/GPa)
#
#
# Indices 1 2 3 4 5 6 
#
# 1 0.022254 -0.003661 -0.003002 0.000000 -0.001072 0.000000
# 2 -0.003661 0.013350 -0.007383 0.000000 0.006799 0.000000
# 3 -0.003002 -0.007383 0.016541 0.000000 -0.004150 0.000000
# 4 0.000000 0.000000 0.000000 0.028290 0.000000 0.004250
# 5 -0.001072 0.006799 -0.004150 0.000000 0.034841 0.000000
# 6 0.000000 0.000000 0.000000 0.004250 0.000000 0.028483
#
#
# Mechanical properties :
#
#
# Convention : Reuss Voigt Hill
#
# Bulk Modulus (GPa) = 41.57315 51.68806 46.63060
# Shear Modulus (GPa) = 27.79815 31.42520 29.61168
#
# Velocity S-wave (km/s) = 3.84803 4.09137 3.97156
# Velocity P-wave (km/s) = 6.47209 7.06059 6.77273
#
# Compressibility (1/GPa) = 0.02405399
#
# Stress axis : x y z
#
# Youngs Moduli (GPa) = 44.93651 74.90409 60.45598
#
# Poissons Ratio (x) = 0.27424 0.18146
# Poissons Ratio (y) = 0.16452 0.44633
# Poissons Ratio (z) = 0.13488 0.55299
#
# Static dielectric constant tensor:
#      x y z
#    x 3.370650 0.000000 0.109070 
#    y 0.000000 3.394960 0.000000 
#    z 0.109070 0.000000 3.537850 
# 
# 
# High freq. dielectric constant tensor:
#      x y z
#    x 1.720600 0.000000 0.013050 
#    y 0.000000 1.733390 0.000000 
#    z 0.013050 0.000000 1.737390 
# 
# From -- ./inp_files/23057.got.cif
#   From: 2010.03.12/outbox.cif.g09.slc.cpg/sg5_12_cif.got.tgz:23057.got - 2010.03.31 09:47:26.
