data_PCOD8049606
_publ_section_title
;
Structure prediction by ZEFSAII (Michael W. Deem and Ramdas Pophale) SiO2 
 PCOD8049606
Probable space group: C 2
;
_chemical_formula_sum "Si O2"
_cell_formula_units_Z 26
_cell_length_a 19.479730
_cell_length_b 11.675213
_cell_length_c 14.044314
_cell_angle_alpha 90.000000
_cell_angle_beta 24.318722
_cell_angle_gamma 90.000000
_cell_volume 1315.368475
_symmetry_space_group_name_H-M "C 2"
_symmetry_group_IT_number 5
_symmetry_cell_setting 'monoclinic'
loop_
_space_group_symop_operation_xyz
x,y,z
-x,y,-z
1/2+x,1/2+y,z
1/2-x,1/2+y,-z
loop_
_atom_site_type_symbol
_atom_site_label
_atom_site_fract_x
_atom_site_fract_y
_atom_site_fract_z
Si Si1 0.563443 0.315180 0.656854
Si Si2 0.947447 0.013197 0.672867
Si Si3 0.160813 0.199692 0.508272
Si Si4 0.849493 0.161627 0.255901
Si Si5 0.500000 0.132776 0.000000
Si Si6 0.591694 0.091247 0.076860
Si Si7 0.288911 0.939911 0.527478
O O1 0.462804 0.400214 0.716552
O O2 0.692900 0.242223 0.428552
O O3 0.432918 0.226937 0.870144
O O4 0.668114 0.390982 0.598653
O O5 0.000000 0.982846 0.500000
O O6 0.060027 0.118327 0.566210
O O7 0.755266 0.049534 0.924047
O O8 0.113385 0.171137 0.677476
O O9 0.362350 0.198350 0.238474
O O10 0.121612 0.333180 0.532639
O O11 0.815049 0.027199 0.273741
O O12 0.000000 0.205289 0.000000
O O13 0.611329 0.066670 0.937911
O O14 0.430417 0.019701 0.306220
#
# Coordination Sequence:
#
# PCOD8049606 Si02
#       7
#     4   4   4   4   2   4   4
#     4  10  22  44  60  93 128 165 219 257 322 383
#     4  12  25  41  62  93 136 171 212 264 332 382
#     4  11  23  40  62  99 127 166 216 266 320 382
#     4  10  21  40  67  96 124 164 220 264 314 378
#     4  12  18  42  68  92 126 160 222 272 302 384
#     4  11  24  39  66  94 128 169 211 271 323 385
#     4  10  20  41  67  92 123 164 217 269 314 375
#
# _framework density 19.766324000000001
#
# number of rings (size 3 to 8) (size 9 to 14) (size 15 to 20)
#    0.000    1.231    7.692    0.000    3.231    2.462 
#    2.769    0.000    0.000    0.000    0.000    0.000 
#    0.000    0.000    0.000    0.000    0.000    0.000 
#
# Total GULP energy -161046.944161 kJ/mol
# GULP energy per Si atom -12388.226474 kJ/mol
# Density = 1.972134 g / cm^3
# Si number density = 19.766324 Si / 1000 Ang^3
#
#
#
# Elastic Constant Matrix: (Units=GPa)
#
#
# Indices 1 2 3 4 5 6 
#
# 1 95.5034 49.5810 40.8634 0.0000 -14.6491 0.0000
# 2 49.5810 134.7164 31.1925 0.0000 -20.8182 0.0000
# 3 40.8634 31.1925 98.3773 0.0000 -2.5984 0.0000
# 4 0.0000 0.0000 0.0000 19.2305 -0.0001 -10.5298
# 5 -14.6491 -20.8182 -2.5984 -0.0001 29.1315 0.0000
# 6 0.0000 0.0000 0.0000 -10.5298 0.0000 28.5173
#
#
#
# Elastic Compliance Matrix: (Units=1/GPa)
#
#
# Indices 1 2 3 4 5 6 
#
# 1 0.015270 -0.003752 -0.005033 0.000000 0.004549 0.000000
# 2 -0.003752 0.009925 -0.001455 0.000000 0.005076 0.000000
# 3 -0.005033 -0.001455 0.012652 0.000000 -0.002442 0.000000
# 4 0.000000 0.000000 0.000000 0.065179 0.000000 0.024067
# 5 0.004549 0.005076 -0.002442 0.000000 0.040024 0.000000
# 6 0.000000 0.000000 0.000000 0.024067 0.000000 0.043953
#
#
# Mechanical properties :
#
#
# Convention : Reuss Voigt Hill
#
# Bulk Modulus (GPa) = 57.57485 63.54121 60.55803
# Shear Modulus (GPa) = 23.44439 29.17321 26.30880
#
# Velocity S-wave (km/s) = 3.44768 3.84592 3.65223
# Velocity P-wave (km/s) = 6.71116 7.20676 6.96337
#
# Compressibility (1/GPa) = 0.01736870
#
# Stress axis : x y z
#
# Youngs Moduli (GPa) = 65.48932 100.75575 79.03757
#
# Poissons Ratio (x) = 0.37799 0.39779
# Poissons Ratio (y) = 0.24569 0.11496
# Poissons Ratio (z) = 0.32961 0.14655
#
# Static dielectric constant tensor:
#      x y z
#    x 3.522480 0.000000 0.001580 
#    y 0.000000 4.053090 0.000000 
#    z 0.001580 0.000000 3.620620 
# 
# 
# High freq. dielectric constant tensor:
#      x y z
#    x 1.749430 0.000000 -0.001780 
#    y 0.000000 1.783410 0.000000 
#    z -0.001780 0.000000 1.771450 
# 
# From -- ./inp_files/29551.got.cif
#   From: 2010.03.12/outbox.cif.g09.slc.cpg/sg5_15_cif.got.tgz:29551.got - 2010.03.31 09:47:26.
