data_PCOD8049007
_publ_section_title
;
Structure prediction by ZEFSAII (Michael W. Deem and Ramdas Pophale) SiO2 
 PCOD8049007
Probable space group: C 2
;
_chemical_formula_sum "Si O2"
_cell_formula_units_Z 18
_cell_length_a 8.898043
_cell_length_b 9.775513
_cell_length_c 19.573841
_cell_angle_alpha 90.000000
_cell_angle_beta 31.152656
_cell_angle_gamma 90.000000
_cell_volume 880.783995
_symmetry_space_group_name_H-M "C 2"
_symmetry_group_IT_number 5
_symmetry_cell_setting 'monoclinic'
loop_
_space_group_symop_operation_xyz
x,y,z
-x,y,-z
1/2+x,1/2+y,z
1/2-x,1/2+y,-z
loop_
_atom_site_type_symbol
_atom_site_label
_atom_site_fract_x
_atom_site_fract_y
_atom_site_fract_z
Si Si1 0.301849 0.204080 0.854163
Si Si2 0.859424 0.225663 0.704146
Si Si3 0.811757 0.463956 0.347152
Si Si4 0.095631 0.927094 0.285790
Si Si5 0.500000 0.783860 0.500000
O O1 0.510399 0.249009 0.836551
O O2 0.229597 0.340247 0.838600
O O3 0.463454 0.091507 0.743312
O O4 0.000000 0.143618 0.000000
O O5 0.915236 0.089100 0.726459
O O6 0.036163 0.351195 0.664848
O O7 0.944930 0.195562 0.590739
O O8 0.500000 0.507053 0.500000
O O9 0.761939 0.399927 0.292056
O O10 0.764870 0.881257 0.415169
#
# Coordination Sequence:
#
# PCOD8049007 Si02
#       5
#     4   4   4   4   2
#     4  10  25  46  64  89 131 176 214 257 312 380
#     4  10  23  38  62  95 125 166 209 256 317 373
#     4  11  23  40  68 100 129 161 210 266 325 378
#     4  10  23  36  64  92 127 167 206 258 315 372
#     4  10  20  34  58  90 132 158 196 256 318 372
#
# _framework density 20.436339
#
# number of rings (size 3 to 8) (size 9 to 14) (size 15 to 20)
#    0.000    1.778    2.222    0.000   15.556    7.111 
#    0.000    1.111    0.000    0.000    0.000    0.000 
#    0.000    0.000    0.000    0.000    0.000    0.000 
#
# Total GULP energy -111515.466850 kJ/mol
# GULP energy per Si atom -12390.607428 kJ/mol
# Density = 2.038982 g / cm^3
# Si number density = 20.436339 Si / 1000 Ang^3
#
#
#
# Elastic Constant Matrix: (Units=GPa)
#
#
# Indices 1 2 3 4 5 6 
#
# 1 83.6895 56.3690 28.8849 -0.0014 -10.6796 0.0026
# 2 56.3690 142.4628 58.1446 0.0002 4.5266 0.0006
# 3 28.8849 58.1446 125.2630 -0.0018 -24.8238 0.0044
# 4 -0.0014 0.0002 -0.0018 20.7585 -0.0006 1.9674
# 5 -10.6796 4.5266 -24.8238 -0.0006 23.5069 -0.0018
# 6 0.0026 0.0006 0.0044 1.9674 -0.0018 44.5641
#
#
#
# Elastic Compliance Matrix: (Units=1/GPa)
#
#
# Indices 1 2 3 4 5 6 
#
# 1 0.018606 -0.008650 0.002188 0.000002 0.012429 -0.000001
# 2 -0.008650 0.013862 -0.007269 -0.000002 -0.014275 0.000001
# 3 0.002188 -0.007269 0.014325 0.000002 0.017521 -0.000001
# 4 0.000002 -0.000002 0.000002 0.048375 0.000004 -0.002136
# 5 0.012429 -0.014275 0.017521 0.000004 0.069439 0.000000
# 6 -0.000001 0.000001 -0.000001 -0.002136 0.000000 0.022534
#
#
# Mechanical properties :
#
#
# Convention : Reuss Voigt Hill
#
# Bulk Modulus (GPa) = 51.72982 70.91250 61.32116
# Shear Modulus (GPa) = 22.61962 31.63370 27.12666
#
# Velocity S-wave (km/s) = 3.33052 3.93862 3.64727
# Velocity P-wave (km/s) = 6.33699 7.44703 6.91432
#
# Compressibility (1/GPa) = 0.01933121
#
# Stress axis : x y z
#
# Youngs Moduli (GPa) = 53.74646 72.13877 69.80747
#
# Poissons Ratio (x) = 0.62398 -0.15271
# Poissons Ratio (y) = 0.46489 0.50743
# Poissons Ratio (z) = -0.11758 0.52437
#
# Static dielectric constant tensor:
#      x y z
#    x 3.857000 -0.000010 -0.141700 
#    y -0.000010 3.678680 0.000010 
#    z -0.141700 0.000010 3.602170 
# 
# 
# High freq. dielectric constant tensor:
#      x y z
#    x 1.803140 0.000000 -0.014080 
#    y 0.000000 1.808230 0.000000 
#    z -0.014080 0.000000 1.779880 
# 
# From -- ./inp_files/13955.got.cif
#   From: 2010.03.12/outbox.cif.g09.slc.cpg/sg5_7_cif.got.tgz:13955.got - 2010.03.31 09:47:26.
