data_PCOD8049290
_publ_section_title
;
Structure prediction by ZEFSAII (Michael W. Deem and Ramdas Pophale) SiO2 
 PCOD8049290
Probable space group: C 2
;
_chemical_formula_sum "Si O2"
_cell_formula_units_Z 26
_cell_length_a 21.066789
_cell_length_b 13.704456
_cell_length_c 6.494520
_cell_angle_alpha 90.000000
_cell_angle_beta 49.607540
_cell_angle_gamma 90.000000
_cell_volume 1428.063744
_symmetry_space_group_name_H-M "C 2"
_symmetry_group_IT_number 5
_symmetry_cell_setting 'monoclinic'
loop_
_space_group_symop_operation_xyz
x,y,z
-x,y,-z
1/2+x,1/2+y,z
1/2-x,1/2+y,-z
loop_
_atom_site_type_symbol
_atom_site_label
_atom_site_fract_x
_atom_site_fract_y
_atom_site_fract_z
Si Si1 0.778715 0.919460 0.095848
Si Si2 0.067968 0.931340 0.524903
Si Si3 0.833440 0.741495 0.202063
Si Si4 0.303293 0.736993 0.812769
Si Si5 0.579954 0.630201 0.718525
Si Si6 0.222384 0.125283 0.735094
Si Si7 0.500000 0.290003 0.000000
O O1 0.818141 0.859349 0.208600
O O2 0.702260 0.855064 0.164142
O O3 0.743321 0.023212 0.245945
O O4 0.842563 0.931095 0.771985
O O5 0.000000 0.903616 0.500000
O O6 0.060001 0.852615 0.724467
O O7 0.049290 0.037775 0.653249
O O8 0.784650 0.695790 0.105011
O O9 0.794826 0.691230 0.485569
O O10 0.933851 0.724980 0.005543
O O11 0.382672 0.713429 0.505270
O O12 0.318319 0.689621 0.000485
O O13 0.649485 0.595768 0.733539
O O14 0.500000 0.675992 0.000000
#
# Coordination Sequence:
#
# PCOD8049290 Si02
#       7
#     4   4   4   4   4   4   2
#     4  10  20  38  57  84 115 154 192 229 288 344
#     4  12  20  32  55  89 122 144 182 237 304 350
#     4   9  22  36  54  88 113 150 195 228 290 346
#     4   9  21  37  51  86 114 151 195 229 284 341
#     4  11  22  33  56  89 117 147 189 232 295 351
#     4  11  20  40  59  79 122 154 190 243 281 342
#     4  12  20  34  58  88 120 150 186 242 292 352
#
# _framework density 18.206471000000001
#
# number of rings (size 3 to 8) (size 9 to 14) (size 15 to 20)
#    0.923    0.615    3.846    2.769    0.000    0.000 
#    0.000    0.000    1.692    0.000    4.000    0.000 
#    0.000    0.000    0.000    0.000    0.000    0.000 
#
# Total GULP energy -161052.474880 kJ/mol
# GULP energy per Si atom -12388.651914 kJ/mol
# Density = 1.816503 g / cm^3
# Si number density = 18.206471 Si / 1000 Ang^3
#
#
#
# Elastic Constant Matrix: (Units=GPa)
#
#
# Indices 1 2 3 4 5 6 
#
# 1 29.6456 -0.2094 10.0962 0.0000 -1.8046 0.0000
# 2 -0.2094 71.6356 43.4699 0.0000 1.8697 0.0000
# 3 10.0962 43.4699 107.7549 0.0000 -1.3632 0.0000
# 4 0.0000 0.0000 0.0000 26.1894 0.0000 -3.3184
# 5 -1.8046 1.8697 -1.3632 0.0000 28.4912 0.0000
# 6 0.0000 0.0000 0.0000 -3.3184 0.0000 19.0762
#
#
#
# Elastic Compliance Matrix: (Units=1/GPa)
#
#
# Indices 1 2 3 4 5 6 
#
# 1 0.035357 0.002716 -0.004385 0.000000 0.001851 0.000000
# 2 0.002716 0.018764 -0.007842 0.000000 -0.001435 0.000000
# 3 -0.004385 -0.007842 0.012866 0.000000 0.000852 0.000000
# 4 0.000000 0.000000 0.000000 0.039044 0.000000 0.006792
# 5 0.001851 -0.001435 0.000852 0.000000 0.035351 0.000000
# 6 0.000000 0.000000 0.000000 0.006792 0.000000 0.053603
#
#
# Mechanical properties :
#
#
# Convention : Reuss Voigt Hill
#
# Bulk Modulus (GPa) = 20.84902 35.08327 27.96615
# Shear Modulus (GPa) = 21.73966 25.12998 23.43482
#
# Velocity S-wave (km/s) = 3.45927 3.71924 3.59161
# Velocity P-wave (km/s) = 5.23753 6.14452 5.70906
#
# Compressibility (1/GPa) = 0.04796389
#
# Stress axis : x y z
#
# Youngs Moduli (GPa) = 28.28284 53.29440 77.72658
#
# Poissons Ratio (x) = -0.14474 0.34083
# Poissons Ratio (y) = -0.07681 0.60955
# Poissons Ratio (z) = 0.12402 0.41794
#
# Static dielectric constant tensor:
#      x y z
#    x 3.267810 0.000000 0.098200 
#    y 0.000000 3.186610 0.000000 
#    z 0.098200 0.000000 3.461880 
# 
# 
# High freq. dielectric constant tensor:
#      x y z
#    x 1.695800 0.000000 0.015810 
#    y 0.000000 1.678830 0.000000 
#    z 0.015810 0.000000 1.707880 
# 
# From -- ./inp_files/9734.got.cif
#   From: 2010.03.12/outbox.cif.g09.slc.cpg/sg5_5_cif.got.tgz:9734.got - 2010.03.31 09:47:26.
