data_PCOD8049450
_publ_section_title
;
Structure prediction by ZEFSAII (Michael W. Deem and Ramdas Pophale) SiO2 
 PCOD8049450
Probable space group: C 2
;
_chemical_formula_sum "Si O2"
_cell_formula_units_Z 24
_cell_length_a 9.670306
_cell_length_b 17.899044
_cell_length_c 9.325973
_cell_angle_alpha 90.000000
_cell_angle_beta 44.795668
_cell_angle_gamma 90.000000
_cell_volume 1137.351912
_symmetry_space_group_name_H-M "C 2"
_symmetry_group_IT_number 5
_symmetry_cell_setting 'monoclinic'
loop_
_space_group_symop_operation_xyz
x,y,z
-x,y,-z
1/2+x,1/2+y,z
1/2-x,1/2+y,-z
loop_
_atom_site_type_symbol
_atom_site_label
_atom_site_fract_x
_atom_site_fract_y
_atom_site_fract_z
Si Si1 0.570544 0.126790 0.105666
Si Si2 0.613432 0.521587 0.193791
Si Si3 0.716228 0.999521 0.624845
Si Si4 0.938775 0.766771 0.383233
Si Si5 0.636707 0.371922 0.032865
Si Si6 0.054192 0.346409 0.624773
O O1 0.462989 0.056177 0.255541
O O2 0.532450 0.197766 0.230739
O O3 0.500000 0.148665 0.000000
O O4 0.798710 0.100968 0.925692
O O5 0.387350 0.534233 0.399828
O O6 0.726752 0.491517 0.250889
O O7 0.647305 0.461205 0.042782
O O8 0.661805 0.919178 0.604839
O O9 0.701686 0.775812 0.539155
O O10 0.000000 0.756315 0.500000
O O11 0.038802 0.841526 0.249682
O O12 0.500000 0.350001 0.000000
O O13 0.850408 0.333996 0.858513
O O14 0.000000 0.358375 0.500000
#
# Coordination Sequence:
#
# PCOD8049450 Si02
#       6
#     4   4   4   4   4   4
#     4  10  23  42  66  93 132 177 220 269 330 396
#     4  10  20  39  67  99 133 170 215 276 327 395
#     4  10  20  39  67 101 128 170 222 269 331 395
#     4  12  27  45  65  99 140 177 221 280 334 399
#     4  12  23  42  70 102 131 175 227 277 334 398
#     4  12  24  41  71 101 133 178 223 279 334 394
#
# _framework density 21.101647
#
# number of rings (size 3 to 8) (size 9 to 14) (size 15 to 20)
#    0.000    1.000    5.000    1.500    0.000    4.000 
#    6.000    0.000    0.000    0.000    0.000    0.000 
#    0.000    0.000    0.000    0.000    0.000    0.000 
#
# Total GULP energy -148806.630389 kJ/mol
# GULP energy per Si atom -12400.552532 kJ/mol
# Density = 2.105362 g / cm^3
# Si number density = 21.101647 Si / 1000 Ang^3
#
#
#
# Elastic Constant Matrix: (Units=GPa)
#
#
# Indices 1 2 3 4 5 6 
#
# 1 91.4042 38.7997 58.6849 0.0000 -5.3361 0.0000
# 2 38.7997 85.5917 37.7393 0.0000 6.7043 0.0000
# 3 58.6849 37.7393 135.5543 0.0000 -14.7809 0.0000
# 4 0.0000 0.0000 0.0000 27.4741 0.0000 8.1374
# 5 -5.3361 6.7043 -14.7809 0.0000 41.3402 0.0000
# 6 0.0000 0.0000 0.0000 8.1374 0.0000 17.1640
#
#
#
# Elastic Compliance Matrix: (Units=1/GPa)
#
#
# Indices 1 2 3 4 5 6 
#
# 1 0.016905 -0.005196 -0.005767 0.000000 0.000963 0.000000
# 2 -0.005196 0.015459 -0.002498 0.000000 -0.004071 0.000000
# 3 -0.005767 -0.002498 0.010960 0.000000 0.003579 0.000000
# 4 0.000000 0.000000 0.000000 0.042344 0.000000 -0.020075
# 5 0.000963 -0.004071 0.003579 0.000000 0.026254 0.000000
# 6 0.000000 0.000000 0.000000 -0.020075 0.000000 0.067779
#
#
# Mechanical properties :
#
#
# Convention : Reuss Voigt Hill
#
# Bulk Modulus (GPa) = 60.97117 64.77754 62.87436
# Shear Modulus (GPa) = 23.57493 29.01742 26.29617
#
# Velocity S-wave (km/s) = 3.34609 3.71229 3.53394
# Velocity P-wave (km/s) = 6.62459 7.00994 6.81999
#
# Compressibility (1/GPa) = 0.01640119
#
# Stress axis : x y z
#
# Youngs Moduli (GPa) = 59.15489 64.68646 91.24342
#
# Poissons Ratio (x) = 0.33609 0.52620
# Poissons Ratio (y) = 0.30735 0.22797
# Poissons Ratio (z) = 0.34115 0.16162
#
# Static dielectric constant tensor:
#      x y z
#    x 3.789100 0.000000 -0.243440 
#    y 0.000000 3.715340 0.000000 
#    z -0.243440 0.000000 4.201920 
# 
# 
# High freq. dielectric constant tensor:
#      x y z
#    x 1.817010 0.000000 -0.008800 
#    y 0.000000 1.811170 0.000000 
#    z -0.008800 0.000000 1.850880 
# 
# From -- ./inp_files/16682.got.cif
#   From: 2010.03.12/outbox.cif.g09.slc.cpg/sg5_9_cif.got.tgz:16682.got - 2010.03.31 09:47:26.
