data_PCOD8049641
_publ_section_title
;
Structure prediction by ZEFSAII (Michael W. Deem and Ramdas Pophale) SiO2 
 PCOD8049641
Probable space group: C 2
;
_chemical_formula_sum "Si O2"
_cell_formula_units_Z 28
_cell_length_a 6.964980
_cell_length_b 11.973947
_cell_length_c 19.377065
_cell_angle_alpha 90.000000
_cell_angle_beta 55.853332
_cell_angle_gamma 90.000000
_cell_volume 1337.418957
_symmetry_space_group_name_H-M "C 2"
_symmetry_group_IT_number 5
_symmetry_cell_setting 'monoclinic'
loop_
_space_group_symop_operation_xyz
x,y,z
-x,y,-z
1/2+x,1/2+y,z
1/2-x,1/2+y,-z
loop_
_atom_site_type_symbol
_atom_site_label
_atom_site_fract_x
_atom_site_fract_y
_atom_site_fract_z
Si Si1 0.703022 0.125000 0.273661
Si Si2 0.000000 0.379457 0.500000
Si Si3 0.843716 0.643107 0.867955
Si Si4 0.656598 0.723930 0.219195
Si Si5 0.499660 0.285035 0.423815
Si Si6 0.500000 0.807083 0.000000
Si Si7 0.245770 0.392417 0.077607
Si Si8 0.465048 0.904939 0.351948
O O1 0.710462 0.184372 0.198185
O O2 0.553008 0.193869 0.357054
O O3 0.966784 0.126225 0.247018
O O4 0.584070 0.004798 0.285844
O O5 0.239684 0.313815 0.454992
O O6 0.003664 0.441322 0.424715
O O7 0.722321 0.728864 0.943950
O O8 0.748036 0.519281 0.898386
O O9 0.116556 0.649877 0.823369
O O10 0.663474 0.812045 0.155503
O O11 0.599014 0.791376 0.301916
O O12 0.500000 0.230289 0.500000
O O13 0.690427 0.387326 0.387778
O O14 0.440247 0.884608 0.946959
O O15 0.500000 0.357569 0.000000
#
# Coordination Sequence:
#
# PCOD8049641 Si02
#       8
#     4   2   4   4   4   2   4   4
#     4  11  23  41  66  98 129 167 217 261 322 377
#     4  10  20  42  64  92 134 172 210 258 320 368
#     4  12  25  41  67  94 126 172 211 263 329 376
#     4  11  24  43  66  94 131 165 215 268 315 383
#     4   9  21  41  63  94 133 168 214 263 307 379
#     4  12  26  42  66  92 126 170 210 264 328 378
#     4  12  25  43  66  94 127 163 217 267 315 391
#     4  10  22  40  65  96 132 170 213 265 310 379
#
# _framework density 20.935846999999999
#
# number of rings (size 3 to 8) (size 9 to 14) (size 15 to 20)
#    0.000    1.143    5.000    0.857    1.000    4.571 
#    3.857    0.000    0.000    0.000    0.000    0.000 
#    0.000    0.000    0.000    0.000    0.000    0.000 
#
# Total GULP energy -173486.327507 kJ/mol
# GULP energy per Si atom -12391.880536 kJ/mol
# Density = 2.088820 g / cm^3
# Si number density = 20.935847 Si / 1000 Ang^3
#
#
#
# Elastic Constant Matrix: (Units=GPa)
#
#
# Indices 1 2 3 4 5 6 
#
# 1 109.1997 28.2105 31.8158 0.0000 -14.4687 -0.0003
# 2 28.2105 59.4095 23.0694 0.0001 -3.7597 -0.0001
# 3 31.8158 23.0694 99.7295 0.0000 -5.8400 -0.0003
# 4 0.0000 0.0001 0.0000 47.8953 0.0000 11.2623
# 5 -14.4687 -3.7597 -5.8400 0.0000 47.5996 0.0002
# 6 -0.0003 -0.0001 -0.0003 11.2623 0.0002 38.8895
#
#
#
# Elastic Compliance Matrix: (Units=1/GPa)
#
#
# Indices 1 2 3 4 5 6 
#
# 1 0.011348 -0.004251 -0.002473 0.000000 0.002810 0.000000
# 2 -0.004251 0.020128 -0.003306 0.000000 -0.000108 0.000000
# 3 -0.002473 -0.003306 0.011605 0.000000 0.000411 0.000000
# 4 0.000000 0.000000 0.000000 0.022405 0.000000 -0.006488
# 5 0.002810 -0.000108 0.000411 0.000000 0.021905 0.000000
# 6 0.000000 0.000000 0.000000 -0.006488 0.000000 0.027593
#
#
# Mechanical properties :
#
#
# Convention : Reuss Voigt Hill
#
# Bulk Modulus (GPa) = 43.43673 48.28113 45.85893
# Shear Modulus (GPa) = 35.03454 39.22641 37.13047
#
# Velocity S-wave (km/s) = 4.09519 4.33326 4.21591
# Velocity P-wave (km/s) = 6.56912 6.93886 6.75652
#
# Compressibility (1/GPa) = 0.02302199
#
# Stress axis : x y z
#
# Youngs Moduli (GPa) = 88.11784 49.68246 86.17151
#
# Poissons Ratio (x) = 0.21119 0.21306
# Poissons Ratio (y) = 0.37457 0.28490
# Poissons Ratio (z) = 0.21787 0.16426
#
# Static dielectric constant tensor:
#      x y z
#    x 3.848720 0.000000 0.022380 
#    y 0.000000 3.473390 0.000000 
#    z 0.022380 0.000000 4.213000 
# 
# 
# High freq. dielectric constant tensor:
#      x y z
#    x 1.828280 0.000000 -0.001400 
#    y 0.000000 1.788180 0.000000 
#    z -0.001400 0.000000 1.851880 
# 
# From -- ./inp_files/63991.got.cif
#   From: 2010.03.12/outbox.cif.g09.slc.cpg/sg5_32_cif.got.tgz:63991.got - 2010.03.31 09:47:26.
