data_PCOD8049125
_publ_section_title
;
Structure prediction by ZEFSAII (Michael W. Deem and Ramdas Pophale) SiO2 
 PCOD8049125
Probable space group: C 2
;
_chemical_formula_sum "Si O2"
_cell_formula_units_Z 32
_cell_length_a 12.424816
_cell_length_b 15.100831
_cell_length_c 17.107953
_cell_angle_alpha 90.000000
_cell_angle_beta 152.762550
_cell_angle_gamma 90.000000
_cell_volume 1469.095449
_symmetry_space_group_name_H-M "C 2"
_symmetry_group_IT_number 5
_symmetry_cell_setting 'monoclinic'
loop_
_space_group_symop_operation_xyz
x,y,z
-x,y,-z
1/2+x,1/2+y,z
1/2-x,1/2+y,-z
loop_
_atom_site_type_symbol
_atom_site_label
_atom_site_fract_x
_atom_site_fract_y
_atom_site_fract_z
Si Si1 0.736079 0.155010 0.359433
Si Si2 0.146182 0.643052 0.020401
Si Si3 0.093435 0.801860 0.369073
Si Si4 0.638706 0.078814 0.462562
Si Si5 0.962415 0.977714 0.217091
Si Si6 0.344671 0.739413 0.833299
Si Si7 0.891408 0.041258 0.851569
Si Si8 0.115592 0.246277 0.310798
O O1 0.534660 0.135135 0.167323
O O2 0.718992 0.257446 0.375497
O O3 0.673555 0.096001 0.393593
O O4 0.000000 0.134494 0.500000
O O5 0.256383 0.545678 0.106886
O O6 0.340568 0.720299 0.137253
O O7 0.000000 0.673177 0.000000
O O8 0.922305 0.879302 0.226562
O O9 0.298988 0.817725 0.567768
O O10 0.918023 0.730822 0.300014
O O11 0.387350 0.043097 0.325675
O O12 0.735459 0.156110 0.582208
O O13 0.798135 0.994958 0.582877
O O14 0.005209 0.982054 0.151603
O O15 0.469278 0.644613 0.894620
O O16 0.335730 0.789545 0.743773
O O17 0.500000 0.788708 0.000000
O O18 0.000000 0.999076 0.000000
#
# Coordination Sequence:
#
# PCOD8049125 Si02
#       8
#     4   4   4   4   4   4   4   4
#     4  11  22  40  65  92 125 176 228 274 323 412
#     4  11  22  41  65  90 126 176 227 272 331 410
#     4  11  24  39  60  97 136 165 219 286 342 377
#     4  10  20  36  61  89 120 164 223 267 318 390
#     4  11  24  39  61  97 136 169 216 284 340 380
#     4  11  20  36  65  97 122 164 225 272 319 395
#     4  11  20  36  65  96 122 165 226 272 315 397
#     4  10  20  37  64  92 121 169 224 271 318 397
#
# _framework density 21.782111
#
# number of rings (size 3 to 8) (size 9 to 14) (size 15 to 20)
#    0.000    1.250    5.000    4.500    0.000    1.500 
#    0.000    9.375    0.000    0.000    0.000    0.000 
#    0.000    0.000    0.000    0.000    0.000    0.000 
#
# Total GULP energy -198227.086241 kJ/mol
# GULP energy per Si atom -12389.192890 kJ/mol
# Density = 2.173253 g / cm^3
# Si number density = 21.782111 Si / 1000 Ang^3
#
#
#
# Elastic Constant Matrix: (Units=GPa)
#
#
# Indices 1 2 3 4 5 6 
#
# 1 129.2994 14.5826 43.4033 0.0048 -11.4713 0.0000
# 2 14.5826 39.9020 5.6281 -0.0064 -10.1180 -0.0038
# 3 43.4033 5.6281 134.6355 0.0064 -11.4747 0.0075
# 4 0.0048 -0.0064 0.0064 20.4129 -0.0040 -2.6286
# 5 -11.4713 -10.1180 -11.4747 -0.0040 49.1696 0.0069
# 6 0.0000 -0.0038 0.0075 -2.6286 0.0069 17.8723
#
#
#
# Elastic Compliance Matrix: (Units=1/GPa)
#
#
# Indices 1 2 3 4 5 6 
#
# 1 0.009032 -0.002684 -0.002721 -0.000002 0.000920 0.000000
# 2 -0.002684 0.027295 0.000153 0.000011 0.005026 0.000005
# 3 -0.002721 0.000153 0.008414 -0.000002 0.001360 -0.000004
# 4 -0.000002 0.000011 -0.000002 0.049935 0.000004 0.007344
# 5 0.000920 0.005026 0.001360 0.000004 0.021904 -0.000007
# 6 0.000000 0.000005 -0.000004 0.007344 -0.000007 0.057033
#
#
# Mechanical properties :
#
#
# Convention : Reuss Voigt Hill
#
# Bulk Modulus (GPa) = 29.20844 47.89612 38.55228
# Shear Modulus (GPa) = 25.57169 33.50582 29.53876
#
# Velocity S-wave (km/s) = 3.43005 3.92628 3.68652
# Velocity P-wave (km/s) = 5.39680 6.52615 5.98816
#
# Compressibility (1/GPa) = 0.03423668
#
# Stress axis : x y z
#
# Youngs Moduli (GPa) = 110.72171 36.63653 118.84667
#
# Poissons Ratio (x) = 0.09832 0.32338
# Poissons Ratio (y) = 0.29714 -0.01813
# Poissons Ratio (z) = 0.30127 -0.00559
#
# Static dielectric constant tensor:
#      x y z
#    x 4.142570 0.000060 -0.254220 
#    y 0.000060 3.452340 -0.000020 
#    z -0.254220 -0.000020 4.339710 
# 
# 
# High freq. dielectric constant tensor:
#      x y z
#    x 1.866920 0.000000 -0.011990 
#    y 0.000000 1.796480 0.000000 
#    z -0.011990 0.000000 1.881210 
# 
# From -- ./inp_files/60817.got.cif
#   From: 2010.03.12/outbox.cif.g09.slc.cpg/sg5_31_cif.got.tgz:60817.got - 2010.03.31 09:47:26.
