data_PCOD8049118
_publ_section_title
;
Structure prediction by ZEFSAII (Michael W. Deem and Ramdas Pophale) SiO2 
 PCOD8049118
Probable space group: C 2
;
_chemical_formula_sum "Si O2"
_cell_formula_units_Z 30
_cell_length_a 8.100764
_cell_length_b 11.943148
_cell_length_c 19.770397
_cell_angle_alpha 90.000000
_cell_angle_beta 48.332613
_cell_angle_gamma 90.000000
_cell_volume 1428.862712
_symmetry_space_group_name_H-M "C 2"
_symmetry_group_IT_number 5
_symmetry_cell_setting 'monoclinic'
loop_
_space_group_symop_operation_xyz
x,y,z
-x,y,-z
1/2+x,1/2+y,z
1/2-x,1/2+y,-z
loop_
_atom_site_type_symbol
_atom_site_label
_atom_site_fract_x
_atom_site_fract_y
_atom_site_fract_z
Si Si1 0.500000 0.262501 0.500000
Si Si2 0.512095 0.549439 0.794490
Si Si3 0.870369 0.376095 0.727191
Si Si4 0.160200 0.929823 0.351897
Si Si5 0.746123 0.406905 0.904251
Si Si6 0.297281 0.873173 0.166361
Si Si7 0.148526 0.144360 0.895477
Si Si8 0.457707 0.653683 0.357214
O O1 0.501112 0.343319 0.434031
O O2 0.709481 0.180523 0.447844
O O3 0.714665 0.463081 0.731554
O O4 0.284612 0.478302 0.855305
O O5 0.507150 0.617260 0.866057
O O6 0.535927 0.631688 0.724942
O O7 0.766573 0.339995 0.828382
O O8 0.107521 0.436283 0.672238
O O9 0.893425 0.265435 0.674455
O O10 0.195047 0.880752 0.268226
O O11 0.051498 0.053117 0.377345
O O12 0.800286 0.537442 0.871335
O O13 0.933557 0.369754 0.906426
O O14 0.500000 0.391063 0.000000
O O15 0.210836 0.756688 0.157078
O O16 0.000000 0.170988 0.000000
#
# Coordination Sequence:
#
# PCOD8049118 Si02
#       8
#     2   4   4   4   4   4   4   4
#     4  10  20  36  60  90 120 142 182 238 284 336
#     4  10  21  37  59  83 110 151 197 234 279 342
#     4   9  19  36  57  81 114 153 189 229 283 336
#     4   9  20  39  60  84 117 151 187 231 282 345
#     4   9  19  37  56  81 116 147 190 244 283 328
#     4  10  21  39  60  81 113 155 195 232 283 342
#     4  10  21  36  54  81 113 147 188 238 287 325
#     4  10  21  39  62  85 114 153 187 229 287 340
#
# _framework density 20.995719000000001
#
# number of rings (size 3 to 8) (size 9 to 14) (size 15 to 20)
#    0.000    2.400    0.000    2.400    0.000    9.600 
#    0.000   10.667    0.000    3.200    0.000    0.000 
#    0.000    0.000    0.000    0.000    0.000    0.000 
#
# Total GULP energy -185945.888584 kJ/mol
# GULP energy per Si atom -12396.392572 kJ/mol
# Density = 2.094793 g / cm^3
# Si number density = 20.995719 Si / 1000 Ang^3
#
#
#
# Elastic Constant Matrix: (Units=GPa)
#
#
# Indices 1 2 3 4 5 6 
#
# 1 58.9833 26.1811 25.4502 0.0000 -4.2156 -0.0001
# 2 26.1811 106.0292 49.7049 0.0002 -7.2266 0.0000
# 3 25.4502 49.7049 99.2493 0.0002 -14.1428 -0.0001
# 4 0.0000 0.0002 0.0002 37.2681 0.0000 -0.8527
# 5 -4.2156 -7.2266 -14.1428 0.0000 26.7236 0.0001
# 6 -0.0001 0.0000 -0.0001 -0.8527 0.0001 28.0240
#
#
#
# Elastic Compliance Matrix: (Units=1/GPa)
#
#
# Indices 1 2 3 4 5 6 
#
# 1 0.019913 -0.003297 -0.003390 0.000000 0.000456 0.000000
# 2 -0.003297 0.012871 -0.005601 0.000000 -0.000004 0.000000
# 3 -0.003390 -0.005601 0.014556 0.000000 0.005654 0.000000
# 4 0.000000 0.000000 0.000000 0.026851 0.000000 0.000817
# 5 0.000456 -0.000004 0.005654 0.000000 0.040483 0.000000
# 6 0.000000 0.000000 0.000000 0.000817 0.000000 0.035709
#
#
# Mechanical properties :
#
#
# Convention : Reuss Voigt Hill
#
# Bulk Modulus (GPa) = 43.93013 51.88156 47.90584
# Shear Modulus (GPa) = 27.39045 29.26485 28.32765
#
# Velocity S-wave (km/s) = 3.61581 3.73748 3.67715
# Velocity P-wave (km/s) = 6.19684 6.58705 6.39492
#
# Compressibility (1/GPa) = 0.02276342
#
# Stress axis : x y z
#
# Youngs Moduli (GPa) = 50.21949 77.69549 68.70170
#
# Poissons Ratio (x) = 0.25612 0.23292
# Poissons Ratio (y) = 0.16555 0.38480
# Poissons Ratio (z) = 0.17026 0.43517
#
# Static dielectric constant tensor:
#      x y z
#    x 3.743990 0.000000 0.004090 
#    y 0.000000 3.932060 0.000000 
#    z 0.004090 0.000000 3.741030 
# 
# 
# High freq. dielectric constant tensor:
#      x y z
#    x 1.805450 0.000000 0.002510 
#    y 0.000000 1.834200 0.000000 
#    z 0.002510 0.000000 1.813190 
# 
# From -- ./inp_files/67955.got.cif
#   From: 2010.03.12/outbox.cif.g09.slc.cpg/sg5_34_cif.got.tgz:67955.got - 2010.03.31 09:47:26.
