data_PCOD8049041
_publ_section_title
;
Structure prediction by ZEFSAII (Michael W. Deem and Ramdas Pophale) SiO2 
 PCOD8049041
Probable space group: C 2
;
_chemical_formula_sum "Si O2"
_cell_formula_units_Z 30
_cell_length_a 8.357824
_cell_length_b 14.303748
_cell_length_c 12.424967
_cell_angle_alpha 90.000000
_cell_angle_beta 82.348388
_cell_angle_gamma 90.000000
_cell_volume 1472.156700
_symmetry_space_group_name_H-M "C 2"
_symmetry_group_IT_number 5
_symmetry_cell_setting 'monoclinic'
loop_
_space_group_symop_operation_xyz
x,y,z
-x,y,-z
1/2+x,1/2+y,z
1/2-x,1/2+y,-z
loop_
_atom_site_type_symbol
_atom_site_label
_atom_site_fract_x
_atom_site_fract_y
_atom_site_fract_z
Si Si1 0.170443 0.904420 0.042822
Si Si2 0.367959 0.804803 0.849253
Si Si3 0.500000 0.566178 0.500000
Si Si4 0.224766 0.421418 0.575987
Si Si5 0.097095 0.102272 0.098864
Si Si6 0.140846 0.420379 0.351323
Si Si7 0.240149 0.295551 0.767543
Si Si8 0.844724 0.101799 0.299923
O O1 0.148631 0.835239 0.146769
O O2 0.214112 0.012305 0.071269
O O3 0.309759 0.869602 0.951380
O O4 0.000000 0.905006 0.000000
O O5 0.309552 0.697184 0.872941
O O6 0.303552 0.843932 0.741294
O O7 0.559865 0.812518 0.826251
O O8 0.352881 0.505338 0.561651
O O9 0.430869 0.628537 0.406991
O O10 0.200298 0.377511 0.459458
O O11 0.292375 0.345263 0.652428
O O12 0.047410 0.449594 0.634937
O O13 0.978437 0.069760 0.203563
O O14 0.000000 0.128752 0.000000
O O15 0.225288 0.517784 0.325067
O O16 0.260056 0.186354 0.740048
#
# Coordination Sequence:
#
# PCOD8049041 Si02
#       8
#     4   4   2   4   4   4   4   4
#     4  11  22  37  57  81 113 145 184 237 283 327
#     4  10  20  36  59  82 110 151 188 226 276 336
#     4  10  20  36  58  84 112 150 190 224 278 334
#     4   9  19  35  56  82 115 149 185 230 276 330
#     4  10  20  35  57  81 108 144 188 228 275 331
#     4   9  18  35  58  84 115 148 184 232 280 321
#     4  10  21  38  58  82 112 148 190 229 279 335
#     4  10  20  36  60  84 113 149 188 231 276 332
#
# _framework density 20.378266
#
# number of rings (size 3 to 8) (size 9 to 14) (size 15 to 20)
#    0.000    2.133    0.000    4.400    0.000    4.267 
#    0.000    9.333    0.000    0.800    0.000    0.000 
#    0.000    0.000    0.000    0.000    0.000    0.000 
#
# Total GULP energy -185895.581035 kJ/mol
# GULP energy per Si atom -12393.038736 kJ/mol
# Density = 2.033188 g / cm^3
# Si number density = 20.378266 Si / 1000 Ang^3
#
#
#
# Elastic Constant Matrix: (Units=GPa)
#
#
# Indices 1 2 3 4 5 6 
#
# 1 32.3782 28.1455 27.8585 0.0000 1.8219 0.0000
# 2 28.1455 129.9016 77.2751 0.0000 3.4111 0.0000
# 3 27.8585 77.2751 151.2315 0.0000 1.8851 0.0000
# 4 0.0000 0.0000 0.0000 31.1281 0.0000 9.7312
# 5 1.8219 3.4111 1.8851 0.0000 30.5638 0.0000
# 6 0.0000 0.0000 0.0000 9.7312 0.0000 11.5166
#
#
#
# Elastic Compliance Matrix: (Units=1/GPa)
#
#
# Indices 1 2 3 4 5 6 
#
# 1 0.039894 -0.006099 -0.004215 0.000000 -0.001437 0.000000
# 2 -0.006099 0.012016 -0.005008 0.000000 -0.000669 0.000000
# 3 -0.004215 -0.005008 0.009945 0.000000 0.000197 0.000000
# 4 0.000000 0.000000 0.000000 0.043657 0.000000 -0.036889
# 5 -0.001437 -0.000669 0.000197 0.000000 0.032867 0.000000
# 6 0.000000 0.000000 0.000000 -0.036889 0.000000 0.118001
#
#
# Mechanical properties :
#
#
# Convention : Reuss Voigt Hill
#
# Bulk Modulus (GPa) = 32.03879 64.45217 48.24548
# Shear Modulus (GPa) = 16.81077 26.65718 21.73398
#
# Velocity S-wave (km/s) = 2.87529 3.62072 3.26932
# Velocity P-wave (km/s) = 5.17486 7.01256 6.16260
#
# Compressibility (1/GPa) = 0.03121217
#
# Stress axis : x y z
#
# Youngs Moduli (GPa) = 25.06661 83.21977 100.54908
#
# Poissons Ratio (x) = 0.50754 0.42378
# Poissons Ratio (y) = 0.15287 0.50357
# Poissons Ratio (z) = 0.10565 0.41679
#
# Static dielectric constant tensor:
#      x y z
#    x 3.467840 0.000000 0.038820 
#    y 0.000000 3.741870 0.000000 
#    z 0.038820 0.000000 4.329420 
# 
# 
# High freq. dielectric constant tensor:
#      x y z
#    x 1.765480 0.000000 -0.003970 
#    y 0.000000 1.786960 0.000000 
#    z -0.003970 0.000000 1.826720 
# 
# From -- ./inp_files/36163.got.cif
#   From: 2010.03.12/outbox.cif.g09.slc.cpg/sg5_19_cif.got.tgz:36163.got - 2010.03.31 09:47:26.
