data_PCOD8049669
_publ_section_title
;
Structure prediction by ZEFSAII (Michael W. Deem and Ramdas Pophale) SiO2 
 PCOD8049669
Probable space group: C 2
;
_chemical_formula_sum "Si O2"
_cell_formula_units_Z 26
_cell_length_a 13.820232
_cell_length_b 8.249580
_cell_length_c 13.050517
_cell_angle_alpha 90.000000
_cell_angle_beta 47.565861
_cell_angle_gamma 90.000000
_cell_volume 1098.152601
_symmetry_space_group_name_H-M "C 2"
_symmetry_group_IT_number 5
_symmetry_cell_setting 'monoclinic'
loop_
_space_group_symop_operation_xyz
x,y,z
-x,y,-z
1/2+x,1/2+y,z
1/2-x,1/2+y,-z
loop_
_atom_site_type_symbol
_atom_site_label
_atom_site_fract_x
_atom_site_fract_y
_atom_site_fract_z
Si Si1 0.374597 0.569670 0.782330
Si Si2 0.500000 0.573105 0.500000
Si Si3 0.909222 0.447938 0.975808
Si Si4 0.574165 0.042802 0.661851
Si Si5 0.222712 0.304058 0.426681
Si Si6 0.901152 0.070959 0.984873
Si Si7 0.163322 0.427832 0.259131
O O1 0.430547 0.468916 0.642771
O O2 0.453441 0.532288 0.831793
O O3 0.394315 0.753889 0.731905
O O4 0.223690 0.547226 0.917603
O O5 0.610599 0.675838 0.479976
O O6 0.875273 0.260612 0.016574
O O7 0.987864 0.475209 0.816299
O O8 0.000000 0.516690 0.000000
O O9 0.687560 0.914720 0.549928
O O10 0.464419 0.049070 0.648581
O O11 0.640611 0.214049 0.643046
O O12 0.235762 0.422221 0.317779
O O13 0.000000 0.004812 0.000000
O O14 0.763517 0.981952 0.099526
#
# Coordination Sequence:
#
# PCOD8049669 Si02
#       7
#     4   2   4   4   4   4   4
#     4  11  20  43  70  94 139 190 234 296 374 430
#     4  10  20  42  68  96 140 184 228 306 368 420
#     4  11  23  41  67 101 139 179 241 302 358 439
#     4  12  23  46  73 103 146 197 244 309 371 439
#     4  11  24  44  75 100 142 200 241 305 383 432
#     4  11  23  40  66  99 143 191 239 298 368 439
#     4  11  23  46  70 102 149 187 242 309 363 440
#
# _framework density 23.676127000000001
#
# number of rings (size 3 to 8) (size 9 to 14) (size 15 to 20)
#    0.000    0.923    6.154    1.846    0.000    5.538 
#    5.538    0.000    0.000    0.000    0.000    0.000 
#    0.000    0.000    0.000    0.000    0.000    0.000 
#
# Total GULP energy -161073.833367 kJ/mol
# GULP energy per Si atom -12390.294874 kJ/mol
# Density = 2.362224 g / cm^3
# Si number density = 23.676127 Si / 1000 Ang^3
#
#
#
# Elastic Constant Matrix: (Units=GPa)
#
#
# Indices 1 2 3 4 5 6 
#
# 1 149.8083 37.6084 64.5974 0.0000 19.1681 0.0000
# 2 37.6084 39.4960 31.4134 0.0000 -0.0128 0.0000
# 3 64.5974 31.4134 171.2074 0.0000 31.9404 0.0000
# 4 0.0000 0.0000 0.0000 25.3504 0.0000 -6.3968
# 5 19.1681 -0.0128 31.9404 0.0000 35.7748 0.0000
# 6 0.0000 0.0000 0.0000 -6.3968 0.0000 32.1903
#
#
#
# Elastic Compliance Matrix: (Units=1/GPa)
#
#
# Indices 1 2 3 4 5 6 
#
# 1 0.009892 -0.008247 -0.001476 0.000000 -0.003986 0.000000
# 2 -0.008247 0.037573 -0.005531 0.000000 0.009370 0.000000
# 3 -0.001476 -0.005531 0.008717 0.000000 -0.006994 0.000000
# 4 0.000000 0.000000 0.000000 0.041530 0.000000 0.008253
# 5 -0.003986 0.009370 -0.006994 0.000000 0.036336 0.000000
# 6 0.000000 0.000000 0.000000 0.008253 0.000000 0.032705
#
#
# Mechanical properties :
#
#
# Convention : Reuss Voigt Hill
#
# Bulk Modulus (GPa) = 38.94569 69.75001 54.34785
# Shear Modulus (GPa) = 24.29337 33.78927 29.04132
#
# Velocity S-wave (km/s) = 3.20671 3.78186 3.50610
# Velocity P-wave (km/s) = 5.49506 6.97093 6.27653
#
# Compressibility (1/GPa) = 0.02567679
#
# Stress axis : x y z
#
# Youngs Moduli (GPa) = 101.09519 26.61458 114.71580
#
# Poissons Ratio (x) = 0.21948 0.16927
# Poissons Ratio (y) = 0.83370 0.63444
# Poissons Ratio (z) = 0.14917 0.14719
#
# Static dielectric constant tensor:
#      x y z
#    x 4.852150 0.000000 0.319810 
#    y 0.000000 3.834510 0.000000 
#    z 0.319810 0.000000 4.638370 
# 
# 
# High freq. dielectric constant tensor:
#      x y z
#    x 1.951210 0.000000 0.009830 
#    y 0.000000 1.890720 0.000000 
#    z 0.009830 0.000000 1.957190 
# 
# From -- ./inp_files/54292.got.cif
#   From: 2010.03.12/outbox.cif.g09.slc.cpg/sg5_28_cif.got.tgz:54292.got - 2010.03.31 09:47:26.
