data_PCOD8049086
_publ_section_title
;
Structure prediction by ZEFSAII (Michael W. Deem and Ramdas Pophale) SiO2 
 PCOD8049086
Probable space group: C 2
;
_chemical_formula_sum "Si O2"
_cell_formula_units_Z 26
_cell_length_a 26.614594
_cell_length_b 5.099376
_cell_length_c 19.014551
_cell_angle_alpha 90.000000
_cell_angle_beta 155.965176
_cell_angle_gamma 90.000000
_cell_volume 1051.062734
_symmetry_space_group_name_H-M "C 2"
_symmetry_group_IT_number 5
_symmetry_cell_setting 'monoclinic'
loop_
_space_group_symop_operation_xyz
x,y,z
-x,y,-z
1/2+x,1/2+y,z
1/2-x,1/2+y,-z
loop_
_atom_site_type_symbol
_atom_site_label
_atom_site_fract_x
_atom_site_fract_y
_atom_site_fract_z
Si Si1 0.273737 0.476270 0.343103
Si Si2 0.307596 0.985407 0.301527
Si Si3 0.684197 0.603201 0.443401
Si Si4 0.649722 0.091524 0.939825
Si Si5 0.462183 0.384008 0.090426
Si Si6 0.314360 0.090153 0.163422
Si Si7 0.500000 0.115317 0.000000
O O1 0.327003 0.702912 0.360603
O O2 0.319067 0.528552 0.479218
O O3 0.334990 0.208013 0.394083
O O4 0.124446 0.447713 0.146626
O O5 0.386479 0.027185 0.329340
O O6 0.167056 0.016487 0.094524
O O7 0.737937 0.891294 0.501265
O O8 0.545077 0.601605 0.235552
O O9 0.547862 0.124644 0.871152
O O10 0.595803 0.063767 0.790659
O O11 0.709611 0.378593 0.015463
O O12 0.750263 0.874193 0.088215
O O13 0.530304 0.293471 0.106366
#
# Coordination Sequence:
#
# PCOD8049086 Si02
#       7
#     4   4   4   4   4   4   2
#     4  11  23  37  56  83 115 151 189 234 288 331
#     4  10  21  36  60  86 109 146 190 241 280 337
#     4  12  26  41  55  80 118 162 191 235 283 344
#     4   9  18  31  54  86 116 148 181 237 288 341
#     4  10  22  38  58  85 115 152 195 233 285 337
#     4   9  16  32  55  86 118 139 184 239 292 331
#     4  10  20  36  56  82 110 148 188 246 264 334
#
# _framework density 24.73687
#
# number of rings (size 3 to 8) (size 9 to 14) (size 15 to 20)
#    0.000    1.846    1.538    3.692    4.308    3.077 
#    0.000    0.000    0.000    0.923    0.000    8.615 
#    0.000    0.000    0.000    0.000    0.000    0.000 
#
# Total GULP energy -161081.934181 kJ/mol
# GULP energy per Si atom -12390.918014 kJ/mol
# Density = 2.468057 g / cm^3
# Si number density = 24.736870 Si / 1000 Ang^3
#
#
#
# Elastic Constant Matrix: (Units=GPa)
#
#
# Indices 1 2 3 4 5 6 
#
# 1 150.3594 23.7273 2.6975 0.0005 -61.2006 -0.0002
# 2 23.7273 86.9721 -6.4494 0.0005 -1.6216 0.0000
# 3 2.6975 -6.4494 59.3248 0.0003 -21.2375 0.0001
# 4 0.0005 0.0005 0.0003 13.6981 -0.0001 -5.0235
# 5 -61.2006 -1.6216 -21.2375 -0.0001 23.3935 0.0001
# 6 -0.0002 0.0000 0.0001 -5.0235 0.0001 24.6432
#
#
#
# Elastic Compliance Matrix: (Units=1/GPa)
#
#
# Indices 1 2 3 4 5 6 
#
# 1 -0.012424 0.001315 -0.016141 0.000000 -0.047065 0.000000
# 2 0.001315 0.011585 0.004028 0.000000 0.007900 0.000000
# 3 -0.016141 0.004028 0.004462 0.000000 -0.037897 0.000000
# 4 0.000000 0.000000 0.000000 0.078901 0.000001 0.016084
# 5 -0.047065 0.007900 -0.037897 0.000001 -0.114237 0.000001
# 6 0.000000 0.000000 0.000000 0.016084 0.000001 0.043858
#
#
# Mechanical properties :
#
#
# Convention : Reuss Voigt Hill
#
# Bulk Modulus (GPa) = -55.63841 37.40079 -9.11881
# Shear Modulus (GPa) = 180.18215 30.79235 105.48725
#
# Velocity S-wave (km/s) = 8.54387 3.53199 6.53730
# Velocity P-wave (km/s) = 8.64808 5.63787 7.29982
#
# Compressibility (1/GPa) = -0.01797320
#
# Stress axis : x y z
#
# Youngs Moduli (GPa) = -80.49023 86.31733 224.13622
#
# Poissons Ratio (x) = -0.11351 3.61771
# Poissons Ratio (y) = 0.10584 -0.90275
# Poissons Ratio (z) = -1.29917 -0.34766
#
# Static dielectric constant tensor:
#      x y z
#    x 6.215180 0.000000 -0.565360 
#    y 0.000000 4.276540 0.000000 
#    z -0.565360 0.000000 4.088020 
# 
# 
# High freq. dielectric constant tensor:
#      x y z
#    x 2.007260 0.000000 -0.038800 
#    y 0.000000 1.981090 0.000000 
#    z -0.038800 0.000000 1.948960 
# 
# From -- ./inp_files/58298.got.cif
#   From: 2010.03.12/outbox.cif.g09.slc.cpg/sg5_30_cif.got.tgz:58298.got - 2010.03.31 09:47:26.
