data_PCOD8049950
_publ_section_title
;
Structure prediction by ZEFSAII (Michael W. Deem and Ramdas Pophale) SiO2 
 PCOD8049950
Probable space group: C 2
;
_chemical_formula_sum "Si O2"
_cell_formula_units_Z 30
_cell_length_a 17.988395
_cell_length_b 9.815791
_cell_length_c 8.087730
_cell_angle_alpha 90.000000
_cell_angle_beta 82.349183
_cell_angle_gamma 90.000000
_cell_volume 1415.340376
_symmetry_space_group_name_H-M "C 2"
_symmetry_group_IT_number 5
_symmetry_cell_setting 'monoclinic'
loop_
_space_group_symop_operation_xyz
x,y,z
-x,y,-z
1/2+x,1/2+y,z
1/2-x,1/2+y,-z
loop_
_atom_site_type_symbol
_atom_site_label
_atom_site_fract_x
_atom_site_fract_y
_atom_site_fract_z
Si Si1 0.257668 0.823640 0.106239
Si Si2 0.458040 0.108415 0.252767
Si Si3 0.220107 0.074104 0.699052
Si Si4 0.281930 0.587700 0.680555
Si Si5 0.000000 0.382429 0.000000
Si Si6 0.621772 0.792908 0.183544
Si Si7 0.162179 0.790306 0.844310
Si Si8 0.106152 0.549597 0.377255
O O1 0.304324 0.706961 0.190038
O O2 0.240492 0.942850 0.239078
O O3 0.311506 0.869231 0.938438
O O4 0.181392 0.772780 0.034574
O O5 0.450058 0.980839 0.131263
O O6 0.423430 0.242639 0.171235
O O7 0.545296 0.130556 0.280397
O O8 0.408698 0.074437 0.427024
O O9 0.195071 0.074628 0.516486
O O10 0.309677 0.090535 0.689586
O O11 0.178375 0.945927 0.790756
O O12 0.353900 0.644723 0.758913
O O13 0.214486 0.693896 0.716859
O O14 0.050471 0.277928 0.087404
O O15 0.599125 0.888230 0.344581
#
# Coordination Sequence:
#
# PCOD8049950 Si02
#       8
#     4   4   4   4   2   4   4   4
#     4  11  24  37  63  92 131 164 209 271 324 379
#     4  10  22  37  64  93 132 166 218 262 321 390
#     4  12  23  39  64  95 129 167 209 270 325 376
#     4  11  22  37  60  93 123 164 211 265 316 375
#     4  10  22  40  64  92 128 172 214 264 330 388
#     4  10  22  38  63  92 126 164 219 261 321 383
#     4  11  21  38  63  94 126 160 216 270 315 375
#     4  10  21  39  60  96 127 169 209 262 319 388
#
# _framework density 21.196314000000001
#
# number of rings (size 3 to 8) (size 9 to 14) (size 15 to 20)
#    0.000    1.333    4.000    3.200    3.733    0.000 
#    0.000    0.000    5.867    0.000    0.000    0.000 
#    0.000    0.000    0.000    0.000    0.000    0.000 
#
# Total GULP energy -185903.428076 kJ/mol
# GULP energy per Si atom -12393.561872 kJ/mol
# Density = 2.114807 g / cm^3
# Si number density = 21.196314 Si / 1000 Ang^3
#
#
#
# Elastic Constant Matrix: (Units=GPa)
#
#
# Indices 1 2 3 4 5 6 
#
# 1 89.9833 44.8216 18.9727 0.0000 21.3373 0.0000
# 2 44.8216 128.9705 50.1828 0.0000 20.5182 0.0000
# 3 18.9727 50.1828 113.4979 0.0000 25.4294 0.0000
# 4 0.0000 0.0000 0.0000 25.4718 0.0000 1.5764
# 5 21.3373 20.5182 25.4294 0.0000 28.8647 0.0000
# 6 0.0000 0.0000 0.0000 1.5764 0.0000 33.5726
#
#
#
# Elastic Compliance Matrix: (Units=1/GPa)
#
#
# Indices 1 2 3 4 5 6 
#
# 1 0.015218 -0.004369 0.001511 0.000000 -0.009474 0.000000
# 2 -0.004369 0.010957 -0.003853 0.000000 -0.001164 0.000000
# 3 0.001511 -0.003853 0.012333 0.000000 -0.009243 0.000000
# 4 0.000000 0.000000 0.000000 0.039373 0.000000 -0.001849
# 5 -0.009474 -0.001164 -0.009243 0.000000 0.050618 0.000000
# 6 0.000000 0.000000 0.000000 -0.001849 0.000000 0.029873
#
#
# Mechanical properties :
#
#
# Convention : Reuss Voigt Hill
#
# Bulk Modulus (GPa) = 39.86687 62.26730 51.06709
# Shear Modulus (GPa) = 27.75371 32.14680 29.95026
#
# Velocity S-wave (km/s) = 3.62244 3.89861 3.76306
# Velocity P-wave (km/s) = 6.02871 7.05023 6.55939
#
# Compressibility (1/GPa) = 0.02508348
#
# Stress axis : x y z
#
# Youngs Moduli (GPa) = 65.71354 91.26880 81.08486
#
# Poissons Ratio (x) = 0.39877 -0.12250
# Poissons Ratio (y) = 0.28711 0.31244
# Poissons Ratio (z) = -0.09927 0.35169
#
# Static dielectric constant tensor:
#      x y z
#    x 3.918790 0.000000 0.252020 
#    y 0.000000 3.637990 0.000000 
#    z 0.252020 0.000000 4.083790 
# 
# 
# High freq. dielectric constant tensor:
#      x y z
#    x 1.815990 0.000000 0.017760 
#    y 0.000000 1.806080 0.000000 
#    z 0.017760 0.000000 1.850890 
# 
# From -- ./inp_files/28965.got.cif
#   From: 2010.03.12/outbox.cif.g09.slc.cpg/sg5_15_cif.got.tgz:28965.got - 2010.03.31 09:47:26.
