data_PCOD8049969
_publ_section_title
;
Structure prediction by ZEFSAII (Michael W. Deem and Ramdas Pophale) SiO2 
 PCOD8049969
Probable space group: C 2
;
_chemical_formula_sum "Si O2"
_cell_formula_units_Z 28
_cell_length_a 9.311367
_cell_length_b 31.794548
_cell_length_c 5.002633
_cell_angle_alpha 90.000000
_cell_angle_beta 62.388334
_cell_angle_gamma 90.000000
_cell_volume 1312.357034
_symmetry_space_group_name_H-M "C 2"
_symmetry_group_IT_number 5
_symmetry_cell_setting 'monoclinic'
loop_
_space_group_symop_operation_xyz
x,y,z
-x,y,-z
1/2+x,1/2+y,z
1/2-x,1/2+y,-z
loop_
_atom_site_type_symbol
_atom_site_label
_atom_site_fract_x
_atom_site_fract_y
_atom_site_fract_z
Si Si1 0.177366 0.030410 0.237923
Si Si2 0.313320 0.887988 0.669647
Si Si3 0.393253 0.309377 0.336477
Si Si4 0.892159 0.151585 0.350638
Si Si5 0.390094 0.746231 0.354332
Si Si6 0.313543 0.074153 0.601822
Si Si7 0.686422 0.942171 0.830820
O O1 0.303825 0.044025 0.354942
O O2 0.000000 0.041598 0.500000
O O3 0.198818 0.980562 0.180692
O O4 0.208035 0.055185 0.935825
O O5 0.500000 0.873076 0.500000
O O6 0.198395 0.849663 0.699699
O O7 0.276420 0.926320 0.499444
O O8 0.275966 0.903899 0.000159
O O9 0.500000 0.322300 0.500000
O O10 0.268901 0.274120 0.543058
O O11 0.500000 0.291051 0.000000
O O12 0.829549 0.198660 0.468810
O O13 0.742862 0.120792 0.429050
O O14 0.000000 0.133589 0.500000
O O15 0.000000 0.153838 0.000000
O O16 0.500000 0.763495 0.500000
O O17 0.500000 0.749463 0.000000
O O18 0.500000 0.077783 0.500000
O O19 0.500000 0.956950 0.000000
#
# Coordination Sequence:
#
# PCOD8049969 Si02
#       7
#     4   4   4   4   4   4   4
#     4  12  25  41  63  91 124 163 205 254 306 362
#     4  10  22  40  63  86 119 164 205 245 302 371
#     4  12  25  40  62  95 130 160 199 258 307 354
#     4  10  21  40  65  91 122 159 205 253 301 360
#     4  10  22  42  67  91 121 166 207 245 300 372
#     4  12  24  40  63  91 125 164 204 252 304 363
#     4  10  21  39  62  89 118 156 206 257 303 358
#
# _framework density 21.335657999999999
#
# number of rings (size 3 to 8) (size 9 to 14) (size 15 to 20)
#    0.000    1.143    0.000    6.857    0.000    5.143 
#    0.000    1.429    0.000    0.000    0.000    0.000 
#    0.000    0.000    0.000    0.000    0.000    0.000 
#
# Total GULP energy -173668.973661 kJ/mol
# GULP energy per Si atom -12404.926690 kJ/mol
# Density = 2.128710 g / cm^3
# Si number density = 21.335658 Si / 1000 Ang^3
#
#
#
# Elastic Constant Matrix: (Units=GPa)
#
#
# Indices 1 2 3 4 5 6 
#
# 1 119.8061 52.6343 24.5463 0.0000 10.3925 0.0000
# 2 52.6343 101.8634 21.2267 0.0000 -11.0598 0.0000
# 3 24.5463 21.2267 86.5331 0.0000 12.2210 0.0000
# 4 0.0000 0.0000 0.0000 25.6088 0.0000 4.7024
# 5 10.3925 -11.0598 12.2210 0.0000 40.0607 0.0000
# 6 0.0000 0.0000 0.0000 4.7024 0.0000 27.0361
#
#
#
# Elastic Compliance Matrix: (Units=1/GPa)
#
#
# Indices 1 2 3 4 5 6 
#
# 1 0.011739 -0.006306 -0.001157 0.000000 -0.004433 0.000000
# 2 -0.006306 0.014316 -0.002625 0.000000 0.006389 0.000000
# 3 -0.001157 -0.002625 0.013155 0.000000 -0.004438 0.000000
# 4 0.000000 0.000000 0.000000 0.040337 0.000000 -0.007016
# 5 -0.004433 0.006389 -0.004438 0.000000 0.029230 0.000000
# 6 0.000000 0.000000 0.000000 -0.007016 0.000000 0.038208
#
#
# Mechanical properties :
#
#
# Convention : Reuss Voigt Hill
#
# Bulk Modulus (GPa) = 52.53795 56.11302 54.32549
# Shear Modulus (GPa) = 28.81746 32.52749 30.67247
#
# Velocity S-wave (km/s) = 3.67914 3.90880 3.79570
# Velocity P-wave (km/s) = 6.53651 6.83585 6.68785
#
# Compressibility (1/GPa) = 0.01903386
#
# Stress axis : x y z
#
# Youngs Moduli (GPa) = 85.18807 69.85124 76.01555
#
# Poissons Ratio (x) = 0.44047 0.08794
# Poissons Ratio (y) = 0.53718 0.19957
# Poissons Ratio (z) = 0.09856 0.18339
#
# Static dielectric constant tensor:
#      x y z
#    x 3.889810 0.000000 0.190980 
#    y 0.000000 3.944730 0.000000 
#    z 0.190980 0.000000 3.965960 
# 
# 
# High freq. dielectric constant tensor:
#      x y z
#    x 1.843890 0.000000 0.015710 
#    y 0.000000 1.841190 0.000000 
#    z 0.015710 0.000000 1.844190 
# 
# From -- ./inp_files/3872.got.cif
#   From: 2010.03.12/outbox.cif.g09.slc.cpg/sg5_2_cif.got.tgz:3872.got - 2010.03.31 09:47:26.
