data_PCOD8049748
_publ_section_title
;
Structure prediction by ZEFSAII (Michael W. Deem and Ramdas Pophale) SiO2 
 PCOD8049748
Probable space group: C 2
;
_chemical_formula_sum "Si O2"
_cell_formula_units_Z 28
_cell_length_a 14.154100
_cell_length_b 17.033253
_cell_length_c 9.483747
_cell_angle_alpha 90.000000
_cell_angle_beta 39.815889
_cell_angle_gamma 90.000000
_cell_volume 1464.059531
_symmetry_space_group_name_H-M "C 2"
_symmetry_group_IT_number 5
_symmetry_cell_setting 'monoclinic'
loop_
_space_group_symop_operation_xyz
x,y,z
-x,y,-z
1/2+x,1/2+y,z
1/2-x,1/2+y,-z
loop_
_atom_site_type_symbol
_atom_site_label
_atom_site_fract_x
_atom_site_fract_y
_atom_site_fract_z
Si Si1 0.369810 0.675330 0.548658
Si Si2 0.239955 0.897123 0.495866
Si Si3 0.560609 0.169003 0.586185
Si Si4 0.867676 0.555339 0.253924
Si Si5 0.626883 0.738854 0.744823
Si Si6 0.043788 0.811567 0.115856
Si Si7 0.328756 0.849765 0.677028
O O1 0.500000 0.645211 0.500000
O O2 0.232873 0.617106 0.713875
O O3 0.429249 0.686324 0.322184
O O4 0.305601 0.759336 0.663172
O O5 0.353876 0.830816 0.311286
O O6 0.273696 0.909880 0.622251
O O7 0.070101 0.870292 0.675478
O O8 0.267029 0.978523 0.387512
O O9 0.500000 0.149135 0.500000
O O10 0.574243 0.089299 0.663010
O O11 0.719934 0.205638 0.373815
O O12 0.460678 0.229591 0.792387
O O13 0.000000 0.532053 0.000000
O O14 0.500000 0.727027 0.000000
O O15 0.207508 0.852882 0.943514
O O16 0.000000 0.798684 0.000000
O O17 0.500000 0.870040 0.500000
#
# Coordination Sequence:
#
# PCOD8049748 Si02
#       7
#     4   4   4   4   4   4   4
#     4   9  19  35  55  79 103 133 182 224 261 315
#     4   9  19  33  51  77 106 141 179 215 263 317
#     4  10  21  34  54  83 111 140 178 221 269 318
#     4  11  21  36  55  76 110 149 181 215 263 323
#     4   9  18  34  53  75 104 136 177 229 271 306
#     4   9  17  36  59  77 104 141 178 220 268 316
#     4   9  17  32  58  83 100 130 180 226 262 311
#
# _framework density 19.124904000000001
#
# number of rings (size 3 to 8) (size 9 to 14) (size 15 to 20)
#    0.000    2.571    0.000    4.286    0.000    5.143 
#    0.000   12.857    0.000    0.000    0.000    0.000 
#    0.000    0.000    0.000    0.000    0.000    0.000 
#
# Total GULP energy -173447.772060 kJ/mol
# GULP energy per Si atom -12389.126576 kJ/mol
# Density = 1.908138 g / cm^3
# Si number density = 19.124904 Si / 1000 Ang^3
#
#
#
# Elastic Constant Matrix: (Units=GPa)
#
#
# Indices 1 2 3 4 5 6 
#
# 1 97.1413 12.9834 27.0434 -0.0001 -2.5641 0.0004
# 2 12.9834 55.2350 16.7900 -0.0001 0.1043 0.0001
# 3 27.0434 16.7900 126.8522 -0.0002 -15.4364 0.0004
# 4 -0.0001 -0.0001 -0.0002 11.6610 0.0001 -5.9262
# 5 -2.5641 0.1043 -15.4364 0.0001 28.3198 -0.0002
# 6 0.0004 0.0001 0.0004 -5.9262 -0.0002 10.8898
#
#
#
# Elastic Compliance Matrix: (Units=1/GPa)
#
#
# Indices 1 2 3 4 5 6 
#
# 1 0.011148 -0.001972 -0.002133 0.000000 -0.000146 0.000000
# 2 -0.001972 0.019274 -0.002315 0.000000 -0.001511 0.000000
# 3 -0.002133 -0.002315 0.009234 0.000000 0.004849 0.000000
# 4 0.000000 0.000000 0.000000 0.118539 0.000000 0.064509
# 5 -0.000146 -0.001511 0.004849 0.000000 0.037946 0.000001
# 6 0.000000 0.000000 0.000000 0.064509 0.000001 0.126935
#
#
# Mechanical properties :
#
#
# Convention : Reuss Voigt Hill
#
# Bulk Modulus (GPa) = 37.28951 43.65132 40.47042
# Shear Modulus (GPa) = 14.49880 25.00156 19.75018
#
# Velocity S-wave (km/s) = 2.75637 3.61955 3.21704
# Velocity P-wave (km/s) = 5.44705 6.35154 5.91660
#
# Compressibility (1/GPa) = 0.02681719
#
# Stress axis : x y z
#
# Youngs Moduli (GPa) = 89.70324 51.88243 108.29036
#
# Poissons Ratio (x) = 0.10229 0.23103
# Poissons Ratio (y) = 0.17686 0.25066
# Poissons Ratio (z) = 0.19138 0.12009
#
# Static dielectric constant tensor:
#      x y z
#    x 3.443340 0.000000 -0.071710 
#    y 0.000000 3.242110 0.000000 
#    z -0.071710 0.000000 3.643100 
# 
# 
# High freq. dielectric constant tensor:
#      x y z
#    x 1.726430 0.000000 -0.010950 
#    y 0.000000 1.719110 0.000000 
#    z -0.010950 0.000000 1.754780 
# 
# From -- ./inp_files/25170.got.cif
#   From: 2010.03.12/outbox.cif.g09.slc.cpg/sg5_13_cif.got.tgz:25170.got - 2010.03.31 09:47:26.
