data_PCOD8049371
_publ_section_title
;
Structure prediction by ZEFSAII (Michael W. Deem and Ramdas Pophale) SiO2 
 PCOD8049371
Probable space group: C 2
;
_chemical_formula_sum "Si O2"
_cell_formula_units_Z 32
_cell_length_a 14.407485
_cell_length_b 21.690860
_cell_length_c 8.537478
_cell_angle_alpha 90.000000
_cell_angle_beta 31.838021
_cell_angle_gamma 90.000000
_cell_volume 1407.450714
_symmetry_space_group_name_H-M "C 2"
_symmetry_group_IT_number 5
_symmetry_cell_setting 'monoclinic'
loop_
_space_group_symop_operation_xyz
x,y,z
-x,y,-z
1/2+x,1/2+y,z
1/2-x,1/2+y,-z
loop_
_atom_site_type_symbol
_atom_site_label
_atom_site_fract_x
_atom_site_fract_y
_atom_site_fract_z
Si Si1 0.010943 0.850750 0.812230
Si Si2 0.811457 0.285586 0.838809
Si Si3 0.169687 0.327067 0.860509
Si Si4 0.993251 0.572025 0.325795
Si Si5 0.828651 0.667917 0.142655
Si Si6 0.371888 0.606367 0.303772
Si Si7 0.711981 0.962403 0.928501
Si Si8 0.474188 0.483039 0.292100
O O1 0.158929 0.817934 0.493360
O O2 0.062789 0.922526 0.759569
O O3 0.000000 0.820060 0.000000
O O4 0.822937 0.841933 0.998635
O O5 0.734554 0.225490 0.866719
O O6 0.000000 0.304175 0.500000
O O7 0.824297 0.276529 0.008554
O O8 0.156870 0.393281 0.963981
O O9 0.000000 0.314814 0.000000
O O10 0.000000 0.585785 0.500000
O O11 0.803833 0.585960 0.530023
O O12 0.135850 0.614080 0.032705
O O13 0.037602 0.500844 0.222379
O O14 0.669191 0.647649 0.485610
O O15 0.000000 0.684466 0.000000
O O16 0.489338 0.545839 0.174505
O O17 0.500000 0.643767 0.000000
O O18 0.808488 0.993494 0.643126
O O19 0.844358 0.966741 0.883299
#
# Coordination Sequence:
#
# PCOD8049371 Si02
#       8
#     4   4   4   4   4   4   4   4
#     4  11  23  43  68 102 142 184 242 291 359 427
#     4  12  26  47  71 102 140 190 249 304 356 425
#     4  11  25  44  71 102 142 189 241 300 365 429
#     4  11  24  41  67 106 144 190 236 291 359 429
#     4  10  25  49  75 101 140 190 244 306 360 424
#     4  11  23  43  70 106 146 182 240 290 361 432
#     4  10  21  38  64 100 145 184 228 283 357 428
#     4  10  20  38  66 100 142 188 222 289 350 426
#
# _framework density 22.736143999999999
#
# number of rings (size 3 to 8) (size 9 to 14) (size 15 to 20)
#    0.000    1.250    2.500    2.625    3.500    3.500 
#    2.250    5.625    0.000    0.000    0.000    0.000 
#    0.000    0.000    0.000    0.000    0.000    0.000 
#
# Total GULP energy -198401.830693 kJ/mol
# GULP energy per Si atom -12400.114418 kJ/mol
# Density = 2.268440 g / cm^3
# Si number density = 22.736144 Si / 1000 Ang^3
#
#
#
# Elastic Constant Matrix: (Units=GPa)
#
#
# Indices 1 2 3 4 5 6 
#
# 1 147.2245 42.8676 60.4917 -0.0008 22.7090 0.0004
# 2 42.8676 86.0884 42.8246 0.0001 10.2337 0.0000
# 3 60.4917 42.8246 168.9028 -0.0016 21.4383 0.0020
# 4 -0.0008 0.0001 -0.0016 14.2996 0.0008 1.6475
# 5 22.7090 10.2337 21.4383 0.0008 39.2134 -0.0007
# 6 0.0004 0.0000 0.0020 1.6475 -0.0007 38.4270
#
#
#
# Elastic Compliance Matrix: (Units=1/GPa)
#
#
# Indices 1 2 3 4 5 6 
#
# 1 0.009040 -0.003097 -0.002032 0.000001 -0.003316 0.000000
# 2 -0.003097 0.014466 -0.002479 -0.000001 -0.000626 0.000000
# 3 -0.002032 -0.002479 0.007571 0.000001 -0.002315 0.000000
# 4 0.000001 -0.000001 0.000001 0.070279 -0.000002 -0.003013
# 5 -0.003316 -0.000626 -0.002315 -0.000002 0.028851 0.000001
# 6 0.000000 0.000000 0.000000 -0.003013 0.000001 0.026153
#
#
# Mechanical properties :
#
#
# Convention : Reuss Voigt Hill
#
# Bulk Modulus (GPa) = 63.04501 77.17593 70.11047
# Shear Modulus (GPa) = 28.27064 35.45679 31.86372
#
# Velocity S-wave (km/s) = 3.53005 3.95332 3.74766
# Velocity P-wave (km/s) = 6.66364 7.40650 7.04487
#
# Compressibility (1/GPa) = 0.01586168
#
# Stress axis : x y z
#
# Youngs Moduli (GPa) = 110.61511 69.12908 132.08915
#
# Poissons Ratio (x) = 0.21408 0.26836
# Poissons Ratio (y) = 0.34255 0.32746
# Poissons Ratio (z) = 0.22473 0.17138
#
# Static dielectric constant tensor:
#      x y z
#    x 4.206390 0.000000 0.229200 
#    y 0.000000 3.948280 0.000000 
#    z 0.229200 0.000000 4.272550 
# 
# 
# High freq. dielectric constant tensor:
#      x y z
#    x 1.907590 0.000000 0.009720 
#    y 0.000000 1.881190 0.000000 
#    z 0.009720 0.000000 1.907100 
# 
# From -- ./inp_files/25625.got.cif
#   From: 2010.03.12/outbox.cif.g09.slc.cpg/sg5_13_cif.got.tgz:25625.got - 2010.03.31 09:47:26.
