data_PCOD8049674
_publ_section_title
;
Structure prediction by ZEFSAII (Michael W. Deem and Ramdas Pophale) SiO2 
 PCOD8049674
Probable space group: C 2
;
_chemical_formula_sum "Si O2"
_cell_formula_units_Z 28
_cell_length_a 11.836894
_cell_length_b 7.579402
_cell_length_c 28.531031
_cell_angle_alpha 90.000000
_cell_angle_beta 148.107608
_cell_angle_gamma 90.000000
_cell_volume 1352.358456
_symmetry_space_group_name_H-M "C 2"
_symmetry_group_IT_number 5
_symmetry_cell_setting 'monoclinic'
loop_
_space_group_symop_operation_xyz
x,y,z
-x,y,-z
1/2+x,1/2+y,z
1/2-x,1/2+y,-z
loop_
_atom_site_type_symbol
_atom_site_label
_atom_site_fract_x
_atom_site_fract_y
_atom_site_fract_z
Si Si1 0.192748 0.160810 0.150273
Si Si2 0.036484 0.615037 0.345721
Si Si3 0.500000 0.439856 0.000000
Si Si4 0.000000 0.230074 0.500000
Si Si5 0.336427 0.482895 0.291174
Si Si6 0.921776 0.272654 0.136409
Si Si7 0.621962 0.831802 0.639015
Si Si8 0.423265 0.498660 0.218554
O O1 0.408145 0.090504 0.251653
O O2 0.131168 0.047109 0.084421
O O3 0.228216 0.359974 0.143943
O O4 0.004892 0.152687 0.122919
O O5 0.287409 0.611006 0.422622
O O6 0.963568 0.798929 0.344800
O O7 0.996603 0.452681 0.365607
O O8 0.682237 0.329064 0.037703
O O9 0.003794 0.350065 0.454556
O O10 0.384882 0.626714 0.347731
O O11 0.415693 0.565697 0.269617
O O12 0.082714 0.437505 0.200889
O O13 0.899751 0.163705 0.176555
O O14 0.862391 0.893583 0.717241
#
# Coordination Sequence:
#
# PCOD8049674 Si02
#       8
#     4   4   2   2   4   4   4   4
#     4  10  23  45  62  96 137 177 224 283 334 402
#     4  10  24  47  65 100 139 174 231 276 335 403
#     4  12  26  38  66 100 134 180 234 274 334 406
#     4  12  26  42  68 108 136 172 238 274 324 422
#     4  10  23  42  69  99 126 181 227 269 341 401
#     4  10  23  41  65  97 133 168 237 275 326 414
#     4  12  23  43  70  93 138 178 216 287 337 391
#     4  10  20  42  69  90 130 179 218 277 344 393
#
# _framework density 20.704571999999999
#
# number of rings (size 3 to 8) (size 9 to 14) (size 15 to 20)
#    0.000    1.714    5.714    0.857    4.000    4.000 
#    0.000    1.429    0.000    0.000    0.000    0.000 
#    0.000    0.000    0.000    0.000    0.000    0.000 
#
# Total GULP energy -173554.141544 kJ/mol
# GULP energy per Si atom -12396.724396 kJ/mol
# Density = 2.065745 g / cm^3
# Si number density = 20.704572 Si / 1000 Ang^3
#
#
#
# Elastic Constant Matrix: (Units=GPa)
#
#
# Indices 1 2 3 4 5 6 
#
# 1 94.6903 38.0269 49.6752 0.0000 5.2470 0.0000
# 2 38.0269 75.8287 44.0338 0.0000 -11.4480 0.0000
# 3 49.6752 44.0338 123.3681 0.0001 10.7649 -0.0001
# 4 0.0000 0.0000 0.0001 16.1132 0.0000 -2.9181
# 5 5.2470 -11.4480 10.7649 0.0000 43.4514 0.0000
# 6 0.0000 0.0000 -0.0001 -2.9181 0.0000 34.2918
#
#
#
# Elastic Compliance Matrix: (Units=1/GPa)
#
#
# Indices 1 2 3 4 5 6 
#
# 1 0.014952 -0.005647 -0.003800 0.000000 -0.002352 0.000000
# 2 -0.005647 0.020443 -0.005675 0.000000 0.007474 0.000000
# 3 -0.003800 -0.005675 0.012012 0.000000 -0.004012 0.000000
# 4 0.000000 0.000000 0.000000 0.063032 0.000000 0.005364
# 5 -0.002352 0.007474 -0.004012 0.000000 0.026261 0.000000
# 6 0.000000 0.000000 0.000000 0.005364 0.000000 0.029618
#
#
# Mechanical properties :
#
#
# Convention : Reuss Voigt Hill
#
# Bulk Modulus (GPa) = 58.26380 61.92877 60.09628
# Shear Modulus (GPa) = 24.71769 29.58136 27.14953
#
# Velocity S-wave (km/s) = 3.45893 3.78396 3.62509
# Velocity P-wave (km/s) = 6.64484 7.00477 6.82718
#
# Compressibility (1/GPa) = 0.01716332
#
# Stress axis : x y z
#
# Youngs Moduli (GPa) = 66.87970 48.91548 83.25221
#
# Poissons Ratio (x) = 0.27621 0.31635
# Poissons Ratio (y) = 0.37765 0.47249
# Poissons Ratio (z) = 0.25414 0.27761
#
# Static dielectric constant tensor:
#      x y z
#    x 4.168590 0.000000 0.079990 
#    y 0.000000 3.629820 0.000000 
#    z 0.079990 0.000000 3.735840 
# 
# 
# High freq. dielectric constant tensor:
#      x y z
#    x 1.832330 0.000000 0.009840 
#    y 0.000000 1.791040 0.000000 
#    z 0.009840 0.000000 1.799570 
# 
# From -- ./inp_files/70382.got.cif
#   From: 2010.03.12/outbox.cif.g09.slc.cpg/sg5_36_cif.got.tgz:70382.got - 2010.03.31 09:47:26.
