data_PCOD8049011
_publ_section_title
;
Structure prediction by ZEFSAII (Michael W. Deem and Ramdas Pophale) SiO2 
 PCOD8049011
Probable space group: C 2
;
_chemical_formula_sum "Si O2"
_cell_formula_units_Z 26
_cell_length_a 14.195989
_cell_length_b 19.736280
_cell_length_c 9.001741
_cell_angle_alpha 90.000000
_cell_angle_beta 32.672913
_cell_angle_gamma 90.000000
_cell_volume 1361.521428
_symmetry_space_group_name_H-M "C 2"
_symmetry_group_IT_number 5
_symmetry_cell_setting 'monoclinic'
loop_
_space_group_symop_operation_xyz
x,y,z
-x,y,-z
1/2+x,1/2+y,z
1/2-x,1/2+y,-z
loop_
_atom_site_type_symbol
_atom_site_label
_atom_site_fract_x
_atom_site_fract_y
_atom_site_fract_z
Si Si1 0.500000 0.869051 0.500000
Si Si2 0.902786 0.285322 0.908948
Si Si3 0.256525 0.312249 0.581540
Si Si4 0.331944 0.162171 0.801098
Si Si5 0.798915 0.084169 0.284929
Si Si6 0.945477 0.683564 0.240463
Si Si7 0.298477 0.430225 0.307364
O O1 0.401700 0.824888 0.754999
O O2 0.658138 0.911078 0.365575
O O3 0.095692 0.275416 0.714795
O O4 0.779794 0.322730 0.194696
O O5 0.834568 0.210024 0.974576
O O6 0.417400 0.261271 0.334703
O O7 0.274230 0.386872 0.488919
O O8 0.500000 0.198310 0.500000
O O9 0.288659 0.094940 0.762193
O O10 0.391284 0.147867 0.890995
O O11 0.723891 0.137348 0.504447
O O12 0.763539 0.008638 0.390362
O O13 0.000000 0.100057 0.000000
O O14 0.000000 0.685418 0.000000
O O15 0.500000 0.418404 0.000000
#
# Coordination Sequence:
#
# PCOD8049011 Si02
#       7
#     2   4   4   4   4   4   4
#     4  10  24  36  60  90 120 164 204 266 302 374
#     4  10  20  36  56  89 118 158 203 253 312 362
#     4  10  20  38  59  85 125 159 200 257 314 371
#     4  10  20  34  60  88 114 160 200 251 314 362
#     4  10  21  43  62  84 122 170 207 248 315 379
#     4  11  23  36  60  93 124 155 208 265 306 367
#     4  10  23  40  63  88 124 165 206 254 311 375
#
# _framework density 19.096285000000002
#
# number of rings (size 3 to 8) (size 9 to 14) (size 15 to 20)
#    0.000    1.846    3.077    1.385    9.692    0.000 
#    5.538    0.000    0.000    3.692    0.000    0.000 
#    0.000    0.000    0.000    0.000    0.000    0.000 
#
# Total GULP energy -161079.984866 kJ/mol
# GULP energy per Si atom -12390.768067 kJ/mol
# Density = 1.905282 g / cm^3
# Si number density = 19.096285 Si / 1000 Ang^3
#
#
#
# Elastic Constant Matrix: (Units=GPa)
#
#
# Indices 1 2 3 4 5 6 
#
# 1 90.7940 33.1910 51.3915 -0.0019 17.2090 0.0015
# 2 33.1910 116.7488 52.6192 0.0024 9.3439 -0.0019
# 3 51.3915 52.6192 92.8989 -0.0017 17.4301 0.0061
# 4 -0.0019 0.0024 -0.0017 24.5108 0.0018 -2.4351
# 5 17.2090 9.3439 17.4301 0.0018 43.4497 -0.0044
# 6 0.0015 -0.0019 0.0061 -2.4351 -0.0044 23.7889
#
#
#
# Elastic Compliance Matrix: (Units=1/GPa)
#
#
# Indices 1 2 3 4 5 6 
#
# 1 0.016464 -0.000792 -0.008076 0.000001 -0.003111 0.000000
# 2 -0.000792 0.011541 -0.006155 -0.000001 0.000301 0.000002
# 3 -0.008076 -0.006155 0.019324 0.000001 -0.003230 -0.000005
# 4 0.000001 -0.000001 0.000001 0.041217 -0.000002 0.004219
# 5 -0.003111 0.000301 -0.003230 -0.000002 0.025478 0.000006
# 6 0.000000 0.000002 -0.000005 0.004219 0.000006 0.042468
#
#
# Mechanical properties :
#
#
# Convention : Reuss Voigt Hill
#
# Bulk Modulus (GPa) = 57.85888 63.87169 60.86529
# Shear Modulus (GPa) = 26.00112 29.23255 27.61683
#
# Velocity S-wave (km/s) = 3.69396 3.91679 3.80700
# Velocity P-wave (km/s) = 6.96836 7.34675 7.16006
#
# Compressibility (1/GPa) = 0.01728343
#
# Stress axis : x y z
#
# Youngs Moduli (GPa) = 60.73820 86.65066 51.74869
#
# Poissons Ratio (x) = 0.06862 0.41790
# Poissons Ratio (y) = 0.04810 0.31852
# Poissons Ratio (z) = 0.49050 0.53335
#
# Static dielectric constant tensor:
#      x y z
#    x 3.912880 0.000000 -0.142020 
#    y 0.000000 3.352630 0.000000 
#    z -0.142020 0.000000 3.536420 
# 
# 
# High freq. dielectric constant tensor:
#      x y z
#    x 1.751470 0.000000 -0.010420 
#    y 0.000000 1.722780 0.000000 
#    z -0.010420 0.000000 1.741690 
# 
# From -- ./inp_files/17062.got.cif
#   From: 2010.03.12/outbox.cif.g09.slc.cpg/sg5_9_cif.got.tgz:17062.got - 2010.03.31 09:47:26.
