data_PCOD8049347
_publ_section_title
;
Structure prediction by ZEFSAII (Michael W. Deem and Ramdas Pophale) SiO2 
 PCOD8049347
Probable space group: C 2
;
_chemical_formula_sum "Si O2"
_cell_formula_units_Z 30
_cell_length_a 20.814854
_cell_length_b 8.796954
_cell_length_c 8.014944
_cell_angle_alpha 90.000000
_cell_angle_beta 78.842075
_cell_angle_gamma 90.000000
_cell_volume 1439.853688
_symmetry_space_group_name_H-M "C 2"
_symmetry_group_IT_number 5
_symmetry_cell_setting 'monoclinic'
loop_
_space_group_symop_operation_xyz
x,y,z
-x,y,-z
1/2+x,1/2+y,z
1/2-x,1/2+y,-z
loop_
_atom_site_type_symbol
_atom_site_label
_atom_site_fract_x
_atom_site_fract_y
_atom_site_fract_z
Si Si1 0.616349 0.358130 0.408721
Si Si2 0.244804 0.727234 0.186667
Si Si3 0.311409 0.971111 0.965575
Si Si4 0.500000 0.128385 0.500000
Si Si5 0.280988 0.524261 0.461488
Si Si6 0.307221 0.794655 0.638534
Si Si7 0.960601 0.439937 0.848811
Si Si8 0.938930 0.166685 0.647958
O O1 0.672657 0.268695 0.284718
O O2 0.562495 0.237193 0.493638
O O3 0.650186 0.432708 0.556177
O O4 0.587186 0.494605 0.305783
O O5 0.230510 0.625911 0.028701
O O6 0.286270 0.627488 0.295333
O O7 0.288297 0.877144 0.137923
O O8 0.289761 0.860430 0.825827
O O9 0.388529 0.005442 0.923398
O O10 0.491784 0.026583 0.671978
O O11 0.271350 0.632420 0.628350
O O12 0.218778 0.411786 0.489327
O O13 0.385152 0.770789 0.578936
O O14 0.956911 0.258301 0.808783
O O15 0.000000 0.465733 0.000000
O O16 0.000000 0.149531 0.500000
#
# Coordination Sequence:
#
# PCOD8049347 Si02
#       8
#     4   4   4   2   4   4   4   4
#     4  11  23  43  71  95 137 181 226 282 350 410
#     4  11  23  42  66  96 136 175 219 286 349 407
#     4  10  24  42  62  94 136 174 219 279 352 400
#     4  12  24  50  74  94 148 186 228 292 336 422
#     4  10  20  38  63  98 125 166 226 272 334 406
#     4   9  20  36  61  88 131 161 215 273 332 396
#     4  11  25  47  69 103 133 184 240 281 347 411
#     4  10  21  40  67  94 127 178 223 279 346 397
#
# _framework density 20.835450999999999
#
# number of rings (size 3 to 8) (size 9 to 14) (size 15 to 20)
#    0.000    1.600    4.000    0.000    5.600    2.133 
#    7.200    0.667    0.000    0.000    0.000    0.000 
#    0.000    0.000    0.000    0.000    0.000    0.000 
#
# Total GULP energy -185840.155644 kJ/mol
# GULP energy per Si atom -12389.343710 kJ/mol
# Density = 2.078803 g / cm^3
# Si number density = 20.835451 Si / 1000 Ang^3
#
#
#
# Elastic Constant Matrix: (Units=GPa)
#
#
# Indices 1 2 3 4 5 6 
#
# 1 93.4114 54.1120 48.9162 0.0000 4.6916 0.0000
# 2 54.1120 109.9707 43.1501 0.0000 9.5860 0.0000
# 3 48.9162 43.1501 66.2002 0.0000 10.6795 0.0000
# 4 0.0000 0.0000 0.0000 31.6695 0.0000 -3.6994
# 5 4.6916 9.5860 10.6795 0.0000 32.0383 0.0000
# 6 0.0000 0.0000 0.0000 -3.6994 0.0000 38.1650
#
#
#
# Elastic Compliance Matrix: (Units=1/GPa)
#
#
# Indices 1 2 3 4 5 6 
#
# 1 0.019715 -0.005436 -0.011436 0.000000 0.002551 0.000000
# 2 -0.005436 0.013751 -0.004662 0.000000 -0.001764 0.000000
# 3 -0.011436 -0.004662 0.027582 0.000000 -0.006125 0.000000
# 4 0.000000 0.000000 0.000000 0.031938 0.000000 0.003096
# 5 0.002551 -0.001764 -0.006125 0.000000 0.033409 0.000000
# 6 0.000000 0.000000 0.000000 0.003096 0.000000 0.026502
#
#
# Mechanical properties :
#
#
# Convention : Reuss Voigt Hill
#
# Bulk Modulus (GPa) = 55.61407 62.43767 59.02587
# Shear Modulus (GPa) = 24.75767 28.60149 26.67958
#
# Velocity S-wave (km/s) = 3.45084 3.70906 3.58228
# Velocity P-wave (km/s) = 6.52899 6.95521 6.74547
#
# Compressibility (1/GPa) = 0.01798106
#
# Stress axis : x y z
#
# Youngs Moduli (GPa) = 50.72348 72.72121 36.25502
#
# Poissons Ratio (x) = 0.39532 0.41461
# Poissons Ratio (y) = 0.27574 0.16901
# Poissons Ratio (z) = 0.58006 0.33901
#
# Static dielectric constant tensor:
#      x y z
#    x 3.902990 0.000000 0.229650 
#    y 0.000000 4.293800 0.000000 
#    z 0.229650 0.000000 3.628200 
# 
# 
# High freq. dielectric constant tensor:
#      x y z
#    x 1.819240 0.000000 0.008140 
#    y 0.000000 1.840400 0.000000 
#    z 0.008140 0.000000 1.780970 
# 
# From -- ./inp_files/28927.got.cif
#   From: 2010.03.12/outbox.cif.g09.slc.cpg/sg5_15_cif.got.tgz:28927.got - 2010.03.31 09:47:26.
