data_PCOD8049909
_publ_section_title
;
Structure prediction by ZEFSAII (Michael W. Deem and Ramdas Pophale) SiO2 
 PCOD8049909
Probable space group: C 2
;
_chemical_formula_sum "Si O2"
_cell_formula_units_Z 28
_cell_length_a 12.263102
_cell_length_b 8.624724
_cell_length_c 14.398697
_cell_angle_alpha 90.000000
_cell_angle_beta 117.589983
_cell_angle_gamma 90.000000
_cell_volume 1349.714534
_symmetry_space_group_name_H-M "C 2"
_symmetry_group_IT_number 5
_symmetry_cell_setting 'monoclinic'
loop_
_space_group_symop_operation_xyz
x,y,z
-x,y,-z
1/2+x,1/2+y,z
1/2-x,1/2+y,-z
loop_
_atom_site_type_symbol
_atom_site_label
_atom_site_fract_x
_atom_site_fract_y
_atom_site_fract_z
Si Si1 0.406168 0.303190 0.825378
Si Si2 0.237167 0.508237 0.262974
Si Si3 0.338139 0.248994 0.001257
Si Si4 0.786078 0.281576 0.579747
Si Si5 0.452892 0.723024 0.383763
Si Si6 0.139027 0.396545 0.040604
Si Si7 0.240054 0.445459 0.619348
O O1 0.372890 0.133060 0.771931
O O2 0.340566 0.324197 0.899833
O O3 0.356990 0.433200 0.734717
O O4 0.552800 0.321383 0.893039
O O5 0.248422 0.411887 0.360732
O O6 0.365344 0.599365 0.298457
O O7 0.211995 0.394544 0.166775
O O8 0.362420 0.066652 0.004037
O O9 0.207169 0.280363 0.997106
O O10 0.735922 0.335782 0.460193
O O11 0.933170 0.257834 0.638478
O O12 0.718738 0.121688 0.580102
O O13 0.500000 0.651893 0.500000
O O14 0.381127 0.884355 0.375177
O O15 0.000000 0.336038 0.000000
#
# Coordination Sequence:
#
# PCOD8049909 Si02
#       7
#     4   4   4   4   4   4   4
#     4   9  19  42  63  88 125 167 202 258 312 361
#     4  10  21  40  62  90 125 161 207 249 308 364
#     4  10  21  42  65  86 128 162 206 261 311 358
#     4  11  22  40  63  90 127 162 199 257 301 367
#     4   9  20  39  59  87 125 164 200 247 304 359
#     4  11  23  43  62  92 125 165 208 258 309 371
#     4  10  21  38  63  92 122 160 209 244 306 368
#
# _framework density 20.745127
#
# number of rings (size 3 to 8) (size 9 to 14) (size 15 to 20)
#    0.000    2.000    2.857    2.571    2.000    4.571 
#    5.143    6.429    0.000    0.000    0.000    0.000 
#    0.000    0.000    0.000    0.000    0.000    0.000 
#
# Total GULP energy -173616.722530 kJ/mol
# GULP energy per Si atom -12401.194466 kJ/mol
# Density = 2.069791 g / cm^3
# Si number density = 20.745127 Si / 1000 Ang^3
#
#
#
# Elastic Constant Matrix: (Units=GPa)
#
#
# Indices 1 2 3 4 5 6 
#
# 1 125.7202 28.8656 28.2819 0.0000 7.9517 0.0000
# 2 28.8656 60.4648 25.4543 0.0000 -2.2885 0.0000
# 3 28.2819 25.4543 105.6915 0.0000 14.3862 0.0000
# 4 0.0000 0.0000 0.0000 25.8261 0.0000 -6.9687
# 5 7.9517 -2.2885 14.3862 0.0000 24.2202 0.0000
# 6 0.0000 0.0000 0.0000 -6.9687 0.0000 26.7781
#
#
#
# Elastic Compliance Matrix: (Units=1/GPa)
#
#
# Indices 1 2 3 4 5 6 
#
# 1 0.009321 -0.004077 -0.001135 0.000000 -0.002771 0.000000
# 2 -0.004077 0.020705 -0.004726 0.000000 0.006102 0.000000
# 3 -0.001135 -0.004726 0.011874 0.000000 -0.007126 0.000000
# 4 0.000000 0.000000 0.000000 0.041645 0.000000 0.010838
# 5 -0.002771 0.006102 -0.007126 0.000000 0.047007 0.000000
# 6 0.000000 0.000000 0.000000 0.010838 0.000000 0.040164
#
#
# Mechanical properties :
#
#
# Convention : Reuss Voigt Hill
#
# Bulk Modulus (GPa) = 45.40627 50.78666 48.09646
# Shear Modulus (GPa) = 25.26099 29.31652 27.28876
#
# Velocity S-wave (km/s) = 3.49332 3.76330 3.63082
# Velocity P-wave (km/s) = 6.18112 6.58921 6.38842
#
# Compressibility (1/GPa) = 0.02202339
#
# Stress axis : x y z
#
# Youngs Moduli (GPa) = 107.28669 48.29668 84.22096
#
# Poissons Ratio (x) = 0.19689 0.09560
# Poissons Ratio (y) = 0.43738 0.39805
# Poissons Ratio (z) = 0.12179 0.22826
#
# Static dielectric constant tensor:
#      x y z
#    x 3.751890 0.000000 0.107760 
#    y 0.000000 3.476740 0.000000 
#    z 0.107760 0.000000 4.019370 
# 
# 
# High freq. dielectric constant tensor:
#      x y z
#    x 1.798530 0.000000 0.003950 
#    y 0.000000 1.789520 0.000000 
#    z 0.003950 0.000000 1.826750 
# 
# From -- ./inp_files/52232.got.cif
#   From: 2010.03.12/outbox.cif.g09.slc.cpg/sg5_27_cif.got.tgz:52232.got - 2010.03.31 09:47:26.
