data_PCOD8049690
_publ_section_title
;
Structure prediction by ZEFSAII (Michael W. Deem and Ramdas Pophale) SiO2 
 PCOD8049690
Probable space group: C 2
;
_chemical_formula_sum "Si O2"
_cell_formula_units_Z 22
_cell_length_a 15.529890
_cell_length_b 8.758755
_cell_length_c 18.837545
_cell_angle_alpha 90.000000
_cell_angle_beta 156.797767
_cell_angle_gamma 90.000000
_cell_volume 1009.500958
_symmetry_space_group_name_H-M "C 2"
_symmetry_group_IT_number 5
_symmetry_cell_setting 'monoclinic'
loop_
_space_group_symop_operation_xyz
x,y,z
-x,y,-z
1/2+x,1/2+y,z
1/2-x,1/2+y,-z
loop_
_atom_site_type_symbol
_atom_site_label
_atom_site_fract_x
_atom_site_fract_y
_atom_site_fract_z
Si Si1 0.301945 0.642890 0.218295
Si Si2 0.265770 0.262048 0.567365
Si Si3 0.914085 0.596477 0.547712
Si Si4 0.979845 0.791031 0.876501
Si Si5 0.500000 0.867686 0.000000
Si Si6 0.840659 0.119689 0.784122
O O1 0.562659 0.643965 0.416567
O O2 0.214937 0.734758 0.220257
O O3 0.209567 0.718778 0.075398
O O4 0.218395 0.468912 0.158265
O O5 0.172167 0.432539 0.491666
O O6 0.406552 0.219757 0.605030
O O7 0.422051 0.238307 0.753345
O O8 0.766260 0.660640 0.371914
O O9 0.161309 0.580210 0.708367
O O10 0.997933 0.973763 0.895224
O O11 0.482903 0.763866 0.916658
#
# Coordination Sequence:
#
# PCOD8049690 Si02
#       6
#     4   4   4   4   2   4
#     4  10  21  38  63  95 122 163 209 253 307 375
#     4  11  22  41  61  95 126 163 204 262 309 366
#     4  10  24  39  65  89 126 164 208 251 317 365
#     4   9  19  40  67  86 119 170 207 244 314 369
#     4  10  22  36  64  94 122 160 212 258 300 362
#     4  10  20  43  61  90 122 167 207 252 308 379
#
# _framework density 21.792945
#
# number of rings (size 3 to 8) (size 9 to 14) (size 15 to 20)
#    0.000    2.182    1.818    1.636    2.545    2.909 
#    9.818    0.000    0.000    0.000    0.000    0.000 
#    0.000    0.000    0.000    0.000    0.000    0.000 
#
# Total GULP energy -136418.619807 kJ/mol
# GULP energy per Si atom -12401.692710 kJ/mol
# Density = 2.174334 g / cm^3
# Si number density = 21.792945 Si / 1000 Ang^3
#
#
#
# Elastic Constant Matrix: (Units=GPa)
#
#
# Indices 1 2 3 4 5 6 
#
# 1 100.6812 38.2814 34.2539 -0.0026 -33.5746 -0.0003
# 2 38.2814 117.9381 46.5487 0.0008 -23.0903 -0.0008
# 3 34.2539 46.5487 71.3472 -0.0111 -32.5074 -0.0052
# 4 -0.0026 0.0008 -0.0111 36.5247 -0.0096 -6.0688
# 5 -33.5746 -23.0903 -32.5074 -0.0096 32.0788 -0.0033
# 6 -0.0003 -0.0008 -0.0052 -6.0688 -0.0033 31.4052
#
#
#
# Elastic Compliance Matrix: (Units=1/GPa)
#
#
# Indices 1 2 3 4 5 6 
#
# 1 0.015797 -0.002527 0.001428 0.000006 0.016162 0.000003
# 2 -0.002527 0.011851 -0.007128 -0.000003 -0.001338 -0.000002
# 3 0.001428 -0.007128 0.030326 0.000018 0.027095 0.000011
# 4 0.000006 -0.000003 0.000018 0.028287 0.000032 0.005466
# 5 0.016162 -0.001338 0.027095 0.000032 0.074583 0.000019
# 6 0.000003 -0.000002 0.000011 0.005466 0.000019 0.032898
#
#
# Mechanical properties :
#
#
# Convention : Reuss Voigt Hill
#
# Bulk Modulus (GPa) = 24.08481 58.68159 41.38320
# Shear Modulus (GPa) = 22.31793 31.39392 26.85592
#
# Velocity S-wave (km/s) = 3.20361 3.79958 3.51425
# Velocity P-wave (km/s) = 4.97592 6.79959 5.95795
#
# Compressibility (1/GPa) = 0.04151994
#
# Stress axis : x y z
#
# Youngs Moduli (GPa) = 63.30401 84.38349 32.97497
#
# Poissons Ratio (x) = 0.21323 -0.04710
# Poissons Ratio (y) = 0.15997 0.23505
# Poissons Ratio (z) = -0.09042 0.60149
#
# Static dielectric constant tensor:
#      x y z
#    x 3.697160 0.000000 -0.237190 
#    y 0.000000 3.907970 0.000000 
#    z -0.237190 0.000000 3.931600 
# 
# 
# High freq. dielectric constant tensor:
#      x y z
#    x 1.836440 0.000000 -0.018510 
#    y 0.000000 1.858960 0.000000 
#    z -0.018510 0.000000 1.856960 
# 
# From -- ./inp_files/22729.got.cif
#   From: 2010.03.12/outbox.cif.g09.slc.cpg/sg5_12_cif.got.tgz:22729.got - 2010.03.31 09:47:26.
