data_PCOD8049446
_publ_section_title
;
Structure prediction by ZEFSAII (Michael W. Deem and Ramdas Pophale) SiO2 
 PCOD8049446
Probable space group: C 2
;
_chemical_formula_sum "Si O2"
_cell_formula_units_Z 32
_cell_length_a 11.934751
_cell_length_b 14.931265
_cell_length_c 18.292244
_cell_angle_alpha 90.000000
_cell_angle_beta 30.212614
_cell_angle_gamma 90.000000
_cell_volume 1640.311749
_symmetry_space_group_name_H-M "C 2"
_symmetry_group_IT_number 5
_symmetry_cell_setting 'monoclinic'
loop_
_space_group_symop_operation_xyz
x,y,z
-x,y,-z
1/2+x,1/2+y,z
1/2-x,1/2+y,-z
loop_
_atom_site_type_symbol
_atom_site_label
_atom_site_fract_x
_atom_site_fract_y
_atom_site_fract_z
Si Si1 0.501829 0.426840 0.663598
Si Si2 0.378524 0.841394 0.199321
Si Si3 0.164739 0.857459 0.839912
Si Si4 0.856716 0.301554 0.380318
Si Si5 0.878828 0.820655 0.871069
Si Si6 0.319721 0.041942 0.689341
Si Si7 0.297085 0.594252 0.392492
Si Si8 0.238293 0.185516 0.839977
O O1 0.273091 0.422478 0.746115
O O2 0.697370 0.366572 0.516537
O O3 0.477754 0.394527 0.760787
O O4 0.543933 0.533990 0.645729
O O5 0.344101 0.834738 0.304712
O O6 0.274305 0.755595 0.219002
O O7 0.634925 0.855150 0.033245
O O8 0.388177 0.806311 0.737039
O O9 0.031867 0.799775 0.854623
O O10 0.219859 0.947958 0.767323
O O11 0.000000 0.875240 0.000000
O O12 0.783852 0.196944 0.427750
O O13 0.870631 0.726063 0.833735
O O14 0.570548 0.036843 0.520322
O O15 0.153101 0.090125 0.723664
O O16 0.354699 0.097883 0.744173
O O17 0.000000 0.153669 0.000000
#
# Coordination Sequence:
#
# PCOD8049446 Si02
#       8
#     4   4   4   4   4   4   4   4
#     4  11  22  40  65  94 126 165 219 272 321 382
#     4  10  20  39  66  91 124 168 214 264 318 380
#     4  12  24  41  64  94 137 173 209 269 335 388
#     4  12  24  41  67  95 129 171 215 272 327 387
#     4  10  21  39  64  93 125 169 213 262 326 388
#     4  11  21  39  61  94 126 163 217 268 309 390
#     4  11  23  38  63  93 126 169 218 263 329 379
#     4   9  18  35  63  90 115 156 214 261 307 371
#
# _framework density 19.508486000000001
#
# number of rings (size 3 to 8) (size 9 to 14) (size 15 to 20)
#    0.000    1.250    5.000    3.375    1.750    0.500 
#    0.000    2.500    5.500    0.000    0.000    0.000 
#    0.000    0.000    0.000    0.000    0.000    0.000 
#
# Total GULP energy -198263.188800 kJ/mol
# GULP energy per Si atom -12391.449300 kJ/mol
# Density = 1.946408 g / cm^3
# Si number density = 19.508486 Si / 1000 Ang^3
#
#
#
# Elastic Constant Matrix: (Units=GPa)
#
#
# Indices 1 2 3 4 5 6 
#
# 1 138.5338 36.0914 35.8831 0.0005 -6.2757 -0.0002
# 2 36.0914 82.7539 25.7512 -0.0086 7.7359 -0.0258
# 3 35.8831 25.7512 75.1128 0.0365 1.6431 0.0219
# 4 0.0005 -0.0086 0.0365 18.8612 -0.0143 1.5164
# 5 -6.2757 7.7359 1.6431 -0.0143 31.9555 0.0109
# 6 -0.0002 -0.0258 0.0219 1.5164 0.0109 41.7256
#
#
#
# Elastic Compliance Matrix: (Units=1/GPa)
#
#
# Indices 1 2 3 4 5 6 
#
# 1 0.009015 -0.003164 -0.003281 0.000007 0.002705 -0.000001
# 2 -0.003164 0.014939 -0.003521 0.000010 -0.004057 0.000012
# 3 -0.003281 -0.003521 0.016102 -0.000032 -0.000620 -0.000009
# 4 0.000007 0.000010 -0.000032 0.053174 0.000025 -0.001932
# 5 0.002705 -0.004057 -0.000620 0.000025 0.032839 -0.000012
# 6 -0.000001 0.000012 -0.000009 -0.001932 -0.000012 0.024036
#
#
# Mechanical properties :
#
#
# Convention : Reuss Voigt Hill
#
# Bulk Modulus (GPa) = 49.69461 54.65020 52.17241
# Shear Modulus (GPa) = 28.28931 31.75347 30.02139
#
# Velocity S-wave (km/s) = 3.81215 4.03882 3.92712
# Velocity P-wave (km/s) = 6.70114 7.05860 6.88219
#
# Compressibility (1/GPa) = 0.02012291
#
# Stress axis : x y z
#
# Youngs Moduli (GPa) = 110.92491 66.93988 62.10511
#
# Poissons Ratio (x) = 0.21177 0.20379
# Poissons Ratio (y) = 0.35092 0.21870
# Poissons Ratio (z) = 0.36398 0.23573
#
# Static dielectric constant tensor:
#      x y z
#    x 3.534740 0.000030 0.257460 
#    y 0.000030 3.372280 0.000060 
#    z 0.257460 0.000060 3.653820 
# 
# 
# High freq. dielectric constant tensor:
#      x y z
#    x 1.766030 0.000000 0.011710 
#    y 0.000000 1.736210 0.000000 
#    z 0.011710 0.000000 1.771330 
# 
# From -- ./inp_files/45013.got.cif
#   From: 2010.03.12/outbox.cif.g09.slc.cpg/sg5_23_cif.got.tgz:45013.got - 2010.03.31 09:47:26.
