data_PCOD8049926
_publ_section_title
;
Structure prediction by ZEFSAII (Michael W. Deem and Ramdas Pophale) SiO2 
 PCOD8049926
Probable space group: C 2
;
_chemical_formula_sum "Si O2"
_cell_formula_units_Z 26
_cell_length_a 8.090969
_cell_length_b 17.860149
_cell_length_c 15.308044
_cell_angle_alpha 90.000000
_cell_angle_beta 35.910650
_cell_angle_gamma 90.000000
_cell_volume 1297.449017
_symmetry_space_group_name_H-M "C 2"
_symmetry_group_IT_number 5
_symmetry_cell_setting 'monoclinic'
loop_
_space_group_symop_operation_xyz
x,y,z
-x,y,-z
1/2+x,1/2+y,z
1/2-x,1/2+y,-z
loop_
_atom_site_type_symbol
_atom_site_label
_atom_site_fract_x
_atom_site_fract_y
_atom_site_fract_z
Si Si1 0.500000 0.142790 0.000000
Si Si2 0.000000 0.520930 0.500000
Si Si3 0.889469 0.531679 0.898527
Si Si4 0.036851 0.228968 0.816281
Si Si5 0.737478 0.378467 0.557353
Si Si6 0.000000 0.796316 0.500000
Si Si7 0.887675 0.381785 0.138669
Si Si8 0.212485 0.077431 0.795292
O O1 0.541194 0.090894 0.897054
O O2 0.767246 0.197150 0.881797
O O3 0.784656 0.468239 0.537142
O O4 0.837280 0.568472 0.643734
O O5 0.923408 0.559020 0.783844
O O6 0.042397 0.450957 0.827907
O O7 0.565373 0.525704 0.071558
O O8 0.295053 0.243128 0.640867
O O9 0.953152 0.306022 0.900403
O O10 0.132967 0.164622 0.842670
O O11 0.705240 0.347540 0.472635
O O12 0.441314 0.362268 0.730940
O O13 0.000000 0.340868 0.500000
O O14 0.000000 0.411304 0.000000
#
# Coordination Sequence:
#
# PCOD8049926 Si02
#       8
#     2   2   4   4   4   2   4   4
#     4  10  22  40  62  98 128 162 216 268 320 382
#     4  10  21  38  66  90 127 166 220 260 325 376
#     4  10  22  40  66  92 131 164 219 269 317 385
#     4  10  24  39  64  91 131 166 204 271 323 385
#     4   9  23  38  62  95 127 166 208 279 311 381
#     4  10  21  46  62  86 139 168 218 254 339 376
#     4  11  22  38  65  95 124 167 214 262 322 382
#     4  10  22  41  64  95 129 172 212 269 326 386
#
# _framework density 20.039323
#
# number of rings (size 3 to 8) (size 9 to 14) (size 15 to 20)
#    0.462    1.538    0.769    1.385   10.769    2.462 
#    2.769    0.000    0.000    0.000    0.000    0.000 
#    0.000    0.000    0.000    0.000    0.000    0.000 
#
# Total GULP energy -161070.524312 kJ/mol
# GULP energy per Si atom -12390.040332 kJ/mol
# Density = 1.999371 g / cm^3
# Si number density = 20.039323 Si / 1000 Ang^3
#
#
#
# Elastic Constant Matrix: (Units=GPa)
#
#
# Indices 1 2 3 4 5 6 
#
# 1 141.7639 61.9815 36.8494 0.0018 -9.3435 0.0031
# 2 61.9815 126.5666 26.5930 0.0011 -16.0132 0.0018
# 3 36.8494 26.5930 76.0103 -0.0105 5.2743 0.0101
# 4 0.0018 0.0011 -0.0105 30.3882 0.0089 -3.3254
# 5 -9.3435 -16.0132 5.2743 0.0089 27.9803 -0.0019
# 6 0.0031 0.0018 0.0101 -3.3254 -0.0019 27.4812
#
#
#
# Elastic Compliance Matrix: (Units=1/GPa)
#
#
# Indices 1 2 3 4 5 6 
#
# 1 0.009750 -0.003818 -0.003511 -0.000002 0.001733 0.000000
# 2 -0.003818 0.010954 -0.002359 -0.000003 0.005439 0.000001
# 3 -0.003511 -0.002359 0.016069 0.000007 -0.005552 -0.000005
# 4 -0.000002 -0.000003 0.000007 0.033349 -0.000014 0.004035
# 5 0.001733 0.005439 -0.005552 -0.000014 0.040477 0.000003
# 6 0.000000 0.000001 -0.000005 0.004035 0.000003 0.036877
#
#
# Mechanical properties :
#
#
# Convention : Reuss Voigt Hill
#
# Bulk Modulus (GPa) = 57.48095 66.13206 61.80650
# Shear Modulus (GPa) = 28.95994 31.76440 30.36217
#
# Velocity S-wave (km/s) = 3.80564 3.98566 3.89669
# Velocity P-wave (km/s) = 6.93231 7.36569 7.15228
#
# Compressibility (1/GPa) = 0.01739707
#
# Stress axis : x y z
#
# Youngs Moduli (GPa) = 102.56303 91.28750 62.23167
#
# Poissons Ratio (x) = 0.34851 0.21852
# Poissons Ratio (y) = 0.39156 0.14681
# Poissons Ratio (z) = 0.36014 0.21536
#
# Static dielectric constant tensor:
#      x y z
#    x 3.721440 0.000000 -0.044470 
#    y 0.000000 3.622140 0.000030 
#    z -0.044470 0.000030 3.504180 
# 
# 
# High freq. dielectric constant tensor:
#      x y z
#    x 1.780770 0.000000 0.000300 
#    y 0.000000 1.783810 0.000000 
#    z 0.000300 0.000000 1.772640 
# 
# From -- ./inp_files/59859.got.cif
#   From: 2010.03.12/outbox.cif.g09.slc.cpg/sg5_30_cif.got.tgz:59859.got - 2010.03.31 09:47:26.
