data_PCOD8049134
_publ_section_title
;
Structure prediction by ZEFSAII (Michael W. Deem and Ramdas Pophale) SiO2 
 PCOD8049134
Probable space group: C 2
;
_chemical_formula_sum "Si O2"
_cell_formula_units_Z 28
_cell_length_a 13.243515
_cell_length_b 7.799220
_cell_length_c 14.766093
_cell_angle_alpha 90.000000
_cell_angle_beta 107.347797
_cell_angle_gamma 90.000000
_cell_volume 1455.799646
_symmetry_space_group_name_H-M "C 2"
_symmetry_group_IT_number 5
_symmetry_cell_setting 'monoclinic'
loop_
_space_group_symop_operation_xyz
x,y,z
-x,y,-z
1/2+x,1/2+y,z
1/2-x,1/2+y,-z
loop_
_atom_site_type_symbol
_atom_site_label
_atom_site_fract_x
_atom_site_fract_y
_atom_site_fract_z
Si Si1 0.309004 0.032580 0.608136
Si Si2 0.401525 0.543967 0.776551
Si Si3 0.037094 0.363707 0.111267
Si Si4 0.400040 0.721101 0.218172
Si Si5 0.228266 0.658895 0.597308
Si Si6 0.171888 0.684441 0.198175
Si Si7 0.463629 0.943654 0.394590
O O1 0.260649 0.118544 0.506120
O O2 0.295886 0.158794 0.688728
O O3 0.434160 0.001815 0.633717
O O4 0.245459 0.860219 0.615278
O O5 0.384418 0.706254 0.839951
O O6 0.521505 0.555738 0.767931
O O7 0.318708 0.552835 0.672472
O O8 0.385055 0.368557 0.827201
O O9 0.093940 0.544277 0.136981
O O10 0.935854 0.360291 0.151917
O O11 0.000000 0.335472 0.000000
O O12 0.278697 0.672800 0.166971
O O13 0.404507 0.800942 0.320118
O O14 0.113648 0.604870 0.605738
O O15 0.500000 0.861040 0.500000
#
# Coordination Sequence:
#
# PCOD8049134 Si02
#       7
#     4   4   4   4   4   4   4
#     4  11  22  38  62  91 132 175 215 258 322 377
#     4  10  22  41  64  94 129 161 213 264 313 381
#     4  10  24  50  65  92 135 162 213 278 316 378
#     4  10  22  42  62  98 126 165 216 260 320 382
#     4  11  20  37  62  92 132 176 208 265 315 372
#     4  12  22  42  69  95 127 170 210 266 328 378
#     4  10  20  36  62  90 133 171 209 264 310 371
#
# _framework density 19.233415999999998
#
# number of rings (size 3 to 8) (size 9 to 14) (size 15 to 20)
#    0.857    0.571    5.714    0.857    2.000    1.714 
#    5.143    1.429    0.000    0.000    0.000    0.000 
#    0.000    0.000    0.000    0.000    0.000    0.000 
#
# Total GULP energy -173555.507262 kJ/mol
# GULP energy per Si atom -12396.821947 kJ/mol
# Density = 1.918964 g / cm^3
# Si number density = 19.233416 Si / 1000 Ang^3
#
#
#
# Elastic Constant Matrix: (Units=GPa)
#
#
# Indices 1 2 3 4 5 6 
#
# 1 97.0541 16.6205 18.9818 0.0000 1.0727 0.0000
# 2 16.6205 88.2894 17.9893 0.0000 5.5114 0.0000
# 3 18.9818 17.9893 92.2365 0.0000 -0.9943 0.0000
# 4 0.0000 0.0000 0.0000 22.2373 0.0000 5.3310
# 5 1.0727 5.5114 -0.9943 0.0000 15.7488 0.0000
# 6 0.0000 0.0000 0.0000 5.3310 0.0000 34.4396
#
#
#
# Elastic Compliance Matrix: (Units=1/GPa)
#
#
# Indices 1 2 3 4 5 6 
#
# 1 0.010969 -0.001652 -0.001938 0.000000 -0.000291 0.000000
# 2 -0.001652 0.012339 -0.002113 0.000000 -0.004339 0.000000
# 3 -0.001938 -0.002113 0.011670 0.000000 0.001608 0.000000
# 4 0.000000 0.000000 0.000000 0.046703 0.000000 -0.007229
# 5 -0.000291 -0.004339 0.001608 0.000000 0.065137 0.000000
# 6 0.000000 0.000000 0.000000 -0.007229 0.000000 0.030155
#
#
# Mechanical properties :
#
#
# Convention : Reuss Voigt Hill
#
# Bulk Modulus (GPa) = 42.42530 42.75146 42.58838
# Shear Modulus (GPa) = 25.47955 29.41770 27.44863
#
# Velocity S-wave (km/s) = 3.64367 3.91514 3.78184
# Velocity P-wave (km/s) = 6.30934 6.53557 6.42345
#
# Compressibility (1/GPa) = 0.02357084
#
# Stress axis : x y z
#
# Youngs Moduli (GPa) = 91.16845 81.04520 85.68906
#
# Poissons Ratio (x) = 0.13387 0.16609
# Poissons Ratio (y) = 0.15059 0.18109
# Poissons Ratio (z) = 0.17671 0.17128
#
# Static dielectric constant tensor:
#      x y z
#    x 3.537550 0.000000 0.008080 
#    y 0.000000 3.356670 0.000000 
#    z 0.008080 0.000000 3.394410 
# 
# 
# High freq. dielectric constant tensor:
#      x y z
#    x 1.748410 0.000000 0.002730 
#    y 0.000000 1.737100 0.000000 
#    z 0.002730 0.000000 1.738320 
# 
# From -- ./inp_files/52307.got.cif
#   From: 2010.03.12/outbox.cif.g09.slc.cpg/sg5_27_cif.got.tgz:52307.got - 2010.03.31 09:47:26.
