data_PCOD8049873
_publ_section_title
;
Structure prediction by ZEFSAII (Michael W. Deem and Ramdas Pophale) SiO2 
 PCOD8049873
Probable space group: C 2
;
_chemical_formula_sum "Si O2"
_cell_formula_units_Z 30
_cell_length_a 18.236109
_cell_length_b 5.375691
_cell_length_c 14.518909
_cell_angle_alpha 90.000000
_cell_angle_beta 107.515138
_cell_angle_gamma 90.000000
_cell_volume 1357.324743
_symmetry_space_group_name_H-M "C 2"
_symmetry_group_IT_number 5
_symmetry_cell_setting 'monoclinic'
loop_
_space_group_symop_operation_xyz
x,y,z
-x,y,-z
1/2+x,1/2+y,z
1/2-x,1/2+y,-z
loop_
_atom_site_type_symbol
_atom_site_label
_atom_site_fract_x
_atom_site_fract_y
_atom_site_fract_z
Si Si1 0.650978 0.199620 0.478691
Si Si2 0.355233 0.375354 0.206584
Si Si3 0.205728 0.642899 0.195928
Si Si4 0.794852 0.852704 0.999017
Si Si5 0.275431 0.503623 0.645358
Si Si6 0.105063 0.389859 0.292362
Si Si7 0.937930 0.373515 0.297194
Si Si8 0.000000 0.590068 0.500000
O O1 0.693883 0.417276 0.442620
O O2 0.698052 0.151416 0.590735
O O3 0.564110 0.269456 0.477902
O O4 0.641873 0.970119 0.404410
O O5 0.263685 0.413411 0.194631
O O6 0.364744 0.387926 0.098515
O O7 0.383573 0.105472 0.249608
O O8 0.399977 0.604389 0.269659
O O9 0.125981 0.573373 0.216217
O O10 0.252242 0.806502 0.289025
O O11 0.179731 0.793059 0.095419
O O12 0.749451 0.613529 0.021025
O O13 0.348581 0.642422 0.717051
O O14 0.013679 0.368826 0.261263
O O15 0.960927 0.404641 0.411946
#
# Coordination Sequence:
#
# PCOD8049873 Si02
#       8
#     4   4   4   4   4   4   4   2
#     4  10  21  38  58  91 124 179 216 281 320 397
#     4  11  24  44  71  98 131 176 226 277 339 402
#     4  10  24  39  71  97 125 173 228 283 335 403
#     4  10  22  42  71 103 135 164 219 289 343 390
#     4  11  21  38  65  91 132 173 230 268 342 400
#     4  10  24  41  61  90 137 177 217 276 336 400
#     4  11  26  45  65  97 141 181 218 277 338 397
#     4  10  24  40  62  96 136 174 232 272 332 388
#
# _framework density 22.102304
#
# number of rings (size 3 to 8) (size 9 to 14) (size 15 to 20)
#    0.000    1.600    1.333    2.400   13.067    0.533 
#    2.400    0.667    0.000    0.000    0.000    0.000 
#    0.000    0.000    0.000    0.000    0.000    0.000 
#
# Total GULP energy -185843.454172 kJ/mol
# GULP energy per Si atom -12389.563611 kJ/mol
# Density = 2.205200 g / cm^3
# Si number density = 22.102304 Si / 1000 Ang^3
#
#
#
# Elastic Constant Matrix: (Units=GPa)
#
#
# Indices 1 2 3 4 5 6 
#
# 1 79.9074 -0.9560 18.6863 0.0000 -7.0346 0.0000
# 2 -0.9560 59.0473 -1.8338 0.0000 4.2936 0.0000
# 3 18.6863 -1.8338 120.1016 0.0000 -10.9071 0.0000
# 4 0.0000 0.0000 0.0000 31.8005 0.0000 4.2854
# 5 -7.0346 4.2936 -10.9071 0.0000 27.9091 0.0000
# 6 0.0000 0.0000 0.0000 4.2854 0.0000 25.2642
#
#
#
# Elastic Compliance Matrix: (Units=1/GPa)
#
#
# Indices 1 2 3 4 5 6 
#
# 1 0.013168 -0.000033 -0.001812 0.000000 0.002616 0.000000
# 2 -0.000033 0.017127 0.000028 0.000000 -0.002632 0.000000
# 3 -0.001812 0.000028 0.008882 0.000000 0.003010 0.000000
# 4 0.000000 0.000000 0.000000 0.032182 0.000000 -0.005459
# 5 0.002616 -0.002632 0.003010 0.000000 0.038071 0.000000
# 6 0.000000 0.000000 0.000000 -0.005459 0.000000 0.040508
#
#
# Mechanical properties :
#
#
# Convention : Reuss Voigt Hill
#
# Bulk Modulus (GPa) = 28.13527 32.31658 30.22593
# Shear Modulus (GPa) = 30.22601 33.20540 31.71571
#
# Velocity S-wave (km/s) = 3.70205 3.88022 3.79218
# Velocity P-wave (km/s) = 5.57053 5.89304 5.73405
#
# Compressibility (1/GPa) = 0.03554258
#
# Stress axis : x y z
#
# Youngs Moduli (GPa) = 75.94131 58.38627 112.58772
#
# Poissons Ratio (x) = 0.00194 0.20398
# Poissons Ratio (y) = 0.00253 -0.00311
# Poissons Ratio (z) = 0.13758 -0.00161
#
# Static dielectric constant tensor:
#      x y z
#    x 4.006090 0.000000 -0.172860 
#    y 0.000000 3.905500 0.000000 
#    z -0.172860 0.000000 4.166350 
# 
# 
# High freq. dielectric constant tensor:
#      x y z
#    x 1.859870 0.000000 -0.015270 
#    y 0.000000 1.864160 0.000000 
#    z -0.015270 0.000000 1.873840 
# 
# From -- ./inp_files/55483.got.cif
#   From: 2010.03.12/outbox.cif.g09.slc.cpg/sg5_28_cif.got.tgz:55483.got - 2010.03.31 09:47:26.
