data_PCOD8049255
_publ_section_title
;
Structure prediction by ZEFSAII (Michael W. Deem and Ramdas Pophale) SiO2 
 PCOD8049255
Probable space group: C 2
;
_chemical_formula_sum "Si O2"
_cell_formula_units_Z 30
_cell_length_a 15.051499
_cell_length_b 12.214210
_cell_length_c 8.671064
_cell_angle_alpha 90.000000
_cell_angle_beta 112.534915
_cell_angle_gamma 90.000000
_cell_volume 1472.391012
_symmetry_space_group_name_H-M "C 2"
_symmetry_group_IT_number 5
_symmetry_cell_setting 'monoclinic'
loop_
_space_group_symop_operation_xyz
x,y,z
-x,y,-z
1/2+x,1/2+y,z
1/2-x,1/2+y,-z
loop_
_atom_site_type_symbol
_atom_site_label
_atom_site_fract_x
_atom_site_fract_y
_atom_site_fract_z
Si Si1 0.082879 0.666670 0.346690
Si Si2 0.159618 0.428832 0.421348
Si Si3 0.290125 0.855187 0.868030
Si Si4 0.717128 0.521612 0.031196
Si Si5 0.798378 0.838501 0.750511
Si Si6 0.633853 0.724850 0.827866
Si Si7 0.366370 0.177804 0.269862
Si Si8 0.000000 0.307451 0.500000
O O1 0.135919 0.551359 0.348145
O O2 0.115730 0.761920 0.251983
O O3 0.113101 0.698770 0.538318
O O4 0.967518 0.660978 0.248655
O O5 0.168837 0.352595 0.276718
O O6 0.258006 0.412315 0.582045
O O7 0.076995 0.389248 0.480415
O O8 0.194864 0.780696 0.830752
O O9 0.373081 0.813793 0.039768
O O10 0.262790 0.976792 0.902877
O O11 0.665916 0.424941 0.095528
O O12 0.801586 0.570582 0.195754
O O13 0.640136 0.608900 0.919120
O O14 0.721957 0.754093 0.773063
O O15 0.538536 0.728281 0.660553
#
# Coordination Sequence:
#
# PCOD8049255 Si02
#       8
#     4   4   4   4   4   4   4   2
#     4  11  21  36  65  98 122 162 214 265 299 377
#     4  11  21  36  64  95 128 161 212 259 320 375
#     4  10  21  38  62  87 126 167 203 256 329 376
#     4  10  20  41  62  89 126 176 201 261 326 380
#     4  10  20  37  63  94 129 165 209 260 325 383
#     4   9  21  39  62  87 128 165 211 263 320 381
#     4  10  21  38  63  92 125 160 216 260 307 371
#     4  10  22  40  62  94 128 164 218 274 310 376
#
# _framework density 20.375022000000001
#
# number of rings (size 3 to 8) (size 9 to 14) (size 15 to 20)
#    0.000    1.867    2.667    1.600    3.733    0.533 
#    0.000   11.333   14.667    0.000    0.000    0.000 
#    0.000    0.000    0.000    0.000    0.000    0.000 
#
# Total GULP energy -185916.776349 kJ/mol
# GULP energy per Si atom -12394.451757 kJ/mol
# Density = 2.032865 g / cm^3
# Si number density = 20.375022 Si / 1000 Ang^3
#
#
#
# Elastic Constant Matrix: (Units=GPa)
#
#
# Indices 1 2 3 4 5 6 
#
# 1 57.7977 37.6253 25.1810 0.0000 -5.6477 0.0000
# 2 37.6253 111.8028 34.7791 0.0000 1.1718 0.0000
# 3 25.1810 34.7791 104.8787 0.0000 0.6512 0.0000
# 4 0.0000 0.0000 0.0000 36.5379 0.0000 -10.8193
# 5 -5.6477 1.1718 0.6512 0.0000 33.3732 0.0000
# 6 0.0000 0.0000 0.0000 -10.8193 0.0000 25.5491
#
#
#
# Elastic Compliance Matrix: (Units=1/GPa)
#
#
# Indices 1 2 3 4 5 6 
#
# 1 0.023756 -0.006977 -0.003417 0.000000 0.004332 0.000000
# 2 -0.006977 0.012025 -0.002303 0.000000 -0.001558 0.000000
# 3 -0.003417 -0.002303 0.011123 0.000000 -0.000714 0.000000
# 4 0.000000 0.000000 0.000000 0.031293 0.000000 0.013252
# 5 0.004332 -0.001558 -0.000714 0.000000 0.030766 0.000000
# 6 0.000000 0.000000 0.000000 0.013252 0.000000 0.044752
#
#
# Mechanical properties :
#
#
# Convention : Reuss Voigt Hill
#
# Bulk Modulus (GPa) = 46.48902 52.18332 49.33617
# Shear Modulus (GPa) = 26.84162 30.88496 28.86329
#
# Velocity S-wave (km/s) = 3.63351 3.89758 3.76786
# Velocity P-wave (km/s) = 6.36156 6.77657 6.57234
#
# Compressibility (1/GPa) = 0.02151046
#
# Stress axis : x y z
#
# Youngs Moduli (GPa) = 42.09545 83.16018 89.90156
#
# Poissons Ratio (x) = 0.58021 0.30718
# Poissons Ratio (y) = 0.29370 0.20703
# Poissons Ratio (z) = 0.14383 0.19150
#
# Static dielectric constant tensor:
#      x y z
#    x 3.437900 0.000000 -0.021700 
#    y 0.000000 3.628150 0.000000 
#    z -0.021700 0.000000 3.905200 
# 
# 
# High freq. dielectric constant tensor:
#      x y z
#    x 1.764460 0.000000 -0.010890 
#    y 0.000000 1.794630 0.000000 
#    z -0.010890 0.000000 1.813110 
# 
# From -- ./inp_files/23610.got.cif
#   From: 2010.03.12/outbox.cif.g09.slc.cpg/sg5_12_cif.got.tgz:23610.got - 2010.03.31 09:47:26.
