data_PCOD8049301
_publ_section_title
;
Structure prediction by ZEFSAII (Michael W. Deem and Ramdas Pophale) SiO2 
 PCOD8049301
Probable space group: C 2
;
_chemical_formula_sum "Si O2"
_cell_formula_units_Z 24
_cell_length_a 26.202914
_cell_length_b 4.972736
_cell_length_c 16.330319
_cell_angle_alpha 90.000000
_cell_angle_beta 146.331592
_cell_angle_gamma 90.000000
_cell_volume 1179.645777
_symmetry_space_group_name_H-M "C 2"
_symmetry_group_IT_number 5
_symmetry_cell_setting 'monoclinic'
loop_
_space_group_symop_operation_xyz
x,y,z
-x,y,-z
1/2+x,1/2+y,z
1/2-x,1/2+y,-z
loop_
_atom_site_type_symbol
_atom_site_label
_atom_site_fract_x
_atom_site_fract_y
_atom_site_fract_z
Si Si1 0.934113 0.330450 0.593732
Si Si2 0.190805 0.713484 0.935983
Si Si3 0.809196 0.187745 0.564022
Si Si4 0.002534 0.099583 0.097855
Si Si5 0.434110 0.070716 0.093731
Si Si6 0.997468 0.801578 0.402149
O O1 0.836646 0.269647 0.507318
O O2 0.929592 0.557390 0.516572
O O3 0.000018 0.450568 0.750013
O O4 0.975703 0.056490 0.615500
O O5 0.163358 0.631606 0.992696
O O6 0.104325 0.706761 0.759205
O O7 0.267295 0.510864 0.004238
O O8 0.732712 0.390378 0.495779
O O9 0.895677 0.194445 0.740800
O O10 0.929588 0.343748 0.016577
O O11 0.975732 0.844633 0.115537
O O12 0.000000 0.019766 0.000000
O O13 0.000000 0.881414 0.500000
#
# Coordination Sequence:
#
# PCOD8049301 Si02
#       6
#     4   4   4   4   4   4
#     4  10  20  38  60  82 112 156 191 220 277 354
#     4  11  21  37  59  85 112 148 192 235 277 333
#     4  11  21  37  59  85 112 148 192 235 277 333
#     4  11  22  39  60  85 114 150 190 233 280 335
#     4  10  20  38  60  82 112 156 191 220 277 354
#     4  11  22  39  60  85 114 150 190 233 280 335
#
# _framework density 20.345089999999999
#
# number of rings (size 3 to 8) (size 9 to 14) (size 15 to 20)
#    0.000    1.333    0.000   11.000    0.000    0.000 
#    0.000   10.000    0.000    0.000    0.000    0.000 
#    0.000    0.000    0.000    0.000    0.000    0.000 
#
# Total GULP energy -148793.535256 kJ/mol
# GULP energy per Si atom -12399.461271 kJ/mol
# Density = 2.029878 g / cm^3
# Si number density = 20.345090 Si / 1000 Ang^3
#
#
#
# Elastic Constant Matrix: (Units=GPa)
#
#
# Indices 1 2 3 4 5 6 
#
# 1 120.0050 31.5641 43.4705 0.0021 1.2012 0.0030
# 2 31.5641 101.2104 21.6514 0.0061 2.3706 0.0065
# 3 43.4705 21.6514 54.8551 0.0018 -2.4414 0.0011
# 4 0.0021 0.0061 0.0018 18.7808 0.0013 6.5949
# 5 1.2012 2.3706 -2.4414 0.0013 19.8729 0.0026
# 6 0.0030 0.0065 0.0011 6.5949 0.0026 49.5836
#
#
#
# Elastic Compliance Matrix: (Units=1/GPa)
#
#
# Indices 1 2 3 4 5 6 
#
# 1 0.012053 -0.001816 -0.008906 0.000000 -0.001606 0.000000
# 2 -0.001816 0.011131 -0.003025 -0.000003 -0.001590 -0.000001
# 3 -0.008906 -0.003025 0.026667 -0.000001 0.004175 0.000000
# 4 0.000000 -0.000003 -0.000001 0.055855 -0.000003 -0.007429
# 5 -0.001606 -0.001590 0.004175 -0.000003 0.051119 -0.000002
# 6 0.000000 -0.000001 0.000000 -0.007429 -0.000002 0.021156
#
#
# Mechanical properties :
#
#
# Convention : Reuss Voigt Hill
#
# Bulk Modulus (GPa) = 44.72879 52.16026 48.44452
# Shear Modulus (GPa) = 23.48208 29.60643 26.54425
#
# Velocity S-wave (km/s) = 3.40102 3.81886 3.61598
# Velocity P-wave (km/s) = 6.12008 6.71851 6.42626
#
# Compressibility (1/GPa) = 0.02235697
#
# Stress axis : x y z
#
# Youngs Moduli (GPa) = 82.96788 89.83803 37.49892
#
# Poissons Ratio (x) = 0.16315 0.33397
# Poissons Ratio (y) = 0.15067 0.11344
# Poissons Ratio (z) = 0.73892 0.27177
#
# Static dielectric constant tensor:
#      x y z
#    x 4.407750 -0.000010 0.150410 
#    y -0.000010 4.116440 -0.000010 
#    z 0.150410 -0.000010 3.262430 
# 
# 
# High freq. dielectric constant tensor:
#      x y z
#    x 1.814170 0.000000 0.008490 
#    y 0.000000 1.824440 0.000000 
#    z 0.008490 0.000000 1.745380 
# 
# From -- ./inp_files/56599.got.cif
#   From: 2010.03.12/outbox.cif.g09.slc.cpg/sg5_29_cif.got.tgz:56599.got - 2010.03.31 09:47:26.
