data_PCOD8049780
_publ_section_title
;
Structure prediction by ZEFSAII (Michael W. Deem and Ramdas Pophale) SiO2 
 PCOD8049780
Probable space group: C 2
;
_chemical_formula_sum "Si O2"
_cell_formula_units_Z 26
_cell_length_a 10.523676
_cell_length_b 8.396850
_cell_length_c 24.174597
_cell_angle_alpha 90.000000
_cell_angle_beta 151.025478
_cell_angle_gamma 90.000000
_cell_volume 1034.822244
_symmetry_space_group_name_H-M "C 2"
_symmetry_group_IT_number 5
_symmetry_cell_setting 'monoclinic'
loop_
_space_group_symop_operation_xyz
x,y,z
-x,y,-z
1/2+x,1/2+y,z
1/2-x,1/2+y,-z
loop_
_atom_site_type_symbol
_atom_site_label
_atom_site_fract_x
_atom_site_fract_y
_atom_site_fract_z
Si Si1 0.000000 0.520540 0.500000
Si Si2 0.073432 0.805176 0.338933
Si Si3 0.076634 0.208043 0.837538
Si Si4 0.679464 0.996047 0.743930
Si Si5 0.495241 0.227878 0.911530
Si Si6 0.678309 0.014308 0.245168
Si Si7 0.634287 0.729598 0.437694
O O1 0.792448 0.403170 0.386875
O O2 0.843098 0.629001 0.482346
O O3 0.217173 0.792508 0.452975
O O4 0.984010 0.630560 0.282411
O O5 0.817170 0.912310 0.249178
O O6 0.275742 0.143101 0.867132
O O7 0.831154 0.090459 0.752224
O O8 0.979068 0.383548 0.778504
O O9 0.223957 0.232328 0.952387
O O10 0.900653 0.909072 0.864559
O O11 0.467506 0.875026 0.638547
O O12 0.516026 0.134967 0.861294
O O13 0.888935 0.115166 0.360871
#
# Coordination Sequence:
#
# PCOD8049780 Si02
#       7
#     2   4   4   4   4   4   4
#     4  10  22  38  56  78 116 154 188 236 272 324
#     4  10  21  36  56  84 115 151 188 227 280 333
#     4  10  21  39  61  81 114 150 186 240 288 335
#     4  10  21  36  59  88 114 149 194 233 278 343
#     4  10  21  38  60  86 111 149 191 232 291 336
#     4   9  20  36  56  83 114 145 186 235 277 334
#     4  10  21  37  58  85 116 153 191 229 282 335
#
# _framework density 25.125088000000002
#
# number of rings (size 3 to 8) (size 9 to 14) (size 15 to 20)
#    0.000    2.154    0.000    2.769    0.000   12.923 
#    0.000    4.615    0.000   16.615    0.000    0.000 
#    0.000    0.000    0.000    0.000    0.000    0.000 
#
# Total GULP energy -161111.829871 kJ/mol
# GULP energy per Si atom -12393.217682 kJ/mol
# Density = 2.506790 g / cm^3
# Si number density = 25.125088 Si / 1000 Ang^3
#
#
#
# Elastic Constant Matrix: (Units=GPa)
#
#
# Indices 1 2 3 4 5 6 
#
# 1 26.0846 11.5062 0.6316 0.0000 16.4688 0.0000
# 2 11.5062 135.2162 37.7638 -0.0001 10.5391 0.0000
# 3 0.6316 37.7638 85.1745 -0.0001 0.2277 -0.0001
# 4 0.0000 -0.0001 -0.0001 44.8039 0.0001 4.0077
# 5 16.4688 10.5391 0.2277 0.0001 36.4135 0.0000
# 6 0.0000 0.0000 -0.0001 4.0077 0.0000 27.5927
#
#
#
# Elastic Compliance Matrix: (Units=1/GPa)
#
#
# Indices 1 2 3 4 5 6 
#
# 1 0.054745 -0.003084 0.001025 0.000000 -0.023873 0.000000
# 2 -0.003084 0.008833 -0.003890 0.000000 -0.001137 0.000000
# 3 0.001025 -0.003890 0.013456 0.000000 0.000578 0.000000
# 4 0.000000 0.000000 0.000000 0.022613 0.000000 -0.003284
# 5 -0.023873 -0.001137 0.000578 0.000000 0.038585 0.000000
# 6 0.000000 0.000000 0.000000 -0.003284 0.000000 0.036719
#
#
# Mechanical properties :
#
#
# Convention : Reuss Voigt Hill
#
# Bulk Modulus (GPa) = 15.35248 38.47538 26.91393
# Shear Modulus (GPa) = 23.97366 34.86692 29.42029
#
# Velocity S-wave (km/s) = 3.09232 3.72927 3.42563
# Velocity P-wave (km/s) = 4.34438 5.82152 5.13632
#
# Compressibility (1/GPa) = 0.06513605
#
# Stress axis : x y z
#
# Youngs Moduli (GPa) = 18.26649 113.20919 74.31429
#
# Poissons Ratio (x) = 0.34915 -0.07619
# Poissons Ratio (y) = 0.05634 0.28912
# Poissons Ratio (z) = -0.01873 0.44044
#
# Static dielectric constant tensor:
#      x y z
#    x 4.250440 0.000000 0.398770 
#    y 0.000000 4.969140 0.000000 
#    z 0.398770 0.000000 4.500820 
# 
# 
# High freq. dielectric constant tensor:
#      x y z
#    x 1.975500 0.000000 0.021020 
#    y 0.000000 2.023000 0.000000 
#    z 0.021020 0.000000 1.997060 
# 
# From -- ./inp_files/47865.got.cif
#   From: 2010.03.12/outbox.cif.g09.slc.cpg/sg5_24_cif.got.tgz:47865.got - 2010.03.31 09:47:26.
