data_PCOD8049363
_publ_section_title
;
Structure prediction by ZEFSAII (Michael W. Deem and Ramdas Pophale) SiO2 
 PCOD8049363
Probable space group: C 2
;
_chemical_formula_sum "Si O2"
_cell_formula_units_Z 18
_cell_length_a 12.151919
_cell_length_b 7.327953
_cell_length_c 12.519928
_cell_angle_alpha 90.000000
_cell_angle_beta 124.085946
_cell_angle_gamma 90.000000
_cell_volume 923.343848
_symmetry_space_group_name_H-M "C 2"
_symmetry_group_IT_number 5
_symmetry_cell_setting 'monoclinic'
loop_
_space_group_symop_operation_xyz
x,y,z
-x,y,-z
1/2+x,1/2+y,z
1/2-x,1/2+y,-z
loop_
_atom_site_type_symbol
_atom_site_label
_atom_site_fract_x
_atom_site_fract_y
_atom_site_fract_z
Si Si1 0.312831 0.958270 0.654411
Si Si2 0.256303 0.135169 0.230389
Si Si3 0.013629 0.736686 0.798931
Si Si4 0.000000 0.954761 0.000000
Si Si5 0.765390 0.340131 0.397743
O O1 0.266326 0.781636 0.689928
O O2 0.335149 0.911005 0.542202
O O3 0.453627 0.031124 0.778680
O O4 0.204602 0.124394 0.605758
O O5 0.355348 0.226600 0.200646
O O6 0.316105 0.957005 0.323153
O O7 0.120942 0.085615 0.096870
O O8 0.050597 0.823381 0.932775
O O9 0.896961 0.860387 0.680656
#
# Coordination Sequence:
#
# PCOD8049363 Si02
#       5
#     4   4   4   2   4
#     4  10  20  38  65  87 126 156 191 251 305 353
#     4  11  21  43  62  86 123 166 198 249 306 343
#     4   9  23  40  61  89 123 153 212 245 289 367
#     4  10  24  42  60  88 124 156 216 254 280 358
#     4   9  20  39  60  93 123 151 201 246 294 375
#
# _framework density 19.494364000000001
#
# number of rings (size 3 to 8) (size 9 to 14) (size 15 to 20)
#    1.333    0.889    2.222    0.000    0.000    8.000 
#    8.000    2.222    0.000    0.000    0.000    0.000 
#    0.000    0.000    0.000    0.000    0.000    0.000 
#
# Total GULP energy -111502.900003 kJ/mol
# GULP energy per Si atom -12389.211111 kJ/mol
# Density = 1.944999 g / cm^3
# Si number density = 19.494364 Si / 1000 Ang^3
#
#
#
# Elastic Constant Matrix: (Units=GPa)
#
#
# Indices 1 2 3 4 5 6 
#
# 1 81.9540 2.8572 33.3664 0.0000 -12.5248 0.0000
# 2 2.8572 76.7588 45.5025 0.0000 -3.8587 0.0000
# 3 33.3664 45.5025 87.2164 0.0000 -19.0875 0.0000
# 4 0.0000 0.0000 0.0000 38.7993 0.0000 -2.6926
# 5 -12.5248 -3.8587 -19.0875 0.0000 19.6552 0.0000
# 6 0.0000 0.0000 0.0000 -2.6926 0.0000 22.3938
#
#
#
# Elastic Compliance Matrix: (Units=1/GPa)
#
#
# Indices 1 2 3 4 5 6 
#
# 1 0.015542 0.003836 -0.007130 0.000000 0.003732 0.000000
# 2 0.003836 0.020704 -0.013771 0.000000 -0.006865 0.000000
# 3 -0.007130 -0.013771 0.025134 0.000000 0.017161 0.000000
# 4 0.000000 0.000000 0.000000 0.025991 0.000000 0.003125
# 5 0.003732 -0.006865 0.017161 0.000000 0.068573 0.000000
# 6 0.000000 0.000000 0.000000 0.003125 0.000000 0.045031
#
#
# Mechanical properties :
#
#
# Convention : Reuss Voigt Hill
#
# Bulk Modulus (GPa) = 36.70002 45.48682 41.09342
# Shear Modulus (GPa) = 20.47609 27.11655 23.79632
#
# Velocity S-wave (km/s) = 3.24444 3.73365 3.49761
# Velocity P-wave (km/s) = 5.73603 6.47849 6.11853
#
# Compressibility (1/GPa) = 0.02724794
#
# Stress axis : x y z
#
# Youngs Moduli (GPa) = 64.34351 48.30086 39.78680
#
# Poissons Ratio (x) = -0.18528 0.28369
# Poissons Ratio (y) = -0.24681 0.54792
# Poissons Ratio (z) = 0.45878 0.66517
#
# Static dielectric constant tensor:
#      x y z
#    x 3.137310 0.000000 -0.054750 
#    y 0.000000 3.606110 0.000000 
#    z -0.054750 0.000000 3.514770 
# 
# 
# High freq. dielectric constant tensor:
#      x y z
#    x 1.723860 0.000000 -0.008250 
#    y 0.000000 1.766380 0.000000 
#    z -0.008250 0.000000 1.762650 
# 
# From -- ./inp_files/37833.got.cif
#   From: 2010.03.12/outbox.cif.g09.slc.cpg/sg5_19_cif.got.tgz:37833.got - 2010.03.31 09:47:26.
