data_PCOD8049330
_publ_section_title
;
Structure prediction by ZEFSAII (Michael W. Deem and Ramdas Pophale) SiO2 
 PCOD8049330
Probable space group: C 2
;
_chemical_formula_sum "Si O2"
_cell_formula_units_Z 24
_cell_length_a 9.094181
_cell_length_b 15.849511
_cell_length_c 15.569052
_cell_angle_alpha 90.000000
_cell_angle_beta 147.979536
_cell_angle_gamma 90.000000
_cell_volume 1189.869890
_symmetry_space_group_name_H-M "C 2"
_symmetry_group_IT_number 5
_symmetry_cell_setting 'monoclinic'
loop_
_space_group_symop_operation_xyz
x,y,z
-x,y,-z
1/2+x,1/2+y,z
1/2-x,1/2+y,-z
loop_
_atom_site_type_symbol
_atom_site_label
_atom_site_fract_x
_atom_site_fract_y
_atom_site_fract_z
Si Si1 0.726002 0.076500 0.684894
Si Si2 0.228234 0.257039 0.682413
Si Si3 0.303686 0.822351 0.691243
Si Si4 0.324144 0.667161 0.182346
Si Si5 0.237057 0.415222 0.809814
Si Si6 0.264353 0.229193 0.184988
O O1 0.500000 0.066803 0.500000
O O2 0.652007 0.157393 0.705780
O O3 0.025726 0.085252 0.784789
O O4 0.713785 0.995947 0.738833
O O5 0.144935 0.174802 0.698471
O O6 0.276963 0.334499 0.769985
O O7 0.508305 0.238198 0.773900
O O8 0.000000 0.280668 0.500000
O O9 0.513683 0.746377 0.776072
O O10 0.457653 0.905905 0.730761
O O11 0.270256 0.817679 0.778758
O O12 0.000000 0.812044 0.500000
O O13 0.000000 0.668021 0.000000
O O14 0.500000 0.426552 0.000000
O O15 0.000000 0.201475 0.000000
#
# Coordination Sequence:
#
# PCOD8049330 Si02
#       6
#     4   4   4   4   4   4
#     4  11  23  41  59  83 120 162 200 247 299 353
#     4  11  20  35  60  89 114 148 194 244 295 354
#     4  10  20  38  62  88 119 158 199 245 297 357
#     4  10  20  38  62  88 119 158 199 245 297 357
#     4  11  23  41  59  83 120 162 200 247 299 353
#     4  11  20  35  60  89 114 148 194 244 295 354
#
# _framework density 20.170273000000002
#
# number of rings (size 3 to 8) (size 9 to 14) (size 15 to 20)
#    0.000    1.333    0.000   11.000    0.000    0.000 
#    0.000    8.333    0.000    0.000    0.000    0.000 
#    0.000    0.000    0.000    0.000    0.000    0.000 
#
# Total GULP energy -148710.950584 kJ/mol
# GULP energy per Si atom -12392.579215 kJ/mol
# Density = 2.012436 g / cm^3
# Si number density = 20.170273 Si / 1000 Ang^3
#
#
#
# Elastic Constant Matrix: (Units=GPa)
#
#
# Indices 1 2 3 4 5 6 
#
# 1 112.3050 50.6940 0.7768 -0.0035 -5.0780 0.0004
# 2 50.6940 83.3264 31.8820 -0.0005 -4.5255 0.0005
# 3 0.7768 31.8820 122.2378 -0.0075 -6.4465 0.0028
# 4 -0.0035 -0.0005 -0.0075 14.7123 -0.0027 -16.4110
# 5 -5.0780 -4.5255 -6.4465 -0.0027 47.5576 0.0007
# 6 0.0004 0.0005 0.0028 -16.4110 0.0007 52.3934
#
#
#
# Elastic Compliance Matrix: (Units=1/GPa)
#
#
# Indices 1 2 3 4 5 6 
#
# 1 0.012803 -0.008586 0.002203 0.000006 0.000849 0.000002
# 2 -0.008586 0.019120 -0.004920 -0.000006 0.000236 -0.000002
# 3 0.002203 -0.004920 0.009506 0.000007 0.001056 0.000002
# 4 0.000006 -0.000006 0.000007 0.104472 0.000007 0.032724
# 5 0.000849 0.000236 0.001056 0.000007 0.021283 0.000002
# 6 0.000002 -0.000002 0.000002 0.032724 0.000002 0.029336
#
#
# Mechanical properties :
#
#
# Convention : Reuss Voigt Hill
#
# Bulk Modulus (GPa) = 53.12766 53.84164 53.48465
# Shear Modulus (GPa) = 22.18280 38.56711 30.37496
#
# Velocity S-wave (km/s) = 3.31989 4.37747 3.88484
# Velocity P-wave (km/s) = 6.41033 7.23196 6.83350
#
# Compressibility (1/GPa) = 0.01882259
#
# Stress axis : x y z
#
# Youngs Moduli (GPa) = 78.10640 52.30240 105.20106
#
# Poissons Ratio (x) = 0.44906 -0.23173
# Poissons Ratio (y) = 0.67061 0.51756
# Poissons Ratio (z) = -0.17205 0.25732
#
# Static dielectric constant tensor:
#      x y z
#    x 3.731360 0.000010 -0.001270 
#    y 0.000010 3.722810 -0.000010 
#    z -0.001270 -0.000010 3.638150 
# 
# 
# High freq. dielectric constant tensor:
#      x y z
#    x 1.817360 0.000000 -0.002980 
#    y 0.000000 1.746880 0.000000 
#    z -0.002980 0.000000 1.803830 
# 
# From -- ./inp_files/25143.got.cif
#   From: 2010.03.12/outbox.cif.g09.slc.cpg/sg5_13_cif.got.tgz:25143.got - 2010.03.31 09:47:26.
