data_PCOD8049042
_publ_section_title
;
Structure prediction by ZEFSAII (Michael W. Deem and Ramdas Pophale) SiO2 
 PCOD8049042
Probable space group: C 2
;
_chemical_formula_sum "Si O2"
_cell_formula_units_Z 32
_cell_length_a 17.988426
_cell_length_b 20.672873
_cell_length_c 10.050287
_cell_angle_alpha 90.000000
_cell_angle_beta 26.501172
_cell_angle_gamma 90.000000
_cell_volume 1667.699195
_symmetry_space_group_name_H-M "C 2"
_symmetry_group_IT_number 5
_symmetry_cell_setting 'monoclinic'
loop_
_space_group_symop_operation_xyz
x,y,z
-x,y,-z
1/2+x,1/2+y,z
1/2-x,1/2+y,-z
loop_
_atom_site_type_symbol
_atom_site_label
_atom_site_fract_x
_atom_site_fract_y
_atom_site_fract_z
Si Si1 0.653268 0.247210 0.852540
Si Si2 0.420358 0.504501 0.836218
Si Si3 0.240255 0.875661 0.848620
Si Si4 0.743423 0.004502 0.836216
Si Si5 0.581051 0.132109 0.161292
Si Si6 0.742361 0.632106 0.838683
Si Si7 0.088878 0.375660 0.151371
Si Si8 0.994167 0.247204 0.852584
O O1 0.640604 0.314688 0.951191
O O2 0.821916 0.242275 0.499982
O O3 0.500000 0.240532 0.000000
O O4 0.650387 0.190279 0.963420
O O5 0.328481 0.504748 0.843036
O O6 0.618864 0.509855 0.500001
O O7 0.377791 0.437932 0.979759
O O8 0.356127 0.564922 0.025900
O O9 0.407152 0.889651 0.499995
O O10 0.282128 0.861747 0.935745
O O11 0.642450 0.937932 0.979757
O O12 0.617979 0.064924 0.025882
O O13 0.382881 0.138203 0.499994
O O14 0.676186 0.133909 0.147624
O O15 0.613820 0.690274 0.036562
O O16 0.091807 0.314685 0.048787
O O17 0.000000 0.240523 0.000000
#
# Coordination Sequence:
#
# PCOD8049042 Si02
#       8
#     4   4   4   4   4   4   4   4
#     4  11  23  38  55  77 109 146 183 224 269 319
#     4   9  17  30  52  82 111 137 171 219 270 319
#     4   9  18  34  56  80 106 138 176 219 268 321
#     4   9  17  30  52  82 111 137 171 219 270 319
#     4  10  20  35  57  83 110 141 179 223 269 319
#     4  10  20  35  57  83 110 141 179 223 269 319
#     4   9  18  34  56  80 106 138 176 219 268 321
#     4  11  23  38  55  77 109 146 183 224 269 319
#
# _framework density 19.188113000000001
#
# number of rings (size 3 to 8) (size 9 to 14) (size 15 to 20)
#    0.000    2.250    0.000    3.000    0.000    7.500 
#    0.000    3.750    0.000    3.000    0.000    0.000 
#    0.000    0.000    0.000    0.000    0.000    0.000 
#
# Total GULP energy -198442.667794 kJ/mol
# GULP energy per Si atom -12402.666737 kJ/mol
# Density = 1.914444 g / cm^3
# Si number density = 19.188113 Si / 1000 Ang^3
#
#
#
# Elastic Constant Matrix: (Units=GPa)
#
#
# Indices 1 2 3 4 5 6 
#
# 1 23.6280 21.7027 24.2568 0.0147 4.0235 -0.0062
# 2 21.7027 161.8582 69.3881 0.0135 4.0051 -0.0014
# 3 24.2568 69.3881 98.1164 0.0634 2.2523 -0.0013
# 4 0.0147 0.0135 0.0634 41.3664 -0.0203 3.4871
# 5 4.0235 4.0051 2.2523 -0.0203 23.5048 0.0042
# 6 -0.0062 -0.0014 -0.0013 3.4871 0.0042 -0.2294
#
#
#
# Elastic Compliance Matrix: (Units=1/GPa)
#
#
# Indices 1 2 3 4 5 6 
#
# 1 0.058953 -0.002196 -0.012827 0.000060 -0.008488 -0.000765
# 2 -0.002196 0.008968 -0.005785 0.000002 -0.000598 0.000054
# 3 -0.012827 -0.005785 0.017420 -0.000020 0.001512 0.000008
# 4 0.000060 0.000002 -0.000020 0.010595 -0.000028 0.161083
# 5 -0.008488 -0.000598 0.001512 -0.000028 0.043954 0.000604
# 6 -0.000765 0.000054 0.000008 0.161083 0.000604 -1.910871
#
#
# Mechanical properties :
#
#
# Convention : Reuss Voigt Hill
#
# Bulk Modulus (GPa) = 22.87065 57.14420 40.00743
# Shear Modulus (GPa) = -2.91581 24.14536 10.61478
#
# Velocity S-wave (km/s) = -1.23405 3.55117 2.35456
# Velocity P-wave (km/s) = 3.14874 6.83082 5.31858
#
# Compressibility (1/GPa) = 0.04372416
#
# Stress axis : x y z
#
# Youngs Moduli (GPa) = 16.96269 111.51224 57.40580
#
# Poissons Ratio (x) = 0.24486 0.73634
# Poissons Ratio (y) = 0.03725 0.33211
# Poissons Ratio (z) = 0.21758 0.64514
#
# Static dielectric constant tensor:
#      x y z
#    x 3.166780 0.000000 0.041390 
#    y 0.000000 3.722490 0.000030 
#    z 0.041390 0.000030 3.661160 
# 
# 
# High freq. dielectric constant tensor:
#      x y z
#    x 1.710020 0.000000 0.003980 
#    y 0.000000 1.764540 0.000000 
#    z 0.003980 0.000000 1.757500 
# 
# From -- ./inp_files/46663.got.cif
#   From: 2010.03.12/outbox.cif.g09.slc.cpg/sg5_24_cif.got.tgz:46663.got - 2010.03.31 09:47:26.
