data_PCOD8049323
_publ_section_title
;
Structure prediction by ZEFSAII (Michael W. Deem and Ramdas Pophale) SiO2 
 PCOD8049323
Probable space group: C 2
;
_chemical_formula_sum "Si O2"
_cell_formula_units_Z 30
_cell_length_a 14.977749
_cell_length_b 9.394768
_cell_length_c 23.488163
_cell_angle_alpha 90.000000
_cell_angle_beta 151.399111
_cell_angle_gamma 90.000000
_cell_volume 1582.158759
_symmetry_space_group_name_H-M "C 2"
_symmetry_group_IT_number 5
_symmetry_cell_setting 'monoclinic'
loop_
_space_group_symop_operation_xyz
x,y,z
-x,y,-z
1/2+x,1/2+y,z
1/2-x,1/2+y,-z
loop_
_atom_site_type_symbol
_atom_site_label
_atom_site_fract_x
_atom_site_fract_y
_atom_site_fract_z
Si Si1 0.219087 0.104860 0.430123
Si Si2 0.951513 0.577493 0.673149
Si Si3 0.602086 0.209375 0.186855
Si Si4 0.515417 0.365902 0.764426
Si Si5 0.664453 0.087025 0.048451
Si Si6 0.633154 0.798228 0.761668
Si Si7 0.000000 0.734706 0.500000
Si Si8 0.189144 0.003431 0.627309
O O1 0.314728 0.066389 0.542934
O O2 0.386662 0.144211 0.481716
O O3 0.071508 0.229066 0.362856
O O4 0.123378 0.970439 0.346484
O O5 0.843309 0.518021 0.666202
O O6 0.039482 0.732704 0.734850
O O7 0.120710 0.467358 0.762044
O O8 0.566565 0.310028 0.221401
O O9 0.718450 0.295002 0.205985
O O10 0.737580 0.076137 0.274930
O O11 0.412888 0.139754 0.055886
O O12 0.709491 0.445430 0.886646
O O13 0.783801 0.220731 0.136809
O O14 0.500000 0.048263 0.000000
O O15 0.146022 0.836896 0.615859
O O16 0.000000 0.081880 0.500000
#
# Coordination Sequence:
#
# PCOD8049323 Si02
#       8
#     4   4   4   4   4   4   2   4
#     4  11  22  37  57  86 123 156 193 241 295 356
#     4  11  21  37  58  86 118 157 190 243 299 356
#     4  10  21  38  63  87 116 156 202 246 297 350
#     4  10  24  39  58  92 119 152 202 246 299 352
#     4   9  21  42  62  80 114 160 201 242 296 353
#     4  10  20  38  62  82 117 159 197 242 296 352
#     4  10  22  36  54  86 120 154 194 236 290 350
#     4   9  19  36  56  84 115 153 197 230 295 352
#
# _framework density 18.961434000000001
#
# number of rings (size 3 to 8) (size 9 to 14) (size 15 to 20)
#    0.400    1.600    1.333    1.600    1.867    5.333 
#    1.200    3.333    0.000    0.000    0.000    0.000 
#    0.000    0.000    0.000    0.000    0.000    0.000 
#
# Total GULP energy -185877.852716 kJ/mol
# GULP energy per Si atom -12391.856848 kJ/mol
# Density = 1.891828 g / cm^3
# Si number density = 18.961434 Si / 1000 Ang^3
#
#
#
# Elastic Constant Matrix: (Units=GPa)
#
#
# Indices 1 2 3 4 5 6 
#
# 1 47.9246 37.8837 28.0223 -0.0003 2.6148 -0.0013
# 2 37.8837 137.2267 52.8319 0.0019 0.6826 -0.0009
# 3 28.0223 52.8319 99.3122 0.0114 -5.6445 -0.0006
# 4 -0.0003 0.0019 0.0114 31.7716 0.0005 2.2804
# 5 2.6148 0.6826 -5.6445 0.0005 28.6255 -0.0006
# 6 -0.0013 -0.0009 -0.0006 2.2804 -0.0006 14.3785
#
#
#
# Elastic Compliance Matrix: (Units=1/GPa)
#
#
# Indices 1 2 3 4 5 6 
#
# 1 0.028767 -0.005939 -0.005157 0.000002 -0.003503 0.000001
# 2 -0.005939 0.010431 -0.003900 0.000001 -0.000475 0.000000
# 3 -0.005157 -0.003900 0.013786 -0.000005 0.003282 0.000001
# 4 0.000002 0.000001 -0.000005 0.031837 -0.000002 -0.005049
# 5 -0.003503 -0.000475 0.003282 -0.000002 0.035912 0.000002
# 6 0.000001 0.000000 0.000001 -0.005049 0.000002 0.070349
#
#
# Mechanical properties :
#
#
# Convention : Reuss Voigt Hill
#
# Bulk Modulus (GPa) = 43.49378 57.99327 50.74352
# Shear Modulus (GPa) = 21.85912 26.00348 23.93130
#
# Velocity S-wave (km/s) = 3.39900 3.70724 3.55646
# Velocity P-wave (km/s) = 6.19614 6.99829 6.60940
#
# Compressibility (1/GPa) = 0.02299179
#
# Stress axis : x y z
#
# Youngs Moduli (GPa) = 34.76201 95.87135 72.53910
#
# Poissons Ratio (x) = 0.56937 0.37407
# Poissons Ratio (y) = 0.20645 0.28291
# Poissons Ratio (z) = 0.17926 0.37391
#
# Static dielectric constant tensor:
#      x y z
#    x 3.535690 0.000000 -0.065410 
#    y 0.000000 3.634560 -0.000010 
#    z -0.065410 -0.000010 3.649720 
# 
# 
# High freq. dielectric constant tensor:
#      x y z
#    x 1.738030 0.000000 0.000590 
#    y 0.000000 1.737310 0.000000 
#    z 0.000590 0.000000 1.735910 
# 
# From -- ./inp_files/68718.got.cif
#   From: 2010.03.12/outbox.cif.g09.slc.cpg/sg5_35_cif.got.tgz:68718.got - 2010.03.31 09:47:26.
