data_PCOD8049480
_publ_section_title
;
Structure prediction by ZEFSAII (Michael W. Deem and Ramdas Pophale) SiO2 
 PCOD8049480
Probable space group: C 2
;
_chemical_formula_sum "Si O2"
_cell_formula_units_Z 28
_cell_length_a 13.929626
_cell_length_b 10.756153
_cell_length_c 8.876619
_cell_angle_alpha 90.000000
_cell_angle_beta 100.775928
_cell_angle_gamma 90.000000
_cell_volume 1306.523667
_symmetry_space_group_name_H-M "C 2"
_symmetry_group_IT_number 5
_symmetry_cell_setting 'monoclinic'
loop_
_space_group_symop_operation_xyz
x,y,z
-x,y,-z
1/2+x,1/2+y,z
1/2-x,1/2+y,-z
loop_
_atom_site_type_symbol
_atom_site_label
_atom_site_fract_x
_atom_site_fract_y
_atom_site_fract_z
Si Si1 0.361149 0.868940 0.280968
Si Si2 0.502292 0.390368 0.281253
Si Si3 0.791931 0.918694 0.512774
Si Si4 0.500000 0.007129 0.500000
Si Si5 0.164777 0.079692 0.754872
Si Si6 0.000000 0.724570 0.000000
Si Si7 0.355791 0.198920 0.376681
Si Si8 0.680238 0.071367 0.939510
O O1 0.288963 0.934506 0.382519
O O2 0.357949 0.722307 0.287285
O O3 0.471623 0.918037 0.351074
O O4 0.335971 0.925611 0.109063
O O5 0.599925 0.439106 0.388978
O O6 0.435678 0.511216 0.231439
O O7 0.441436 0.296065 0.364766
O O8 0.533215 0.316353 0.141611
O O9 0.776610 0.777136 0.447639
O O10 0.779731 0.017466 0.371794
O O11 0.405072 0.094690 0.499344
O O12 0.228670 0.075803 0.924144
O O13 0.088605 0.632915 0.993212
O O14 0.303330 0.145706 0.212331
#
# Coordination Sequence:
#
# PCOD8049480 Si02
#       8
#     4   4   4   2   4   2   4   4
#     4  11  27  40  66  99 139 168 215 281 335 395
#     4  10  21  39  70  96 123 172 222 279 316 382
#     4  11  23  40  71  96 125 179 230 263 328 389
#     4  10  20  40  60  90 128 168 210 266 326 370
#     4  11  25  41  65  99 142 167 218 281 333 391
#     4  10  22  44  76  92 124 172 240 268 314 412
#     4   9  18  39  68  91 123 168 226 272 299 400
#     4  10  24  42  67  95 132 175 222 269 336 384
#
# _framework density 21.430917999999998
#
# number of rings (size 3 to 8) (size 9 to 14) (size 15 to 20)
#    0.000    1.714    1.429    2.143   14.000    3.429 
#    0.000    0.714    0.000    0.000    0.000    0.000 
#    0.000    0.000    0.000    0.000    0.000    0.000 
#
# Total GULP energy -173451.355379 kJ/mol
# GULP energy per Si atom -12389.382527 kJ/mol
# Density = 2.138214 g / cm^3
# Si number density = 21.430918 Si / 1000 Ang^3
#
#
#
# Elastic Constant Matrix: (Units=GPa)
#
#
# Indices 1 2 3 4 5 6 
#
# 1 64.9178 46.6501 54.2333 0.0000 4.2741 0.0000
# 2 46.6501 163.9488 58.9523 0.0000 7.7046 0.0000
# 3 54.2333 58.9523 129.2974 0.0000 23.0464 0.0000
# 4 0.0000 0.0000 0.0000 39.0469 0.0000 -5.7457
# 5 4.2741 7.7046 23.0464 0.0000 37.8141 0.0000
# 6 0.0000 0.0000 0.0000 -5.7457 0.0000 27.7330
#
#
#
# Elastic Compliance Matrix: (Units=1/GPa)
#
#
# Indices 1 2 3 4 5 6 
#
# 1 0.026359 -0.004137 -0.009861 0.000000 0.003873 0.000000
# 2 -0.004137 0.007957 -0.001893 0.000000 0.000000 0.000000
# 3 -0.009861 -0.001893 0.013985 0.000000 -0.007023 0.000000
# 4 0.000000 0.000000 0.000000 0.026416 0.000000 0.005473
# 5 0.003873 0.000000 -0.007023 0.000000 0.030288 0.000000
# 6 0.000000 0.000000 0.000000 0.005473 0.000000 0.037192
#
#
# Mechanical properties :
#
#
# Convention : Reuss Voigt Hill
#
# Bulk Modulus (GPa) = 60.52842 75.31506 67.92174
# Shear Modulus (GPa) = 27.85758 34.14068 30.99913
#
# Velocity S-wave (km/s) = 3.60929 3.99564 3.80737
# Velocity P-wave (km/s) = 6.75827 7.51707 7.14774
#
# Compressibility (1/GPa) = 0.01652116
#
# Stress axis : x y z
#
# Youngs Moduli (GPa) = 37.93707 125.67289 71.50518
#
# Poissons Ratio (x) = 0.51987 0.70509
# Poissons Ratio (y) = 0.15693 0.13535
# Poissons Ratio (z) = 0.37408 0.23789
#
# Static dielectric constant tensor:
#      x y z
#    x 3.936620 0.000000 -0.118000 
#    y 0.000000 4.345850 0.000000 
#    z -0.118000 0.000000 4.115450 
# 
# 
# High freq. dielectric constant tensor:
#      x y z
#    x 1.817220 0.000000 0.011480 
#    y 0.000000 1.858840 0.000000 
#    z 0.011480 0.000000 1.847320 
# 
# From -- ./inp_files/23691.got.cif
#   From: 2010.03.12/outbox.cif.g09.slc.cpg/sg5_12_cif.got.tgz:23691.got - 2010.03.31 09:47:26.
