data_PCOD8049422
_publ_section_title
;
Structure prediction by ZEFSAII (Michael W. Deem and Ramdas Pophale) SiO2 
 PCOD8049422
Probable space group: C 2
;
_chemical_formula_sum "Si O2"
_cell_formula_units_Z 32
_cell_length_a 11.655225
_cell_length_b 15.528822
_cell_length_c 8.796839
_cell_angle_alpha 90.000000
_cell_angle_beta 100.899494
_cell_angle_gamma 90.000000
_cell_volume 1563.434833
_symmetry_space_group_name_H-M "C 2"
_symmetry_group_IT_number 5
_symmetry_cell_setting 'monoclinic'
loop_
_space_group_symop_operation_xyz
x,y,z
-x,y,-z
1/2+x,1/2+y,z
1/2-x,1/2+y,-z
loop_
_atom_site_type_symbol
_atom_site_label
_atom_site_fract_x
_atom_site_fract_y
_atom_site_fract_z
Si Si1 0.151225 0.952530 0.858981
Si Si2 0.576989 0.669149 0.153587
Si Si3 0.558676 0.380964 0.350681
Si Si4 0.726290 0.775071 0.575511
Si Si5 0.289446 0.504502 0.791224
Si Si6 0.851609 0.344561 0.768528
Si Si7 0.066138 0.415645 0.668400
Si Si8 0.088933 0.117392 0.645122
O O1 0.269752 0.910337 0.833217
O O2 0.044465 0.886699 0.799712
O O3 0.137976 0.041627 0.762907
O O4 0.157408 0.966860 0.039876
O O5 0.684638 0.605594 0.214566
O O6 0.626328 0.762245 0.117473
O O7 0.493051 0.681575 0.278022
O O8 0.500000 0.628087 0.000000
O O9 0.500000 0.391085 0.500000
O O10 0.635386 0.292695 0.356164
O O11 0.649078 0.459066 0.338840
O O12 0.703633 0.805425 0.398342
O O13 0.645167 0.831155 0.665527
O O14 0.693573 0.674538 0.596381
O O15 0.149852 0.492722 0.746713
O O16 0.971408 0.395954 0.773125
O O17 0.000000 0.445632 0.500000
O O18 0.000000 0.076115 0.500000
#
# Coordination Sequence:
#
# PCOD8049422 Si02
#       8
#     4   4   4   4   4   4   4   4
#     4  12  25  40  64 102 134 172 215 268 334 386
#     4  12  23  39  64  95 129 162 221 271 317 387
#     4  11  21  38  67  95 129 170 214 266 323 383
#     4  10  20  39  63  97 128 160 223 276 310 377
#     4  11  24  41  64  99 135 163 217 277 323 386
#     4  11  23  39  65  97 129 168 223 263 324 394
#     4   9  20  39  65  93 128 170 212 265 327 383
#     4  12  22  39  66  94 128 173 219 270 318 377
#
# _framework density 20.467753999999999
#
# number of rings (size 3 to 8) (size 9 to 14) (size 15 to 20)
#    0.000    1.000    6.250    1.125    1.750    0.000 
#    0.000    1.250    0.000    0.000    0.000    0.000 
#    0.000    0.000    0.000    0.000    0.000    0.000 
#
# Total GULP energy -198348.394442 kJ/mol
# GULP energy per Si atom -12396.774653 kJ/mol
# Density = 2.042117 g / cm^3
# Si number density = 20.467754 Si / 1000 Ang^3
#
#
#
# Elastic Constant Matrix: (Units=GPa)
#
#
# Indices 1 2 3 4 5 6 
#
# 1 140.5237 61.5079 37.7281 0.0000 3.7310 0.0000
# 2 61.5079 99.6556 26.0214 0.0000 2.4602 0.0000
# 3 37.7281 26.0214 70.4874 0.0000 0.7132 0.0000
# 4 0.0000 0.0000 0.0000 24.8650 0.0000 1.3909
# 5 3.7310 2.4602 0.7132 0.0000 32.1063 0.0000
# 6 0.0000 0.0000 0.0000 1.3909 0.0000 31.6863
#
#
#
# Elastic Compliance Matrix: (Units=1/GPa)
#
#
# Indices 1 2 3 4 5 6 
#
# 1 0.010522 -0.005542 -0.003579 0.000000 -0.000719 0.000000
# 2 -0.005542 0.014043 -0.002214 0.000000 -0.000383 0.000000
# 3 -0.003579 -0.002214 0.016918 0.000000 0.000210 0.000000
# 4 0.000000 0.000000 0.000000 0.040316 0.000000 -0.001770
# 5 -0.000719 -0.000383 0.000210 0.000000 0.031255 0.000000
# 6 0.000000 0.000000 0.000000 -0.001770 0.000000 0.031637
#
#
# Mechanical properties :
#
#
# Convention : Reuss Voigt Hill
#
# Bulk Modulus (GPa) = 53.15435 62.35351 57.75393
# Shear Modulus (GPa) = 28.79691 30.09216 29.44453
#
# Velocity S-wave (km/s) = 3.75499 3.83851 3.79698
# Velocity P-wave (km/s) = 6.69523 7.08350 6.89210
#
# Compressibility (1/GPa) = 0.01881313
#
# Stress axis : x y z
#
# Youngs Moduli (GPa) = 95.04031 71.21189 59.11033
#
# Poissons Ratio (x) = 0.39465 0.21153
# Poissons Ratio (y) = 0.52671 0.13086
# Poissons Ratio (z) = 0.34011 0.15765
#
# Static dielectric constant tensor:
#      x y z
#    x 3.941590 0.000000 0.043580 
#    y 0.000000 3.499610 0.000000 
#    z 0.043580 0.000000 3.758680 
# 
# 
# High freq. dielectric constant tensor:
#      x y z
#    x 1.799550 0.000000 -0.002070 
#    y 0.000000 1.777680 0.000000 
#    z -0.002070 0.000000 1.802910 
# 
# From -- ./inp_files/20670.got.cif
#   From: 2010.03.12/outbox.cif.g09.slc.cpg/sg5_11_cif.got.tgz:20670.got - 2010.03.31 09:47:26.
