data_PCOD8049930
_publ_section_title
;
Structure prediction by ZEFSAII (Michael W. Deem and Ramdas Pophale) SiO2 
 PCOD8049930
Probable space group: C 2
;
_chemical_formula_sum "Si O2"
_cell_formula_units_Z 28
_cell_length_a 13.417017
_cell_length_b 20.594869
_cell_length_c 8.433810
_cell_angle_alpha 90.000000
_cell_angle_beta 145.992644
_cell_angle_gamma 90.000000
_cell_volume 1303.416218
_symmetry_space_group_name_H-M "C 2"
_symmetry_group_IT_number 5
_symmetry_cell_setting 'monoclinic'
loop_
_space_group_symop_operation_xyz
x,y,z
-x,y,-z
1/2+x,1/2+y,z
1/2-x,1/2+y,-z
loop_
_atom_site_type_symbol
_atom_site_label
_atom_site_fract_x
_atom_site_fract_y
_atom_site_fract_z
Si Si1 0.370521 0.969130 0.062178
Si Si2 0.252793 0.105992 0.955217
Si Si3 0.633364 0.610179 0.449325
Si Si4 0.249415 0.969769 0.565483
Si Si5 0.000000 0.682789 0.500000
Si Si6 0.200216 0.226013 0.316647
Si Si7 0.000000 0.375447 0.500000
Si Si8 0.192970 0.839027 0.313824
O O1 0.560512 0.992544 0.249072
O O2 0.392882 0.915259 0.225614
O O3 0.258942 0.944503 0.761049
O O4 0.268446 0.029132 0.007112
O O5 0.247633 0.119098 0.760234
O O6 0.071837 0.131316 0.797972
O O7 0.424129 0.140131 0.255623
O O8 0.630894 0.534704 0.392512
O O9 0.719224 0.657479 0.433079
O O10 0.174067 0.911504 0.359585
O O11 0.162351 0.726008 0.648708
O O12 0.248601 0.288568 0.479325
O O13 0.000000 0.237098 0.000000
O O14 0.155906 0.333527 0.623712
O O15 0.000000 0.817352 0.000000
#
# Coordination Sequence:
#
# PCOD8049930 Si02
#       8
#     4   4   4   4   2   4   2   4
#     4   9  18  36  64 102 131 181 217 268 337 394
#     4  10  21  38  67 105 139 175 222 274 339 399
#     4  10  22  42  69 101 139 178 219 282 335 393
#     4   9  20  41  67  96 140 175 221 276 332 395
#     4  12  25  44  68 100 131 178 232 274 332 406
#     4  12  28  48  69  98 136 180 224 282 337 399
#     4  10  23  42  70  96 139 178 220 282 330 396
#     4  11  28  47  69 101 134 181 226 276 337 402
#
# _framework density 21.482009999999999
#
# number of rings (size 3 to 8) (size 9 to 14) (size 15 to 20)
#    0.000    1.714    1.429    1.286    8.000    5.143 
#    0.000    0.000    0.000    0.000    0.000    0.000 
#    0.000    0.000    0.000    0.000    0.000    0.000 
#
# Total GULP energy -173590.325984 kJ/mol
# GULP energy per Si atom -12399.308999 kJ/mol
# Density = 2.143312 g / cm^3
# Si number density = 21.482010 Si / 1000 Ang^3
#
#
#
# Elastic Constant Matrix: (Units=GPa)
#
#
# Indices 1 2 3 4 5 6 
#
# 1 121.5425 42.2006 43.7516 0.0000 10.1888 0.0000
# 2 42.2006 87.6504 39.5717 0.0000 -1.8395 0.0000
# 3 43.7516 39.5717 121.2915 0.0000 8.6945 0.0000
# 4 0.0000 0.0000 0.0000 24.4412 0.0000 -15.3080
# 5 10.1888 -1.8395 8.6945 0.0000 27.9851 0.0000
# 6 0.0000 0.0000 0.0000 -15.3080 0.0000 22.0982
#
#
#
# Elastic Compliance Matrix: (Units=1/GPa)
#
#
# Indices 1 2 3 4 5 6 
#
# 1 0.010815 -0.004261 -0.002259 0.000000 -0.003516 0.000000
# 2 -0.004261 0.015203 -0.003688 0.000000 0.003696 0.000000
# 3 -0.002259 -0.003688 0.010454 0.000000 -0.002668 0.000000
# 4 0.000000 0.000000 0.000000 0.072270 0.000000 0.050064
# 5 -0.003516 0.003696 -0.002668 0.000000 0.038085 0.000000
# 6 0.000000 0.000000 0.000000 0.050064 0.000000 0.079933
#
#
# Mechanical properties :
#
#
# Convention : Reuss Voigt Hill
#
# Bulk Modulus (GPa) = 62.28177 64.61469 63.44823
# Shear Modulus (GPa) = 19.79977 28.56893 24.18435
#
# Velocity S-wave (km/s) = 3.03923 3.65074 3.35893
# Velocity P-wave (km/s) = 6.43206 6.92202 6.68153
#
# Compressibility (1/GPa) = 0.01605606
#
# Stress axis : x y z
#
# Youngs Moduli (GPa) = 92.46530 65.77613 95.65808
#
# Poissons Ratio (x) = 0.28027 0.21608
# Poissons Ratio (y) = 0.39399 0.35279
# Poissons Ratio (z) = 0.20887 0.24259
#
# Static dielectric constant tensor:
#      x y z
#    x 4.088920 0.000000 -0.017700 
#    y 0.000000 3.607340 0.000000 
#    z -0.017700 0.000000 4.000050 
# 
# 
# High freq. dielectric constant tensor:
#      x y z
#    x 1.851250 0.000000 -0.000160 
#    y 0.000000 1.824630 0.000000 
#    z -0.000160 0.000000 1.851320 
# 
# From -- ./inp_files/25404.got.cif
#   From: 2010.03.12/outbox.cif.g09.slc.cpg/sg5_13_cif.got.tgz:25404.got - 2010.03.31 09:47:26.
