data_PCOD8049977
_publ_section_title
;
Structure prediction by ZEFSAII (Michael W. Deem and Ramdas Pophale) SiO2 
 PCOD8049977
Probable space group: C 2
;
_chemical_formula_sum "Si O2"
_cell_formula_units_Z 28
_cell_length_a 19.200652
_cell_length_b 11.085320
_cell_length_c 20.448221
_cell_angle_alpha 90.000000
_cell_angle_beta 20.119609
_cell_angle_gamma 90.000000
_cell_volume 1497.111982
_symmetry_space_group_name_H-M "C 2"
_symmetry_group_IT_number 5
_symmetry_cell_setting 'monoclinic'
loop_
_space_group_symop_operation_xyz
x,y,z
-x,y,-z
1/2+x,1/2+y,z
1/2-x,1/2+y,-z
loop_
_atom_site_type_symbol
_atom_site_label
_atom_site_fract_x
_atom_site_fract_y
_atom_site_fract_z
Si Si1 0.602928 0.454680 0.000005
Si Si2 0.588094 0.484569 0.274459
Si Si3 0.223029 0.847135 0.276977
Si Si4 0.355245 0.197757 0.999992
Si Si5 0.637071 0.984592 0.725477
Si Si6 0.225525 0.572234 0.274489
Si Si7 0.747647 0.888964 0.000047
O O1 0.758452 0.509610 0.810314
O O2 0.590269 0.309053 0.000021
O O3 0.379054 0.509615 0.189752
O O4 0.685868 0.480744 0.999949
O O5 0.727697 0.415518 0.203891
O O6 0.355348 0.491813 0.499968
O O7 0.607168 0.412710 0.189678
O O8 0.675953 0.619057 0.189695
O O9 0.364488 0.915569 0.203923
O O10 0.296108 0.710310 0.203912
O O11 0.000000 0.847142 0.500000
O O12 0.276058 0.251603 0.000046
O O13 0.555368 0.119085 0.810250
O O14 0.486609 0.912711 0.810239
O O15 0.000000 0.557764 0.500000
#
# Coordination Sequence:
#
# PCOD8049977 Si02
#       7
#     4   4   4   4   4   4   4
#     4   9  22  39  54  88 122 146 196 241 290 355
#     4  10  21  39  63  86 117 157 195 246 300 347
#     4   9  21  37  56  91 115 146 208 244 287 352
#     4   9  22  39  54  88 122 146 196 241 290 355
#     4  10  21  39  63  86 117 157 195 246 300 347
#     4  10  21  39  63  86 117 157 195 246 300 347
#     4   9  22  39  54  88 122 146 196 241 290 355
#
# _framework density 18.702677000000001
#
# number of rings (size 3 to 8) (size 9 to 14) (size 15 to 20)
#    0.857    1.714    0.000    0.000    0.000   17.143 
#    0.000    4.286    0.000    0.000    0.000    0.000 
#    0.000    0.000    0.000    0.000    0.000    0.000 
#
# Total GULP energy -173505.819768 kJ/mol
# GULP energy per Si atom -12393.272841 kJ/mol
# Density = 1.866011 g / cm^3
# Si number density = 18.702677 Si / 1000 Ang^3
#
#
#
# Elastic Constant Matrix: (Units=GPa)
#
#
# Indices 1 2 3 4 5 6 
#
# 1 163.6503 72.7439 60.6402 0.0047 -5.6665 -0.0026
# 2 72.7439 165.0234 59.5165 0.0434 -1.6759 -0.0013
# 3 60.6402 59.5165 152.7566 0.0345 4.2487 0.0010
# 4 0.0047 0.0434 0.0345 29.6387 -0.0210 -2.0653
# 5 -5.6665 -1.6759 4.2487 -0.0210 30.6774 -0.0021
# 6 -0.0026 -0.0013 0.0010 -2.0653 -0.0021 45.8143
#
#
#
# Elastic Compliance Matrix: (Units=1/GPa)
#
#
# Indices 1 2 3 4 5 6 
#
# 1 0.008244 -0.002815 -0.002222 0.000007 0.001677 0.000001
# 2 -0.002815 0.008030 -0.002017 -0.000009 0.000198 0.000000
# 3 -0.002222 -0.002017 0.008260 -0.000008 -0.001665 -0.000001
# 4 0.000007 -0.000009 -0.000008 0.033846 0.000025 0.001526
# 5 0.001677 0.000198 -0.001665 0.000025 0.033148 0.000003
# 6 0.000001 0.000000 -0.000001 0.001526 0.000003 0.021896
#
#
# Mechanical properties :
#
#
# Convention : Reuss Voigt Hill
#
# Bulk Modulus (GPa) = 95.91463 96.35905 96.13684
# Shear Modulus (GPa) = 38.16564 40.46140 39.31352
#
# Velocity S-wave (km/s) = 4.52226 4.65628 4.58976
# Velocity P-wave (km/s) = 8.86922 8.97448 8.92200
#
# Compressibility (1/GPa) = 0.01042594
#
# Stress axis : x y z
#
# Youngs Moduli (GPa) = 121.30746 124.53192 121.05828
#
# Poissons Ratio (x) = 0.35060 0.26901
# Poissons Ratio (y) = 0.34152 0.24412
# Poissons Ratio (z) = 0.26957 0.25112
#
# Static dielectric constant tensor:
#      x y z
#    x 3.529150 -0.000010 -0.035540 
#    y -0.000010 3.533520 0.000040 
#    z -0.035540 0.000040 3.252350 
# 
# 
# High freq. dielectric constant tensor:
#      x y z
#    x 1.730360 0.000000 -0.000140 
#    y 0.000000 1.730360 0.000010 
#    z -0.000140 0.000010 1.729340 
# 
# From -- ./inp_files/66704.got.cif
#   From: 2010.03.12/outbox.cif.g09.slc.cpg/sg5_34_cif.got.tgz:66704.got - 2010.03.31 09:47:26.
