data_PCOD8049528
_publ_section_title
;
Structure prediction by ZEFSAII (Michael W. Deem and Ramdas Pophale) SiO2 
 PCOD8049528
Probable space group: C 2
;
_chemical_formula_sum "Si O2"
_cell_formula_units_Z 26
_cell_length_a 8.390413
_cell_length_b 20.499692
_cell_length_c 11.725190
_cell_angle_alpha 90.000000
_cell_angle_beta 145.321836
_cell_angle_gamma 90.000000
_cell_volume 1147.458524
_symmetry_space_group_name_H-M "C 2"
_symmetry_group_IT_number 5
_symmetry_cell_setting 'monoclinic'
loop_
_space_group_symop_operation_xyz
x,y,z
-x,y,-z
1/2+x,1/2+y,z
1/2-x,1/2+y,-z
loop_
_atom_site_type_symbol
_atom_site_label
_atom_site_fract_x
_atom_site_fract_y
_atom_site_fract_z
Si Si1 0.687147 0.715660 0.344014
Si Si2 0.095125 0.854098 0.871172
Si Si3 0.753785 0.457152 0.572778
Si Si4 0.192899 0.067758 0.365765
Si Si5 0.702039 0.992785 0.017282
Si Si6 0.000000 0.260974 0.000000
Si Si7 0.567784 0.836064 0.697209
O O1 0.665294 0.643305 0.383693
O O2 0.571478 0.764997 0.371333
O O3 0.000000 0.735972 0.500000
O O4 0.522948 0.716926 0.126544
O O5 0.129303 0.927530 0.844009
O O6 0.223744 0.806142 0.851625
O O7 0.770682 0.835290 0.705726
O O8 0.265792 0.849543 0.088912
O O9 0.500000 0.431384 0.500000
O O10 0.641110 0.520980 0.442477
O O11 0.839347 0.394155 0.546206
O O12 0.028601 0.480761 0.801580
O O13 0.500000 0.051757 0.500000
O O14 0.939191 0.047975 0.130475
O O15 0.500000 0.016263 0.000000
#
# Coordination Sequence:
#
# PCOD8049528 Si02
#       7
#     4   4   4   4   4   2   4
#     4  10  23  42  62  89 131 168 214 262 322 389
#     4   9  18  35  63  96 124 156 216 265 316 390
#     4  11  22  40  66  96 129 172 217 267 326 383
#     4  11  25  42  61  94 130 171 222 272 314 389
#     4  11  21  39  66  93 126 168 211 264 329 379
#     4  10  20  40  66  88 122 174 204 260 334 378
#     4   9  19  37  62  96 127 163 209 274 319 376
#
# _framework density 22.658770000000001
#
# number of rings (size 3 to 8) (size 9 to 14) (size 15 to 20)
#    0.000    1.846    2.308    1.385    0.000    5.538 
#    5.538    5.385    0.000    0.000    0.000    0.000 
#    0.000    0.000    0.000    0.000    0.000    0.000 
#
# Total GULP energy -161212.866003 kJ/mol
# GULP energy per Si atom -12400.989693 kJ/mol
# Density = 2.260720 g / cm^3
# Si number density = 22.658770 Si / 1000 Ang^3
#
#
#
# Elastic Constant Matrix: (Units=GPa)
#
#
# Indices 1 2 3 4 5 6 
#
# 1 101.4696 58.8445 26.1371 0.0000 29.1238 0.0000
# 2 58.8445 140.5546 47.0684 0.0000 20.6124 0.0000
# 3 26.1371 47.0684 86.8641 0.0000 36.9218 -0.0001
# 4 0.0000 0.0000 0.0000 33.2023 0.0000 3.8389
# 5 29.1238 20.6124 36.9218 0.0000 43.0093 0.0000
# 6 0.0000 0.0000 -0.0001 3.8389 0.0000 26.5840
#
#
#
# Elastic Compliance Matrix: (Units=1/GPa)
#
#
# Indices 1 2 3 4 5 6 
#
# 1 0.015461 -0.005952 0.002851 0.000000 -0.010064 0.000000
# 2 -0.005952 0.010984 -0.005726 0.000000 0.003681 0.000000
# 3 0.002851 -0.005726 0.021116 0.000000 -0.017314 0.000000
# 4 0.000000 0.000000 0.000000 0.030630 0.000000 -0.004423
# 5 -0.010064 0.003681 -0.017314 0.000000 0.043165 0.000000
# 6 0.000000 0.000000 0.000000 -0.004423 0.000000 0.038255
#
#
# Mechanical properties :
#
#
# Convention : Reuss Voigt Hill
#
# Bulk Modulus (GPa) = 33.43604 65.88760 49.66182
# Shear Modulus (GPa) = 26.70460 33.68167 30.19314
#
# Velocity S-wave (km/s) = 3.43673 3.85966 3.65432
# Velocity P-wave (km/s) = 5.52599 7.00029 6.30637
#
# Compressibility (1/GPa) = 0.02990784
#
# Stress axis : x y z
#
# Youngs Moduli (GPa) = 64.67893 91.04249 47.35683
#
# Poissons Ratio (x) = 0.54185 -0.13500
# Poissons Ratio (y) = 0.38494 0.27115
# Poissons Ratio (z) = -0.18438 0.52128
#
# Static dielectric constant tensor:
#      x y z
#    x 3.946170 0.000000 0.184650 
#    y 0.000000 3.906400 0.000000 
#    z 0.184650 0.000000 4.361260 
# 
# 
# High freq. dielectric constant tensor:
#      x y z
#    x 1.881910 0.000000 0.006730 
#    y 0.000000 1.879660 0.000000 
#    z 0.006730 0.000000 1.918250 
# 
# From -- ./inp_files/17090.got.cif
#   From: 2010.03.12/outbox.cif.g09.slc.cpg/sg5_9_cif.got.tgz:17090.got - 2010.03.31 09:47:26.
