data_PCOD8049839
_publ_section_title
;
Structure prediction by ZEFSAII (Michael W. Deem and Ramdas Pophale) SiO2 
 PCOD8049839
Probable space group: C 2
;
_chemical_formula_sum "Si O2"
_cell_formula_units_Z 28
_cell_length_a 9.233107
_cell_length_b 32.012196
_cell_length_c 5.038255
_cell_angle_alpha 90.000000
_cell_angle_beta 117.285110
_cell_angle_gamma 90.000000
_cell_volume 1323.477147
_symmetry_space_group_name_H-M "C 2"
_symmetry_group_IT_number 5
_symmetry_cell_setting 'monoclinic'
loop_
_space_group_symop_operation_xyz
x,y,z
-x,y,-z
1/2+x,1/2+y,z
1/2-x,1/2+y,-z
loop_
_atom_site_type_symbol
_atom_site_label
_atom_site_fract_x
_atom_site_fract_y
_atom_site_fract_z
Si Si1 0.693587 0.704060 0.654942
Si Si2 0.110290 0.924838 0.852435
Si Si3 0.308963 0.754477 0.850465
Si Si4 0.811633 0.068634 0.841811
Si Si5 0.391570 0.988621 0.160488
Si Si6 0.812379 0.613661 0.779465
Si Si7 0.893408 0.831190 0.154541
O O1 0.500000 0.696946 0.500000
O O2 0.751583 0.738430 0.486674
O O3 0.783268 0.661031 0.663361
O O4 0.752668 0.720556 0.988726
O O5 0.172441 0.877584 0.966881
O O6 0.000000 0.928865 0.500000
O O7 0.272317 0.952015 0.964661
O O8 0.000000 0.941573 0.000000
O O9 0.250433 0.799940 0.890335
O O10 0.500000 0.758151 0.000000
O O11 0.749073 0.082983 0.502423
O O12 0.708651 0.028980 0.840576
O O13 0.789636 0.105510 0.038256
O O14 0.000000 0.055882 0.000000
O O15 0.500000 0.973089 0.500000
O O16 0.500000 0.001146 0.000000
O O17 0.000000 0.605204 0.000000
O O18 0.000000 0.836134 0.500000
O O19 0.000000 0.813456 0.000000
#
# Coordination Sequence:
#
# PCOD8049839 Si02
#       7
#     4   4   4   4   4   4   4
#     4  10  21  38  59  86 120 161 204 248 303 366
#     4  10  22  42  65  91 125 166 205 245 302 372
#     4  10  21  37  59  86 120 159 203 251 299 358
#     4  12  25  43  66  89 122 167 204 244 305 374
#     4  12  25  42  65  95 127 158 201 258 305 354
#     4  12  25  42  64  93 124 157 205 262 306 353
#     4  10  21  38  61  88 121 158 201 250 299 357
#
# _framework density 21.156389000000001
#
# number of rings (size 3 to 8) (size 9 to 14) (size 15 to 20)
#    0.000    1.143    0.000    6.857    0.000    4.571 
#    0.000    2.143    0.000    0.000    0.000    0.000 
#    0.000    0.000    0.000    0.000    0.000    0.000 
#
# Total GULP energy -173641.796462 kJ/mol
# GULP energy per Si atom -12402.985462 kJ/mol
# Density = 2.110824 g / cm^3
# Si number density = 21.156389 Si / 1000 Ang^3
#
#
#
# Elastic Constant Matrix: (Units=GPa)
#
#
# Indices 1 2 3 4 5 6 
#
# 1 114.0556 47.6859 55.1500 0.0000 -8.7955 0.0000
# 2 47.6859 105.7793 33.0207 0.0000 11.7122 0.0000
# 3 55.1500 33.0207 123.6033 0.0000 -6.6288 0.0000
# 4 0.0000 0.0000 0.0000 38.2443 0.0000 -6.5254
# 5 -8.7955 11.7122 -6.6288 0.0000 33.7379 0.0000
# 6 0.0000 0.0000 0.0000 -6.5254 0.0000 37.7662
#
#
#
# Elastic Compliance Matrix: (Units=1/GPa)
#
#
# Indices 1 2 3 4 5 6 
#
# 1 0.013368 -0.005158 -0.004350 0.000000 0.004421 0.000000
# 2 -0.005158 0.012918 -0.001478 0.000000 -0.006120 0.000000
# 3 -0.004350 -0.001478 0.010503 0.000000 0.001443 0.000000
# 4 0.000000 0.000000 0.000000 0.026942 0.000000 0.004655
# 5 0.004421 -0.006120 0.001443 0.000000 0.033201 0.000000
# 6 0.000000 0.000000 0.000000 0.004655 0.000000 0.027283
#
#
# Mechanical properties :
#
#
# Convention : Reuss Voigt Hill
#
# Bulk Modulus (GPa) = 67.48363 68.35015 67.91689
# Shear Modulus (GPa) = 33.08495 35.78845 34.43670
#
# Velocity S-wave (km/s) = 3.95882 4.11739 4.03888
# Velocity P-wave (km/s) = 7.27070 7.41492 7.34316
#
# Compressibility (1/GPa) = 0.01481841
#
# Stress axis : x y z
#
# Youngs Moduli (GPa) = 74.80286 77.41208 95.20829
#
# Poissons Ratio (x) = 0.39931 0.41412
# Poissons Ratio (y) = 0.38586 0.14068
# Poissons Ratio (z) = 0.32537 0.11439
#
# Static dielectric constant tensor:
#      x y z
#    x 3.924190 0.000000 -0.242960 
#    y 0.000000 4.041850 0.000000 
#    z -0.242960 0.000000 4.057760 
# 
# 
# High freq. dielectric constant tensor:
#      x y z
#    x 1.834620 0.000000 -0.014930 
#    y 0.000000 1.835230 0.000000 
#    z -0.014930 0.000000 1.839850 
# 
# From -- ./inp_files/3998.got.cif
#   From: 2010.03.12/outbox.cif.g09.slc.cpg/sg5_2_cif.got.tgz:3998.got - 2010.03.31 09:47:26.
